data_PCOD9311586
_publ_section_title
;
Structure prediction by ZEFSAII (Michael W. Deem and Ramdas Pophale) SiO2 
 PCOD9311586
Probable space group: P 2 2 21
;
_chemical_formula_sum "Si O2"
_cell_formula_units_Z 16
_cell_length_a 10.164148
_cell_length_b 7.213637
_cell_length_c 9.388756
_cell_angle_alpha 90.000000
_cell_angle_beta 90.000000
_cell_angle_gamma 90.000000
_cell_volume 688.388041
_symmetry_space_group_name_H-M "P 2 2 21"
_symmetry_group_IT_number 17
_symmetry_cell_setting 'orthorhombic'
loop_
_space_group_symop_operation_xyz
x,y,z
-x,-y,1/2+z
x,-y,-z
-x,y,1/2-z
loop_
_atom_site_type_symbol
_atom_site_label
_atom_site_fract_x
_atom_site_fract_y
_atom_site_fract_z
Si Si1 0.750287 0.035867 0.339078
Si Si2 0.043577 0.352478 0.098740
Si Si3 0.202437 0.194756 0.581694
Si Si4 0.587439 0.500000 0.000000
Si Si5 0.500000 0.256194 0.250000
O O1 0.867602 0.181298 0.356187
O O2 0.628826 0.129267 0.257250
O O3 0.704695 0.000000 0.500000
O O4 0.805630 0.865052 0.246976
O O5 0.000000 0.437685 0.250000
O O6 0.117093 0.500000 0.000000
O O7 0.922750 0.281359 0.000823
O O8 0.317796 0.344907 0.568912
O O9 0.227654 0.000000 0.500000
O O10 0.503307 0.390005 0.114616
#
# Coordination Sequence:
#
# PCOD9311586 Si02
#       5
#     4   4   4   2   2
#     4  12  31  48  81 115 160 212 265 327 397 481
#     4  12  27  48  79 118 160 208 262 332 404 477
#     4  12  25  54  78 112 160 203 258 334 408 452
#     4  12  28  50  84 110 158 210 264 336 396 472
#     4  12  30  52  76 116 154 214 270 316 394 480
#
# _framework density 23.242702999999999
#
# number of rings (size 3 to 8) (size 9 to 14) (size 15 to 20)
#    0.000    0.000    6.250    0.750   12.250    0.000 
#    0.000    0.000    0.000    0.000    0.000    0.000 
#    0.000    0.000    0.000    0.000    0.000    0.000 
#
# Total GULP energy -89595.513651 kJ/mol
# GULP energy per Si atom -5599.719603 kJ/mol
# Density = 2.318980 g / cm^3
# Si number density = 23.242703 Si / 1000 Ang^3
#
#
#
# Elastic Constant Matrix: (Units=GPa)
#
#
# Indices 1 2 3 4 5 6 
#
# 1 72.1899 8.5052 20.4851 0.0000 0.0000 0.0000
# 2 8.5052 78.4842 38.7287 0.0000 0.0000 0.0000
# 3 20.4851 38.7287 152.1652 0.0000 0.0000 0.0000
# 4 0.0000 0.0000 0.0000 67.5832 0.0000 0.0000
# 5 0.0000 0.0000 0.0000 0.0000 27.5405 0.0000
# 6 0.0000 0.0000 0.0000 0.0000 0.0000 15.3941
#
#
#
# Elastic Compliance Matrix: (Units=1/GPa)
#
#
# Indices 1 2 3 4 5 6 
#
# 1 0.014435 -0.000692 -0.001767 0.000000 0.000000 0.000000
# 2 -0.000692 0.014605 -0.003624 0.000000 0.000000 0.000000
# 3 -0.001767 -0.003624 0.007732 0.000000 0.000000 0.000000
# 4 0.000000 0.000000 0.000000 0.014797 0.000000 0.000000
# 5 0.000000 0.000000 0.000000 0.000000 0.036310 0.000000
# 6 0.000000 0.000000 0.000000 0.000000 0.000000 0.064960
#
#
# Mechanical properties :
#
#
# Convention : Reuss Voigt Hill
#
# Bulk Modulus (GPa) = 40.64160 48.69747 44.66954
# Shear Modulus (GPa) = 28.86711 37.77825 33.32268
#
# Velocity S-wave (km/s) = 3.52801 4.03598 3.79051
# Velocity P-wave (km/s) = 5.84119 6.53575 6.19820
#
# Compressibility (1/GPa) = 0.02460533
#
# Stress axis : x y z
#
# Youngs Moduli (GPa) = 69.27428 68.47104 129.33163
#
# Poissons Ratio (x) = 0.04740 0.22855
# Poissons Ratio (y) = 0.04796 0.46869
# Poissons Ratio (z) = 0.12242 0.24814
#
# Static dielectric constant tensor:
#      x y z
#    x 1.836700 0.000000 0.000000 
#    y 0.000000 1.846360 0.000000 
#    z 0.000000 0.000000 1.963140 
# 
# From -- ./inp_files/3716.got.cif
#   From: 2010.05.17/outbox.cif.g08.bks.cpg/sg17_2_cif.got.tgz:3716.got - 2010.06.03 22:34:06.
