data_PCOD9311099
_publ_section_title
;
Structure prediction by ZEFSAII (Michael W. Deem and Ramdas Pophale) SiO2 
 PCOD9311099
Probable space group: P 2 2 21
;
_chemical_formula_sum "Si O2"
_cell_formula_units_Z 20
_cell_length_a 12.526192
_cell_length_b 8.475282
_cell_length_c 8.936396
_cell_angle_alpha 90.000000
_cell_angle_beta 90.000000
_cell_angle_gamma 90.000000
_cell_volume 948.714694
_symmetry_space_group_name_H-M "P 2 2 21"
_symmetry_group_IT_number 17
_symmetry_cell_setting 'orthorhombic'
loop_
_space_group_symop_operation_xyz
x,y,z
-x,-y,1/2+z
x,-y,-z
-x,y,1/2-z
loop_
_atom_site_type_symbol
_atom_site_label
_atom_site_fract_x
_atom_site_fract_y
_atom_site_fract_z
Si Si1 0.519250 0.685536 0.015339
Si Si2 0.683387 0.109863 0.149063
Si Si3 0.341594 0.793125 0.203833
Si Si4 0.894714 0.206539 0.660878
Si Si5 0.111202 0.177158 0.183415
O O1 0.400864 0.748722 0.050991
O O2 0.590630 0.721231 0.161611
O O3 0.513644 0.500000 0.000000
O O4 0.584953 0.777162 0.888606
O O5 0.787159 0.202512 0.208909
O O6 0.654430 0.981262 0.274276
O O7 0.706917 0.000000 0.000000
O O8 0.219602 0.740634 0.223163
O O9 0.886200 0.241514 0.484778
O O10 0.000000 0.262046 0.750000
O O11 0.895233 0.014831 0.673097
O O12 0.000000 0.234246 0.250000
#
# Coordination Sequence:
#
# PCOD9311099 Si02
#       5
#     4   4   4   4   4
#     4  10  21  41  61  85 123 169 205 262 316 382
#     4   9  19  37  60  90 124 162 205 268 316 380
#     4   9  20  41  57  90 120 157 213 251 320 382
#     4   9  18  33  57  85 126 156 189 265 317 372
#     4   9  18  29  54  93 121 152 204 250 320 375
#
# _framework density 21.081154000000002
#
# number of rings (size 3 to 8) (size 9 to 14) (size 15 to 20)
#    0.000    2.800    0.000    0.000   11.200    0.000 
#   46.800    0.000    0.000    2.400    0.000    0.000 
#    0.000    0.000    0.000    0.000    0.000    0.000 
#
# Total GULP energy -111536.134093 kJ/mol
# GULP energy per Si atom -5576.806705 kJ/mol
# Density = 2.103317 g / cm^3
# Si number density = 21.081154 Si / 1000 Ang^3
#
#
#
# Elastic Constant Matrix: (Units=GPa)
#
#
# Indices 1 2 3 4 5 6 
#
# 1 186.0211 48.0985 59.7633 0.0000 0.0000 0.0000
# 2 48.0985 49.8246 19.3627 0.0000 0.0000 0.0000
# 3 59.7633 19.3627 57.7069 0.0000 0.0000 0.0000
# 4 0.0000 0.0000 0.0000 -0.7089 0.0000 0.0000
# 5 0.0000 0.0000 0.0000 0.0000 44.7945 0.0000
# 6 0.0000 0.0000 0.0000 0.0000 0.0000 -60.7286
#
#
#
# Elastic Compliance Matrix: (Units=1/GPa)
#
#
# Indices 1 2 3 4 5 6 
#
# 1 0.009436 -0.006108 -0.007723 0.000000 0.000000 0.000000
# 2 -0.006108 0.027034 -0.002745 0.000000 0.000000 0.000000
# 3 -0.007723 -0.002745 0.026248 0.000000 0.000000 0.000000
# 4 0.000000 0.000000 0.000000 -1.410598 0.000000 0.000000
# 5 0.000000 0.000000 0.000000 0.000000 0.022324 0.000000
# 6 0.000000 0.000000 0.000000 0.000000 0.000000 -0.016467
#
#
# Mechanical properties :
#
#
# Convention : Reuss Voigt Hill
#
# Bulk Modulus (GPa) = 33.82274 60.88906 47.35590
# Shear Modulus (GPa) = -3.84907 7.75991 1.95542
#
# Velocity S-wave (km/s) = -1.35270 1.92067 0.96415
# Velocity P-wave (km/s) = 3.69312 5.81932 4.87358
#
# Compressibility (1/GPa) = 0.02956591
#
# Stress axis : x y z
#
# Youngs Moduli (GPa) = 105.97414 36.99093 38.09773
#
# Poissons Ratio (x) = 0.22594 0.29423
# Poissons Ratio (y) = 0.64730 0.10458
# Poissons Ratio (z) = 0.81844 0.10154
#
# Static dielectric constant tensor:
#      x y z
#    x 1.800910 0.000000 0.000000 
#    y 0.000000 1.745150 0.000000 
#    z 0.000000 0.000000 1.844750 
# 
# From -- ./inp_files/4635.got.cif
#   From: 2010.05.17/outbox.cif.g08.bks.cpg/sg17_3_cif.got.tgz:4635.got - 2010.06.03 22:34:06.
