data_PCOD9311903
_publ_section_title
;
Structure prediction by ZEFSAII (Michael W. Deem and Ramdas Pophale) SiO2 
 PCOD9311903
Probable space group: P 21 21 2
;
_chemical_formula_sum "Si O2"
_cell_formula_units_Z 32
_cell_length_a 17.038293
_cell_length_b 12.047465
_cell_length_c 8.516203
_cell_angle_alpha 90.000000
_cell_angle_beta 90.000000
_cell_angle_gamma 90.000000
_cell_volume 1748.105989
_symmetry_space_group_name_H-M "P 21 21 2"
_symmetry_group_IT_number 18
_symmetry_cell_setting 'orthorhombic'
loop_
_space_group_symop_operation_xyz
x,y,z
-x,-y,z
1/2+x,1/2-y,-z
1/2-x,1/2+y,-z
loop_
_atom_site_type_symbol
_atom_site_label
_atom_site_fract_x
_atom_site_fract_y
_atom_site_fract_z
Si Si1 0.848062 0.535034 0.310082
Si Si2 0.183154 0.628958 0.575146
Si Si3 0.314538 0.456043 0.112172
Si Si4 0.326877 0.765557 0.454359
Si Si5 0.558839 0.395196 0.277002
Si Si6 0.581078 0.755800 0.170076
Si Si7 0.275998 0.937060 0.200926
Si Si8 0.417806 0.029403 0.001162
O O1 0.849114 0.427468 0.419354
O O2 0.763801 0.535689 0.219149
O O3 0.858355 0.640802 0.424419
O O4 0.910571 0.519171 0.172476
O O5 0.248543 0.718222 0.533673
O O6 0.112310 0.674336 0.680956
O O7 0.229470 0.532436 0.668650
O O8 0.375827 0.552622 0.159823
O O9 0.357308 0.342478 0.153118
O O10 0.292131 0.447093 0.928361
O O11 0.390234 0.669990 0.409900
O O12 0.296211 0.824940 0.294160
O O13 0.500000 0.500000 0.322101
O O14 0.502684 0.302096 0.198662
O O15 0.588479 0.838407 0.022157
O O16 0.351621 0.969617 0.100338
O O17 0.500000 0.000000 0.076320
#
# Coordination Sequence:
#
# PCOD9311903 Si02
#       8
#     4   4   4   4   4   4   4   4
#     4  10  21  36  60  89 116 148 201 254 287 349
#     4  10  20  36  58  88 116 148 202 246 290 365
#     4  10  19  38  57  90 115 147 203 242 293 355
#     4  11  20  37  62  87 117 160 192 250 306 350
#     4  10  22  37  62  88 123 162 199 242 304 376
#     4  10  21  37  60  83 115 163 192 241 302 362
#     4   9  22  34  59  87 111 151 199 247 289 353
#     4  10  21  39  54  83 118 150 198 245 286 350
#
# _framework density 18.305524999999999
#
# number of rings (size 3 to 8) (size 9 to 14) (size 15 to 20)
#    0.000    2.000    2.500    0.750    1.750    2.000 
#    2.250    1.250    2.750    0.000    0.000    0.000 
#    0.000    0.000    0.000    0.000    0.000    0.000 
#
# Total GULP energy -178210.894729 kJ/mol
# GULP energy per Si atom -5569.090460 kJ/mol
# Density = 1.826386 g / cm^3
# Si number density = 18.305525 Si / 1000 Ang^3
#
#
#
# Elastic Constant Matrix: (Units=GPa)
#
#
# Indices 1 2 3 4 5 6 
#
# 1 70.7026 21.3616 12.0486 0.0000 0.0000 0.0000
# 2 21.3616 69.3564 25.3574 0.0000 0.0000 0.0000
# 3 12.0486 25.3574 66.4157 0.0000 0.0000 0.0000
# 4 0.0000 0.0000 0.0000 23.4769 0.0000 0.0000
# 5 0.0000 0.0000 0.0000 0.0000 -142.0311 0.0000
# 6 0.0000 0.0000 0.0000 0.0000 0.0000 23.2336
#
#
#
# Elastic Compliance Matrix: (Units=1/GPa)
#
#
# Indices 1 2 3 4 5 6 
#
# 1 0.015672 -0.004402 -0.001162 0.000000 0.000000 0.000000
# 2 -0.004402 0.017994 -0.006071 0.000000 0.000000 0.000000
# 3 -0.001162 -0.006071 0.017586 0.000000 0.000000 0.000000
# 4 0.000000 0.000000 0.000000 0.042595 0.000000 0.000000
# 5 0.000000 0.000000 0.000000 0.000000 -0.007041 0.000000
# 6 0.000000 0.000000 0.000000 0.000000 0.000000 0.043041
#
#
# Mechanical properties :
#
#
# Convention : Reuss Voigt Hill
#
# Bulk Modulus (GPa) = 35.74016 36.00111 35.87063
# Shear Modulus (GPa) = 30.77969 -9.21698 10.78135
#
# Velocity S-wave (km/s) = 4.10499 -2.24633 2.42950
# Velocity P-wave (km/s) = 6.48340 3.60298 5.24481
#
# Compressibility (1/GPa) = 0.02797973
#
# Stress axis : x y z
#
# Youngs Moduli (GPa) = 63.80890 55.57458 56.86453
#
# Poissons Ratio (x) = 0.24463 0.06610
# Poissons Ratio (y) = 0.28088 0.34525
# Poissons Ratio (z) = 0.07417 0.33742
#
# Static dielectric constant tensor:
#      x y z
#    x 1.562060 0.000000 0.000000 
#    y 0.000000 1.747230 0.000000 
#    z 0.000000 0.000000 1.640580 
# 
# From -- ./inp_files/4027.got.cif
#   From: 2010.05.17/outbox.cif.g08.bks.cpg/sg18_3_cif.got.tgz:4027.got - 2010.06.03 22:40:56.
