data_PCOD9311507
_publ_section_title
;
Structure prediction by ZEFSAII (Michael W. Deem and Ramdas Pophale) SiO2 
 PCOD9311507
Probable space group: P 2 2 21
;
_chemical_formula_sum "Si O2"
_cell_formula_units_Z 16
_cell_length_a 6.802527
_cell_length_b 7.346175
_cell_length_c 13.501801
_cell_angle_alpha 90.000000
_cell_angle_beta 90.000000
_cell_angle_gamma 90.000000
_cell_volume 674.719477
_symmetry_space_group_name_H-M "P 2 2 21"
_symmetry_group_IT_number 17
_symmetry_cell_setting 'orthorhombic'
loop_
_space_group_symop_operation_xyz
x,y,z
-x,-y,1/2+z
x,-y,-z
-x,y,1/2-z
loop_
_atom_site_type_symbol
_atom_site_label
_atom_site_fract_x
_atom_site_fract_y
_atom_site_fract_z
Si Si1 0.589044 0.844240 0.855567
Si Si2 0.064401 0.117611 0.615531
Si Si3 0.167537 0.203041 0.088630
Si Si4 0.132146 0.487105 0.381581
O O1 0.500000 0.897416 0.750000
O O2 0.399349 0.806395 0.923541
O O3 0.710790 0.657719 0.842387
O O4 0.738695 0.997439 0.892923
O O5 0.127241 0.309984 0.660859
O O6 0.951421 0.179927 0.514478
O O7 0.905547 0.969677 0.654048
O O8 0.080565 0.390269 0.130527
O O9 0.176482 0.500000 0.500000
#
# Coordination Sequence:
#
# PCOD9311507 Si02
#       4
#     4   4   4   4
#     4  11  24  40  61  93 130 162 204 267 323 362
#     4   9  20  38  61  90 119 160 212 250 302 382
#     4   9  20  38  60  84 119 161 204 258 309 369
#     4   9  20  38  60  89 120 157 211 256 303 379
#
# _framework density 23.713559
#
# number of rings (size 3 to 8) (size 9 to 14) (size 15 to 20)
#    0.000    2.500    0.000    1.500    0.000   22.000 
#    0.000    2.500    0.000    0.000    0.000    0.000 
#    0.000    0.000    0.000    0.000    0.000    0.000 
#
# Total GULP energy -89252.887408 kJ/mol
# GULP energy per Si atom -5578.305463 kJ/mol
# Density = 2.365959 g / cm^3
# Si number density = 23.713559 Si / 1000 Ang^3
#
#
#
# Elastic Constant Matrix: (Units=GPa)
#
#
# Indices 1 2 3 4 5 6 
#
# 1 207.5760 73.1772 26.2217 0.0000 0.0000 0.0000
# 2 73.1772 188.5447 -17.5520 0.0000 0.0000 0.0000
# 3 26.2217 -17.5520 78.2772 0.0000 0.0000 0.0000
# 4 0.0000 0.0000 0.0000 10.3417 0.0000 0.0000
# 5 0.0000 0.0000 0.0000 0.0000 34.4412 0.0000
# 6 0.0000 0.0000 0.0000 0.0000 0.0000 -8.7203
#
#
#
# Elastic Compliance Matrix: (Units=1/GPa)
#
#
# Indices 1 2 3 4 5 6 
#
# 1 0.006063 -0.002596 -0.002613 0.000000 0.000000 0.000000
# 2 -0.002596 0.006529 0.002334 0.000000 0.000000 0.000000
# 3 -0.002613 0.002334 0.014174 0.000000 0.000000 0.000000
# 4 0.000000 0.000000 0.000000 0.096696 0.000000 0.000000
# 5 0.000000 0.000000 0.000000 0.000000 0.029035 0.000000
# 6 0.000000 0.000000 0.000000 0.000000 0.000000 -0.114675
#
#
# Mechanical properties :
#
#
# Convention : Reuss Voigt Hill
#
# Bulk Modulus (GPa) = 47.58811 70.89909 59.24360
# Shear Modulus (GPa) = 98.85760 33.38259 66.12009
#
# Velocity S-wave (km/s) = 6.46365 3.75606 5.28615
# Velocity P-wave (km/s) = 8.70726 6.98382 7.89272
#
# Compressibility (1/GPa) = 0.02101365
#
# Stress axis : x y z
#
# Youngs Moduli (GPa) = 164.93690 153.16929 70.55289
#
# Poissons Ratio (x) = 0.39769 0.18437
# Poissons Ratio (y) = 0.42824 -0.16465
# Poissons Ratio (z) = 0.43101 -0.35745
#
# Static dielectric constant tensor:
#      x y z
#    x 1.848580 0.000000 0.000000 
#    y 0.000000 1.953430 0.000000 
#    z 0.000000 0.000000 2.144900 
# 
# From -- ./inp_files/9850.got.cif
#   From: 2010.05.17/outbox.cif.g08.bks.cpg/sg17_5_cif.got.tgz:9850.got - 2010.06.03 22:34:06.
