data_PCOD9311872
_publ_section_title
;
Structure prediction by ZEFSAII (Michael W. Deem and Ramdas Pophale) SiO2 
 PCOD9311872
Probable space group: P 21 21 2
;
_chemical_formula_sum "Si O2"
_cell_formula_units_Z 32
_cell_length_a 5.452889
_cell_length_b 15.101005
_cell_length_c 17.672700
_cell_angle_alpha 90.000000
_cell_angle_beta 90.000000
_cell_angle_gamma 90.000000
_cell_volume 1455.242648
_symmetry_space_group_name_H-M "P 21 21 2"
_symmetry_group_IT_number 18
_symmetry_cell_setting 'orthorhombic'
loop_
_space_group_symop_operation_xyz
x,y,z
-x,-y,z
1/2+x,1/2-y,-z
1/2-x,1/2+y,-z
loop_
_atom_site_type_symbol
_atom_site_label
_atom_site_fract_x
_atom_site_fract_y
_atom_site_fract_z
Si Si1 0.244341 0.046001 0.650360
Si Si2 0.527040 0.099576 0.239198
Si Si3 0.841884 0.087755 0.093855
Si Si4 0.149970 0.741087 0.307582
Si Si5 0.755684 0.024692 0.478784
Si Si6 0.548414 0.716669 0.527984
Si Si7 0.837567 0.770281 0.176918
Si Si8 0.879749 0.206830 0.970421
O O1 0.218999 0.149921 0.668480
O O2 0.500000 0.000000 0.676326
O O3 0.244841 0.026032 0.559476
O O4 0.000000 0.000000 0.681042
O O5 0.617897 0.086444 0.151928
O O6 0.697894 0.171272 0.282204
O O7 0.279446 0.153815 0.229491
O O8 0.500000 0.000000 0.269794
O O9 0.984834 0.173796 0.123554
O O10 0.811961 0.110845 0.005612
O O11 0.000000 0.000000 0.104076
O O12 0.009569 0.770400 0.382880
O O13 0.986688 0.712869 0.236025
O O14 0.801232 0.127658 0.492401
O O15 0.500000 0.000000 0.441857
O O16 0.000000 0.000000 0.433224
O O17 0.271793 0.716677 0.495269
O O18 0.658379 0.719832 0.119570
O O19 0.660763 0.265777 0.009932
#
# Coordination Sequence:
#
# PCOD9311872 Si02
#       8
#     4   4   4   4   4   4   4   4
#     4  10  21  41  68  93 123 176 231 275 343 423
#     4  11  22  41  66  99 144 188 235 286 362 438
#     4  10  19  36  64 102 130 188 235 284 342 423
#     4  11  27  41  69 104 138 188 234 298 367 441
#     4  10  20  39  63  91 125 164 214 282 344 405
#     4  12  25  44  69 101 132 171 239 300 358 428
#     4  10  22  40  65  94 144 181 237 280 357 421
#     4  10  20  37  64  99 130 178 229 282 333 407
#
# _framework density 21.989459
#
# number of rings (size 3 to 8) (size 9 to 14) (size 15 to 20)
#    0.000    1.500    2.500    3.750    3.500    0.500 
#    2.250    0.000    2.750    0.000    0.000    0.000 
#    0.000    0.000    0.000    0.000    0.000    0.000 
#
# Total GULP energy -178161.420888 kJ/mol
# GULP energy per Si atom -5567.544403 kJ/mol
# Density = 2.193941 g / cm^3
# Si number density = 21.989459 Si / 1000 Ang^3
#
#
#
# Elastic Constant Matrix: (Units=GPa)
#
#
# Indices 1 2 3 4 5 6 
#
# 1 89.0878 -10.5285 2.3618 0.0000 0.0000 0.0000
# 2 -10.5285 75.0565 20.7033 0.0000 0.0000 0.0000
# 3 2.3618 20.7033 76.4287 0.0000 0.0000 0.0000
# 4 0.0000 0.0000 0.0000 39.1009 0.0000 0.0000
# 5 0.0000 0.0000 0.0000 0.0000 11.1808 0.0000
# 6 0.0000 0.0000 0.0000 0.0000 0.0000 33.3213
#
#
#
# Elastic Compliance Matrix: (Units=1/GPa)
#
#
# Indices 1 2 3 4 5 6 
#
# 1 0.011465 0.001844 -0.000854 0.000000 0.000000 0.000000
# 2 0.001844 0.014696 -0.004038 0.000000 0.000000 0.000000
# 3 -0.000854 -0.004038 0.014204 0.000000 0.000000 0.000000
# 4 0.000000 0.000000 0.000000 0.025575 0.000000 0.000000
# 5 0.000000 0.000000 0.000000 0.000000 0.089439 0.000000
# 6 0.000000 0.000000 0.000000 0.000000 0.000000 0.030011
#
#
# Mechanical properties :
#
#
# Convention : Reuss Voigt Hill
#
# Bulk Modulus (GPa) = 29.18016 29.51624 29.34820
# Shear Modulus (GPa) = 24.64162 31.92303 28.28233
#
# Velocity S-wave (km/s) = 3.35118 3.81431 3.59022
# Velocity P-wave (km/s) = 5.31722 5.73155 5.52826
#
# Compressibility (1/GPa) = 0.03426985
#
# Stress axis : x y z
#
# Youngs Moduli (GPa) = 87.21874 68.04708 70.40149
#
# Poissons Ratio (x) = -0.12547 0.06011
# Poissons Ratio (y) = -0.16081 0.28427
# Poissons Ratio (z) = 0.07446 0.27476
#
# Static dielectric constant tensor:
#      x y z
#    x 1.924490 0.000000 0.000000 
#    y 0.000000 1.868940 0.000000 
#    z 0.000000 0.000000 1.898410 
# 
# From -- ./inp_files/7200.got.cif
#   From: 2010.05.17/outbox.cif.g08.bks.cpg/sg18_4_cif.got.tgz:7200.got - 2010.06.03 22:40:56.
