data_PCOD9311298
_publ_section_title
;
Structure prediction by ZEFSAII (Michael W. Deem and Ramdas Pophale) SiO2 
 PCOD9311298
Probable space group: P 2 2 21
;
_chemical_formula_sum "Si O2"
_cell_formula_units_Z 32
_cell_length_a 5.547424
_cell_length_b 9.546270
_cell_length_c 28.983042
_cell_angle_alpha 90.000000
_cell_angle_beta 90.000000
_cell_angle_gamma 90.000000
_cell_volume 1534.860964
_symmetry_space_group_name_H-M "P 2 2 21"
_symmetry_group_IT_number 17
_symmetry_cell_setting 'orthorhombic'
loop_
_space_group_symop_operation_xyz
x,y,z
-x,-y,1/2+z
x,-y,-z
-x,y,1/2-z
loop_
_atom_site_type_symbol
_atom_site_label
_atom_site_fract_x
_atom_site_fract_y
_atom_site_fract_z
Si Si1 0.488691 0.070125 0.697339
Si Si2 0.010503 0.899894 0.804707
Si Si3 0.971972 0.235852 0.943129
Si Si4 0.874828 0.747017 0.898126
Si Si5 0.393825 0.003187 0.551583
Si Si6 0.645867 0.232179 0.616899
Si Si7 0.385834 0.485864 0.575992
Si Si8 0.224891 0.358099 0.021920
O O1 0.500000 0.111472 0.750000
O O2 0.534466 0.203271 0.665812
O O3 0.228178 0.998341 0.689902
O O4 0.725049 0.970815 0.689275
O O5 0.976269 0.798599 0.849069
O O6 0.000000 0.851560 0.750000
O O7 0.069743 0.221726 0.891328
O O8 0.843635 0.095399 0.957085
O O9 0.788688 0.365727 0.943985
O O10 0.193993 0.260499 0.977781
O O11 0.747530 0.596674 0.891925
O O12 0.081190 0.711880 0.936193
O O13 0.694451 0.861303 0.922575
O O14 0.541865 0.100808 0.586976
O O15 0.505754 0.000000 0.500000
O O16 0.581148 0.388590 0.600828
O O17 0.518766 0.587912 0.539639
O O18 0.115042 0.500000 0.000000
#
# Coordination Sequence:
#
# PCOD9311298 Si02
#       8
#     4   4   4   4   4   4   4   4
#     4  10  22  44  75 103 131 175 227 285 350 413
#     4  10  23  45  72 103 134 170 223 288 351 412
#     4  11  24  42  59  87 133 177 224 275 325 395
#     4  12  24  41  66  98 134 174 224 276 348 411
#     4  11  24  37  59  97 134 167 214 276 331 400
#     4  11  23  41  64  92 130 174 220 278 332 402
#     4  11  26  39  63  88 133 179 229 270 330 404
#     4  12  24  39  61  90 128 188 226 262 328 408
#
# _framework density 20.848794999999999
#
# number of rings (size 3 to 8) (size 9 to 14) (size 15 to 20)
#    0.000    1.000    5.000    0.750    7.000    1.500 
#    0.000    0.000    5.500    0.000    0.000    0.000 
#    0.000    0.000    0.000    0.000    0.000    0.000 
#
# Total GULP energy -178307.784442 kJ/mol
# GULP energy per Si atom -5572.118264 kJ/mol
# Density = 2.080134 g / cm^3
# Si number density = 20.848795 Si / 1000 Ang^3
#
#
#
# Elastic Constant Matrix: (Units=GPa)
#
#
# Indices 1 2 3 4 5 6 
#
# 1 64.2134 24.4619 13.7677 0.0000 0.0000 0.0000
# 2 24.4619 96.8487 22.0295 0.0000 0.0000 0.0000
# 3 13.7677 22.0295 75.1124 0.0000 0.0000 0.0000
# 4 0.0000 0.0000 0.0000 24.5699 0.0000 0.0000
# 5 0.0000 0.0000 0.0000 0.0000 26.2341 0.0000
# 6 0.0000 0.0000 0.0000 0.0000 0.0000 43.2311
#
#
#
# Elastic Compliance Matrix: (Units=1/GPa)
#
#
# Indices 1 2 3 4 5 6 
#
# 1 0.017521 -0.003959 -0.002050 0.000000 0.000000 0.000000
# 2 -0.003959 0.011958 -0.002781 0.000000 0.000000 0.000000
# 3 -0.002050 -0.002781 0.014505 0.000000 0.000000 0.000000
# 4 0.000000 0.000000 0.000000 0.040700 0.000000 0.000000
# 5 0.000000 0.000000 0.000000 0.000000 0.038118 0.000000
# 6 0.000000 0.000000 0.000000 0.000000 0.000000 0.023131
#
#
# Mechanical properties :
#
#
# Convention : Reuss Voigt Hill
#
# Bulk Modulus (GPa) = 37.87565 39.63251 38.75408
# Shear Modulus (GPa) = 29.01641 30.53471 29.77556
#
# Velocity S-wave (km/s) = 3.73467 3.83113 3.78321
# Velocity P-wave (km/s) = 6.06657 6.21457 6.14102
#
# Compressibility (1/GPa) = 0.02640219
#
# Stress axis : x y z
#
# Youngs Moduli (GPa) = 57.07490 83.62588 68.94189
#
# Poissons Ratio (x) = 0.33108 0.14136
# Poissons Ratio (y) = 0.22596 0.19176
# Poissons Ratio (z) = 0.11702 0.23260
#
# Static dielectric constant tensor:
#      x y z
#    x 1.845590 0.000000 0.000000 
#    y 0.000000 1.707840 0.000000 
#    z 0.000000 0.000000 1.777660 
# 
# From -- ./inp_files/11176.got.cif
#   From: 2010.05.17/outbox.cif.g08.bks.cpg/sg17_6_cif.got.tgz:11176.got - 2010.06.03 22:34:06.
