data_PCOD9311524
_publ_section_title
;
Structure prediction by ZEFSAII (Michael W. Deem and Ramdas Pophale) SiO2 
 PCOD9311524
Probable space group: P 2 2 21
;
_chemical_formula_sum "Si O2"
_cell_formula_units_Z 14
_cell_length_a 7.607112
_cell_length_b 15.615650
_cell_length_c 5.036684
_cell_angle_alpha 90.000000
_cell_angle_beta 90.000000
_cell_angle_gamma 90.000000
_cell_volume 598.307685
_symmetry_space_group_name_H-M "P 2 2 21"
_symmetry_group_IT_number 17
_symmetry_cell_setting 'orthorhombic'
loop_
_space_group_symop_operation_xyz
x,y,z
-x,-y,1/2+z
x,-y,-z
-x,y,1/2-z
loop_
_atom_site_type_symbol
_atom_site_label
_atom_site_fract_x
_atom_site_fract_y
_atom_site_fract_z
Si Si1 0.678325 0.500000 0.500000
Si Si2 0.661347 0.791201 0.460991
Si Si3 0.500000 0.647286 0.750000
Si Si4 0.000000 0.289171 0.750000
Si Si5 0.500000 0.055971 0.250000
Si Si6 0.000000 0.413889 0.250000
O O1 0.545206 0.580306 0.516332
O O2 0.823667 0.528909 0.718039
O O3 0.500000 0.783507 0.250000
O O4 0.650014 0.717263 0.687113
O O5 0.641613 0.880480 0.614538
O O6 0.834661 0.771307 0.300050
O O7 0.019402 0.353122 0.503138
O O8 0.434162 0.000000 0.500000
#
# Coordination Sequence:
#
# PCOD9311524 Si02
#       6
#     2   4   2   2   2   2
#     4  12  26  44  70 100 158 206 274 326 376 436
#     4  11  25  49  80 112 159 200 255 316 398 461
#     4  11  26  42  65 112 146 210 259 320 378 449
#     4  12  27  50  80 113 154 206 266 319 396 458
#     4  11  24  48  85 118 154 200 243 312 396 479
#     4  12  27  48  70 103 152 210 268 333 374 430
#
# _framework density 23.399332000000001
#
# number of rings (size 3 to 8) (size 9 to 14) (size 15 to 20)
#    0.000    0.571    4.286    2.571    6.000    3.429 
#    0.000    0.000    6.286    0.000    0.000    0.000 
#    0.000    0.000    0.000    0.000    0.000    0.000 
#
# Total GULP energy -78026.777771 kJ/mol
# GULP energy per Si atom -5573.341269 kJ/mol
# Density = 2.334607 g / cm^3
# Si number density = 23.399332 Si / 1000 Ang^3
#
#
#
# Elastic Constant Matrix: (Units=GPa)
#
#
# Indices 1 2 3 4 5 6 
#
# 1 169.1263 52.6431 80.5136 0.0000 0.0000 0.0000
# 2 52.6431 169.4359 81.3624 0.0000 0.0000 0.0000
# 3 80.5136 81.3624 192.8584 0.0000 0.0000 0.0000
# 4 0.0000 0.0000 0.0000 52.6354 0.0000 0.0000
# 5 0.0000 0.0000 0.0000 0.0000 32.1833 0.0000
# 6 0.0000 0.0000 0.0000 0.0000 0.0000 8.9917
#
#
#
# Elastic Compliance Matrix: (Units=1/GPa)
#
#
# Indices 1 2 3 4 5 6 
#
# 1 0.007523 -0.001040 -0.002702 0.000000 0.000000 0.000000
# 2 -0.001040 0.007545 -0.002749 0.000000 0.000000 0.000000
# 3 -0.002702 -0.002749 0.007473 0.000000 0.000000 0.000000
# 4 0.000000 0.000000 0.000000 0.018999 0.000000 0.000000
# 5 0.000000 0.000000 0.000000 0.000000 0.031072 0.000000
# 6 0.000000 0.000000 0.000000 0.000000 0.000000 0.111214
#
#
# Mechanical properties :
#
#
# Convention : Reuss Voigt Hill
#
# Bulk Modulus (GPa) = 104.61102 106.71764 105.66433
# Shear Modulus (GPa) = 25.00094 39.88886 32.44490
#
# Velocity S-wave (km/s) = 3.27226 4.13328 3.72771
# Velocity P-wave (km/s) = 7.68640 8.27556 7.98641
#
# Compressibility (1/GPa) = 0.00955922
#
# Stress axis : x y z
#
# Youngs Moduli (GPa) = 132.93228 132.53711 133.81825
#
# Poissons Ratio (x) = 0.13782 0.36155
# Poissons Ratio (y) = 0.13823 0.36786
# Poissons Ratio (z) = 0.35916 0.36434
#
# Static dielectric constant tensor:
#      x y z
#    x 1.953560 0.000000 0.000000 
#    y 0.000000 1.899600 0.000000 
#    z 0.000000 0.000000 1.954370 
# 
# From -- ./inp_files/684.got.cif
#   From: 2010.05.17/outbox.cif.g08.bks.cpg/sg17_1_cif.got.tgz:684.got - 2010.06.03 22:34:06.
