data_PCOD9311929
_publ_section_title
;
Structure prediction by ZEFSAII (Michael W. Deem and Ramdas Pophale) SiO2 
 PCOD9311929
Probable space group: P 21 21 2
;
_chemical_formula_sum "Si O2"
_cell_formula_units_Z 26
_cell_length_a 14.873621
_cell_length_b 10.363550
_cell_length_c 8.867805
_cell_angle_alpha 90.000000
_cell_angle_beta 90.000000
_cell_angle_gamma 90.000000
_cell_volume 1366.914632
_symmetry_space_group_name_H-M "P 21 21 2"
_symmetry_group_IT_number 18
_symmetry_cell_setting 'orthorhombic'
loop_
_space_group_symop_operation_xyz
x,y,z
-x,-y,z
1/2+x,1/2-y,-z
1/2-x,1/2+y,-z
loop_
_atom_site_type_symbol
_atom_site_label
_atom_site_fract_x
_atom_site_fract_y
_atom_site_fract_z
Si Si1 0.243765 0.079233 0.648338
Si Si2 0.938224 0.377685 0.296689
Si Si3 0.503981 0.233676 0.424201
Si Si4 0.500000 0.500000 0.599042
Si Si5 0.415312 0.680373 0.812906
Si Si6 0.803713 0.697136 0.428917
Si Si7 0.436506 0.624933 0.158758
O O1 0.334825 0.102222 0.744384
O O2 0.242158 0.187103 0.518168
O O3 0.152898 0.095372 0.744087
O O4 0.014699 0.877296 0.508115
O O5 0.939170 0.357308 0.479389
O O6 0.000000 0.500000 0.260230
O O7 0.991473 0.257181 0.224489
O O8 0.249212 0.435863 0.420037
O O9 0.601126 0.184683 0.483318
O O10 0.511557 0.259091 0.246996
O O11 0.422679 0.549452 0.713128
O O12 0.334488 0.760544 0.738489
O O13 0.409932 0.659135 0.988972
O O14 0.500000 0.500000 0.154036
#
# Coordination Sequence:
#
# PCOD9311929 Si02
#       7
#     4   4   4   2   4   4   4
#     4  11  22  40  65  96 121 168 208 275 307 378
#     4  10  19  39  66  84 119 163 214 256 317 360
#     4   9  18  34  61  86 117 152 210 262 302 362
#     4   8  14  30  58  82 102 160 202 238 302 360
#     4  10  20  39  60  87 127 163 203 256 319 388
#     4   9  21  38  62  91 122 152 217 254 313 372
#     4  11  23  39  57  93 135 160 207 256 320 383
#
# _framework density 19.02094
#
# number of rings (size 3 to 8) (size 9 to 14) (size 15 to 20)
#    0.000    2.462    4.615    0.000    2.154    2.462 
#    2.769    2.308    0.000    0.000    0.000    0.000 
#    0.000    0.000    0.000    0.000    0.000    0.000 
#
# Total GULP energy -144773.250704 kJ/mol
# GULP energy per Si atom -5568.201950 kJ/mol
# Density = 1.897765 g / cm^3
# Si number density = 19.020940 Si / 1000 Ang^3
#
#
#
# Elastic Constant Matrix: (Units=GPa)
#
#
# Indices 1 2 3 4 5 6 
#
# 1 95.7609 30.2233 18.0855 0.0000 0.0000 0.0000
# 2 30.2233 88.9085 27.4836 0.0000 0.0000 0.0000
# 3 18.0855 27.4836 94.0867 0.0000 0.0000 0.0000
# 4 0.0000 0.0000 0.0000 16.4136 0.0000 0.0000
# 5 0.0000 0.0000 0.0000 0.0000 12.2457 0.0000
# 6 0.0000 0.0000 0.0000 0.0000 0.0000 31.5621
#
#
#
# Elastic Compliance Matrix: (Units=1/GPa)
#
#
# Indices 1 2 3 4 5 6 
#
# 1 0.011821 -0.003645 -0.001207 0.000000 0.000000 0.000000
# 2 -0.003645 0.013488 -0.003239 0.000000 0.000000 0.000000
# 3 -0.001207 -0.003239 0.011807 0.000000 0.000000 0.000000
# 4 0.000000 0.000000 0.000000 0.060925 0.000000 0.000000
# 5 0.000000 0.000000 0.000000 0.000000 0.081661 0.000000
# 6 0.000000 0.000000 0.000000 0.000000 0.000000 0.031684
#
#
# Mechanical properties :
#
#
# Convention : Reuss Voigt Hill
#
# Bulk Modulus (GPa) = 47.77361 47.81567 47.79464
# Shear Modulus (GPa) = 21.31768 25.57520 23.44644
#
# Velocity S-wave (km/s) = 3.35139 3.67083 3.51474
# Velocity P-wave (km/s) = 6.33613 6.56960 6.45392
#
# Compressibility (1/GPa) = 0.02093206
#
# Stress axis : x y z
#
# Youngs Moduli (GPa) = 84.59384 74.14000 84.69679
#
# Poissons Ratio (x) = 0.27026 0.10227
# Poissons Ratio (y) = 0.30836 0.27436
# Poissons Ratio (z) = 0.10215 0.24016
#
# Static dielectric constant tensor:
#      x y z
#    x 1.703350 0.000000 0.000000 
#    y 0.000000 1.710110 0.000000 
#    z 0.000000 0.000000 1.669990 
# 
# From -- ./inp_files/3834.got.cif
#   From: 2010.05.17/outbox.cif.g08.bks.cpg/sg18_2_cif.got.tgz:3834.got - 2010.06.03 22:40:56.
