data_PCOD9311112
_publ_section_title
;
Structure prediction by ZEFSAII (Michael W. Deem and Ramdas Pophale) SiO2 
 PCOD9311112
Probable space group: P 2 2 21
;
_chemical_formula_sum "Si O2"
_cell_formula_units_Z 32
_cell_length_a 9.127318
_cell_length_b 11.450403
_cell_length_c 14.775263
_cell_angle_alpha 90.000000
_cell_angle_beta 90.000000
_cell_angle_gamma 90.000000
_cell_volume 1544.184447
_symmetry_space_group_name_H-M "P 2 2 21"
_symmetry_group_IT_number 17
_symmetry_cell_setting 'orthorhombic'
loop_
_space_group_symop_operation_xyz
x,y,z
-x,-y,1/2+z
x,-y,-z
-x,y,1/2-z
loop_
_atom_site_type_symbol
_atom_site_label
_atom_site_fract_x
_atom_site_fract_y
_atom_site_fract_z
Si Si1 0.312937 0.756824 0.125276
Si Si2 0.079110 0.634540 0.000807
Si Si3 0.650875 0.111332 0.199401
Si Si4 0.657226 0.467241 0.744666
Si Si5 0.245795 0.689611 0.838022
Si Si6 0.486772 0.246169 0.464757
Si Si7 0.167480 0.885519 0.286464
Si Si8 0.232959 0.332422 0.582687
O O1 0.370781 0.642374 0.178178
O O2 0.265824 0.847126 0.200844
O O3 0.171073 0.708714 0.073174
O O4 0.426073 0.805332 0.051451
O O5 0.107898 0.697971 0.905036
O O6 0.134677 0.500000 0.000000
O O7 0.913006 0.631867 0.031518
O O8 0.500000 0.072723 0.250000
O O9 0.722673 0.211856 0.263401
O O10 0.596181 0.161129 0.103628
O O11 0.769394 0.010374 0.185731
O O12 0.500000 0.529206 0.750000
O O13 0.765800 0.563051 0.706389
O O14 0.719435 0.419294 0.837858
O O15 0.386725 0.691470 0.905839
O O16 0.364128 0.324838 0.511293
O O17 0.197099 0.790056 0.365133
O O18 0.000000 0.885713 0.250000
#
# Coordination Sequence:
#
# PCOD9311112 Si02
#       8
#     4   4   4   4   4   4   4   4
#     4  10  21  41  67  99 130 170 222 273 340 400
#     4  11  22  41  64  98 137 177 215 269 337 413
#     4  10  24  45  66  95 130 177 225 280 340 389
#     4  11  20  37  68 100 132 173 218 275 344 396
#     4  10  23  44  65  92 138 177 219 268 343 416
#     4  10  22  43  65  98 130 168 224 286 324 397
#     4  11  24  44  70  93 134 175 225 280 333 405
#     4  11  25  40  65 103 131 167 229 283 331 400
#
# _framework density 20.722912999999998
#
# number of rings (size 3 to 8) (size 9 to 14) (size 15 to 20)
#    0.000    1.500    3.750    1.125    1.750    3.500 
#    4.500    3.125    0.000    0.000    0.000    0.000 
#    0.000    0.000    0.000    0.000    0.000    0.000 
#
# Total GULP energy -178719.224584 kJ/mol
# GULP energy per Si atom -5584.975768 kJ/mol
# Density = 2.067575 g / cm^3
# Si number density = 20.722913 Si / 1000 Ang^3
#
#
#
# Elastic Constant Matrix: (Units=GPa)
#
#
# Indices 1 2 3 4 5 6 
#
# 1 59.1294 15.3177 29.4404 0.0000 0.0000 0.0000
# 2 15.3177 66.3333 41.7871 0.0000 0.0000 0.0000
# 3 29.4404 41.7871 88.2184 0.0000 0.0000 0.0000
# 4 0.0000 0.0000 0.0000 12.7381 0.0000 0.0000
# 5 0.0000 0.0000 0.0000 0.0000 30.5736 0.0000
# 6 0.0000 0.0000 0.0000 0.0000 0.0000 17.4739
#
#
#
# Elastic Compliance Matrix: (Units=1/GPa)
#
#
# Indices 1 2 3 4 5 6 
#
# 1 0.020299 -0.000599 -0.006491 0.000000 0.000000 0.000000
# 2 -0.000599 0.021505 -0.009987 0.000000 0.000000 0.000000
# 3 -0.006491 -0.009987 0.018232 0.000000 0.000000 0.000000
# 4 0.000000 0.000000 0.000000 0.078505 0.000000 0.000000
# 5 0.000000 0.000000 0.000000 0.000000 0.032708 0.000000
# 6 0.000000 0.000000 0.000000 0.000000 0.000000 0.057228
#
#
# Mechanical properties :
#
#
# Convention : Reuss Voigt Hill
#
# Bulk Modulus (GPa) = 38.63395 42.97460 40.80427
# Shear Modulus (GPa) = 18.43281 20.63286 19.53283
#
# Velocity S-wave (km/s) = 2.98567 3.15882 3.07346
# Velocity P-wave (km/s) = 5.52894 5.83840 5.68578
#
# Compressibility (1/GPa) = 0.02588397
#
# Stress axis : x y z
#
# Youngs Moduli (GPa) = 49.26405 46.50148 54.84872
#
# Poissons Ratio (x) = 0.02784 0.35600
# Poissons Ratio (y) = 0.02949 0.54775
# Poissons Ratio (z) = 0.31975 0.46439
#
# Static dielectric constant tensor:
#      x y z
#    x 1.796130 0.000000 0.000000 
#    y 0.000000 1.740520 0.000000 
#    z 0.000000 0.000000 1.756920 
# 
# From -- ./inp_files/8310.got.cif
#   From: 2010.05.17/outbox.cif.g08.bks.cpg/sg17_5_cif.got.tgz:8310.got - 2010.06.03 22:34:06.
