data_PCOD9311930
_publ_section_title
;
Structure prediction by ZEFSAII (Michael W. Deem and Ramdas Pophale) SiO2 
 PCOD9311930
Probable space group: P 21 21 2
;
_chemical_formula_sum "Si O2"
_cell_formula_units_Z 20
_cell_length_a 7.538607
_cell_length_b 13.880780
_cell_length_c 7.592067
_cell_angle_alpha 90.000000
_cell_angle_beta 90.000000
_cell_angle_gamma 90.000000
_cell_volume 794.447141
_symmetry_space_group_name_H-M "P 21 21 2"
_symmetry_group_IT_number 18
_symmetry_cell_setting 'orthorhombic'
loop_
_space_group_symop_operation_xyz
x,y,z
-x,-y,z
1/2+x,1/2-y,-z
1/2-x,1/2+y,-z
loop_
_atom_site_type_symbol
_atom_site_label
_atom_site_fract_x
_atom_site_fract_y
_atom_site_fract_z
Si Si1 0.527387 0.248769 0.361998
Si Si2 0.656517 0.935629 0.357274
Si Si3 0.481021 0.102794 0.961017
Si Si4 0.885876 0.115195 0.358349
Si Si5 0.367576 0.302205 0.985823
O O1 0.375125 0.172026 0.421487
O O2 0.702407 0.181000 0.357522
O O3 0.508073 0.336855 0.495190
O O4 0.678725 0.147736 0.976797
O O5 0.609332 0.924168 0.148696
O O6 0.500000 0.000000 0.438417
O O7 0.821760 0.005867 0.380100
O O8 0.365819 0.194165 0.901151
O O9 0.500000 0.000000 0.865234
O O10 0.961965 0.133613 0.162515
O O11 0.968216 0.212170 0.829887
#
# Coordination Sequence:
#
# PCOD9311930 Si02
#       5
#     4   4   4   4   4
#     4  10  23  37  62  94 118 162 222 256 326 381
#     4   8  15  39  61  81 120 164 206 252 314 378
#     4  10  19  39  67  92 125 170 220 258 324 383
#     4  11  21  41  66  86 129 171 208 272 318 384
#     4  11  20  40  68  93 127 169 219 266 318 388
#
# _framework density 25.174738000000001
#
# number of rings (size 3 to 8) (size 9 to 14) (size 15 to 20)
#    0.000    2.000    8.000    0.000    2.800    0.000 
#    3.600    2.000    0.000    0.000    0.000    0.000 
#    0.000    0.000    0.000    0.000    0.000    0.000 
#
# Total GULP energy -111570.937955 kJ/mol
# GULP energy per Si atom -5578.546898 kJ/mol
# Density = 2.511744 g / cm^3
# Si number density = 25.174738 Si / 1000 Ang^3
#
#
#
# Elastic Constant Matrix: (Units=GPa)
#
#
# Indices 1 2 3 4 5 6 
#
# 1 101.7272 13.1283 23.6272 0.0000 0.0000 0.0000
# 2 13.1283 192.7854 42.6151 0.0000 0.0000 0.0000
# 3 23.6272 42.6151 71.8896 0.0000 0.0000 0.0000
# 4 0.0000 0.0000 0.0000 40.2678 0.0000 0.0000
# 5 0.0000 0.0000 0.0000 0.0000 1.7323 0.0000
# 6 0.0000 0.0000 0.0000 0.0000 0.0000 55.8533
#
#
#
# Elastic Compliance Matrix: (Units=1/GPa)
#
#
# Indices 1 2 3 4 5 6 
#
# 1 0.010643 0.000056 -0.003531 0.000000 0.000000 0.000000
# 2 0.000056 0.005970 -0.003557 0.000000 0.000000 0.000000
# 3 -0.003531 -0.003557 0.017179 0.000000 0.000000 0.000000
# 4 0.000000 0.000000 0.000000 0.024834 0.000000 0.000000
# 5 0.000000 0.000000 0.000000 0.000000 0.577260 0.000000
# 6 0.000000 0.000000 0.000000 0.000000 0.000000 0.017904
#
#
# Mechanical properties :
#
#
# Convention : Reuss Voigt Hill
#
# Bulk Modulus (GPa) = 50.69084 58.34928 54.52006
# Shear Modulus (GPa) = 7.41367 38.70613 23.05990
#
# Velocity S-wave (km/s) = 1.71793 3.92535 3.02982
# Velocity P-wave (km/s) = 4.91064 6.61608 5.82610
#
# Compressibility (1/GPa) = 0.01972743
#
# Stress axis : x y z
#
# Youngs Moduli (GPa) = 93.95728 167.51563 58.20975
#
# Poissons Ratio (x) = -0.00934 0.20554
# Poissons Ratio (y) = -0.00524 0.20705
# Poissons Ratio (z) = 0.33177 0.59585
#
# Static dielectric constant tensor:
#      x y z
#    x 3.033590 0.000000 0.000000 
#    y 0.000000 2.038620 0.000000 
#    z 0.000000 0.000000 2.000060 
# 
# From -- ./inp_files/3067.got.cif
#   From: 2010.05.17/outbox.cif.g08.bks.cpg/sg18_2_cif.got.tgz:3067.got - 2010.06.03 22:40:56.
