data_PCOD9311275
_publ_section_title
;
Structure prediction by ZEFSAII (Michael W. Deem and Ramdas Pophale) SiO2 
 PCOD9311275
Probable space group: P 2 2 21
;
_chemical_formula_sum "Si O2"
_cell_formula_units_Z 20
_cell_length_a 5.008759
_cell_length_b 7.917379
_cell_length_c 20.131442
_cell_angle_alpha 90.000000
_cell_angle_beta 90.000000
_cell_angle_gamma 90.000000
_cell_volume 798.337362
_symmetry_space_group_name_H-M "P 2 2 21"
_symmetry_group_IT_number 17
_symmetry_cell_setting 'orthorhombic'
loop_
_space_group_symop_operation_xyz
x,y,z
-x,-y,1/2+z
x,-y,-z
-x,y,1/2-z
loop_
_atom_site_type_symbol
_atom_site_label
_atom_site_fract_x
_atom_site_fract_y
_atom_site_fract_z
Si Si1 0.172653 0.155113 0.688961
Si Si2 0.491084 0.849750 0.633772
Si Si3 0.645732 0.508047 0.152513
Si Si4 0.010864 0.165319 0.044826
Si Si5 0.122473 0.361950 0.917789
O O1 0.396473 0.020159 0.669635
O O2 0.285053 0.343556 0.704323
O O3 0.000000 0.091835 0.750000
O O4 0.986535 0.201979 0.625804
O O5 0.433022 0.678096 0.674309
O O6 0.790447 0.844357 0.607307
O O7 0.294058 0.834854 0.569721
O O8 0.413831 0.584879 0.105917
O O9 0.912847 0.498678 0.108014
O O10 0.095212 0.312890 0.993944
O O11 0.052978 0.000000 0.000000
#
# Coordination Sequence:
#
# PCOD9311275 Si02
#       5
#     4   4   4   4   4
#     4  10  25  47  70  93 139 180 231 279 342 405
#     4  12  25  40  70 102 131 179 226 280 341 406
#     4  10  23  43  63 101 129 170 231 272 340 404
#     4  12  22  40  67  99 143 171 222 282 340 416
#     4  10  22  43  65  94 136 177 214 276 349 392
#
# _framework density 25.052067999999998
#
# number of rings (size 3 to 8) (size 9 to 14) (size 15 to 20)
#    1.200    0.000    2.000    4.200    0.000    6.400 
#    0.000    0.000    4.400    0.000    0.000    0.000 
#    0.000    0.000    0.000    0.000    0.000    0.000 
#
# Total GULP energy -111892.490211 kJ/mol
# GULP energy per Si atom -5594.624511 kJ/mol
# Density = 2.499505 g / cm^3
# Si number density = 25.052068 Si / 1000 Ang^3
#
#
#
# Elastic Constant Matrix: (Units=GPa)
#
#
# Indices 1 2 3 4 5 6 
#
# 1 93.5126 -15.9277 12.0130 0.0000 0.0000 0.0000
# 2 -15.9277 137.2831 0.3012 0.0000 0.0000 0.0000
# 3 12.0130 0.3012 76.7065 0.0000 0.0000 0.0000
# 4 0.0000 0.0000 0.0000 -4.5228 0.0000 0.0000
# 5 0.0000 0.0000 0.0000 0.0000 38.8622 0.0000
# 6 0.0000 0.0000 0.0000 0.0000 0.0000 113.3769
#
#
#
# Elastic Compliance Matrix: (Units=1/GPa)
#
#
# Indices 1 2 3 4 5 6 
#
# 1 0.011139 0.001296 -0.001750 0.000000 0.000000 0.000000
# 2 0.001296 0.007435 -0.000232 0.000000 0.000000 0.000000
# 3 -0.001750 -0.000232 0.013312 0.000000 0.000000 0.000000
# 4 0.000000 0.000000 0.000000 -0.221102 0.000000 0.000000
# 5 0.000000 0.000000 0.000000 0.000000 0.025732 0.000000
# 6 0.000000 0.000000 0.000000 0.000000 0.000000 0.008820
#
#
# Mechanical properties :
#
#
# Convention : Reuss Voigt Hill
#
# Bulk Modulus (GPa) = 32.77092 33.36392 33.06742
# Shear Modulus (GPa) = -34.93551 50.28431 7.67440
#
# Velocity S-wave (km/s) = -3.73837 4.48503 1.75215
# Velocity P-wave (km/s) = 2.35040 6.33778 4.16191
#
# Compressibility (1/GPa) = 0.03051486
#
# Stress axis : x y z
#
# Youngs Moduli (GPa) = 89.77238 134.49693 75.12231
#
# Poissons Ratio (x) = -0.17434 0.13143
# Poissons Ratio (y) = -0.11637 0.01744
# Poissons Ratio (z) = 0.15707 0.03123
#
# Static dielectric constant tensor:
#      x y z
#    x 1.893910 0.000000 0.000000 
#    y 0.000000 2.087190 0.000000 
#    z 0.000000 0.000000 1.826010 
# 
# From -- ./inp_files/10376.got.cif
#   From: 2010.05.17/outbox.cif.g08.bks.cpg/sg17_6_cif.got.tgz:10376.got - 2010.06.03 22:34:06.
