data_PCOD9311711
_publ_section_title
;
Structure prediction by ZEFSAII (Michael W. Deem and Ramdas Pophale) SiO2 
 PCOD9311711
Probable space group: P 21 21 2
;
_chemical_formula_sum "Si O2"
_cell_formula_units_Z 28
_cell_length_a 7.710209
_cell_length_b 7.871200
_cell_length_c 20.528920
_cell_angle_alpha 90.000000
_cell_angle_beta 90.000000
_cell_angle_gamma 90.000000
_cell_volume 1245.871354
_symmetry_space_group_name_H-M "P 21 21 2"
_symmetry_group_IT_number 18
_symmetry_cell_setting 'orthorhombic'
loop_
_space_group_symop_operation_xyz
x,y,z
-x,-y,z
1/2+x,1/2-y,-z
1/2-x,1/2+y,-z
loop_
_atom_site_type_symbol
_atom_site_label
_atom_site_fract_x
_atom_site_fract_y
_atom_site_fract_z
Si Si1 0.079565 0.307085 0.028244
Si Si2 0.046768 0.318381 0.777397
Si Si3 0.179409 0.902423 0.861998
Si Si4 0.815238 0.704842 0.645469
Si Si5 0.699525 0.872211 0.410864
Si Si6 0.236761 0.748397 0.103997
Si Si7 0.786478 0.001703 0.552269
O O1 0.246582 0.308223 0.075406
O O2 0.000000 0.500000 0.019985
O O3 0.939813 0.200167 0.069046
O O4 0.137393 0.238890 0.958761
O O5 0.153309 0.232837 0.719245
O O6 0.165401 0.352745 0.840862
O O7 0.000000 0.500000 0.749450
O O8 0.877263 0.216321 0.802255
O O9 0.300741 0.069103 0.858836
O O10 0.000000 0.000000 0.873902
O O11 0.726706 0.519928 0.636522
O O12 0.735828 0.852639 0.601887
O O13 0.007618 0.673073 0.615358
O O14 0.709584 0.959197 0.481778
O O15 0.776912 0.684630 0.421860
O O16 0.000000 0.000000 0.546393
#
# Coordination Sequence:
#
# PCOD9311711 Si02
#       7
#     4   4   4   4   4   4   4
#     4  10  20  38  60  92 125 158 213 266 318 371
#     4  11  21  38  57  83 118 163 204 254 313 384
#     4   9  20  36  59  87 116 157 204 254 306 372
#     4  10  21  37  58  85 119 160 206 253 307 384
#     4  10  18  34  55  86 116 152 197 253 297 366
#     4  10  20  34  60  88 120 161 203 262 310 376
#     4  10  20  32  59  90 118 154 197 252 313 362
#
# _framework density 22.474231
#
# number of rings (size 3 to 8) (size 9 to 14) (size 15 to 20)
#    0.000    2.000    2.857    2.143    0.000    6.286 
#    0.000    3.571    3.143    0.000   14.857    0.000 
#    0.000    0.000    0.000    0.000    0.000    0.000 
#
# Total GULP energy -155908.721848 kJ/mol
# GULP energy per Si atom -5568.168637 kJ/mol
# Density = 2.242308 g / cm^3
# Si number density = 22.474231 Si / 1000 Ang^3
#
#
#
# Elastic Constant Matrix: (Units=GPa)
#
#
# Indices 1 2 3 4 5 6 
#
# 1 50.2568 -2.4384 7.4504 0.0000 0.0000 0.0000
# 2 -2.4384 108.0592 24.8266 0.0000 0.0000 0.0000
# 3 7.4504 24.8266 122.5949 0.0000 0.0000 0.0000
# 4 0.0000 0.0000 0.0000 30.2818 0.0000 0.0000
# 5 0.0000 0.0000 0.0000 0.0000 34.1157 0.0000
# 6 0.0000 0.0000 0.0000 0.0000 0.0000 13.5279
#
#
#
# Elastic Compliance Matrix: (Units=1/GPa)
#
#
# Indices 1 2 3 4 5 6 
#
# 1 0.020140 0.000772 -0.001380 0.000000 0.000000 0.000000
# 2 0.000772 0.009735 -0.002018 0.000000 0.000000 0.000000
# 3 -0.001380 -0.002018 0.008650 0.000000 0.000000 0.000000
# 4 0.000000 0.000000 0.000000 0.033023 0.000000 0.000000
# 5 0.000000 0.000000 0.000000 0.000000 0.029312 0.000000
# 6 0.000000 0.000000 0.000000 0.000000 0.000000 0.073921
#
#
# Mechanical properties :
#
#
# Convention : Reuss Voigt Hill
#
# Bulk Modulus (GPa) = 30.05649 37.84315 33.94982
# Shear Modulus (GPa) = 26.16084 32.32324 29.24204
#
# Velocity S-wave (km/s) = 3.41550 3.79652 3.61104
# Velocity P-wave (km/s) = 5.38117 6.00776 5.70307
#
# Compressibility (1/GPa) = 0.03327068
#
# Stress axis : x y z
#
# Youngs Moduli (GPa) = 49.65282 102.71871 115.61276
#
# Poissons Ratio (x) = -0.07925 0.15957
# Poissons Ratio (y) = -0.03831 0.23335
# Poissons Ratio (z) = 0.06853 0.20733
#
# Static dielectric constant tensor:
#      x y z
#    x 2.015980 0.000000 0.000000 
#    y 0.000000 1.992240 0.000000 
#    z 0.000000 0.000000 1.778890 
# 
# From -- ./inp_files/7538.got.cif
#   From: 2010.05.17/outbox.cif.g08.bks.cpg/sg18_4_cif.got.tgz:7538.got - 2010.06.03 22:40:56.
