data_PCOD9311834
_publ_section_title
;
Structure prediction by ZEFSAII (Michael W. Deem and Ramdas Pophale) SiO2 
 PCOD9311834
Probable space group: P 21 21 2
;
_chemical_formula_sum "Si O2"
_cell_formula_units_Z 24
_cell_length_a 9.548047
_cell_length_b 8.803180
_cell_length_c 11.585577
_cell_angle_alpha 90.000000
_cell_angle_beta 90.000000
_cell_angle_gamma 90.000000
_cell_volume 973.804547
_symmetry_space_group_name_H-M "P 21 21 2"
_symmetry_group_IT_number 18
_symmetry_cell_setting 'orthorhombic'
loop_
_space_group_symop_operation_xyz
x,y,z
-x,-y,z
1/2+x,1/2-y,-z
1/2-x,1/2+y,-z
loop_
_atom_site_type_symbol
_atom_site_label
_atom_site_fract_x
_atom_site_fract_y
_atom_site_fract_z
Si Si1 0.238588 0.675778 0.244979
Si Si2 0.304524 0.445620 0.423396
Si Si3 0.386549 0.127362 0.415092
Si Si4 0.165145 0.488609 0.042517
Si Si5 0.411983 0.790744 0.739789
Si Si6 0.253205 0.514855 0.785650
O O1 0.334495 0.563590 0.319356
O O2 0.236289 0.628811 0.111109
O O3 0.268331 0.849826 0.269404
O O4 0.072359 0.659118 0.273264
O O5 0.405105 0.303363 0.453034
O O6 0.251597 0.554369 0.524689
O O7 0.174288 0.352537 0.368032
O O8 0.500000 0.000000 0.443521
O O9 0.363734 0.120743 0.276245
O O10 0.158529 0.361404 0.143520
O O11 0.000000 0.500000 0.013731
O O12 0.240899 0.481870 0.920804
O O13 0.390807 0.612329 0.757593
#
# Coordination Sequence:
#
# PCOD9311834 Si02
#       6
#     4   4   4   4   4   4
#     4  10  19  35  57  80 111 149 200 247 281 339
#     4  10  21  39  60  82 109 149 192 234 289 340
#     4  11  23  39  60  85 118 150 186 237 291 349
#     4   9  18  33  52  75 109 152 192 238 293 342
#     4   9  19  34  56  80 107 150 195 242 290 337
#     4  11  20  32  53  84 116 148 189 240 298 349
#
# _framework density 24.645603999999999
#
# number of rings (size 3 to 8) (size 9 to 14) (size 15 to 20)
#    0.000    2.000    0.000    5.500    0.000    0.000 
#    0.000    5.000    0.000    0.000    0.000    0.000 
#    0.000    0.000    0.000    0.000    0.000    0.000 
#
# Total GULP energy -133855.529397 kJ/mol
# GULP energy per Si atom -5577.313725 kJ/mol
# Density = 2.458951 g / cm^3
# Si number density = 24.645604 Si / 1000 Ang^3
#
#
#
# Elastic Constant Matrix: (Units=GPa)
#
#
# Indices 1 2 3 4 5 6 
#
# 1 37.3693 20.0209 11.4902 0.0000 0.0000 0.0000
# 2 20.0209 178.2747 29.4713 0.0000 0.0000 0.0000
# 3 11.4902 29.4713 95.2744 0.0000 0.0000 0.0000
# 4 0.0000 0.0000 0.0000 30.6159 0.0000 0.0000
# 5 0.0000 0.0000 0.0000 0.0000 14.6265 0.0000
# 6 0.0000 0.0000 0.0000 0.0000 0.0000 34.7476
#
#
#
# Elastic Compliance Matrix: (Units=1/GPa)
#
#
# Indices 1 2 3 4 5 6 
#
# 1 0.029086 -0.002831 -0.002632 0.000000 0.000000 0.000000
# 2 -0.002831 0.006187 -0.001572 0.000000 0.000000 0.000000
# 3 -0.002632 -0.001572 0.011300 0.000000 0.000000 0.000000
# 4 0.000000 0.000000 0.000000 0.032663 0.000000 0.000000
# 5 0.000000 0.000000 0.000000 0.000000 0.068369 0.000000
# 6 0.000000 0.000000 0.000000 0.000000 0.000000 0.028779
#
#
# Mechanical properties :
#
#
# Convention : Reuss Voigt Hill
#
# Bulk Modulus (GPa) = 30.76771 48.09814 39.43292
# Shear Modulus (GPa) = 24.83988 32.66040 28.75014
#
# Velocity S-wave (km/s) = 3.17816 3.64428 3.41917
# Velocity P-wave (km/s) = 5.09694 6.10459 5.62338
#
# Compressibility (1/GPa) = 0.03250161
#
# Stress axis : x y z
#
# Youngs Moduli (GPa) = 34.38064 161.62295 88.49695
#
# Poissons Ratio (x) = 0.45762 0.23292
# Poissons Ratio (y) = 0.09734 0.13916
# Poissons Ratio (z) = 0.09049 0.25414
#
# Static dielectric constant tensor:
#      x y z
#    x 2.015580 0.000000 0.000000 
#    y 0.000000 2.026910 0.000000 
#    z 0.000000 0.000000 1.955100 
# 
# From -- ./inp_files/5826.got.cif
#   From: 2010.05.17/outbox.cif.g08.bks.cpg/sg18_3_cif.got.tgz:5826.got - 2010.06.03 22:40:56.
