data_PCOD9311300
_publ_section_title
;
Structure prediction by ZEFSAII (Michael W. Deem and Ramdas Pophale) SiO2 
 PCOD9311300
Probable space group: P 2 2 21
;
_chemical_formula_sum "Si O2"
_cell_formula_units_Z 20
_cell_length_a 20.147136
_cell_length_b 7.416529
_cell_length_c 6.422492
_cell_angle_alpha 90.000000
_cell_angle_beta 90.000000
_cell_angle_gamma 90.000000
_cell_volume 959.660433
_symmetry_space_group_name_H-M "P 2 2 21"
_symmetry_group_IT_number 17
_symmetry_cell_setting 'orthorhombic'
loop_
_space_group_symop_operation_xyz
x,y,z
-x,-y,1/2+z
x,-y,-z
-x,y,1/2-z
loop_
_atom_site_type_symbol
_atom_site_label
_atom_site_fract_x
_atom_site_fract_y
_atom_site_fract_z
Si Si1 0.500000 0.307864 0.750000
Si Si2 0.853086 0.652720 0.174820
Si Si3 0.784570 0.000000 0.000000
Si Si4 0.675247 0.197175 0.248016
Si Si5 0.608933 0.500000 0.000000
Si Si6 0.565832 0.000000 0.500000
Si Si7 0.000000 0.419961 0.750000
Si Si8 0.253215 0.500000 0.000000
O O1 0.560667 0.434160 0.816213
O O2 0.522174 0.170177 0.569309
O O3 0.829163 0.838970 0.080378
O O4 0.796773 0.583488 0.331710
O O5 0.927735 0.671550 0.260925
O O6 0.854696 0.500000 0.000000
O O7 0.736183 0.074823 0.178603
O O8 0.700449 0.337992 0.420547
O O9 0.614647 0.072743 0.320360
O O10 0.652506 0.328778 0.062405
O O11 0.002193 0.500000 0.500000
#
# Coordination Sequence:
#
# PCOD9311300 Si02
#       8
#     2   4   2   4   2   2   2   2
#     4  12  24  42  64  88 122 172 222 278 344 412
#     4  11  23  45  68 105 140 190 234 294 349 419
#     4  12  24  43  68 103 140 182 230 294 350 422
#     4  12  24  41  64  97 132 174 224 284 351 418
#     4  12  24  43  64  91 126 176 218 280 342 420
#     4  12  24  41  60  93 124 166 224 286 338 416
#     4  10  22  44  76 106 148 200 248 300 364 428
#     4  12  22  43  68  99 134 188 226 284 352 430
#
# _framework density 20.840706000000001
#
# number of rings (size 3 to 8) (size 9 to 14) (size 15 to 20)
#    0.000    0.400    3.000    7.200    0.000    0.000 
#    0.000    6.000    0.000    0.000    0.000    0.000 
#    0.000    0.000    0.000    0.000    0.000    0.000 
#
# Total GULP energy -111677.820671 kJ/mol
# GULP energy per Si atom -5583.891034 kJ/mol
# Density = 2.079327 g / cm^3
# Si number density = 20.840706 Si / 1000 Ang^3
#
#
#
# Elastic Constant Matrix: (Units=GPa)
#
#
# Indices 1 2 3 4 5 6 
#
# 1 90.2787 26.1079 12.1066 0.0000 0.0000 0.0000
# 2 26.1079 109.0646 16.4043 0.0000 0.0000 0.0000
# 3 12.1066 16.4043 47.4574 0.0000 0.0000 0.0000
# 4 0.0000 0.0000 0.0000 48.4160 0.0000 0.0000
# 5 0.0000 0.0000 0.0000 0.0000 52.6425 0.0000
# 6 0.0000 0.0000 0.0000 0.0000 0.0000 398.5519
#
#
#
# Elastic Compliance Matrix: (Units=1/GPa)
#
#
# Indices 1 2 3 4 5 6 
#
# 1 0.012115 -0.002569 -0.002203 0.000000 0.000000 0.000000
# 2 -0.002569 0.010216 -0.002876 0.000000 0.000000 0.000000
# 3 -0.002203 -0.002876 0.022628 0.000000 0.000000 0.000000
# 4 0.000000 0.000000 0.000000 0.020654 0.000000 0.000000
# 5 0.000000 0.000000 0.000000 0.000000 0.018996 0.000000
# 6 0.000000 0.000000 0.000000 0.000000 0.000000 0.002509
#
#
# Mechanical properties :
#
#
# Convention : Reuss Voigt Hill
#
# Bulk Modulus (GPa) = 33.71104 39.55982 36.63543
# Shear Modulus (GPa) = 44.52291 112.73420 78.62855
#
# Velocity S-wave (km/s) = 4.62707 7.36279 6.14900
# Velocity P-wave (km/s) = 6.69008 9.55532 8.24807
#
# Compressibility (1/GPa) = 0.02966387
#
# Stress axis : x y z
#
# Youngs Moduli (GPa) = 82.54179 97.88190 44.19378
#
# Poissons Ratio (x) = 0.25144 0.09734
# Poissons Ratio (y) = 0.21203 0.12711
# Poissons Ratio (z) = 0.18181 0.28152
#
# Static dielectric constant tensor:
#      x y z
#    x 1.719480 0.000000 0.000000 
#    y 0.000000 1.679310 0.000000 
#    z 0.000000 0.000000 1.761710 
# 
# From -- ./inp_files/965.got.cif
#   From: 2010.05.17/outbox.cif.g08.bks.cpg/sg17_1_cif.got.tgz:965.got - 2010.06.03 22:34:06.
