data_PCOD9311149
_publ_section_title
;
Structure prediction by ZEFSAII (Michael W. Deem and Ramdas Pophale) SiO2 
 PCOD9311149
Probable space group: P 2 2 21
;
_chemical_formula_sum "Si O2"
_cell_formula_units_Z 28
_cell_length_a 11.213354
_cell_length_b 22.326094
_cell_length_c 5.634959
_cell_angle_alpha 90.000000
_cell_angle_beta 90.000000
_cell_angle_gamma 90.000000
_cell_volume 1410.714214
_symmetry_space_group_name_H-M "P 2 2 21"
_symmetry_group_IT_number 17
_symmetry_cell_setting 'orthorhombic'
loop_
_space_group_symop_operation_xyz
x,y,z
-x,-y,1/2+z
x,-y,-z
-x,y,1/2-z
loop_
_atom_site_type_symbol
_atom_site_label
_atom_site_fract_x
_atom_site_fract_y
_atom_site_fract_z
Si Si1 0.645054 0.170209 0.763066
Si Si2 0.970335 0.316871 0.987343
Si Si3 0.629943 0.443329 0.845381
Si Si4 0.144892 0.568110 0.997083
Si Si5 0.275112 0.353323 0.366688
Si Si6 0.356522 0.770422 0.768118
Si Si7 0.644993 0.030153 0.751112
O O1 0.500000 0.174307 0.750000
O O2 0.685337 0.197737 0.510293
O O3 0.676693 0.100151 0.763055
O O4 0.683511 0.201792 0.011912
O O5 0.830246 0.327915 0.972884
O O6 0.000000 0.292487 0.250000
O O7 0.045446 0.379915 0.973488
O O8 0.000000 0.281011 0.750000
O O9 0.500000 0.457696 0.750000
O O10 0.742059 0.433291 0.673617
O O11 0.662829 0.500000 0.000000
O O12 0.617405 0.382006 0.991505
O O13 0.209648 0.591468 0.760810
O O14 0.095688 0.500000 0.000000
O O15 0.316793 0.298554 0.209298
O O16 0.500000 0.773416 0.750000
O O17 0.500000 0.026273 0.750000
O O18 0.683813 0.000000 0.500000
O O19 0.684551 0.000000 0.000000
#
# Coordination Sequence:
#
# PCOD9311149 Si02
#       7
#     4   4   4   4   4   4   4
#     4   9  18  33  47  73 106 147 194 237 276 326
#     4  10  22  40  61  85 105 131 173 228 284 343
#     4  12  26  39  58  80 110 138 177 229 295 354
#     4  11  23  41  62  80 107 135 175 231 302 359
#     4  11  25  40  57  82 105 142 187 234 288 346
#     4  10  22  34  53  72 107 150 192 231 277 336
#     4   9  15  24  44  70 101 139 187 241 283 312
#
# _framework density 19.848101
#
# number of rings (size 3 to 8) (size 9 to 14) (size 15 to 20)
#    0.000    1.714    2.857    1.286    4.000    6.286 
#    0.000    0.000    0.000    0.000    0.000    0.000 
#    0.000    0.000    0.000    0.000    0.000  197.143 
#
# Total GULP energy -155936.348660 kJ/mol
# GULP energy per Si atom -5569.155309 kJ/mol
# Density = 1.980293 g / cm^3
# Si number density = 19.848101 Si / 1000 Ang^3
#
#
#
# Elastic Constant Matrix: (Units=GPa)
#
#
# Indices 1 2 3 4 5 6 
#
# 1 23.6901 6.5286 16.3815 0.0000 0.0000 0.0000
# 2 6.5286 74.5421 38.7105 0.0000 0.0000 0.0000
# 3 16.3815 38.7105 136.0504 0.0000 0.0000 0.0000
# 4 0.0000 0.0000 0.0000 32.6316 0.0000 0.0000
# 5 0.0000 0.0000 0.0000 0.0000 23.6248 0.0000
# 6 0.0000 0.0000 0.0000 0.0000 0.0000 -55.1889
#
#
#
# Elastic Compliance Matrix: (Units=1/GPa)
#
#
# Indices 1 2 3 4 5 6 
#
# 1 0.046162 -0.001357 -0.005172 0.000000 0.000000 0.000000
# 2 -0.001357 0.015781 -0.004327 0.000000 0.000000 0.000000
# 3 -0.005172 -0.004327 0.009204 0.000000 0.000000 0.000000
# 4 0.000000 0.000000 0.000000 0.030645 0.000000 0.000000
# 5 0.000000 0.000000 0.000000 0.000000 0.042328 0.000000
# 6 0.000000 0.000000 0.000000 0.000000 0.000000 -0.018120
#
#
# Mechanical properties :
#
#
# Convention : Reuss Voigt Hill
#
# Bulk Modulus (GPa) = 20.22843 39.72486 29.97664
# Shear Modulus (GPa) = 30.45220 11.72430 21.08825
#
# Velocity S-wave (km/s) = 3.92122 2.43307 3.26311
# Velocity P-wave (km/s) = 5.54211 5.28687 5.41599
#
# Compressibility (1/GPa) = 0.04943538
#
# Stress axis : x y z
#
# Youngs Moduli (GPa) = 21.66273 63.36722 108.64734
#
# Poissons Ratio (x) = 0.08599 0.56194
# Poissons Ratio (y) = 0.02940 0.47009
# Poissons Ratio (z) = 0.11204 0.27418
#
# Static dielectric constant tensor:
#      x y z
#    x 1.707030 0.000000 0.000000 
#    y 0.000000 1.690030 0.000000 
#    z 0.000000 0.000000 1.902930 
# 
# From -- ./inp_files/1800.got.cif
#   From: 2010.05.17/outbox.cif.g08.bks.cpg/sg17_1_cif.got.tgz:1800.got - 2010.06.03 22:34:06.
