data_PCOD9311854
_publ_section_title
;
Structure prediction by ZEFSAII (Michael W. Deem and Ramdas Pophale) SiO2 
 PCOD9311854
Probable space group: P 21 21 2
;
_chemical_formula_sum "Si O2"
_cell_formula_units_Z 30
_cell_length_a 8.986323
_cell_length_b 18.961074
_cell_length_c 8.913253
_cell_angle_alpha 90.000000
_cell_angle_beta 90.000000
_cell_angle_gamma 90.000000
_cell_volume 1518.732168
_symmetry_space_group_name_H-M "P 21 21 2"
_symmetry_group_IT_number 18
_symmetry_cell_setting 'orthorhombic'
loop_
_space_group_symop_operation_xyz
x,y,z
-x,-y,z
1/2+x,1/2-y,-z
1/2-x,1/2+y,-z
loop_
_atom_site_type_symbol
_atom_site_label
_atom_site_fract_x
_atom_site_fract_y
_atom_site_fract_z
Si Si1 0.319903 0.698822 0.441768
Si Si2 0.152028 0.399218 0.824695
Si Si3 0.185004 0.767991 0.170959
Si Si4 0.995089 0.737188 0.925666
Si Si5 0.158028 0.566652 0.332637
Si Si6 0.500000 0.000000 0.946382
Si Si7 0.657917 0.084333 0.529068
Si Si8 0.343070 0.283680 0.346622
O O1 0.219080 0.752263 0.342272
O O2 0.284475 0.623219 0.369404
O O3 0.491764 0.717709 0.420437
O O4 0.256961 0.716470 0.605324
O O5 0.298133 0.351486 0.856543
O O6 0.160838 0.420476 0.651324
O O7 0.024177 0.339461 0.849840
O O8 0.112773 0.458605 0.944175
O O9 0.329683 0.732519 0.092461
O O10 0.041623 0.735413 0.097319
O O11 0.115687 0.779891 0.829416
O O12 0.201342 0.490752 0.399760
O O13 0.095318 0.550722 0.165374
O O14 0.013173 0.594827 0.421875
O O15 0.756165 0.146713 0.599519
#
# Coordination Sequence:
#
# PCOD9311854 Si02
#       8
#     4   4   4   4   4   2   4   4
#     4  11  21  38  56  89 117 148 197 237 297 342
#     4  10  19  36  56  83 113 152 190 234 291 336
#     4   9  20  34  53  82 113 144 186 237 284 339
#     4   9  20  32  54  81 110 146 185 235 286 335
#     4  10  23  35  61  88 113 156 197 241 284 361
#     4  10  20  34  60  88 112 154 192 240 284 360
#     4  10  20  39  56  86 117 154 193 239 292 342
#     4  11  21  36  60  83 119 152 191 245 291 344
#
# _framework density 19.753318
#
# number of rings (size 3 to 8) (size 9 to 14) (size 15 to 20)
#    0.800    1.333    1.333    3.200    3.733    1.600 
#    0.000    0.000    0.000    0.000    0.000    0.000 
#    0.000    0.000    0.000    0.000    0.000    0.000 
#
# Total GULP energy -167013.822609 kJ/mol
# GULP energy per Si atom -5567.127420 kJ/mol
# Density = 1.970836 g / cm^3
# Si number density = 19.753318 Si / 1000 Ang^3
#
#
#
# Elastic Constant Matrix: (Units=GPa)
#
#
# Indices 1 2 3 4 5 6 
#
# 1 14.2310 9.8998 18.3003 0.0000 0.0000 0.0000
# 2 9.8998 64.2268 7.7933 0.0000 0.0000 0.0000
# 3 18.3003 7.7933 54.8821 0.0000 0.0000 0.0000
# 4 0.0000 0.0000 0.0000 27.3955 0.0000 0.0000
# 5 0.0000 0.0000 0.0000 0.0000 29.1236 0.0000
# 6 0.0000 0.0000 0.0000 0.0000 0.0000 28.1096
#
#
#
# Elastic Compliance Matrix: (Units=1/GPa)
#
#
# Indices 1 2 3 4 5 6 
#
# 1 0.137282 -0.015880 -0.043521 0.000000 0.000000 0.000000
# 2 -0.015880 0.017680 0.002784 0.000000 0.000000 0.000000
# 3 -0.043521 0.002784 0.032338 0.000000 0.000000 0.000000
# 4 0.000000 0.000000 0.000000 0.036502 0.000000 0.000000
# 5 0.000000 0.000000 0.000000 0.000000 0.034336 0.000000
# 6 0.000000 0.000000 0.000000 0.000000 0.000000 0.035575
#
#
# Mechanical properties :
#
#
# Convention : Reuss Voigt Hill
#
# Bulk Modulus (GPa) = 13.50144 22.81409 18.15776
# Shear Modulus (GPa) = 11.58386 23.41550 17.49968
#
# Velocity S-wave (km/s) = 2.42425 3.44669 2.97965
# Velocity P-wave (km/s) = 3.83221 5.23585 4.58803
#
# Compressibility (1/GPa) = 0.07406619
#
# Stress axis : x y z
#
# Youngs Moduli (GPa) = 7.28427 56.56235 30.92374
#
# Poissons Ratio (x) = 0.89819 1.34585
# Poissons Ratio (y) = 0.11567 -0.08611
# Poissons Ratio (z) = 0.31702 -0.15750
#
# Static dielectric constant tensor:
#      x y z
#    x 1.694040 0.000000 0.000000 
#    y 0.000000 1.732210 0.000000 
#    z 0.000000 0.000000 1.711230 
# 
# From -- ./inp_files/3490.got.cif
#   From: 2010.05.17/outbox.cif.g08.bks.cpg/sg18_2_cif.got.tgz:3490.got - 2010.06.03 22:40:56.
