data_PCOD9311753
_publ_section_title
;
Structure prediction by ZEFSAII (Michael W. Deem and Ramdas Pophale) SiO2 
 PCOD9311753
Probable space group: P 21 21 2
;
_chemical_formula_sum "Si O2"
_cell_formula_units_Z 22
_cell_length_a 10.205857
_cell_length_b 15.053008
_cell_length_c 6.215905
_cell_angle_alpha 90.000000
_cell_angle_beta 90.000000
_cell_angle_gamma 90.000000
_cell_volume 954.942319
_symmetry_space_group_name_H-M "P 21 21 2"
_symmetry_group_IT_number 18
_symmetry_cell_setting 'orthorhombic'
loop_
_space_group_symop_operation_xyz
x,y,z
-x,-y,z
1/2+x,1/2-y,-z
1/2-x,1/2+y,-z
loop_
_atom_site_type_symbol
_atom_site_label
_atom_site_fract_x
_atom_site_fract_y
_atom_site_fract_z
Si Si1 0.000000 0.500000 0.107148
Si Si2 0.875395 0.336711 0.117251
Si Si3 0.467731 0.339003 0.013366
Si Si4 0.707502 0.089491 0.211692
Si Si5 0.874311 0.772241 0.623718
Si Si6 0.300127 0.597424 0.754762
O O1 0.925724 0.424067 0.236272
O O2 0.900886 0.554244 0.954973
O O3 0.827409 0.367489 0.881642
O O4 0.978777 0.257960 0.100548
O O5 0.745981 0.300592 0.224851
O O6 0.326726 0.373353 0.937245
O O7 0.580135 0.404153 0.926372
O O8 0.495860 0.312375 0.260963
O O9 0.643691 0.165356 0.364392
O O10 0.767267 0.001618 0.326294
O O11 0.845352 0.828919 0.413369
#
# Coordination Sequence:
#
# PCOD9311753 Si02
#       6
#     2   4   4   4   4   4
#     4  10  18  40  62  88 126 162 202 262 314 372
#     4   9  20  38  62  89 123 163 209 260 319 377
#     4  10  20  40  64  88 122 169 212 260 317 384
#     4  10  21  40  64  90 130 167 206 269 316 371
#     4  10  21  41  64  93 123 168 215 257 325 384
#     4  10  22  40  61  94 132 161 215 271 316 376
#
# _framework density 23.038041
#
# number of rings (size 3 to 8) (size 9 to 14) (size 15 to 20)
#    0.000    2.182    1.818    0.545    0.000    2.909 
#    3.273   17.273    0.000    0.000    0.000    0.000 
#    0.000    0.000    0.000    0.000    0.000    0.000 
#
# Total GULP energy -122636.016372 kJ/mol
# GULP energy per Si atom -5574.364381 kJ/mol
# Density = 2.298561 g / cm^3
# Si number density = 23.038041 Si / 1000 Ang^3
#
#
#
# Elastic Constant Matrix: (Units=GPa)
#
#
# Indices 1 2 3 4 5 6 
#
# 1 73.8882 40.7194 7.8757 0.0000 0.0000 0.0000
# 2 40.7194 153.5055 33.4422 0.0000 0.0000 0.0000
# 3 7.8757 33.4422 41.7470 0.0000 0.0000 0.0000
# 4 0.0000 0.0000 0.0000 25.1388 0.0000 0.0000
# 5 0.0000 0.0000 0.0000 0.0000 -1.0406 0.0000
# 6 0.0000 0.0000 0.0000 0.0000 0.0000 42.0017
#
#
#
# Elastic Compliance Matrix: (Units=1/GPa)
#
#
# Indices 1 2 3 4 5 6 
#
# 1 0.015858 -0.004306 0.000458 0.000000 0.000000 0.000000
# 2 -0.004306 0.009061 -0.006446 0.000000 0.000000 0.000000
# 3 0.000458 -0.006446 0.029031 0.000000 0.000000 0.000000
# 4 0.000000 0.000000 0.000000 0.039779 0.000000 0.000000
# 5 0.000000 0.000000 0.000000 0.000000 -0.961004 0.000000
# 6 0.000000 0.000000 0.000000 0.000000 0.000000 0.023809
#
#
# Mechanical properties :
#
#
# Convention : Reuss Voigt Hill
#
# Bulk Modulus (GPa) = 29.97458 48.13503 39.05480
# Shear Modulus (GPa) = -6.15949 25.69355 9.76703
#
# Velocity S-wave (km/s) = -1.63689 3.34318 2.06124
# Velocity P-wave (km/s) = 3.07678 5.98678 4.75963
#
# Compressibility (1/GPa) = 0.03336160
#
# Stress axis : x y z
#
# Youngs Moduli (GPa) = 63.05802 110.36187 34.44568
#
# Poissons Ratio (x) = 0.47527 -0.01578
# Poissons Ratio (y) = 0.27156 0.22204
# Poissons Ratio (z) = -0.02888 0.71141
#
# Static dielectric constant tensor:
#      x y z
#    x 1.880580 0.000000 0.000000 
#    y 0.000000 1.955000 0.000000 
#    z 0.000000 0.000000 1.945220 
# 
# From -- ./inp_files/1040.got.cif
#   From: 2010.05.17/outbox.cif.g08.bks.cpg/sg18_1_cif.got.tgz:1040.got - 2010.06.03 22:40:56.
