data_PCOD9311899
_publ_section_title
;
Structure prediction by ZEFSAII (Michael W. Deem and Ramdas Pophale) SiO2 
 PCOD9311899
Probable space group: P 21 21 2
;
_chemical_formula_sum "Si O2"
_cell_formula_units_Z 24
_cell_length_a 12.456432
_cell_length_b 5.092051
_cell_length_c 18.147230
_cell_angle_alpha 90.000000
_cell_angle_beta 90.000000
_cell_angle_gamma 90.000000
_cell_volume 1151.056787
_symmetry_space_group_name_H-M "P 21 21 2"
_symmetry_group_IT_number 18
_symmetry_cell_setting 'orthorhombic'
loop_
_space_group_symop_operation_xyz
x,y,z
-x,-y,z
1/2+x,1/2-y,-z
1/2-x,1/2+y,-z
loop_
_atom_site_type_symbol
_atom_site_label
_atom_site_fract_x
_atom_site_fract_y
_atom_site_fract_z
Si Si1 0.000000 0.000000 0.165840
Si Si2 0.385603 0.008708 0.522289
Si Si3 0.376025 0.495830 0.252333
Si Si4 0.208180 0.649506 0.970572
Si Si5 0.500000 0.000000 0.941566
Si Si6 0.753805 0.001293 0.197893
Si Si7 0.658582 0.489195 0.421823
O O1 0.991352 0.747961 0.112619
O O2 0.115955 0.987546 0.207908
O O3 0.375641 0.749514 0.473317
O O4 0.287736 0.017846 0.578277
O O5 0.500000 0.000000 0.560453
O O6 0.375743 0.248354 0.464707
O O7 0.500000 0.500000 0.223828
O O8 0.303408 0.723475 0.216326
O O9 0.382479 0.541549 0.339916
O O10 0.311598 0.223290 0.241745
O O11 0.232182 0.574731 0.887070
O O12 0.210809 0.962111 0.983001
O O13 0.098804 0.544311 0.004540
#
# Coordination Sequence:
#
# PCOD9311899 Si02
#       7
#     2   4   4   4   2   4   4
#     4  12  24  46  66  92 126 174 212 262 332 388
#     4  10  19  37  66  95 125 157 208 264 305 362
#     4  12  26  44  65  94 133 172 214 260 318 388
#     4  12  23  42  64  94 119 156 214 264 325 372
#     4  12  22  40  70  92 126 158 206 278 328 382
#     4  12  26  45  64  96 127 172 215 262 322 387
#     4  10  22  39  63  95 124 168 209 248 318 368
#
# _framework density 20.850407000000001
#
# number of rings (size 3 to 8) (size 9 to 14) (size 15 to 20)
#    0.000    0.667    3.333    5.000    2.333    0.000 
#    3.000    0.000    0.000    0.000    0.000    0.000 
#    0.000    0.000    0.000    0.000    0.000    0.000 
#
# Total GULP energy -134054.342735 kJ/mol
# GULP energy per Si atom -5585.597614 kJ/mol
# Density = 2.080295 g / cm^3
# Si number density = 20.850407 Si / 1000 Ang^3
#
#
#
# Elastic Constant Matrix: (Units=GPa)
#
#
# Indices 1 2 3 4 5 6 
#
# 1 193.6913 9.2896 -0.6154 0.0000 0.0000 0.0000
# 2 9.2896 101.7249 -15.1638 0.0000 0.0000 0.0000
# 3 -0.6154 -15.1638 35.4044 0.0000 0.0000 0.0000
# 4 0.0000 0.0000 0.0000 32.5286 0.0000 0.0000
# 5 0.0000 0.0000 0.0000 0.0000 18.0828 0.0000
# 6 0.0000 0.0000 0.0000 0.0000 0.0000 -4.6603
#
#
#
# Elastic Compliance Matrix: (Units=1/GPa)
#
#
# Indices 1 2 3 4 5 6 
#
# 1 0.005186 -0.000492 -0.000120 0.000000 0.000000 0.000000
# 2 -0.000492 0.010547 0.004509 0.000000 0.000000 0.000000
# 3 -0.000120 0.004509 0.030174 0.000000 0.000000 0.000000
# 4 0.000000 0.000000 0.000000 0.030742 0.000000 0.000000
# 5 0.000000 0.000000 0.000000 0.000000 0.055301 0.000000
# 6 0.000000 0.000000 0.000000 0.000000 0.000000 -0.214577
#
#
# Mechanical properties :
#
#
# Convention : Reuss Voigt Hill
#
# Bulk Modulus (GPa) = 18.62138 35.31572 26.96855
# Shear Modulus (GPa) = -68.94659 31.67757 -18.63451
#
# Velocity S-wave (km/s) = -5.75665 3.90202 -2.99276
# Velocity P-wave (km/s) = 5.93591 6.10536 1.01005
#
# Compressibility (1/GPa) = 0.05370173
#
# Stress axis : x y z
#
# Youngs Moduli (GPa) = 192.82514 94.80961 33.14095
#
# Poissons Ratio (x) = 0.04660 0.00399
# Poissons Ratio (y) = 0.09478 -0.14943
# Poissons Ratio (z) = 0.02321 -0.42749
#
# Static dielectric constant tensor:
#      x y z
#    x 1.845560 0.000000 0.000000 
#    y 0.000000 1.755230 0.000000 
#    z 0.000000 0.000000 1.683740 
# 
# From -- ./inp_files/7370.got.cif
#   From: 2010.05.17/outbox.cif.g08.bks.cpg/sg18_4_cif.got.tgz:7370.got - 2010.06.03 22:40:56.
