data_PCOD9311227
_publ_section_title
;
Structure prediction by ZEFSAII (Michael W. Deem and Ramdas Pophale) SiO2 
 PCOD9311227
Probable space group: P 2 2 21
;
_chemical_formula_sum "Si O2"
_cell_formula_units_Z 20
_cell_length_a 5.918519
_cell_length_b 17.389997
_cell_length_c 9.250745
_cell_angle_alpha 90.000000
_cell_angle_beta 90.000000
_cell_angle_gamma 90.000000
_cell_volume 952.114683
_symmetry_space_group_name_H-M "P 2 2 21"
_symmetry_group_IT_number 17
_symmetry_cell_setting 'orthorhombic'
loop_
_space_group_symop_operation_xyz
x,y,z
-x,-y,1/2+z
x,-y,-z
-x,y,1/2-z
loop_
_atom_site_type_symbol
_atom_site_label
_atom_site_fract_x
_atom_site_fract_y
_atom_site_fract_z
Si Si1 0.817135 0.500000 0.000000
Si Si2 0.673988 0.082340 0.000760
Si Si3 0.000000 0.124892 0.750000
Si Si4 0.860636 0.633133 0.392454
Si Si5 0.000000 0.866891 0.750000
Si Si6 0.284605 0.793705 0.001539
Si Si7 0.500000 0.523300 0.250000
O O1 0.660619 0.519001 0.862458
O O2 0.967464 0.424378 0.972798
O O3 0.829525 0.082043 0.857953
O O4 0.835142 0.087669 0.141142
O O5 0.519851 0.159005 0.999561
O O6 0.545127 0.000000 0.000000
O O7 0.847276 0.173069 0.640064
O O8 0.742865 0.702575 0.477760
O O9 0.662398 0.577929 0.340736
O O10 0.000000 0.661127 0.250000
O O11 0.156166 0.817196 0.855851
#
# Coordination Sequence:
#
# PCOD9311227 Si02
#       7
#     2   4   2   4   2   4   2
#     4  10  22  44  66 104 134 170 216 270 328 392
#     4  11  24  42  68  97 129 172 226 277 332 393
#     4  10  23  40  66  93 130 168 220 271 336 384
#     4  10  22  42  71  98 138 170 220 269 325 396
#     4  10  25  44  60  93 140 172 216 273 338 386
#     4  11  23  42  67  96 132 176 214 268 330 400
#     4  10  22  40  72  98 134 170 218 272 322 388
#
# _framework density 21.005873000000001
#
# number of rings (size 3 to 8) (size 9 to 14) (size 15 to 20)
#    0.000    1.600    1.000    2.400    2.800    8.000 
#    9.000    0.000    0.000    0.000    0.000    0.000 
#    0.000    0.000    0.000    0.000    0.000    0.000 
#
# Total GULP energy -111598.874300 kJ/mol
# GULP energy per Si atom -5579.943715 kJ/mol
# Density = 2.095806 g / cm^3
# Si number density = 21.005873 Si / 1000 Ang^3
#
#
#
# Elastic Constant Matrix: (Units=GPa)
#
#
# Indices 1 2 3 4 5 6 
#
# 1 119.2773 60.5138 54.2023 0.0000 0.0000 0.0000
# 2 60.5138 113.5904 62.1462 0.0000 0.0000 0.0000
# 3 54.2023 62.1462 139.7244 0.0000 0.0000 0.0000
# 4 0.0000 0.0000 0.0000 -85.6940 0.0000 0.0000
# 5 0.0000 0.0000 0.0000 0.0000 33.2828 0.0000
# 6 0.0000 0.0000 0.0000 0.0000 0.0000 29.5035
#
#
#
# Elastic Compliance Matrix: (Units=1/GPa)
#
#
# Indices 1 2 3 4 5 6 
#
# 1 0.012073 -0.005114 -0.002409 0.000000 0.000000 0.000000
# 2 -0.005114 0.013801 -0.004155 0.000000 0.000000 0.000000
# 3 -0.002409 -0.004155 0.009939 0.000000 0.000000 0.000000
# 4 0.000000 0.000000 0.000000 -0.011669 0.000000 0.000000
# 5 0.000000 0.000000 0.000000 0.000000 0.030046 0.000000
# 6 0.000000 0.000000 0.000000 0.000000 0.000000 0.033894
#
#
# Mechanical properties :
#
#
# Convention : Reuss Voigt Hill
#
# Bulk Modulus (GPa) = 80.26576 80.70186 80.48381
# Shear Modulus (GPa) = 43.25610 8.46710 25.86160
#
# Velocity S-wave (km/s) = 4.54281 2.00987 3.51260
# Velocity P-wave (km/s) = 8.11235 6.62482 7.40602
#
# Compressibility (1/GPa) = 0.01245861
#
# Stress axis : x y z
#
# Youngs Moduli (GPa) = 82.83039 72.45935 100.61127
#
# Poissons Ratio (x) = 0.37054 0.24236
# Poissons Ratio (y) = 0.42357 0.41799
# Poissons Ratio (z) = 0.19953 0.30104
#
# Static dielectric constant tensor:
#      x y z
#    x 1.791220 0.000000 0.000000 
#    y 0.000000 1.753870 0.000000 
#    z 0.000000 0.000000 1.750000 
# 
# From -- ./inp_files/3529.got.cif
#   From: 2010.05.17/outbox.cif.g08.bks.cpg/sg17_2_cif.got.tgz:3529.got - 2010.06.03 22:34:06.
