data_PCOD9311999
_publ_section_title
;
Structure prediction by ZEFSAII (Michael W. Deem and Ramdas Pophale) SiO2 
 PCOD9311999
Probable space group: P 21 21 2
;
_chemical_formula_sum "Si O2"
_cell_formula_units_Z 32
_cell_length_a 16.820358
_cell_length_b 8.404541
_cell_length_c 11.515479
_cell_angle_alpha 90.000000
_cell_angle_beta 90.000000
_cell_angle_gamma 90.000000
_cell_volume 1627.913193
_symmetry_space_group_name_H-M "P 21 21 2"
_symmetry_group_IT_number 18
_symmetry_cell_setting 'orthorhombic'
loop_
_space_group_symop_operation_xyz
x,y,z
-x,-y,z
1/2+x,1/2-y,-z
1/2-x,1/2+y,-z
loop_
_atom_site_type_symbol
_atom_site_label
_atom_site_fract_x
_atom_site_fract_y
_atom_site_fract_z
Si Si1 0.311202 0.185743 0.676213
Si Si2 1.000000 0.813148 0.984363
Si Si3 0.349844 0.809962 0.429733
Si Si4 0.150155 0.690042 0.570267
Si Si5 0.671766 0.312404 0.932193
Si Si6 0.688800 0.185740 0.676213
Si Si7 0.328234 0.312407 0.932193
Si Si8 0.500001 0.187035 0.267986
O O1 0.223527 0.215011 0.624158
O O2 0.364513 0.232756 0.564644
O O3 0.320481 0.279919 0.795075
O O4 0.323548 0.000001 0.702115
O O5 0.999999 0.791209 0.846526
O O6 0.085073 0.745725 0.028572
O O7 0.000000 0.000000 0.016515
O O8 0.914928 0.745724 0.028574
O O9 0.364511 0.767247 0.564644
O O10 0.424113 0.783960 0.347733
O O11 0.330691 0.000002 0.428954
O O12 0.223525 0.784995 0.624158
O O13 0.075886 0.716042 0.652267
O O14 0.679520 0.279916 0.795075
O O15 0.670587 0.499999 0.955040
O O16 0.750000 0.249999 0.000000
O O17 0.500000 0.000000 0.233533
#
# Coordination Sequence:
#
# PCOD9311999 Si02
#       8
#     4   4   4   4   4   4   4   4
#     4  10  20  35  56  82 111 144 183 225 274 330
#     4  10  24  41  56  80 114 149 187 232 281 338
#     4   9  19  35  55  80 110 143 180 225 275 329
#     4   9  19  35  55  80 110 143 180 225 275 329
#     4  11  23  40  60  83 114 151 190 233 282 334
#     4  10  20  35  56  82 111 144 183 225 274 330
#     4  11  23  40  60  83 114 151 190 233 282 334
#     4  10  20  35  56  80 106 139 181 228 275 324
#
# _framework density 19.657067999999999
#
# number of rings (size 3 to 8) (size 9 to 14) (size 15 to 20)
#    0.000    2.000    0.000    3.000    0.000    9.000 
#    0.000    1.250    0.000    0.000    0.000    0.000 
#    0.000    0.000    0.000    0.000    0.000    0.000 
#
# Total GULP energy -178496.900333 kJ/mol
# GULP energy per Si atom -5578.028135 kJ/mol
# Density = 1.961233 g / cm^3
# Si number density = 19.657068 Si / 1000 Ang^3
#
#
#
# Elastic Constant Matrix: (Units=GPa)
#
#
# Indices 1 2 3 4 5 6 
#
# 1 99.0872 19.9137 46.5697 0.0000 0.0000 0.0000
# 2 19.9137 10.0566 8.2565 0.0000 0.0000 0.0000
# 3 46.5697 8.2565 106.0760 0.0000 0.0000 0.0000
# 4 0.0000 0.0000 0.0000 33.4451 0.0000 0.0000
# 5 0.0000 0.0000 0.0000 0.0000 25.3746 0.0000
# 6 0.0000 0.0000 0.0000 0.0000 0.0000 19.9613
#
#
#
# Elastic Compliance Matrix: (Units=1/GPa)
#
#
# Indices 1 2 3 4 5 6 
#
# 1 0.019819 -0.034292 -0.006032 0.000000 0.000000 0.000000
# 2 -0.034292 0.165561 0.002168 0.000000 0.000000 0.000000
# 3 -0.006032 0.002168 0.011906 0.000000 0.000000 0.000000
# 4 0.000000 0.000000 0.000000 0.029900 0.000000 0.000000
# 5 0.000000 0.000000 0.000000 0.000000 0.039409 0.000000
# 6 0.000000 0.000000 0.000000 0.000000 0.000000 0.050097
#
#
# Mechanical properties :
#
#
# Convention : Reuss Voigt Hill
#
# Bulk Modulus (GPa) = 8.26615 40.52215 24.39415
# Shear Modulus (GPa) = 11.53861 25.12153 18.33007
#
# Velocity S-wave (km/s) = 2.42543 3.57878 3.05699
# Velocity P-wave (km/s) = 3.47245 6.14298 4.98969
#
# Compressibility (1/GPa) = 0.12097527
#
# Stress axis : x y z
#
# Youngs Moduli (GPa) = 50.45745 6.04008 83.98800
#
# Poissons Ratio (x) = 0.20713 0.50659
# Poissons Ratio (y) = 1.73029 -0.18213
# Poissons Ratio (z) = 0.30434 -0.01310
#
# Static dielectric constant tensor:
#      x y z
#    x 1.703840 0.000000 0.000000 
#    y 0.000000 1.695780 0.000000 
#    z 0.000000 0.000000 1.670390 
# 
# From -- ./inp_files/5625.got.cif
#   From: 2010.05.17/outbox.cif.g08.bks.cpg/sg18_3_cif.got.tgz:5625.got - 2010.06.03 22:40:56.
