data_PCOD9311252
_publ_section_title
;
Structure prediction by ZEFSAII (Michael W. Deem and Ramdas Pophale) SiO2 
 PCOD9311252
Probable space group: P 2 2 21
;
_chemical_formula_sum "Si O2"
_cell_formula_units_Z 14
_cell_length_a 4.984321
_cell_length_b 5.453658
_cell_length_c 19.482211
_cell_angle_alpha 90.000000
_cell_angle_beta 90.000000
_cell_angle_gamma 90.000000
_cell_volume 529.580696
_symmetry_space_group_name_H-M "P 2 2 21"
_symmetry_group_IT_number 17
_symmetry_cell_setting 'orthorhombic'
loop_
_space_group_symop_operation_xyz
x,y,z
-x,-y,1/2+z
x,-y,-z
-x,y,1/2-z
loop_
_atom_site_type_symbol
_atom_site_label
_atom_site_fract_x
_atom_site_fract_y
_atom_site_fract_z
Si Si1 0.095877 0.844566 0.818192
Si Si2 0.079055 0.161793 0.567755
Si Si3 0.500000 0.222618 0.750000
Si Si4 0.553858 0.545224 0.389760
O O1 0.878328 0.976873 0.867097
O O2 0.267478 0.051501 0.779545
O O3 0.284709 0.702217 0.872443
O O4 0.000000 0.695006 0.750000
O O5 0.094439 0.000000 0.500000
O O6 0.786427 0.278042 0.580350
O O7 0.292831 0.382471 0.567092
O O8 0.558628 0.391174 0.814427
#
# Coordination Sequence:
#
# PCOD9311252 Si02
#       4
#     4   4   2   4
#     4  11  24  43  75 110 146 193 253 314 372 440
#     4  11  26  49  70 104 153 197 246 307 370 448
#     4  10  22  42  66 108 150 180 240 312 370 432
#     4  11  25  41  76 103 141 195 245 303 374 441
#
# _framework density 26.436007
#
# number of rings (size 3 to 8) (size 9 to 14) (size 15 to 20)
#    0.000    1.143    2.857    1.714    8.000    1.143 
#    0.000    2.857    0.000    0.000    0.000    0.000 
#    0.000    0.000    0.000    0.000    0.000    0.000 
#
# Total GULP energy -78242.958727 kJ/mol
# GULP energy per Si atom -5588.782766 kJ/mol
# Density = 2.637584 g / cm^3
# Si number density = 26.436007 Si / 1000 Ang^3
#
#
#
# Elastic Constant Matrix: (Units=GPa)
#
#
# Indices 1 2 3 4 5 6 
#
# 1 121.5147 19.3292 35.3581 0.0000 0.0000 0.0000
# 2 19.3292 67.3280 29.1175 0.0000 0.0000 0.0000
# 3 35.3581 29.1175 170.6897 0.0000 0.0000 0.0000
# 4 0.0000 0.0000 0.0000 48.3181 0.0000 0.0000
# 5 0.0000 0.0000 0.0000 0.0000 0.9251 0.0000
# 6 0.0000 0.0000 0.0000 0.0000 0.0000 64.0501
#
#
#
# Elastic Compliance Matrix: (Units=1/GPa)
#
#
# Indices 1 2 3 4 5 6 
#
# 1 0.008980 -0.001915 -0.001534 0.000000 0.000000 0.000000
# 2 -0.001915 0.016444 -0.002408 0.000000 0.000000 0.000000
# 3 -0.001534 -0.002408 0.006587 0.000000 0.000000 0.000000
# 4 0.000000 0.000000 0.000000 0.020696 0.000000 0.000000
# 5 0.000000 0.000000 0.000000 0.000000 1.081012 0.000000
# 6 0.000000 0.000000 0.000000 0.000000 0.000000 0.015613
#
#
# Mechanical properties :
#
#
# Convention : Reuss Voigt Hill
#
# Bulk Modulus (GPa) = 49.26721 58.57132 53.91927
# Shear Modulus (GPa) = 4.28151 41.04049 22.66100
#
# Velocity S-wave (km/s) = 1.27401 3.94438 2.93098
# Velocity P-wave (km/s) = 4.56519 6.55349 5.64753
#
# Compressibility (1/GPa) = 0.02029748
#
# Stress axis : x y z
#
# Youngs Moduli (GPa) = 111.35485 60.81240 151.81144
#
# Poissons Ratio (x) = 0.11645 0.23282
# Poissons Ratio (y) = 0.21324 0.36563
# Poissons Ratio (z) = 0.17077 0.14646
#
# Static dielectric constant tensor:
#      x y z
#    x 2.191790 0.000000 0.000000 
#    y 0.000000 2.162950 0.000000 
#    z 0.000000 0.000000 2.042630 
# 
# From -- ./inp_files/8739.got.cif
#   From: 2010.05.17/outbox.cif.g08.bks.cpg/sg17_5_cif.got.tgz:8739.got - 2010.06.03 22:34:06.
