data_PCOD9311065
_publ_section_title
;
Structure prediction by ZEFSAII (Michael W. Deem and Ramdas Pophale) SiO2 
 PCOD9311065
Probable space group: P 2 2 21
;
_chemical_formula_sum "Si O2"
_cell_formula_units_Z 30
_cell_length_a 7.117920
_cell_length_b 5.576554
_cell_length_c 29.700185
_cell_angle_alpha 90.000000
_cell_angle_beta 90.000000
_cell_angle_gamma 90.000000
_cell_volume 1178.903261
_symmetry_space_group_name_H-M "P 2 2 21"
_symmetry_group_IT_number 17
_symmetry_cell_setting 'orthorhombic'
loop_
_space_group_symop_operation_xyz
x,y,z
-x,-y,1/2+z
x,-y,-z
-x,y,1/2-z
loop_
_atom_site_type_symbol
_atom_site_label
_atom_site_fract_x
_atom_site_fract_y
_atom_site_fract_z
Si Si1 0.328668 0.358564 0.329951
Si Si2 0.288002 0.882099 0.423153
Si Si3 0.174871 0.276471 0.734266
Si Si4 0.635792 0.379790 0.064197
Si Si5 0.500000 0.029292 0.250000
Si Si6 0.740049 0.899861 0.409416
Si Si7 0.019456 0.978333 0.657477
Si Si8 0.209655 0.600610 0.953518
O O1 0.311914 0.596103 0.301254
O O2 0.404500 0.376826 0.380938
O O3 0.430817 0.180504 0.294123
O O4 0.111633 0.281861 0.339450
O O5 0.257000 0.135986 0.447242
O O6 0.514302 0.890437 0.413564
O O7 0.160749 0.895637 0.378654
O O8 0.258800 0.626189 0.445676
O O9 0.000000 0.443762 0.750000
O O10 0.323746 0.134776 0.763967
O O11 0.052187 0.092736 0.705264
O O12 0.435495 0.378528 0.041197
O O13 0.827185 0.122113 0.439120
O O14 0.813852 0.984004 0.361180
O O15 0.811694 0.629593 0.420110
O O16 0.129882 0.500000 0.000000
#
# Coordination Sequence:
#
# PCOD9311065 Si02
#       8
#     4   4   4   4   2   4   4   4
#     4  10  21  41  63  89 130 169 220 279 327 398
#     4   9  18  36  58  90 118 149 208 256 303 367
#     4  11  24  41  62  93 130 172 224 281 342 399
#     4   9  18  35  63  88 119 163 206 254 313 378
#     4  10  24  44  62  88 132 176 214 286 342 400
#     4  10  22  37  65  96 121 167 210 257 320 389
#     4  10  22  38  63  85 123 165 214 264 318 384
#     4  10  21  39  63  95 131 164 208 266 327 392
#
# _framework density 25.447379000000002
#
# number of rings (size 3 to 8) (size 9 to 14) (size 15 to 20)
#    0.000    2.133    1.333    0.800    1.867    6.400 
#    4.800    1.333    0.000   29.600    0.000    0.000 
#    0.000    0.000    0.000    0.000    0.000    0.000 
#
# Total GULP energy -167194.369959 kJ/mol
# GULP energy per Si atom -5573.145665 kJ/mol
# Density = 2.538946 g / cm^3
# Si number density = 25.447379 Si / 1000 Ang^3
#
#
#
# Elastic Constant Matrix: (Units=GPa)
#
#
# Indices 1 2 3 4 5 6 
#
# 1 111.8140 4.2647 11.1115 0.0000 0.0000 0.0000
# 2 4.2647 140.7993 -2.5399 0.0000 0.0000 0.0000
# 3 11.1115 -2.5399 47.9402 0.0000 0.0000 0.0000
# 4 0.0000 0.0000 0.0000 22.8164 0.0000 0.0000
# 5 0.0000 0.0000 0.0000 0.0000 22.6341 0.0000
# 6 0.0000 0.0000 0.0000 0.0000 0.0000 9.5074
#
#
#
# Elastic Compliance Matrix: (Units=1/GPa)
#
#
# Indices 1 2 3 4 5 6 
#
# 1 0.009168 -0.000316 -0.002142 0.000000 0.000000 0.000000
# 2 -0.000316 0.007120 0.000451 0.000000 0.000000 0.000000
# 3 -0.002142 0.000451 0.021380 0.000000 0.000000 0.000000
# 4 0.000000 0.000000 0.000000 0.043828 0.000000 0.000000
# 5 0.000000 0.000000 0.000000 0.000000 0.044181 0.000000
# 6 0.000000 0.000000 0.000000 0.000000 0.000000 0.105181
#
#
# Mechanical properties :
#
#
# Convention : Reuss Voigt Hill
#
# Bulk Modulus (GPa) = 29.71522 36.24734 32.98128
# Shear Modulus (GPa) = 20.31768 30.17271 25.24519
#
# Velocity S-wave (km/s) = 2.82870 3.44712 3.15311
# Velocity P-wave (km/s) = 4.72982 5.48803 5.12297
#
# Compressibility (1/GPa) = 0.03365279
#
# Stress axis : x y z
#
# Youngs Moduli (GPa) = 109.07108 140.44906 46.77355
#
# Poissons Ratio (x) = 0.04443 0.10018
# Poissons Ratio (y) = 0.03450 -0.02107
# Poissons Ratio (z) = 0.23361 -0.06328
#
# Static dielectric constant tensor:
#      x y z
#    x 2.088630 0.000000 0.000000 
#    y 0.000000 2.127010 0.000000 
#    z 0.000000 0.000000 2.116450 
# 
# From -- ./inp_files/11232.got.cif
#   From: 2010.05.17/outbox.cif.g08.bks.cpg/sg17_6_cif.got.tgz:11232.got - 2010.06.03 22:34:06.
