data_PCOD9311008
_publ_section_title
;
Structure prediction by ZEFSAII (Michael W. Deem and Ramdas Pophale) SiO2 
 PCOD9311008
Probable space group: P 2 2 21
;
_chemical_formula_sum "Si O2"
_cell_formula_units_Z 30
_cell_length_a 9.048545
_cell_length_b 7.604916
_cell_length_c 21.418770
_cell_angle_alpha 90.000000
_cell_angle_beta 90.000000
_cell_angle_gamma 90.000000
_cell_volume 1473.898915
_symmetry_space_group_name_H-M "P 2 2 21"
_symmetry_group_IT_number 17
_symmetry_cell_setting 'orthorhombic'
loop_
_space_group_symop_operation_xyz
x,y,z
-x,-y,1/2+z
x,-y,-z
-x,y,1/2-z
loop_
_atom_site_type_symbol
_atom_site_label
_atom_site_fract_x
_atom_site_fract_y
_atom_site_fract_z
Si Si1 0.433578 0.937980 0.182543
Si Si2 0.012344 0.669093 0.560278
Si Si3 0.909336 0.269158 0.306691
Si Si4 0.417826 0.344608 0.182733
Si Si5 0.111774 0.142413 0.803679
Si Si6 0.709782 0.500000 0.000000
Si Si7 0.863862 0.286562 0.562429
Si Si8 0.520130 0.660545 0.409844
O O1 0.500000 0.955374 0.250000
O O2 0.286734 0.818568 0.195089
O O3 0.523705 0.824142 0.133466
O O4 0.422544 0.140321 0.159699
O O5 0.177775 0.616255 0.541483
O O6 0.997670 0.745195 0.628913
O O7 0.922745 0.485698 0.566404
O O8 0.931951 0.774335 0.504070
O O9 0.757509 0.374117 0.311218
O O10 0.000000 0.347925 0.250000
O O11 0.876281 0.066499 0.290913
O O12 0.500000 0.360137 0.250000
O O13 0.474532 0.484860 0.132775
O O14 0.073521 0.188827 0.875741
O O15 0.000000 0.211365 0.750000
O O16 0.601774 0.374961 0.961495
O O17 0.684869 0.294865 0.563330
#
# Coordination Sequence:
#
# PCOD9311008 Si02
#       8
#     4   4   4   4   4   2   4   4
#     4   9  20  37  56  86 122 148 193 246 290 354
#     4  10  21  39  56  83 116 150 195 244 292 347
#     4  10  21  37  58  84 118 151 192 248 295 350
#     4  10  21  37  60  90 117 153 195 242 296 357
#     4   9  19  35  57  86 114 153 192 238 296 345
#     4  10  24  36  60  82 118 152 200 250 282 360
#     4   9  19  36  58  81 111 154 193 235 290 352
#     4  11  20  38  61  83 114 160 196 241 299 344
#
# _framework density 20.354178000000001
#
# number of rings (size 3 to 8) (size 9 to 14) (size 15 to 20)
#    0.000    2.400    1.333    1.200    1.867    3.200 
#    0.000    0.667    5.867    0.000    0.000    0.000 
#    0.000    0.000    0.000    0.000    0.000    0.000 
#
# Total GULP energy -167042.869384 kJ/mol
# GULP energy per Si atom -5568.095646 kJ/mol
# Density = 2.030785 g / cm^3
# Si number density = 20.354178 Si / 1000 Ang^3
#
#
#
# Elastic Constant Matrix: (Units=GPa)
#
#
# Indices 1 2 3 4 5 6 
#
# 1 79.0744 0.6550 41.5134 0.0000 0.0000 0.0000
# 2 0.6550 43.9160 -3.7536 0.0000 0.0000 0.0000
# 3 41.5134 -3.7536 94.4472 0.0000 0.0000 0.0000
# 4 0.0000 0.0000 0.0000 -5.5410 0.0000 0.0000
# 5 0.0000 0.0000 0.0000 0.0000 29.0082 0.0000
# 6 0.0000 0.0000 0.0000 0.0000 0.0000 4.8906
#
#
#
# Elastic Compliance Matrix: (Units=1/GPa)
#
#
# Indices 1 2 3 4 5 6 
#
# 1 0.016473 -0.000868 -0.007275 0.000000 0.000000 0.000000
# 2 -0.000868 0.022894 0.001291 0.000000 0.000000 0.000000
# 3 -0.007275 0.001291 0.013837 0.000000 0.000000 0.000000
# 4 0.000000 0.000000 0.000000 -0.180474 0.000000 0.000000
# 5 0.000000 0.000000 0.000000 0.000000 0.034473 0.000000
# 6 0.000000 0.000000 0.000000 0.000000 0.000000 0.204473
#
#
# Mechanical properties :
#
#
# Convention : Reuss Voigt Hill
#
# Bulk Modulus (GPa) = 25.31570 32.69636 29.00603
# Shear Modulus (GPa) = 36.08927 17.60642 26.84784
#
# Velocity S-wave (km/s) = 4.21535 2.94428 3.63579
# Velocity P-wave (km/s) = 6.01305 5.25899 5.64862
#
# Compressibility (1/GPa) = 0.03950118
#
# Stress axis : x y z
#
# Youngs Moduli (GPa) = 60.70615 43.67947 72.27065
#
# Poissons Ratio (x) = 0.03789 0.52576
# Poissons Ratio (y) = 0.05266 -0.09331
# Poissons Ratio (z) = 0.44163 -0.05640
#
# Static dielectric constant tensor:
#      x y z
#    x 1.764140 0.000000 0.000000 
#    y 0.000000 1.743590 0.000000 
#    z 0.000000 0.000000 1.829280 
# 
# From -- ./inp_files/10140.got.cif
#   From: 2010.05.17/outbox.cif.g08.bks.cpg/sg17_6_cif.got.tgz:10140.got - 2010.06.03 22:34:06.
