data_PCOD9311087
_publ_section_title
;
Structure prediction by ZEFSAII (Michael W. Deem and Ramdas Pophale) SiO2 
 PCOD9311087
Probable space group: P 2 2 21
;
_chemical_formula_sum "Si O2"
_cell_formula_units_Z 22
_cell_length_a 15.079853
_cell_length_b 8.611817
_cell_length_c 7.085057
_cell_angle_alpha 90.000000
_cell_angle_beta 90.000000
_cell_angle_gamma 90.000000
_cell_volume 920.100463
_symmetry_space_group_name_H-M "P 2 2 21"
_symmetry_group_IT_number 17
_symmetry_cell_setting 'orthorhombic'
loop_
_space_group_symop_operation_xyz
x,y,z
-x,-y,1/2+z
x,-y,-z
-x,y,1/2-z
loop_
_atom_site_type_symbol
_atom_site_label
_atom_site_fract_x
_atom_site_fract_y
_atom_site_fract_z
Si Si1 0.339161 0.331969 0.986707
Si Si2 0.832997 0.178227 0.520583
Si Si3 0.373214 0.319850 0.546061
Si Si4 0.988805 0.679653 0.027225
Si Si5 0.500000 0.267961 0.250000
Si Si6 0.190861 0.820277 0.464758
O O1 0.265531 0.209884 0.056252
O O2 0.372702 0.298206 0.773196
O O3 0.421920 0.655269 0.873256
O O4 0.292839 0.500000 0.000000
O O5 0.914208 0.281049 0.447418
O O6 0.818509 0.209419 0.741719
O O7 0.859033 0.000000 0.500000
O O8 0.396462 0.500000 0.500000
O O9 0.439366 0.208819 0.426528
O O10 0.273177 0.286247 0.477561
O O11 0.000000 0.711529 0.250000
O O12 0.905983 0.780059 0.955946
O O13 0.967359 0.500000 0.000000
O O14 0.211714 0.000000 0.500000
#
# Coordination Sequence:
#
# PCOD9311087 Si02
#       6
#     4   4   4   4   2   4
#     4  11  23  39  64  95 125 164 215 267 318 378
#     4  10  23  40  63  91 130 166 209 252 311 382
#     4  11  23  39  64  95 125 164 215 267 318 378
#     4  10  21  40  64  98 128 162 207 254 306 375
#     4  12  24  40  68  90 128 162 218 264 340 356
#     4  10  23  40  63  91 130 166 209 252 311 382
#
# _framework density 23.910433999999999
#
# number of rings (size 3 to 8) (size 9 to 14) (size 15 to 20)
#    0.000    1.455    1.818    2.727    2.545    1.455 
#    0.000    0.909    0.000    0.000    0.000    0.000 
#    0.000    0.000    0.000    0.000    0.000    0.000 
#
# Total GULP energy -122739.149929 kJ/mol
# GULP energy per Si atom -5579.052270 kJ/mol
# Density = 2.385601 g / cm^3
# Si number density = 23.910434 Si / 1000 Ang^3
#
#
#
# Elastic Constant Matrix: (Units=GPa)
#
#
# Indices 1 2 3 4 5 6 
#
# 1 136.5170 16.1732 14.5296 0.0000 0.0000 0.0000
# 2 16.1732 43.9898 -28.7815 0.0000 0.0000 0.0000
# 3 14.5296 -28.7815 138.1861 0.0000 0.0000 0.0000
# 4 0.0000 0.0000 0.0000 18.8471 0.0000 0.0000
# 5 0.0000 0.0000 0.0000 0.0000 -6.4857 0.0000
# 6 0.0000 0.0000 0.0000 0.0000 0.0000 -23.2812
#
#
#
# Elastic Compliance Matrix: (Units=1/GPa)
#
#
# Indices 1 2 3 4 5 6 
#
# 1 0.007982 -0.004033 -0.001679 0.000000 0.000000 0.000000
# 2 -0.004033 0.028357 0.006330 0.000000 0.000000 0.000000
# 3 -0.001679 0.006330 0.008732 0.000000 0.000000 0.000000
# 4 0.000000 0.000000 0.000000 0.053059 0.000000 0.000000
# 5 0.000000 0.000000 0.000000 0.000000 -0.154185 0.000000
# 6 0.000000 0.000000 0.000000 0.000000 0.000000 -0.042953
#
#
# Mechanical properties :
#
#
# Convention : Reuss Voigt Hill
#
# Bulk Modulus (GPa) = 21.59543 35.83729 28.71636
# Shear Modulus (GPa) = -58.95560 18.93414 -20.01073
#
# Velocity S-wave (km/s) = -4.97095 2.81709 -2.89607
# Velocity P-wave (km/s) = 4.88833 5.05984 0.92364
#
# Compressibility (1/GPa) = 0.04630609
#
# Stress axis : x y z
#
# Youngs Moduli (GPa) = 125.28756 35.26447 114.52568
#
# Poissons Ratio (x) = 0.14223 0.19232
# Poissons Ratio (y) = 0.50531 -0.72498
# Poissons Ratio (z) = 0.21039 -0.22324
#
# Static dielectric constant tensor:
#      x y z
#    x 1.912940 0.000000 0.000000 
#    y 0.000000 1.885770 0.000000 
#    z 0.000000 0.000000 1.975080 
# 
# From -- ./inp_files/5113.got.cif
#   From: 2010.05.17/outbox.cif.g08.bks.cpg/sg17_3_cif.got.tgz:5113.got - 2010.06.03 22:34:06.
