data_PCOD9311144
_publ_section_title
;
Structure prediction by ZEFSAII (Michael W. Deem and Ramdas Pophale) SiO2 
 PCOD9311144
Probable space group: P 2 2 21
;
_chemical_formula_sum "Si O2"
_cell_formula_units_Z 20
_cell_length_a 7.523846
_cell_length_b 7.630066
_cell_length_c 14.594475
_cell_angle_alpha 90.000000
_cell_angle_beta 90.000000
_cell_angle_gamma 90.000000
_cell_volume 837.831471
_symmetry_space_group_name_H-M "P 2 2 21"
_symmetry_group_IT_number 17
_symmetry_cell_setting 'orthorhombic'
loop_
_space_group_symop_operation_xyz
x,y,z
-x,-y,1/2+z
x,-y,-z
-x,y,1/2-z
loop_
_atom_site_type_symbol
_atom_site_label
_atom_site_fract_x
_atom_site_fract_y
_atom_site_fract_z
Si Si1 0.199617 0.666665 0.726571
Si Si2 0.385188 0.194912 0.888280
Si Si3 0.767864 0.273672 0.805031
Si Si4 0.731971 0.200791 0.414649
Si Si5 0.130954 0.943378 0.596719
O O1 0.182434 0.475771 0.683317
O O2 0.296780 0.679365 0.824546
O O3 0.256435 0.810923 0.652874
O O4 0.000000 0.727149 0.750000
O O5 0.582173 0.243354 0.857009
O O6 0.263735 0.252962 0.803221
O O7 0.360275 0.985715 0.895731
O O8 0.332668 0.270093 0.987416
O O9 0.891066 0.120441 0.844569
O O10 0.942207 0.150495 0.424336
O O11 0.210545 0.000000 0.500000
#
# Coordination Sequence:
#
# PCOD9311144 Si02
#       5
#     4   4   4   4   4
#     4  10  24  42  71 106 135 181 235 290 342 410
#     4  10  22  44  69 102 136 187 228 280 355 414
#     4  11  25  43  67 101 144 180 231 287 353 412
#     4  10  21  44  75 100 133 184 236 281 348 411
#     4  11  23  42  71 100 139 184 235 290 338 403
#
# _framework density 23.871148000000002
#
# number of rings (size 3 to 8) (size 9 to 14) (size 15 to 20)
#    0.000    1.600    4.000    0.000    5.600    1.600 
#    7.200    8.000    0.000    0.000    0.000    0.000 
#    0.000    0.000    0.000    0.000    0.000    0.000 
#
# Total GULP energy -111845.507394 kJ/mol
# GULP energy per Si atom -5592.275370 kJ/mol
# Density = 2.381682 g / cm^3
# Si number density = 23.871148 Si / 1000 Ang^3
#
#
#
# Elastic Constant Matrix: (Units=GPa)
#
#
# Indices 1 2 3 4 5 6 
#
# 1 46.4437 -14.4977 18.9967 0.0000 0.0000 0.0000
# 2 -14.4977 93.6533 58.8941 0.0000 0.0000 0.0000
# 3 18.9967 58.8941 181.7002 0.0000 0.0000 0.0000
# 4 0.0000 0.0000 0.0000 -15.2543 0.0000 0.0000
# 5 0.0000 0.0000 0.0000 0.0000 26.8327 0.0000
# 6 0.0000 0.0000 0.0000 0.0000 0.0000 18.7372
#
#
#
# Elastic Compliance Matrix: (Units=1/GPa)
#
#
# Indices 1 2 3 4 5 6 
#
# 1 0.025816 0.007151 -0.005017 0.000000 0.000000 0.000000
# 2 0.007151 0.015392 -0.005737 0.000000 0.000000 0.000000
# 3 -0.005017 -0.005737 0.007888 0.000000 0.000000 0.000000
# 4 0.000000 0.000000 0.000000 -0.065555 0.000000 0.000000
# 5 0.000000 0.000000 0.000000 0.000000 0.037268 0.000000
# 6 0.000000 0.000000 0.000000 0.000000 0.000000 0.053370
#
#
# Mechanical properties :
#
#
# Convention : Reuss Voigt Hill
#
# Bulk Modulus (GPa) = 23.87161 49.84262 36.85712
# Shear Modulus (GPa) = 52.44038 23.29007 37.86522
#
# Velocity S-wave (km/s) = 4.69210 3.12694 3.98708
# Velocity P-wave (km/s) = 6.27505 5.82771 6.05551
#
# Compressibility (1/GPa) = 0.04189076
#
# Stress axis : x y z
#
# Youngs Moduli (GPa) = 38.73592 64.96774 126.78246
#
# Poissons Ratio (x) = -0.46460 0.63606
# Poissons Ratio (y) = -0.27701 0.72732
# Poissons Ratio (z) = 0.19434 0.37270
#
# Static dielectric constant tensor:
#      x y z
#    x 1.978080 0.000000 0.000000 
#    y 0.000000 1.874670 0.000000 
#    z 0.000000 0.000000 1.956240 
# 
# From -- ./inp_files/8002.got.cif
#   From: 2010.05.17/outbox.cif.g08.bks.cpg/sg17_5_cif.got.tgz:8002.got - 2010.06.03 22:34:06.
