data_PCOD9311593
_publ_section_title
;
Structure prediction by ZEFSAII (Michael W. Deem and Ramdas Pophale) SiO2 
 PCOD9311593
Probable space group: P 2 2 21
;
_chemical_formula_sum "Si O2"
_cell_formula_units_Z 12
_cell_length_a 6.220043
_cell_length_b 4.385017
_cell_length_c 14.857532
_cell_angle_alpha 90.000000
_cell_angle_beta 90.000000
_cell_angle_gamma 90.000000
_cell_volume 405.239101
_symmetry_space_group_name_H-M "P 2 2 21"
_symmetry_group_IT_number 17
_symmetry_cell_setting 'orthorhombic'
loop_
_space_group_symop_operation_xyz
x,y,z
-x,-y,1/2+z
x,-y,-z
-x,y,1/2-z
loop_
_atom_site_type_symbol
_atom_site_label
_atom_site_fract_x
_atom_site_fract_y
_atom_site_fract_z
Si Si1 0.333399 0.000000 0.000000
Si Si2 0.088124 0.055777 0.836306
Si Si3 0.500000 0.819106 0.250000
Si Si4 0.703234 0.378049 0.096320
O O1 0.496956 0.197896 0.058407
O O2 0.604593 0.618803 0.168593
O O3 0.312552 0.966691 0.788791
O O4 0.000000 0.246145 0.750000
O O5 0.904271 0.816739 0.864417
O O6 0.180097 0.179859 0.930122
O O7 0.786662 0.500000 0.000000
#
# Coordination Sequence:
#
# PCOD9311593 Si02
#       4
#     2   4   2   4
#     4  12  26  54  84 132 178 220 310 356 418 552
#     4  12  28  51  88 129 170 225 303 353 424 546
#     4  12  28  58  90 126 178 234 288 368 448 514
#     4  12  28  55  88 124 179 235 283 367 450 504
#
# _framework density 29.612148999999999
#
# number of rings (size 3 to 8) (size 9 to 14) (size 15 to 20)
#    0.000    0.000    3.333    5.000    4.667    5.333 
#    0.000    0.000    0.000    0.000    0.000    0.000 
#    0.000    0.000    0.000    0.000    0.000    0.000 
#
# Total GULP energy -66915.125421 kJ/mol
# GULP energy per Si atom -5576.260452 kJ/mol
# Density = 2.954475 g / cm^3
# Si number density = 29.612149 Si / 1000 Ang^3
#
#
#
# Elastic Constant Matrix: (Units=GPa)
#
#
# Indices 1 2 3 4 5 6 
#
# 1 235.7768 86.5751 159.9602 0.0000 0.0000 0.0000
# 2 86.5751 94.2550 97.3907 0.0000 0.0000 0.0000
# 3 159.9602 97.3907 262.5454 0.0000 0.0000 0.0000
# 4 0.0000 0.0000 0.0000 81.2527 0.0000 0.0000
# 5 0.0000 0.0000 0.0000 0.0000 116.9451 0.0000
# 6 0.0000 0.0000 0.0000 0.0000 0.0000 68.4728
#
#
#
# Elastic Compliance Matrix: (Units=1/GPa)
#
#
# Indices 1 2 3 4 5 6 
#
# 1 0.007965 -0.003732 -0.003468 0.000000 0.000000 0.000000
# 2 -0.003732 0.018952 -0.004756 0.000000 0.000000 0.000000
# 3 -0.003468 -0.004756 0.007686 0.000000 0.000000 0.000000
# 4 0.000000 0.000000 0.000000 0.012307 0.000000 0.000000
# 5 0.000000 0.000000 0.000000 0.000000 0.008551 0.000000
# 6 0.000000 0.000000 0.000000 0.000000 0.000000 0.014604
#
#
# Mechanical properties :
#
#
# Convention : Reuss Voigt Hill
#
# Bulk Modulus (GPa) = 93.54800 142.26994 117.90897
# Shear Modulus (GPa) = 51.25973 69.91088 60.58530
#
# Velocity S-wave (km/s) = 4.16509 4.86417 4.52814
# Velocity P-wave (km/s) = 7.40204 8.92724 8.20018
#
# Compressibility (1/GPa) = 0.01068970
#
# Stress axis : x y z
#
# Youngs Moduli (GPa) = 125.55490 52.76426 130.10187
#
# Poissons Ratio (x) = 0.19692 0.45121
# Poissons Ratio (y) = 0.46859 0.61882
# Poissons Ratio (z) = 0.43544 0.25097
#
# Static dielectric constant tensor:
#      x y z
#    x 2.319320 0.000000 0.000000 
#    y 0.000000 2.399360 0.000000 
#    z 0.000000 0.000000 2.358630 
# 
# From -- ./inp_files/5685.got.cif
#   From: 2010.05.17/outbox.cif.g08.bks.cpg/sg17_3_cif.got.tgz:5685.got - 2010.06.03 22:34:06.
