data_PCOD9311740
_publ_section_title
;
Structure prediction by ZEFSAII (Michael W. Deem and Ramdas Pophale) SiO2 
 PCOD9311740
Probable space group: P 21 21 2
;
_chemical_formula_sum "Si O2"
_cell_formula_units_Z 22
_cell_length_a 9.357417
_cell_length_b 14.022736
_cell_length_c 7.356148
_cell_angle_alpha 90.000000
_cell_angle_beta 90.000000
_cell_angle_gamma 90.000000
_cell_volume 965.248643
_symmetry_space_group_name_H-M "P 21 21 2"
_symmetry_group_IT_number 18
_symmetry_cell_setting 'orthorhombic'
loop_
_space_group_symop_operation_xyz
x,y,z
-x,-y,z
1/2+x,1/2-y,-z
1/2-x,1/2+y,-z
loop_
_atom_site_type_symbol
_atom_site_label
_atom_site_fract_x
_atom_site_fract_y
_atom_site_fract_z
Si Si1 0.796567 0.853231 0.263842
Si Si2 0.719762 0.362606 0.301340
Si Si3 0.500000 0.500000 0.908761
Si Si4 0.538817 0.167185 0.715718
Si Si5 0.518366 0.765811 0.310378
Si Si6 0.167749 0.922591 0.776533
O O1 0.780759 0.849590 0.481647
O O2 0.903376 0.768022 0.213817
O O3 0.634285 0.829126 0.203294
O O4 0.874734 0.948306 0.202059
O O5 0.625962 0.275617 0.223161
O O6 0.652076 0.466707 0.276210
O O7 0.879582 0.358960 0.228133
O O8 0.585211 0.577455 0.031844
O O9 0.526630 0.180370 0.495361
O O10 0.662685 0.094978 0.772737
O O11 0.603455 0.664421 0.344102
#
# Coordination Sequence:
#
# PCOD9311740 Si02
#       6
#     4   4   2   4   4   4
#     4   9  22  38  63  93 130 168 219 261 329 393
#     4  10  18  37  70  94 120 162 224 286 316 362
#     4  12  24  40  60  96 142 188 202 256 340 412
#     4   9  20  38  66  94 122 160 220 283 316 370
#     4   9  18  39  65  95 116 162 220 275 316 367
#     4  11  21  38  64  95 129 169 220 257 335 391
#
# _framework density 22.792055000000001
#
# number of rings (size 3 to 8) (size 9 to 14) (size 15 to 20)
#    0.000    2.182    1.818    1.636    5.091    0.000 
#    6.545    0.000    4.000    0.000    0.000    0.000 
#    0.000    0.000    0.000    0.000    0.000    0.000 
#
# Total GULP energy -122623.342417 kJ/mol
# GULP energy per Si atom -5573.788292 kJ/mol
# Density = 2.274018 g / cm^3
# Si number density = 22.792055 Si / 1000 Ang^3
#
#
#
# Elastic Constant Matrix: (Units=GPa)
#
#
# Indices 1 2 3 4 5 6 
#
# 1 182.1591 29.4995 28.7087 0.0000 0.0000 0.0000
# 2 29.4995 46.8425 18.6410 0.0000 0.0000 0.0000
# 3 28.7087 18.6410 72.2992 0.0000 0.0000 0.0000
# 4 0.0000 0.0000 0.0000 -30.4271 0.0000 0.0000
# 5 0.0000 0.0000 0.0000 0.0000 -0.8779 0.0000
# 6 0.0000 0.0000 0.0000 0.0000 0.0000 47.7930
#
#
#
# Elastic Compliance Matrix: (Units=1/GPa)
#
#
# Indices 1 2 3 4 5 6 
#
# 1 0.006284 -0.003303 -0.001643 0.000000 0.000000 0.000000
# 2 -0.003303 0.025525 -0.005270 0.000000 0.000000 0.000000
# 3 -0.001643 -0.005270 0.015843 0.000000 0.000000 0.000000
# 4 0.000000 0.000000 0.000000 -0.032865 0.000000 0.000000
# 5 0.000000 0.000000 0.000000 0.000000 -1.139075 0.000000
# 6 0.000000 0.000000 0.000000 0.000000 0.000000 0.020924
#
#
# Mechanical properties :
#
#
# Convention : Reuss Voigt Hill
#
# Bulk Modulus (GPa) = 36.73874 50.55546 43.64710
# Shear Modulus (GPa) = -4.65610 18.26104 6.80247
#
# Velocity S-wave (km/s) = -1.43084 2.83362 1.72947
# Velocity P-wave (km/s) = 3.66393 5.73892 4.81454
#
# Compressibility (1/GPa) = 0.02721922
#
# Stress axis : x y z
#
# Youngs Moduli (GPa) = 159.14321 39.17664 63.12063
#
# Poissons Ratio (x) = 0.12941 0.10374
# Poissons Ratio (y) = 0.52568 0.33262
# Poissons Ratio (z) = 0.26155 0.20645
#
# Static dielectric constant tensor:
#      x y z
#    x 1.932300 0.000000 0.000000 
#    y 0.000000 1.870620 0.000000 
#    z 0.000000 0.000000 1.896800 
# 
# From -- ./inp_files/3102.got.cif
#   From: 2010.05.17/outbox.cif.g08.bks.cpg/sg18_2_cif.got.tgz:3102.got - 2010.06.03 22:40:56.
