data_PCOD9311600
_publ_section_title
;
Structure prediction by ZEFSAII (Michael W. Deem and Ramdas Pophale) SiO2 
 PCOD9311600
Probable space group: P 2 2 21
;
_chemical_formula_sum "Si O2"
_cell_formula_units_Z 12
_cell_length_a 4.819918
_cell_length_b 11.638059
_cell_length_c 8.943254
_cell_angle_alpha 90.000000
_cell_angle_beta 90.000000
_cell_angle_gamma 90.000000
_cell_volume 501.667273
_symmetry_space_group_name_H-M "P 2 2 21"
_symmetry_group_IT_number 17
_symmetry_cell_setting 'orthorhombic'
loop_
_space_group_symop_operation_xyz
x,y,z
-x,-y,1/2+z
x,-y,-z
-x,y,1/2-z
loop_
_atom_site_type_symbol
_atom_site_label
_atom_site_fract_x
_atom_site_fract_y
_atom_site_fract_z
Si Si1 0.972377 0.122775 0.570740
Si Si2 0.545198 0.266198 0.036663
Si Si3 0.346203 0.500000 0.000000
Si Si4 0.000000 0.370973 0.250000
O O1 0.764254 0.216028 0.494797
O O2 0.000000 0.119024 0.750000
O O3 0.278041 0.162946 0.528327
O O4 0.904371 0.000000 0.500000
O O5 0.743996 0.298407 0.179688
O O6 0.532130 0.390472 0.955439
O O7 0.153898 0.548853 0.869629
#
# Coordination Sequence:
#
# PCOD9311600 Si02
#       4
#     4   4   2   2
#     4  12  30  52  84 117 162 217 279 343 408 492
#     4  12  28  51  80 119 164 212 272 335 414 489
#     4  12  28  48  84 120 164 214 272 336 424 482
#     4  12  28  52  80 122 170 216 268 348 400 520
#
# _framework density 23.920238000000001
#
# number of rings (size 3 to 8) (size 9 to 14) (size 15 to 20)
#    0.000    0.000    3.333    4.000    4.667    5.333 
#    0.000    0.000    0.000    0.000    0.000    0.000 
#    0.000    0.000    0.000    0.000    0.000    0.000 
#
# Total GULP energy -66888.607358 kJ/mol
# GULP energy per Si atom -5574.050613 kJ/mol
# Density = 2.386579 g / cm^3
# Si number density = 23.920238 Si / 1000 Ang^3
#
#
#
# Elastic Constant Matrix: (Units=GPa)
#
#
# Indices 1 2 3 4 5 6 
#
# 1 130.3113 10.2224 25.6406 0.0000 0.0000 0.0000
# 2 10.2224 150.1361 27.4680 0.0000 0.0000 0.0000
# 3 25.6406 27.4680 145.6874 0.0000 0.0000 0.0000
# 4 0.0000 0.0000 0.0000 33.7815 0.0000 0.0000
# 5 0.0000 0.0000 0.0000 0.0000 12.8216 0.0000
# 6 0.0000 0.0000 0.0000 0.0000 0.0000 51.3856
#
#
#
# Elastic Compliance Matrix: (Units=1/GPa)
#
#
# Indices 1 2 3 4 5 6 
#
# 1 0.007962 -0.000296 -0.001345 0.000000 0.000000 0.000000
# 2 -0.000296 0.006910 -0.001251 0.000000 0.000000 0.000000
# 3 -0.001345 -0.001251 0.007337 0.000000 0.000000 0.000000
# 4 0.000000 0.000000 0.000000 0.029602 0.000000 0.000000
# 5 0.000000 0.000000 0.000000 0.000000 0.077994 0.000000
# 6 0.000000 0.000000 0.000000 0.000000 0.000000 0.019461
#
#
# Mechanical properties :
#
#
# Convention : Reuss Voigt Hill
#
# Bulk Modulus (GPa) = 60.88675 61.42189 61.15432
# Shear Modulus (GPa) = 31.14813 43.78464 37.46638
#
# Velocity S-wave (km/s) = 3.61247 4.28301 3.96195
# Velocity P-wave (km/s) = 6.55051 7.08466 6.82282
#
# Compressibility (1/GPa) = 0.01642394
#
# Stress axis : x y z
#
# Youngs Moduli (GPa) = 125.59830 144.72651 136.30271
#
# Poissons Ratio (x) = 0.04283 0.18339
# Poissons Ratio (y) = 0.03717 0.17047
# Poissons Ratio (z) = 0.16899 0.18100
#
# Static dielectric constant tensor:
#      x y z
#    x 1.966720 0.000000 0.000000 
#    y 0.000000 1.803470 0.000000 
#    z 0.000000 0.000000 2.020650 
# 
# From -- ./inp_files/3345.got.cif
#   From: 2010.05.17/outbox.cif.g08.bks.cpg/sg17_2_cif.got.tgz:3345.got - 2010.06.03 22:34:06.
