data_PCOD9311578
_publ_section_title
;
Structure prediction by ZEFSAII (Michael W. Deem and Ramdas Pophale) SiO2 
 PCOD9311578
Probable space group: P 2 2 21
;
_chemical_formula_sum "Si O2"
_cell_formula_units_Z 22
_cell_length_a 5.148826
_cell_length_b 12.283735
_cell_length_c 14.966712
_cell_angle_alpha 90.000000
_cell_angle_beta 90.000000
_cell_angle_gamma 90.000000
_cell_volume 946.596852
_symmetry_space_group_name_H-M "P 2 2 21"
_symmetry_group_IT_number 17
_symmetry_cell_setting 'orthorhombic'
loop_
_space_group_symop_operation_xyz
x,y,z
-x,-y,1/2+z
x,-y,-z
-x,y,1/2-z
loop_
_atom_site_type_symbol
_atom_site_label
_atom_site_fract_x
_atom_site_fract_y
_atom_site_fract_z
Si Si1 0.000000 0.775795 0.750000
Si Si2 0.137493 0.222915 0.921260
Si Si3 0.142897 0.649489 0.572920
Si Si4 0.500000 0.916832 0.750000
Si Si5 0.513420 0.500000 0.000000
Si Si6 0.358921 0.073424 0.588144
Si Si7 0.097355 0.548235 0.150995
O O1 0.121546 0.705568 0.668750
O O2 0.249148 0.846382 0.780277
O O3 0.911156 0.136198 0.902830
O O4 0.406346 0.159204 0.918663
O O5 0.115396 0.322632 0.852614
O O6 0.058945 0.283715 0.013499
O O7 0.392426 0.628214 0.512103
O O8 0.106279 0.519121 0.590362
O O9 0.406185 0.992698 0.669952
O O10 0.350252 0.508715 0.095586
O O11 0.352354 0.000000 0.500000
O O12 0.000000 0.518509 0.250000
#
# Coordination Sequence:
#
# PCOD9311578 Si02
#       7
#     2   4   4   2   2   4   4
#     4  12  28  46  82 112 150 204 264 318 410 464
#     4  12  25  47  77 108 151 206 248 317 404 464
#     4  12  25  47  74 118 153 210 254 327 395 497
#     4  12  28  52  72 112 150 196 264 346 380 468
#     4  12  24  50  72 108 178 202 262 332 394 480
#     4  12  27  49  75 106 146 198 263 324 390 459
#     4  12  27  45  73 116 161 207 263 321 399 496
#
# _framework density 23.241152
#
# number of rings (size 3 to 8) (size 9 to 14) (size 15 to 20)
#    0.000    0.000    4.545    4.909    5.091    0.727 
#    0.000    0.000    0.000    0.000    0.000    0.000 
#    0.000    0.000    0.000    0.000    0.000    0.000 
#
# Total GULP energy -122644.337110 kJ/mol
# GULP energy per Si atom -5574.742596 kJ/mol
# Density = 2.318825 g / cm^3
# Si number density = 23.241152 Si / 1000 Ang^3
#
#
#
# Elastic Constant Matrix: (Units=GPa)
#
#
# Indices 1 2 3 4 5 6 
#
# 1 74.4467 29.8172 -27.8602 0.0000 0.0000 0.0000
# 2 29.8172 110.9137 14.3458 0.0000 0.0000 0.0000
# 3 -27.8602 14.3458 91.6922 0.0000 0.0000 0.0000
# 4 0.0000 0.0000 0.0000 25.2066 0.0000 0.0000
# 5 0.0000 0.0000 0.0000 0.0000 21.7298 0.0000
# 6 0.0000 0.0000 0.0000 0.0000 0.0000 104.7777
#
#
#
# Elastic Compliance Matrix: (Units=1/GPa)
#
#
# Indices 1 2 3 4 5 6 
#
# 1 0.018105 -0.005694 0.006392 0.000000 0.000000 0.000000
# 2 -0.005694 0.010993 -0.003450 0.000000 0.000000 0.000000
# 3 0.006392 -0.003450 0.013388 0.000000 0.000000 0.000000
# 4 0.000000 0.000000 0.000000 0.039672 0.000000 0.000000
# 5 0.000000 0.000000 0.000000 0.000000 0.046020 0.000000
# 6 0.000000 0.000000 0.000000 0.000000 0.000000 0.009544
#
#
# Mechanical properties :
#
#
# Convention : Reuss Voigt Hill
#
# Bulk Modulus (GPa) = 27.04020 34.40648 30.72334
# Shear Modulus (GPa) = 32.14333 47.72614 39.93474
#
# Velocity S-wave (km/s) = 3.72295 4.53649 4.14971
# Velocity P-wave (km/s) = 5.49003 6.50200 6.01732
#
# Compressibility (1/GPa) = 0.03698198
#
# Stress axis : x y z
#
# Youngs Moduli (GPa) = 55.23328 90.96718 74.69384
#
# Poissons Ratio (x) = 0.51796 -0.47744
# Poissons Ratio (y) = 0.31450 0.25769
# Poissons Ratio (z) = -0.35305 0.31384
#
# Static dielectric constant tensor:
#      x y z
#    x 2.203110 0.000000 0.000000 
#    y 0.000000 1.881610 0.000000 
#    z 0.000000 0.000000 1.846280 
# 
# From -- ./inp_files/7690.got.cif
#   From: 2010.05.17/outbox.cif.g08.bks.cpg/sg17_4_cif.got.tgz:7690.got - 2010.06.03 22:34:06.
