data_PCOD9311963
_publ_section_title
;
Structure prediction by ZEFSAII (Michael W. Deem and Ramdas Pophale) SiO2 
 PCOD9311963
Probable space group: P 21 21 2
;
_chemical_formula_sum "Si O2"
_cell_formula_units_Z 26
_cell_length_a 11.415665
_cell_length_b 8.831229
_cell_length_c 13.249476
_cell_angle_alpha 90.000000
_cell_angle_beta 90.000000
_cell_angle_gamma 90.000000
_cell_volume 1335.737335
_symmetry_space_group_name_H-M "P 21 21 2"
_symmetry_group_IT_number 18
_symmetry_cell_setting 'orthorhombic'
loop_
_space_group_symop_operation_xyz
x,y,z
-x,-y,z
1/2+x,1/2-y,-z
1/2-x,1/2+y,-z
loop_
_atom_site_type_symbol
_atom_site_label
_atom_site_fract_x
_atom_site_fract_y
_atom_site_fract_z
Si Si1 0.723197 0.827029 0.101007
Si Si2 0.559438 0.257654 0.785835
Si Si3 0.965793 0.228580 0.496195
Si Si4 0.387570 0.391293 0.937341
Si Si5 0.000000 0.500000 0.363338
Si Si6 0.099954 0.624321 0.687584
Si Si7 0.846174 0.942208 0.395823
O O1 0.842548 0.737696 0.128938
O O2 0.645530 0.831379 0.202356
O O3 0.777311 0.994339 0.077789
O O4 0.651898 0.737701 0.015818
O O5 0.437544 0.303156 0.838397
O O6 0.599401 0.394211 0.712444
O O7 0.563279 0.113162 0.713584
O O8 0.944412 0.241901 0.614584
O O9 0.936039 0.384459 0.438778
O O10 0.100708 0.185098 0.471053
O O11 0.891826 0.097964 0.441849
O O12 0.500000 0.500000 0.966414
O O13 0.210154 0.558739 0.625783
O O14 0.000000 0.500000 0.695995
#
# Coordination Sequence:
#
# PCOD9311963 Si02
#       7
#     4   4   4   4   2   4   4
#     4  10  24  42  64  90 129 166 216 271 342 391
#     4   9  21  39  64  93 122 163 218 272 319 391
#     4  10  21  39  62  91 125 170 216 259 310 385
#     4  10  23  44  67  91 127 172 217 277 331 402
#     4  10  20  32  66  92 118 156 226 252 298 406
#     4  11  24  39  61  97 134 168 210 273 333 385
#     4   9  22  40  65  86 128 178 214 260 319 385
#
# _framework density 19.464904000000001
#
# number of rings (size 3 to 8) (size 9 to 14) (size 15 to 20)
#    0.000    2.154    0.769    0.000   23.692    3.692 
#    2.769    1.538    0.000    0.000    0.000    0.000 
#    0.000    0.000    0.000    0.000    0.000    0.000 
#
# Total GULP energy -144763.954767 kJ/mol
# GULP energy per Si atom -5567.844414 kJ/mol
# Density = 1.942060 g / cm^3
# Si number density = 19.464904 Si / 1000 Ang^3
#
#
#
# Elastic Constant Matrix: (Units=GPa)
#
#
# Indices 1 2 3 4 5 6 
#
# 1 71.7812 27.9723 43.9839 0.0000 0.0000 0.0000
# 2 27.9723 95.1915 52.2812 0.0000 0.0000 0.0000
# 3 43.9839 52.2812 116.7109 0.0000 0.0000 0.0000
# 4 0.0000 0.0000 0.0000 23.7108 0.0000 0.0000
# 5 0.0000 0.0000 0.0000 0.0000 -17.4300 0.0000
# 6 0.0000 0.0000 0.0000 0.0000 0.0000 19.6914
#
#
#
# Elastic Compliance Matrix: (Units=1/GPa)
#
#
# Indices 1 2 3 4 5 6 
#
# 1 0.018432 -0.002124 -0.005995 0.000000 0.000000 0.000000
# 2 -0.002124 0.014178 -0.005551 0.000000 0.000000 0.000000
# 3 -0.005995 -0.005551 0.013314 0.000000 0.000000 0.000000
# 4 0.000000 0.000000 0.000000 0.042175 0.000000 0.000000
# 5 0.000000 0.000000 0.000000 0.000000 -0.057372 0.000000
# 6 0.000000 0.000000 0.000000 0.000000 0.000000 0.050784
#
#
# Mechanical properties :
#
#
# Convention : Reuss Voigt Hill
#
# Bulk Modulus (GPa) = 53.80674 59.12871 56.46772
# Shear Modulus (GPa) = 43.46161 15.82419 29.64290
#
# Velocity S-wave (km/s) = 4.73040 2.85434 3.90666
# Velocity P-wave (km/s) = 7.58541 6.42698 7.03010
#
# Compressibility (1/GPa) = 0.01858503
#
# Stress axis : x y z
#
# Youngs Moduli (GPa) = 54.25259 70.53319 75.10933
#
# Poissons Ratio (x) = 0.14980 0.45029
# Poissons Ratio (y) = 0.11522 0.41690
# Poissons Ratio (z) = 0.32525 0.39150
#
# Static dielectric constant tensor:
#      x y z
#    x 1.733500 0.000000 0.000000 
#    y 0.000000 1.732930 0.000000 
#    z 0.000000 0.000000 1.700940 
# 
# From -- ./inp_files/6872.got.cif
#   From: 2010.05.17/outbox.cif.g08.bks.cpg/sg18_4_cif.got.tgz:6872.got - 2010.06.03 22:40:56.
