data_PCOD9311404
_publ_section_title
;
Structure prediction by ZEFSAII (Michael W. Deem and Ramdas Pophale) SiO2 
 PCOD9311404
Probable space group: P 2 2 21
;
_chemical_formula_sum "Si O2"
_cell_formula_units_Z 20
_cell_length_a 18.880358
_cell_length_b 4.995497
_cell_length_c 9.037578
_cell_angle_alpha 90.000000
_cell_angle_beta 90.000000
_cell_angle_gamma 90.000000
_cell_volume 852.395181
_symmetry_space_group_name_H-M "P 2 2 21"
_symmetry_group_IT_number 17
_symmetry_cell_setting 'orthorhombic'
loop_
_space_group_symop_operation_xyz
x,y,z
-x,-y,1/2+z
x,-y,-z
-x,y,1/2-z
loop_
_atom_site_type_symbol
_atom_site_label
_atom_site_fract_x
_atom_site_fract_y
_atom_site_fract_z
Si Si1 0.500000 0.868222 0.250000
Si Si2 0.923162 0.961415 0.177281
Si Si3 0.646235 0.095360 0.165364
Si Si4 0.301721 0.559903 0.203255
Si Si5 0.426093 0.500000 0.000000
Si Si6 0.138931 0.540363 0.833831
O O1 0.562815 0.059721 0.198293
O O2 0.527345 0.687711 0.390695
O O3 0.872520 0.168535 0.264216
O O4 0.000000 0.007676 0.250000
O O5 0.897896 0.666531 0.222533
O O6 0.923428 0.000000 0.000000
O O7 0.680781 0.868522 0.272663
O O8 0.685492 0.378124 0.156387
O O9 0.654180 0.000000 0.000000
O O10 0.222029 0.524351 0.155029
O O11 0.364052 0.397536 0.111925
O O12 0.108620 0.500000 0.000000
#
# Coordination Sequence:
#
# PCOD9311404 Si02
#       6
#     2   4   4   4   2   4
#     4  10  26  40  72  92 136 180 236 304 358 436
#     4  12  27  48  77 115 152 196 245 304 361 442
#     4  11  26  41  66  95 133 174 233 296 360 420
#     4  11  25  45  68 100 137 185 236 292 354 436
#     4  10  24  46  68 100 134 182 242 288 366 418
#     4  12  25  47  76 107 152 199 245 300 373 439
#
# _framework density 23.463296
#
# number of rings (size 3 to 8) (size 9 to 14) (size 15 to 20)
#    0.000    0.800    1.000    4.800    8.400    8.000 
#    0.000    0.000    0.000    0.000    0.000    0.000 
#    0.000    0.000    0.000    0.000    0.000    0.000 
#
# Total GULP energy -111562.003166 kJ/mol
# GULP energy per Si atom -5578.100158 kJ/mol
# Density = 2.340989 g / cm^3
# Si number density = 23.463296 Si / 1000 Ang^3
#
#
#
# Elastic Constant Matrix: (Units=GPa)
#
#
# Indices 1 2 3 4 5 6 
#
# 1 90.5514 -2.0119 11.7072 0.0000 0.0000 0.0000
# 2 -2.0119 75.4010 -4.5333 0.0000 0.0000 0.0000
# 3 11.7072 -4.5333 111.7346 0.0000 0.0000 0.0000
# 4 0.0000 0.0000 0.0000 77.1159 0.0000 0.0000
# 5 0.0000 0.0000 0.0000 0.0000 96.3582 0.0000
# 6 0.0000 0.0000 0.0000 0.0000 0.0000 10.6952
#
#
#
# Elastic Compliance Matrix: (Units=1/GPa)
#
#
# Indices 1 2 3 4 5 6 
#
# 1 0.011199 0.000229 -0.001164 0.000000 0.000000 0.000000
# 2 0.000229 0.013300 0.000516 0.000000 0.000000 0.000000
# 3 -0.001164 0.000516 0.009093 0.000000 0.000000 0.000000
# 4 0.000000 0.000000 0.000000 0.012967 0.000000 0.000000
# 5 0.000000 0.000000 0.000000 0.000000 0.010378 0.000000
# 6 0.000000 0.000000 0.000000 0.000000 0.000000 0.093500
#
#
# Mechanical properties :
#
#
# Convention : Reuss Voigt Hill
#
# Bulk Modulus (GPa) = 30.53258 32.00122 31.26690
# Shear Modulus (GPa) = 30.82739 55.00220 42.91480
#
# Velocity S-wave (km/s) = 3.62865 4.84693 4.28134
# Velocity P-wave (km/s) = 5.53148 6.70761 6.14774
#
# Compressibility (1/GPa) = 0.03275190
#
# Stress axis : x y z
#
# Youngs Moduli (GPa) = 89.29330 75.19066 109.97870
#
# Poissons Ratio (x) = -0.01721 0.12803
# Poissons Ratio (y) = -0.02043 -0.05671
# Poissons Ratio (z) = 0.10395 -0.03877
#
# Static dielectric constant tensor:
#      x y z
#    x 1.806790 0.000000 0.000000 
#    y 0.000000 1.473800 0.000000 
#    z 0.000000 0.000000 0.399770 
# 
# From -- ./inp_files/5387.got.cif
#   From: 2010.05.17/outbox.cif.g08.bks.cpg/sg17_3_cif.got.tgz:5387.got - 2010.06.03 22:34:06.
