data_PCOD9311954
_publ_section_title
;
Structure prediction by ZEFSAII (Michael W. Deem and Ramdas Pophale) SiO2 
 PCOD9311954
Probable space group: P 21 21 2
;
_chemical_formula_sum "Si O2"
_cell_formula_units_Z 26
_cell_length_a 22.843513
_cell_length_b 7.603811
_cell_length_c 6.731777
_cell_angle_alpha 90.000000
_cell_angle_beta 90.000000
_cell_angle_gamma 90.000000
_cell_volume 1169.294555
_symmetry_space_group_name_H-M "P 21 21 2"
_symmetry_group_IT_number 18
_symmetry_cell_setting 'orthorhombic'
loop_
_space_group_symop_operation_xyz
x,y,z
-x,-y,z
1/2+x,1/2-y,-z
1/2-x,1/2+y,-z
loop_
_atom_site_type_symbol
_atom_site_label
_atom_site_fract_x
_atom_site_fract_y
_atom_site_fract_z
Si Si1 0.773224 0.071079 0.717804
Si Si2 0.287651 0.569246 0.860287
Si Si3 0.015446 0.257090 0.514499
Si Si4 0.370073 0.571532 0.523630
Si Si5 0.308400 0.931715 0.376795
Si Si6 0.075222 0.574082 0.760743
Si Si7 0.000000 0.500000 0.139705
O O1 0.832644 0.077066 0.588333
O O2 0.722289 0.992605 0.575630
O O3 0.745221 0.253184 0.792724
O O4 0.789519 0.958075 0.908269
O O5 0.350507 0.563217 0.753556
O O6 0.246447 0.416827 0.769876
O O7 0.060608 0.095540 0.502183
O O8 0.051037 0.405725 0.638196
O O9 0.955773 0.264176 0.644402
O O10 0.007967 0.337053 0.292602
O O11 0.338792 0.749771 0.439760
O O12 0.356138 0.052514 0.268492
O O13 0.052551 0.548192 0.986328
#
# Coordination Sequence:
#
# PCOD9311954 Si02
#       7
#     4   4   4   4   4   4   2
#     4  10  20  33  48  70  98 128 165 201 241 292
#     4  10  20  31  49  71  94 130 163 200 244 286
#     4   8  15  26  42  69  96 122 152 193 243 282
#     4   9  18  32  49  70  97 124 159 199 241 287
#     4   9  18  32  49  71  97 125 159 199 241 286
#     4   8  15  26  44  69  96 124 155 196 241 282
#     4   8  14  24  42  70 100 120 152 192 238 292
#
# _framework density 22.23563
#
# number of rings (size 3 to 8) (size 9 to 14) (size 15 to 20)
#    0.000    3.385    0.000    0.923    0.000    9.846 
#    0.000    0.000    0.000    0.923    0.000    0.000 
#    0.000    0.000    0.000    0.000    0.000    0.000 
#
# Total GULP energy -144772.024642 kJ/mol
# GULP energy per Si atom -5568.154794 kJ/mol
# Density = 2.218502 g / cm^3
# Si number density = 22.235630 Si / 1000 Ang^3
#
#
#
# Elastic Constant Matrix: (Units=GPa)
#
#
# Indices 1 2 3 4 5 6 
#
# 1 61.6342 -25.3240 -4.1305 0.0000 0.0000 0.0000
# 2 -25.3240 35.4884 -5.8854 0.0000 0.0000 0.0000
# 3 -4.1305 -5.8854 130.2238 0.0000 0.0000 0.0000
# 4 0.0000 0.0000 0.0000 13.9377 0.0000 0.0000
# 5 0.0000 0.0000 0.0000 0.0000 1.5179 0.0000
# 6 0.0000 0.0000 0.0000 0.0000 0.0000 24.9859
#
#
#
# Elastic Compliance Matrix: (Units=1/GPa)
#
#
# Indices 1 2 3 4 5 6 
#
# 1 0.023242 0.016833 0.001498 0.000000 0.000000 0.000000
# 2 0.016833 0.040583 0.002368 0.000000 0.000000 0.000000
# 3 0.001498 0.002368 0.007834 0.000000 0.000000 0.000000
# 4 0.000000 0.000000 0.000000 0.071748 0.000000 0.000000
# 5 0.000000 0.000000 0.000000 0.000000 0.658824 0.000000
# 6 0.000000 0.000000 0.000000 0.000000 0.000000 0.040023
#
#
# Mechanical properties :
#
#
# Convention : Reuss Voigt Hill
#
# Bulk Modulus (GPa) = 8.84513 17.40740 13.12627
# Shear Modulus (GPa) = 5.96275 25.60070 15.78172
#
# Velocity S-wave (km/s) = 1.63934 3.39682 2.66700
# Velocity P-wave (km/s) = 2.75133 4.81976 3.92428
#
# Compressibility (1/GPa) = 0.11305654
#
# Stress axis : x y z
#
# Youngs Moduli (GPa) = 43.02646 24.64090 127.65489
#
# Poissons Ratio (x) = -0.41479 -0.19122
# Poissons Ratio (y) = -0.72427 -0.30229
# Poissons Ratio (z) = -0.06445 -0.05835
#
# Static dielectric constant tensor:
#      x y z
#    x 1.861160 0.000000 0.000000 
#    y 0.000000 1.906160 0.000000 
#    z 0.000000 0.000000 1.799200 
# 
# From -- ./inp_files/651.got.cif
#   From: 2010.05.17/outbox.cif.g08.bks.cpg/sg18_1_cif.got.tgz:651.got - 2010.06.03 22:40:56.
