data_PCOD9311675
_publ_section_title
;
Structure prediction by ZEFSAII (Michael W. Deem and Ramdas Pophale) SiO2 
 PCOD9311675
Probable space group: P 21 21 2
;
_chemical_formula_sum "Si O2"
_cell_formula_units_Z 20
_cell_length_a 5.534652
_cell_length_b 12.538757
_cell_length_c 10.720494
_cell_angle_alpha 90.000000
_cell_angle_beta 90.000000
_cell_angle_gamma 90.000000
_cell_volume 743.977160
_symmetry_space_group_name_H-M "P 21 21 2"
_symmetry_group_IT_number 18
_symmetry_cell_setting 'orthorhombic'
loop_
_space_group_symop_operation_xyz
x,y,z
-x,-y,z
1/2+x,1/2-y,-z
1/2-x,1/2+y,-z
loop_
_atom_site_type_symbol
_atom_site_label
_atom_site_fract_x
_atom_site_fract_y
_atom_site_fract_z
Si Si1 0.249997 0.673544 0.343770
Si Si2 0.750003 0.190532 0.577218
Si Si3 0.250000 0.565916 0.690737
Si Si4 0.750000 0.001907 0.040723
Si Si5 0.250009 0.264004 0.925015
O O1 0.249997 0.780972 0.431066
O O2 0.509862 0.629290 0.382076
O O3 0.249995 0.694432 0.198005
O O4 0.990133 0.629289 0.382077
O O5 0.750001 0.311382 0.639822
O O6 0.500000 0.500000 0.659177
O O7 0.250000 0.577390 0.842496
O O8 0.000000 0.500000 0.659177
O O9 0.750001 0.113482 0.112104
O O10 0.500000 0.000000 0.967448
O O11 0.000000 0.000000 0.967448
O O12 0.500013 0.250001 0.999997
#
# Coordination Sequence:
#
# PCOD9311675 Si02
#       5
#     4   4   4   4   4
#     4  10  20  35  56  83 116 147 182 231 294 351
#     4  10  19  34  58  86 112 140 180 240 299 345
#     4  10  18  29  51  80 108 134 177 234 287 335
#     4  10  19  34  57  81 109 146 199 252 288 335
#     4  12  24  38  58  88 125 163 204 245 292 356
#
# _framework density 26.882545
#
# number of rings (size 3 to 8) (size 9 to 14) (size 15 to 20)
#    0.000    1.600    0.000    8.400    0.000    0.000 
#    0.000    0.000    0.000    7.200    0.000    0.000 
#    0.000    0.000    0.000    0.000    0.000    0.000 
#
# Total GULP energy -111670.727228 kJ/mol
# GULP energy per Si atom -5583.536361 kJ/mol
# Density = 2.682136 g / cm^3
# Si number density = 26.882545 Si / 1000 Ang^3
#
#
#
# Elastic Constant Matrix: (Units=GPa)
#
#
# Indices 1 2 3 4 5 6 
#
# 1 350.5735 13.0434 68.0860 0.0000 0.0000 0.0000
# 2 13.0434 102.5281 5.0991 0.0000 0.0000 0.0000
# 3 68.0860 5.0991 128.3451 0.0000 0.0000 0.0000
# 4 0.0000 0.0000 0.0000 15.9979 0.0000 0.0000
# 5 0.0000 0.0000 0.0000 0.0000 43.0588 0.0000
# 6 0.0000 0.0000 0.0000 0.0000 0.0000 11.0994
#
#
#
# Elastic Compliance Matrix: (Units=1/GPa)
#
#
# Indices 1 2 3 4 5 6 
#
# 1 0.003191 -0.000322 -0.001680 0.000000 0.000000 0.000000
# 2 -0.000322 0.009805 -0.000219 0.000000 0.000000 0.000000
# 3 -0.001680 -0.000219 0.008691 0.000000 0.000000 0.000000
# 4 0.000000 0.000000 0.000000 0.062508 0.000000 0.000000
# 5 0.000000 0.000000 0.000000 0.000000 0.023224 0.000000
# 6 0.000000 0.000000 0.000000 0.000000 0.000000 0.090095
#
#
# Mechanical properties :
#
#
# Convention : Reuss Voigt Hill
#
# Bulk Modulus (GPa) = 57.98507 83.76708 70.87607
# Shear Modulus (GPa) = 24.07267 47.04578 35.55922
#
# Velocity S-wave (km/s) = 2.99570 4.18790 3.64093
# Velocity P-wave (km/s) = 5.79502 7.39004 6.64059
#
# Compressibility (1/GPa) = 0.01724582
#
# Stress axis : x y z
#
# Youngs Moduli (GPa) = 313.41000 101.98562 115.05737
#
# Poissons Ratio (x) = 0.03288 0.19328
# Poissons Ratio (y) = 0.10103 0.02515
# Poissons Ratio (z) = 0.52648 0.02229
#
# Static dielectric constant tensor:
#      x y z
#    x 2.292800 0.000000 0.000000 
#    y 0.000000 2.148810 0.000000 
#    z 0.000000 0.000000 2.031430 
# 
# From -- ./inp_files/2478.got.cif
#   From: 2010.05.17/outbox.cif.g08.bks.cpg/sg18_2_cif.got.tgz:2478.got - 2010.06.03 22:40:56.
