data_PCOD9311784
_publ_section_title
;
Structure prediction by ZEFSAII (Michael W. Deem and Ramdas Pophale) SiO2 
 PCOD9311784
Probable space group: P 21 21 2
;
_chemical_formula_sum "Si O2"
_cell_formula_units_Z 24
_cell_length_a 5.431615
_cell_length_b 22.129137
_cell_length_c 10.287524
_cell_angle_alpha 90.000000
_cell_angle_beta 90.000000
_cell_angle_gamma 90.000000
_cell_volume 1236.529033
_symmetry_space_group_name_H-M "P 21 21 2"
_symmetry_group_IT_number 18
_symmetry_cell_setting 'orthorhombic'
loop_
_space_group_symop_operation_xyz
x,y,z
-x,-y,z
1/2+x,1/2-y,-z
1/2-x,1/2+y,-z
loop_
_atom_site_type_symbol
_atom_site_label
_atom_site_fract_x
_atom_site_fract_y
_atom_site_fract_z
Si Si1 0.753772 0.517296 0.334499
Si Si2 0.253119 0.031686 0.957354
Si Si3 0.702986 0.654698 0.255412
Si Si4 0.625537 0.334239 0.007943
Si Si5 0.593559 0.260607 0.423269
Si Si6 0.903165 0.244852 0.193633
O O1 0.500000 0.500000 0.402176
O O2 0.770529 0.587100 0.293547
O O3 0.000000 0.500000 0.408662
O O4 0.750748 0.477810 0.200070
O O5 0.500000 0.000000 0.005417
O O6 0.260779 0.101965 0.990939
O O7 0.000000 0.000000 0.002811
O O8 0.598907 0.655443 0.108983
O O9 0.492454 0.676825 0.355818
O O10 0.917658 0.704801 0.257323
O O11 0.780381 0.280588 0.073876
O O12 0.544627 0.311129 0.867877
O O13 0.838417 0.264070 0.513921
O O14 0.699277 0.224986 0.297995
#
# Coordination Sequence:
#
# PCOD9311784 Si02
#       6
#     4   4   4   4   4   4
#     4  10  19  31  51  81 120 157 191 233 302 373
#     4  10  19  33  50  75 125 164 194 228 283 387
#     4  11  21  37  59  87 130 164 195 261 309 382
#     4  11  21  33  55  93 132 162 194 244 324 381
#     4  11  24  43  60  83 121 165 222 253 305 366
#     4  11  22  35  60  90 129 165 197 255 315 385
#
# _framework density 19.409167
#
# number of rings (size 3 to 8) (size 9 to 14) (size 15 to 20)
#    0.000    1.333    6.667    2.000    2.333    0.000 
#    0.000    0.000    0.000    0.000    0.000    1.167 
#    5.000    0.000    0.000    0.000    0.000    0.000 
#
# Total GULP energy -133791.831109 kJ/mol
# GULP energy per Si atom -5574.659630 kJ/mol
# Density = 1.936499 g / cm^3
# Si number density = 19.409167 Si / 1000 Ang^3
#
#
#
# Elastic Constant Matrix: (Units=GPa)
#
#
# Indices 1 2 3 4 5 6 
#
# 1 141.3701 20.5024 31.5894 0.0000 0.0000 0.0000
# 2 20.5024 46.7867 34.0366 0.0000 0.0000 0.0000
# 3 31.5894 34.0366 50.2553 0.0000 0.0000 0.0000
# 4 0.0000 0.0000 0.0000 5.9398 0.0000 0.0000
# 5 0.0000 0.0000 0.0000 0.0000 -15.8784 0.0000
# 6 0.0000 0.0000 0.0000 0.0000 0.0000 30.9425
#
#
#
# Elastic Compliance Matrix: (Units=1/GPa)
#
#
# Indices 1 2 3 4 5 6 
#
# 1 0.008232 0.000309 -0.005384 0.000000 0.000000 0.000000
# 2 0.000309 0.042144 -0.028738 0.000000 0.000000 0.000000
# 3 -0.005384 -0.028738 0.042746 0.000000 0.000000 0.000000
# 4 0.000000 0.000000 0.000000 0.168356 0.000000 0.000000
# 5 0.000000 0.000000 0.000000 0.000000 -0.062979 0.000000
# 6 0.000000 0.000000 0.000000 0.000000 0.000000 0.032318
#
#
# Mechanical properties :
#
#
# Convention : Reuss Voigt Hill
#
# Bulk Modulus (GPa) = 39.21934 45.62986 42.42460
# Shear Modulus (GPa) = 16.28977 14.35303 15.32140
#
# Velocity S-wave (km/s) = 2.90018 2.72232 2.81266
# Velocity P-wave (km/s) = 5.60939 5.78289 5.69680
#
# Compressibility (1/GPa) = 0.02549762
#
# Stress axis : x y z
#
# Youngs Moduli (GPa) = 121.48018 23.72804 23.39405
#
# Poissons Ratio (x) = -0.00734 0.12595
# Poissons Ratio (y) = -0.03759 0.67229
# Poissons Ratio (z) = 0.65404 0.68189
#
# Static dielectric constant tensor:
#      x y z
#    x 1.838770 0.000000 0.000000 
#    y 0.000000 1.732570 0.000000 
#    z 0.000000 0.000000 1.689770 
# 
# From -- ./inp_files/5147.got.cif
#   From: 2010.05.17/outbox.cif.g08.bks.cpg/sg18_3_cif.got.tgz:5147.got - 2010.06.03 22:40:56.
