data_PCOD9311547
_publ_section_title
;
Structure prediction by ZEFSAII (Michael W. Deem and Ramdas Pophale) SiO2 
 PCOD9311547
Probable space group: P 2 2 21
;
_chemical_formula_sum "Si O2"
_cell_formula_units_Z 12
_cell_length_a 12.864528
_cell_length_b 5.187692
_cell_length_c 7.862428
_cell_angle_alpha 90.000000
_cell_angle_beta 90.000000
_cell_angle_gamma 90.000000
_cell_volume 524.716501
_symmetry_space_group_name_H-M "P 2 2 21"
_symmetry_group_IT_number 17
_symmetry_cell_setting 'orthorhombic'
loop_
_space_group_symop_operation_xyz
x,y,z
-x,-y,1/2+z
x,-y,-z
-x,y,1/2-z
loop_
_atom_site_type_symbol
_atom_site_label
_atom_site_fract_x
_atom_site_fract_y
_atom_site_fract_z
Si Si1 0.500000 0.399994 0.250000
Si Si2 0.081547 0.738999 0.104018
Si Si3 0.314668 0.208799 0.843397
Si Si4 0.390858 0.000000 0.500000
O O1 0.594109 0.579134 0.318157
O O2 0.460183 0.219440 0.405802
O O3 0.200434 0.669101 0.150252
O O4 0.000000 0.790753 0.250000
O O5 0.037919 0.500000 0.000000
O O6 0.090967 0.000000 0.000000
O O7 0.321219 0.075630 0.659645
O O8 0.326917 0.000000 0.000000
#
# Coordination Sequence:
#
# PCOD9311547 Si02
#       4
#     2   4   4   2
#     4  12  30  52  72 116 162 206 264 312 392 472
#     4  11  27  51  83 114 154 201 258 326 392 467
#     4  11  30  50  78 113 157 206 260 324 388 463
#     4  12  30  44  78 112 156 216 250 324 382 466
#
# _framework density 22.869492000000001
#
# number of rings (size 3 to 8) (size 9 to 14) (size 15 to 20)
#    0.000    0.667    0.000    3.000   25.667    2.667 
#    0.000    0.000    0.000    0.000    0.000    0.000 
#    0.000    0.000    0.000    0.000    0.000    0.000 
#
# Total GULP energy -67066.733445 kJ/mol
# GULP energy per Si atom -5588.894454 kJ/mol
# Density = 2.281744 g / cm^3
# Si number density = 22.869492 Si / 1000 Ang^3
#
#
#
# Elastic Constant Matrix: (Units=GPa)
#
#
# Indices 1 2 3 4 5 6 
#
# 1 150.8098 30.6280 55.0373 0.0000 0.0000 0.0000
# 2 30.6280 84.5817 42.0850 0.0000 0.0000 0.0000
# 3 55.0373 42.0850 179.6164 0.0000 0.0000 0.0000
# 4 0.0000 0.0000 0.0000 51.4790 0.0000 0.0000
# 5 0.0000 0.0000 0.0000 0.0000 57.9846 0.0000
# 6 0.0000 0.0000 0.0000 0.0000 0.0000 97.0939
#
#
#
# Elastic Compliance Matrix: (Units=1/GPa)
#
#
# Indices 1 2 3 4 5 6 
#
# 1 0.007708 -0.001829 -0.001933 0.000000 0.000000 0.000000
# 2 -0.001829 0.013817 -0.002677 0.000000 0.000000 0.000000
# 3 -0.001933 -0.002677 0.006787 0.000000 0.000000 0.000000
# 4 0.000000 0.000000 0.000000 0.019425 0.000000 0.000000
# 5 0.000000 0.000000 0.000000 0.000000 0.017246 0.000000
# 6 0.000000 0.000000 0.000000 0.000000 0.000000 0.010299
#
#
# Mechanical properties :
#
#
# Convention : Reuss Voigt Hill
#
# Bulk Modulus (GPa) = 64.79469 74.50094 69.64782
# Shear Modulus (GPa) = 53.58714 60.46202 57.02458
#
# Velocity S-wave (km/s) = 4.84588 5.14735 4.99889
# Velocity P-wave (km/s) = 7.72684 8.24465 7.98994
#
# Compressibility (1/GPa) = 0.01543336
#
# Stress axis : x y z
#
# Youngs Moduli (GPa) = 129.73735 72.37350 147.34023
#
# Poissons Ratio (x) = 0.13239 0.28484
# Poissons Ratio (y) = 0.23732 0.39442
# Poissons Ratio (z) = 0.25081 0.19374
#
# Static dielectric constant tensor:
#      x y z
#    x 1.813430 0.000000 0.000000 
#    y 0.000000 1.922810 0.000000 
#    z 0.000000 0.000000 1.885270 
# 
# From -- ./inp_files/4461.got.cif
#   From: 2010.05.17/outbox.cif.g08.bks.cpg/sg17_3_cif.got.tgz:4461.got - 2010.06.03 22:34:06.
