data_PCOD9311851
_publ_section_title
;
Structure prediction by ZEFSAII (Michael W. Deem and Ramdas Pophale) SiO2 
 PCOD9311851
Probable space group: P 21 21 2
;
_chemical_formula_sum "Si O2"
_cell_formula_units_Z 20
_cell_length_a 10.840057
_cell_length_b 14.149743
_cell_length_c 5.143426
_cell_angle_alpha 90.000000
_cell_angle_beta 90.000000
_cell_angle_gamma 90.000000
_cell_volume 788.919360
_symmetry_space_group_name_H-M "P 21 21 2"
_symmetry_group_IT_number 18
_symmetry_cell_setting 'orthorhombic'
loop_
_space_group_symop_operation_xyz
x,y,z
-x,-y,z
1/2+x,1/2-y,-z
1/2-x,1/2+y,-z
loop_
_atom_site_type_symbol
_atom_site_label
_atom_site_fract_x
_atom_site_fract_y
_atom_site_fract_z
Si Si1 0.606424 0.191008 0.875893
Si Si2 0.598462 0.069264 0.373796
Si Si3 0.566334 0.399344 0.385515
Si Si4 0.889028 0.181950 0.993627
Si Si5 0.823292 0.965798 0.126622
O O1 0.637216 0.138624 0.604913
O O2 0.747691 0.216444 0.972308
O O3 0.560551 0.126241 0.117450
O O4 0.482851 0.254178 0.842843
O O5 0.500000 0.000000 0.497920
O O6 0.697918 0.998930 0.252642
O O7 0.500000 0.500000 0.413712
O O8 0.463264 0.328278 0.279750
O O9 0.630286 0.390203 0.660960
O O10 0.664057 0.417090 0.152818
O O11 0.886476 0.071173 0.091132
#
# Coordination Sequence:
#
# PCOD9311851 Si02
#       5
#     4   4   4   4   4
#     4  11  26  43  66  94 132 172 206 266 318 378
#     4  11  24  43  65  93 128 167 216 265 322 378
#     4  10  19  35  63  89 117 159 206 261 305 359
#     4  10  24  43  63  97 133 166 215 259 320 382
#     4  10  21  38  63  91 122 162 210 261 306 371
#
# _framework density 25.351133999999998
#
# number of rings (size 3 to 8) (size 9 to 14) (size 15 to 20)
#    0.000    1.600    0.000    6.000    0.000   12.800 
#    0.000    0.000    0.000    0.000    0.000    0.000 
#    0.000    0.000    0.000    0.000    0.000    0.000 
#
# Total GULP energy -111532.626989 kJ/mol
# GULP energy per Si atom -5576.631349 kJ/mol
# Density = 2.529343 g / cm^3
# Si number density = 25.351134 Si / 1000 Ang^3
#
#
#
# Elastic Constant Matrix: (Units=GPa)
#
#
# Indices 1 2 3 4 5 6 
#
# 1 116.7059 51.1547 24.9467 0.0000 0.0000 0.0000
# 2 51.1547 31.6188 12.8036 0.0000 0.0000 0.0000
# 3 24.9467 12.8036 136.5838 0.0000 0.0000 0.0000
# 4 0.0000 0.0000 0.0000 25.0762 0.0000 0.0000
# 5 0.0000 0.0000 0.0000 0.0000 6.1988 0.0000
# 6 0.0000 0.0000 0.0000 0.0000 0.0000 45.0121
#
#
#
# Elastic Compliance Matrix: (Units=1/GPa)
#
#
# Indices 1 2 3 4 5 6 
#
# 1 0.029578 -0.047468 -0.000953 0.000000 0.000000 0.000000
# 2 -0.047468 0.109052 -0.001553 0.000000 0.000000 0.000000
# 3 -0.000953 -0.001553 0.007641 0.000000 0.000000 0.000000
# 4 0.000000 0.000000 0.000000 0.039878 0.000000 0.000000
# 5 0.000000 0.000000 0.000000 0.000000 0.161322 0.000000
# 6 0.000000 0.000000 0.000000 0.000000 0.000000 0.022216
#
#
# Mechanical properties :
#
#
# Convention : Reuss Voigt Hill
#
# Bulk Modulus (GPa) = 21.58680 51.41315 36.49997
# Shear Modulus (GPa) = 10.30765 28.32432 19.31598
#
# Velocity S-wave (km/s) = 2.01861 3.34620 2.76332
# Velocity P-wave (km/s) = 3.73720 5.93750 4.96087
#
# Compressibility (1/GPa) = 0.04632460
#
# Stress axis : x y z
#
# Youngs Moduli (GPa) = 33.80841 9.16994 130.87150
#
# Poissons Ratio (x) = 0.43528 0.12468
# Poissons Ratio (y) = 1.60482 0.20322
# Poissons Ratio (z) = 0.03221 0.01424
#
# Static dielectric constant tensor:
#      x y z
#    x 2.105740 0.000000 0.000000 
#    y 0.000000 2.192460 0.000000 
#    z 0.000000 0.000000 2.107900 
# 
# From -- ./inp_files/982.got.cif
#   From: 2010.05.17/outbox.cif.g08.bks.cpg/sg18_1_cif.got.tgz:982.got - 2010.06.03 22:40:56.
