data_PCOD9311191
_publ_section_title
;
Structure prediction by ZEFSAII (Michael W. Deem and Ramdas Pophale) SiO2 
 PCOD9311191
Probable space group: P 2 2 21
;
_chemical_formula_sum "Si O2"
_cell_formula_units_Z 24
_cell_length_a 14.234651
_cell_length_b 9.579718
_cell_length_c 8.767521
_cell_angle_alpha 90.000000
_cell_angle_beta 90.000000
_cell_angle_gamma 90.000000
_cell_volume 1195.573729
_symmetry_space_group_name_H-M "P 2 2 21"
_symmetry_group_IT_number 17
_symmetry_cell_setting 'orthorhombic'
loop_
_space_group_symop_operation_xyz
x,y,z
-x,-y,1/2+z
x,-y,-z
-x,y,1/2-z
loop_
_atom_site_type_symbol
_atom_site_label
_atom_site_fract_x
_atom_site_fract_y
_atom_site_fract_z
Si Si1 0.593932 0.565601 0.669212
Si Si2 0.235040 0.275167 0.037372
Si Si3 0.134418 0.000000 0.000000
Si Si4 0.739520 0.368651 0.807753
Si Si5 0.150749 0.829441 0.490835
Si Si6 0.107650 0.400804 0.264569
Si Si7 0.000000 0.131255 0.750000
O O1 0.576015 0.500000 0.500000
O O2 0.500000 0.616599 0.750000
O O3 0.673965 0.679566 0.632523
O O4 0.642952 0.454270 0.785157
O O5 0.149645 0.367765 0.098993
O O6 0.202190 0.119545 0.058870
O O7 0.248263 0.302507 0.859662
O O8 0.066792 0.954148 0.136643
O O9 0.754427 0.246451 0.930752
O O10 0.822411 0.482302 0.830652
O O11 0.118523 0.743604 0.639639
O O12 0.072074 0.793447 0.362817
O O13 0.155733 0.000000 0.500000
O O14 0.000000 0.442906 0.250000
#
# Coordination Sequence:
#
# PCOD9311191 Si02
#       7
#     4   4   2   4   4   4   2
#     4   9  20  41  69  97 119 157 209 270 334 393
#     4  10  22  39  63  92 127 166 213 262 317 382
#     4  12  22  38  62  88 134 178 222 258 310 378
#     4  10  23  42  61  91 124 161 210 264 322 372
#     4  12  25  38  56  87 125 168 221 254 310 375
#     4  11  24  37  56  88 125 169 216 258 307 371
#     4  12  24  36  56  86 126 184 218 254 296 382
#
# _framework density 20.074045000000002
#
# number of rings (size 3 to 8) (size 9 to 14) (size 15 to 20)
#    0.000    1.333    2.500    4.000    3.500    4.000 
#    0.000    0.000    0.000    4.000   10.833    0.000 
#    0.000    0.000    0.000    0.000    0.000    0.000 
#
# Total GULP energy -133965.341984 kJ/mol
# GULP energy per Si atom -5581.889249 kJ/mol
# Density = 2.002836 g / cm^3
# Si number density = 20.074045 Si / 1000 Ang^3
#
#
#
# Elastic Constant Matrix: (Units=GPa)
#
#
# Indices 1 2 3 4 5 6 
#
# 1 111.5191 21.7008 22.6271 0.0000 0.0000 0.0000
# 2 21.7008 84.9028 6.1752 0.0000 0.0000 0.0000
# 3 22.6271 6.1752 53.9314 0.0000 0.0000 0.0000
# 4 0.0000 0.0000 0.0000 17.9629 0.0000 0.0000
# 5 0.0000 0.0000 0.0000 0.0000 21.8973 0.0000
# 6 0.0000 0.0000 0.0000 0.0000 0.0000 15.6111
#
#
#
# Elastic Compliance Matrix: (Units=1/GPa)
#
#
# Indices 1 2 3 4 5 6 
#
# 1 0.010237 -0.002323 -0.004029 0.000000 0.000000 0.000000
# 2 -0.002323 0.012404 -0.000446 0.000000 0.000000 0.000000
# 3 -0.004029 -0.000446 0.020283 0.000000 0.000000 0.000000
# 4 0.000000 0.000000 0.000000 0.055670 0.000000 0.000000
# 5 0.000000 0.000000 0.000000 0.000000 0.045668 0.000000
# 6 0.000000 0.000000 0.000000 0.000000 0.000000 0.064057
#
#
# Mechanical properties :
#
#
# Convention : Reuss Voigt Hill
#
# Bulk Modulus (GPa) = 34.09593 39.03992 36.56793
# Shear Modulus (GPa) = 21.58045 24.41761 22.99903
#
# Velocity S-wave (km/s) = 3.28234 3.49144 3.38851
# Velocity P-wave (km/s) = 5.60241 5.97861 5.79356
#
# Compressibility (1/GPa) = 0.02932901
#
# Stress axis : x y z
#
# Youngs Moduli (GPa) = 97.68848 80.61635 49.30146
#
# Poissons Ratio (x) = 0.18730 0.19862
# Poissons Ratio (y) = 0.22697 0.02197
# Poissons Ratio (z) = 0.39356 0.03592
#
# Static dielectric constant tensor:
#      x y z
#    x 1.708390 0.000000 0.000000 
#    y 0.000000 1.791590 0.000000 
#    z 0.000000 0.000000 1.795510 
# 
# From -- ./inp_files/5181.got.cif
#   From: 2010.05.17/outbox.cif.g08.bks.cpg/sg17_3_cif.got.tgz:5181.got - 2010.06.03 22:34:06.
