data_PCOD9311091
_publ_section_title
;
Structure prediction by ZEFSAII (Michael W. Deem and Ramdas Pophale) SiO2 
 PCOD9311091
Probable space group: P 2 2 21
;
_chemical_formula_sum "Si O2"
_cell_formula_units_Z 16
_cell_length_a 7.711322
_cell_length_b 17.145888
_cell_length_c 5.343053
_cell_angle_alpha 90.000000
_cell_angle_beta 90.000000
_cell_angle_gamma 90.000000
_cell_volume 706.444914
_symmetry_space_group_name_H-M "P 2 2 21"
_symmetry_group_IT_number 17
_symmetry_cell_setting 'orthorhombic'
loop_
_space_group_symop_operation_xyz
x,y,z
-x,-y,1/2+z
x,-y,-z
-x,y,1/2-z
loop_
_atom_site_type_symbol
_atom_site_label
_atom_site_fract_x
_atom_site_fract_y
_atom_site_fract_z
Si Si1 0.000000 0.448539 0.750000
Si Si2 0.299660 0.767578 0.750370
Si Si3 0.286389 0.317319 0.748405
Si Si4 0.000000 0.949069 0.250000
Si Si5 0.650270 0.090808 0.566934
O O1 0.826630 0.395414 0.771107
O O2 0.986864 0.500000 0.500000
O O3 0.500000 0.743517 0.750000
O O4 0.233828 0.736999 0.487428
O O5 0.227795 0.724646 0.994754
O O6 0.309493 0.859290 0.819142
O O7 0.500000 0.327622 0.750000
O O8 0.823752 0.903445 0.273225
O O9 0.008539 0.000000 0.500000
O O10 0.500000 0.121646 0.750000
O O11 0.615265 0.000000 0.500000
#
# Coordination Sequence:
#
# PCOD9311091 Si02
#       5
#     2   4   4   2   4
#     4  12  26  45  74 109 134 164 218 266 322 409
#     4  10  21  40  65  93 130 177 226 267 324 397
#     4  10  23  44  66  96 137 175 211 262 324 394
#     4  10  24  41  56  85 124 164 220 284 350 409
#     4  11  22  39  65  94 131 177 233 296 342 378
#
# _framework density 22.648614999999999
#
# number of rings (size 3 to 8) (size 9 to 14) (size 15 to 20)
#    0.000    1.500    0.000    5.250    0.000    8.000 
#    0.000   10.000    0.000    0.000    0.000    0.000 
#    0.000    0.000    0.000    0.000    0.000    0.000 
#
# Total GULP energy -89394.701871 kJ/mol
# GULP energy per Si atom -5587.168867 kJ/mol
# Density = 2.259707 g / cm^3
# Si number density = 22.648615 Si / 1000 Ang^3
#
#
#
# Elastic Constant Matrix: (Units=GPa)
#
#
# Indices 1 2 3 4 5 6 
#
# 1 122.7015 31.4250 48.9093 0.0000 0.0000 0.0000
# 2 31.4250 150.5683 96.1155 0.0000 0.0000 0.0000
# 3 48.9093 96.1155 207.6366 0.0000 0.0000 0.0000
# 4 0.0000 0.0000 0.0000 49.2497 0.0000 0.0000
# 5 0.0000 0.0000 0.0000 0.0000 21.1298 0.0000
# 6 0.0000 0.0000 0.0000 0.0000 0.0000 -59.9360
#
#
#
# Elastic Compliance Matrix: (Units=1/GPa)
#
#
# Indices 1 2 3 4 5 6 
#
# 1 0.009054 -0.000750 -0.001786 0.000000 0.000000 0.000000
# 2 -0.000750 0.009489 -0.004216 0.000000 0.000000 0.000000
# 3 -0.001786 -0.004216 0.007188 0.000000 0.000000 0.000000
# 4 0.000000 0.000000 0.000000 0.020305 0.000000 0.000000
# 5 0.000000 0.000000 0.000000 0.000000 0.047327 0.000000
# 6 0.000000 0.000000 0.000000 0.000000 0.000000 -0.016684
#
#
# Mechanical properties :
#
#
# Convention : Reuss Voigt Hill
#
# Bulk Modulus (GPa) = 81.77575 92.64512 87.21043
# Shear Modulus (GPa) = 53.04657 22.38578 37.71617
#
# Velocity S-wave (km/s) = 4.84483 3.14729 4.08521
# Velocity P-wave (km/s) = 8.21469 7.36216 7.80008
#
# Compressibility (1/GPa) = 0.01222856
#
# Stress axis : x y z
#
# Youngs Moduli (GPa) = 110.45321 105.38209 139.11515
#
# Poissons Ratio (x) = 0.07901 0.24839
# Poissons Ratio (y) = 0.08282 0.58651
# Poissons Ratio (z) = 0.19722 0.44429
#
# Static dielectric constant tensor:
#      x y z
#    x 1.865010 0.000000 0.000000 
#    y 0.000000 1.853170 0.000000 
#    z 0.000000 0.000000 1.908530 
# 
# From -- ./inp_files/775.got.cif
#   From: 2010.05.17/outbox.cif.g08.bks.cpg/sg17_1_cif.got.tgz:775.got - 2010.06.03 22:34:06.
