data_PCOD9311889
_publ_section_title
;
Structure prediction by ZEFSAII (Michael W. Deem and Ramdas Pophale) SiO2 
 PCOD9311889
Probable space group: P 21 21 2
;
_chemical_formula_sum "Si O2"
_cell_formula_units_Z 30
_cell_length_a 4.967961
_cell_length_b 14.890326
_cell_length_c 18.282944
_cell_angle_alpha 90.000000
_cell_angle_beta 90.000000
_cell_angle_gamma 90.000000
_cell_volume 1352.472717
_symmetry_space_group_name_H-M "P 21 21 2"
_symmetry_group_IT_number 18
_symmetry_cell_setting 'orthorhombic'
loop_
_space_group_symop_operation_xyz
x,y,z
-x,-y,z
1/2+x,1/2-y,-z
1/2-x,1/2+y,-z
loop_
_atom_site_type_symbol
_atom_site_label
_atom_site_fract_x
_atom_site_fract_y
_atom_site_fract_z
Si Si1 0.736504 0.439030 0.773805
Si Si2 0.092512 0.665832 0.350048
Si Si3 0.715017 0.811174 0.494160
Si Si4 0.905290 0.290253 0.662445
Si Si5 0.119607 0.183638 0.918589
Si Si6 0.122066 0.368852 0.992968
Si Si7 0.237053 0.560608 0.209224
Si Si8 0.000000 0.000000 0.087031
O O1 0.500000 0.500000 0.737613
O O2 0.815057 0.350721 0.730038
O O3 0.625454 0.426992 0.856250
O O4 0.000000 0.500000 0.778993
O O5 0.152661 0.633666 0.432755
O O6 0.295857 0.749920 0.335697
O O7 0.147992 0.593305 0.288660
O O8 0.793361 0.704862 0.343317
O O9 0.520636 0.723610 0.503940
O O10 0.640923 0.844788 0.413514
O O11 0.816138 0.157975 0.939392
O O12 0.199360 0.147130 0.839995
O O13 0.320816 0.134581 0.976139
O O14 0.150007 0.288796 0.933785
O O15 0.263854 0.454849 0.958611
O O16 0.500000 0.500000 0.212681
O O17 0.000000 0.500000 0.175617
#
# Coordination Sequence:
#
# PCOD9311889 Si02
#       8
#     4   4   4   4   4   4   4   2
#     4  10  23  37  52  91 125 156 190 235 297 377
#     4  10  21  38  62  87 116 161 208 257 300 356
#     4   8  16  32  57  87 113 153 207 249 295 355
#     4  10  19  37  63  87 122 161 204 249 298 369
#     4  10  24  43  62  88 115 155 206 243 301 368
#     4  10  23  42  65  89 115 152 200 249 299 372
#     4  12  26  42  61  89 125 162 207 264 317 367
#     4  10  26  38  66  88 126 150 192 246 308 362
#
# _framework density 22.181592999999999
#
# number of rings (size 3 to 8) (size 9 to 14) (size 15 to 20)
#    0.400    1.600    0.000    2.400    6.533    0.000 
#    2.400    1.333    0.000    0.000    0.000    0.000 
#    0.000    0.000    0.000    0.000    0.000    0.000 
#
# Total GULP energy -167622.424538 kJ/mol
# GULP energy per Si atom -5587.414151 kJ/mol
# Density = 2.213111 g / cm^3
# Si number density = 22.181593 Si / 1000 Ang^3
#
#
#
# Elastic Constant Matrix: (Units=GPa)
#
#
# Indices 1 2 3 4 5 6 
#
# 1 74.9178 -0.9074 -16.7203 0.0000 0.0000 0.0000
# 2 -0.9074 42.2049 19.7534 0.0000 0.0000 0.0000
# 3 -16.7203 19.7534 58.8135 0.0000 0.0000 0.0000
# 4 0.0000 0.0000 0.0000 10.0214 0.0000 0.0000
# 5 0.0000 0.0000 0.0000 0.0000 13.2082 0.0000
# 6 0.0000 0.0000 0.0000 0.0000 0.0000 25.9106
#
#
#
# Elastic Compliance Matrix: (Units=1/GPa)
#
#
# Indices 1 2 3 4 5 6 
#
# 1 0.014380 -0.001903 0.004727 0.000000 0.000000 0.000000
# 2 -0.001903 0.028365 -0.010068 0.000000 0.000000 0.000000
# 3 0.004727 -0.010068 0.021728 0.000000 0.000000 0.000000
# 4 0.000000 0.000000 0.000000 0.099787 0.000000 0.000000
# 5 0.000000 0.000000 0.000000 0.000000 0.075710 0.000000
# 6 0.000000 0.000000 0.000000 0.000000 0.000000 0.038594
#
#
# Mechanical properties :
#
#
# Convention : Reuss Voigt Hill
#
# Bulk Modulus (GPa) = 20.00579 20.02084 20.01332
# Shear Modulus (GPa) = 16.14389 21.41542 18.77965
#
# Velocity S-wave (km/s) = 2.70071 3.11055 2.91285
# Velocity P-wave (km/s) = 4.33172 4.68468 4.51165
#
# Compressibility (1/GPa) = 0.04998552
#
# Stress axis : x y z
#
# Youngs Moduli (GPa) = 69.54106 35.25449 46.02282
#
# Poissons Ratio (x) = 0.06711 -0.21757
# Poissons Ratio (y) = 0.13237 0.46336
# Poissons Ratio (z) = -0.32875 0.35494
#
# Static dielectric constant tensor:
#      x y z
#    x 1.798380 0.000000 0.000000 
#    y 0.000000 1.815280 0.000000 
#    z 0.000000 0.000000 1.860960 
# 
# From -- ./inp_files/7194.got.cif
#   From: 2010.05.17/outbox.cif.g08.bks.cpg/sg18_4_cif.got.tgz:7194.got - 2010.06.03 22:40:56.
