data_PCOD9311428
_publ_section_title
;
Structure prediction by ZEFSAII (Michael W. Deem and Ramdas Pophale) SiO2 
 PCOD9311428
Probable space group: P 2 2 21
;
_chemical_formula_sum "Si O2"
_cell_formula_units_Z 24
_cell_length_a 5.997552
_cell_length_b 10.271163
_cell_length_c 19.479113
_cell_angle_alpha 90.000000
_cell_angle_beta 90.000000
_cell_angle_gamma 90.000000
_cell_volume 1199.949089
_symmetry_space_group_name_H-M "P 2 2 21"
_symmetry_group_IT_number 17
_symmetry_cell_setting 'orthorhombic'
loop_
_space_group_symop_operation_xyz
x,y,z
-x,-y,1/2+z
x,-y,-z
-x,y,1/2-z
loop_
_atom_site_type_symbol
_atom_site_label
_atom_site_fract_x
_atom_site_fract_y
_atom_site_fract_z
Si Si1 0.819509 0.404598 0.923052
Si Si2 0.152590 0.456852 0.806544
Si Si3 0.812639 0.000000 0.000000
Si Si4 0.500000 0.752961 0.250000
Si Si5 0.570545 0.580638 0.569989
Si Si6 0.140117 0.773872 0.998598
Si Si7 0.509887 0.162280 0.900081
O O1 0.690779 0.543022 0.923557
O O2 0.619492 0.301844 0.918441
O O3 0.970050 0.394747 0.856313
O O4 0.985026 0.348427 0.980607
O O5 0.299308 0.346331 0.769456
O O6 0.309431 0.534776 0.859952
O O7 0.000000 0.530035 0.750000
O O8 0.973441 0.115010 0.026467
O O9 0.656696 0.943345 0.060035
O O10 0.476176 0.840261 0.318089
O O11 0.627472 0.500000 0.500000
O O12 0.666283 0.723083 0.552162
O O13 0.265570 0.830284 0.066092
#
# Coordination Sequence:
#
# PCOD9311428 Si02
#       7
#     4   4   2   2   4   4   4
#     4  11  20  34  60  94 131 168 208 268 340 393
#     4  12  22  36  57  97 143 164 210 266 354 405
#     4  10  26  42  64  96 128 184 234 284 322 382
#     4  12  20  38  62  98 134 170 206 290 342 412
#     4  12  22  35  60  97 130 172 217 261 338 415
#     4  11  23  41  65  93 137 176 221 279 325 387
#     4  11  21  39  64  94 132 167 227 276 331 398
#
# _framework density 20.00085
#
# number of rings (size 3 to 8) (size 9 to 14) (size 15 to 20)
#    0.000    0.667    8.333    0.500    2.333    0.000 
#    0.000    0.000    0.000    4.000    0.000    0.000 
#    0.000    0.000    0.000    0.000    0.000    0.000 
#
# Total GULP energy -133731.494819 kJ/mol
# GULP energy per Si atom -5572.145617 kJ/mol
# Density = 1.995533 g / cm^3
# Si number density = 20.000850 Si / 1000 Ang^3
#
#
#
# Elastic Constant Matrix: (Units=GPa)
#
#
# Indices 1 2 3 4 5 6 
#
# 1 115.8899 48.4822 62.7711 0.0000 0.0000 0.0000
# 2 48.4822 64.9452 56.7358 0.0000 0.0000 0.0000
# 3 62.7711 56.7358 129.3721 0.0000 0.0000 0.0000
# 4 0.0000 0.0000 0.0000 24.8474 0.0000 0.0000
# 5 0.0000 0.0000 0.0000 0.0000 47.7303 0.0000
# 6 0.0000 0.0000 0.0000 0.0000 0.0000 47.4652
#
#
#
# Elastic Compliance Matrix: (Units=1/GPa)
#
#
# Indices 1 2 3 4 5 6 
#
# 1 0.013427 -0.007023 -0.003435 0.000000 0.000000 0.000000
# 2 -0.007023 0.028633 -0.009150 0.000000 0.000000 0.000000
# 3 -0.003435 -0.009150 0.013409 0.000000 0.000000 0.000000
# 4 0.000000 0.000000 0.000000 0.040246 0.000000 0.000000
# 5 0.000000 0.000000 0.000000 0.000000 0.020951 0.000000
# 6 0.000000 0.000000 0.000000 0.000000 0.000000 0.021068
#
#
# Mechanical properties :
#
#
# Convention : Reuss Voigt Hill
#
# Bulk Modulus (GPa) = 61.52135 71.79839 66.65987
# Shear Modulus (GPa) = 27.41716 33.48979 30.45348
#
# Velocity S-wave (km/s) = 3.70645 4.09640 3.90630
# Velocity P-wave (km/s) = 7.01022 7.63869 7.33119
#
# Compressibility (1/GPa) = 0.01625452
#
# Stress axis : x y z
#
# Youngs Moduli (GPa) = 74.47409 34.92449 74.57745
#
# Poissons Ratio (x) = 0.24527 0.25619
# Poissons Ratio (y) = 0.52302 0.68235
# Poissons Ratio (z) = 0.25583 0.31954
#
# Static dielectric constant tensor:
#      x y z
#    x 1.767640 0.000000 0.000000 
#    y 0.000000 1.725940 0.000000 
#    z 0.000000 0.000000 1.758640 
# 
# From -- ./inp_files/9046.got.cif
#   From: 2010.05.17/outbox.cif.g08.bks.cpg/sg17_5_cif.got.tgz:9046.got - 2010.06.03 22:34:06.
