data_PCOD9311310
_publ_section_title
;
Structure prediction by ZEFSAII (Michael W. Deem and Ramdas Pophale) SiO2 
 PCOD9311310
Probable space group: P 2 2 21
;
_chemical_formula_sum "Si O2"
_cell_formula_units_Z 14
_cell_length_a 5.608986
_cell_length_b 11.268399
_cell_length_c 9.810680
_cell_angle_alpha 90.000000
_cell_angle_beta 90.000000
_cell_angle_gamma 90.000000
_cell_volume 620.077086
_symmetry_space_group_name_H-M "P 2 2 21"
_symmetry_group_IT_number 17
_symmetry_cell_setting 'orthorhombic'
loop_
_space_group_symop_operation_xyz
x,y,z
-x,-y,1/2+z
x,-y,-z
-x,y,1/2-z
loop_
_atom_site_type_symbol
_atom_site_label
_atom_site_fract_x
_atom_site_fract_y
_atom_site_fract_z
Si Si1 0.113475 0.220916 0.553899
Si Si2 0.372126 0.419353 0.384311
Si Si3 0.000000 0.400668 0.750000
Si Si4 0.201743 0.000000 0.000000
Si Si5 0.500000 0.093871 0.750000
O O1 0.252140 0.306112 0.452032
O O2 0.928716 0.309405 0.630493
O O3 0.305238 0.168846 0.662653
O O4 0.968616 0.114145 0.488635
O O5 0.503817 0.500000 0.500000
O O6 0.500000 0.375651 0.250000
O O7 0.189294 0.515197 0.321148
O O8 0.359998 0.981204 0.135177
#
# Coordination Sequence:
#
# PCOD9311310 Si02
#       5
#     4   4   2   2   2
#     4  11  25  50  77 109 155 192 250 313 371 446
#     4  10  25  45  77 110 148 197 245 300 372 446
#     4  10  22  46  72 106 150 196 232 308 362 434
#     4  12  26  52  80 108 150 196 254 316 378 440
#     4  12  26  50  82 106 150 202 248 312 382 442
#
# _framework density 22.577836000000001
#
# number of rings (size 3 to 8) (size 9 to 14) (size 15 to 20)
#    0.000    1.143    2.857    0.857    8.000    5.714 
#   25.714    0.000    0.000    0.000    0.000    0.000 
#    0.000    0.000    0.000    0.000    0.000    0.000 
#
# Total GULP energy -78182.448906 kJ/mol
# GULP energy per Si atom -5584.460636 kJ/mol
# Density = 2.252645 g / cm^3
# Si number density = 22.577836 Si / 1000 Ang^3
#
#
#
# Elastic Constant Matrix: (Units=GPa)
#
#
# Indices 1 2 3 4 5 6 
#
# 1 76.2590 68.9822 75.1749 0.0000 0.0000 0.0000
# 2 68.9822 176.2294 108.9299 0.0000 0.0000 0.0000
# 3 75.1749 108.9299 196.8519 0.0000 0.0000 0.0000
# 4 0.0000 0.0000 0.0000 55.1108 0.0000 0.0000
# 5 0.0000 0.0000 0.0000 0.0000 52.4756 0.0000
# 6 0.0000 0.0000 0.0000 0.0000 0.0000 22.5690
#
#
#
# Elastic Compliance Matrix: (Units=1/GPa)
#
#
# Indices 1 2 3 4 5 6 
#
# 1 0.024340 -0.005748 -0.006114 0.000000 0.000000 0.000000
# 2 -0.005748 0.009982 -0.003328 0.000000 0.000000 0.000000
# 3 -0.006114 -0.003328 0.009257 0.000000 0.000000 0.000000
# 4 0.000000 0.000000 0.000000 0.018145 0.000000 0.000000
# 5 0.000000 0.000000 0.000000 0.000000 0.019056 0.000000
# 6 0.000000 0.000000 0.000000 0.000000 0.000000 0.044309
#
#
# Mechanical properties :
#
#
# Convention : Reuss Voigt Hill
#
# Bulk Modulus (GPa) = 75.77519 106.16824 90.97172
# Shear Modulus (GPa) = 31.27536 39.11463 35.19500
#
# Velocity S-wave (km/s) = 3.72590 4.16677 3.95248
# Velocity P-wave (km/s) = 7.22111 8.38299 7.82365
#
# Compressibility (1/GPa) = 0.01319693
#
# Stress axis : x y z
#
# Youngs Moduli (GPa) = 41.08392 100.18251 108.02961
#
# Poissons Ratio (x) = 0.57588 0.66053
# Poissons Ratio (y) = 0.23616 0.35956
# Poissons Ratio (z) = 0.25120 0.33344
#
# Static dielectric constant tensor:
#      x y z
#    x 1.922970 0.000000 0.000000 
#    y 0.000000 1.839980 0.000000 
#    z 0.000000 0.000000 1.879540 
# 
# From -- ./inp_files/3356.got.cif
#   From: 2010.05.17/outbox.cif.g08.bks.cpg/sg17_2_cif.got.tgz:3356.got - 2010.06.03 22:34:06.
