data_PCOD9311095
_publ_section_title
;
Structure prediction by ZEFSAII (Michael W. Deem and Ramdas Pophale) SiO2 
 PCOD9311095
Probable space group: P 2 2 21
;
_chemical_formula_sum "Si O2"
_cell_formula_units_Z 32
_cell_length_a 14.415691
_cell_length_b 5.482328
_cell_length_c 18.439400
_cell_angle_alpha 90.000000
_cell_angle_beta 90.000000
_cell_angle_gamma 90.000000
_cell_volume 1457.294297
_symmetry_space_group_name_H-M "P 2 2 21"
_symmetry_group_IT_number 17
_symmetry_cell_setting 'orthorhombic'
loop_
_space_group_symop_operation_xyz
x,y,z
-x,-y,1/2+z
x,-y,-z
-x,y,1/2-z
loop_
_atom_site_type_symbol
_atom_site_label
_atom_site_fract_x
_atom_site_fract_y
_atom_site_fract_z
Si Si1 0.050769 0.532514 0.637812
Si Si2 0.573246 0.269983 0.208317
Si Si3 0.471047 0.252443 0.461522
Si Si4 0.141416 0.371930 0.211639
Si Si5 0.666495 0.606315 0.316430
Si Si6 0.128509 0.952486 0.419338
Si Si7 0.755450 0.994656 0.213815
Si Si8 0.677285 0.748900 0.478503
O O1 0.112098 0.500903 0.711933
O O2 0.065714 0.289965 0.590070
O O3 0.944645 0.573428 0.660650
O O4 0.082680 0.790160 0.604192
O O5 0.500000 0.091487 0.250000
O O6 0.546995 0.276785 0.123795
O O7 0.583695 0.462010 0.276931
O O8 0.682428 0.209989 0.201835
O O9 0.435710 0.500000 0.500000
O O10 0.582653 0.250303 0.474113
O O11 0.437839 0.000000 0.500000
O O12 0.238443 0.449750 0.175937
O O13 0.158795 0.093679 0.238001
O O14 0.648036 0.726763 0.394359
O O15 0.697750 0.805243 0.259010
O O16 0.161032 0.000000 0.500000
O O17 0.211629 0.908403 0.363684
O O18 0.728472 0.500000 0.500000
O O19 0.726648 0.000000 0.500000
#
# Coordination Sequence:
#
# PCOD9311095 Si02
#       8
#     4   4   4   4   4   4   4   4
#     4  10  21  40  70 101 129 183 224 274 341 419
#     4  11  25  42  68  98 135 184 246 301 341 422
#     4  10  23  42  62  91 129 174 227 282 354 409
#     4   9  21  39  67  99 135 166 231 283 336 413
#     4  11  23  42  71  98 137 178 238 293 347 419
#     4  11  23  43  67  99 144 183 225 283 350 413
#     4  10  24  41  67 103 132 184 232 295 349 408
#     4  10  23  42  67  91 131 180 216 277 363 415
#
# _framework density 21.958503
#
# number of rings (size 3 to 8) (size 9 to 14) (size 15 to 20)
#    0.000    1.750    1.250    1.875   10.500    2.000 
#    0.000    1.875    0.000    0.000    0.000    0.000 
#    0.000    0.000    0.000    0.000    0.000    0.000 
#
# Total GULP energy -178233.012137 kJ/mol
# GULP energy per Si atom -5569.781629 kJ/mol
# Density = 2.190852 g / cm^3
# Si number density = 21.958503 Si / 1000 Ang^3
#
#
#
# Elastic Constant Matrix: (Units=GPa)
#
#
# Indices 1 2 3 4 5 6 
#
# 1 51.2666 -3.5467 34.0523 0.0000 0.0000 0.0000
# 2 -3.5467 116.7030 52.0184 0.0000 0.0000 0.0000
# 3 34.0523 52.0184 138.4857 0.0000 0.0000 0.0000
# 4 0.0000 0.0000 0.0000 13.4738 0.0000 0.0000
# 5 0.0000 0.0000 0.0000 0.0000 15.4970 0.0000
# 6 0.0000 0.0000 0.0000 0.0000 0.0000 12.1731
#
#
#
# Elastic Compliance Matrix: (Units=1/GPa)
#
#
# Indices 1 2 3 4 5 6 
#
# 1 0.024909 0.004188 -0.007698 0.000000 0.000000 0.000000
# 2 0.004188 0.010996 -0.005160 0.000000 0.000000 0.000000
# 3 -0.007698 -0.005160 0.011052 0.000000 0.000000 0.000000
# 4 0.000000 0.000000 0.000000 0.074218 0.000000 0.000000
# 5 0.000000 0.000000 0.000000 0.000000 0.064528 0.000000
# 6 0.000000 0.000000 0.000000 0.000000 0.000000 0.082148
#
#
# Mechanical properties :
#
#
# Convention : Reuss Voigt Hill
#
# Bulk Modulus (GPa) = 33.76435 52.38927 43.07681
# Shear Modulus (GPa) = 16.94544 23.15753 20.05148
#
# Velocity S-wave (km/s) = 2.78097 3.25099 3.02512
# Velocity P-wave (km/s) = 5.07164 6.16458 5.64462
#
# Compressibility (1/GPa) = 0.02961703
#
# Stress axis : x y z
#
# Youngs Moduli (GPa) = 40.14644 90.94095 90.48011
#
# Poissons Ratio (x) = -0.38089 0.69652
# Poissons Ratio (y) = -0.16814 0.46690
# Poissons Ratio (z) = 0.30905 0.46928
#
# Static dielectric constant tensor:
#      x y z
#    x 1.897330 0.000000 0.000000 
#    y 0.000000 1.988070 0.000000 
#    z 0.000000 0.000000 1.801140 
# 
# From -- ./inp_files/9736.got.cif
#   From: 2010.05.17/outbox.cif.g08.bks.cpg/sg17_5_cif.got.tgz:9736.got - 2010.06.03 22:34:06.
