data_PCOD9311131
_publ_section_title
;
Structure prediction by ZEFSAII (Michael W. Deem and Ramdas Pophale) SiO2 
 PCOD9311131
Probable space group: P 2 2 21
;
_chemical_formula_sum "Si O2"
_cell_formula_units_Z 14
_cell_length_a 13.344892
_cell_length_b 5.361165
_cell_length_c 8.263654
_cell_angle_alpha 90.000000
_cell_angle_beta 90.000000
_cell_angle_gamma 90.000000
_cell_volume 591.216249
_symmetry_space_group_name_H-M "P 2 2 21"
_symmetry_group_IT_number 17
_symmetry_cell_setting 'orthorhombic'
loop_
_space_group_symop_operation_xyz
x,y,z
-x,-y,1/2+z
x,-y,-z
-x,y,1/2-z
loop_
_atom_site_type_symbol
_atom_site_label
_atom_site_fract_x
_atom_site_fract_y
_atom_site_fract_z
Si Si1 0.891193 0.105183 0.317110
Si Si2 0.190021 0.500000 0.000000
Si Si3 0.697392 0.172047 0.729092
Si Si4 0.601084 0.500000 0.000000
Si Si5 0.532277 0.000000 0.500000
O O1 0.874078 0.398619 0.350661
O O2 0.000000 0.050876 0.250000
O O3 0.894005 0.000000 0.500000
O O4 0.793838 0.996838 0.223375
O O5 0.263945 0.293977 0.935654
O O6 0.669167 0.391147 0.853884
O O7 0.599929 0.031647 0.662447
O O8 0.532101 0.746115 0.974801
#
# Coordination Sequence:
#
# PCOD9311131 Si02
#       5
#     4   2   4   2   2
#     4  10  23  44  75 105 151 201 257 321 401 473
#     4  10  21  42  75 102 152 202 249 327 404 458
#     4  11  25  47  73 108 153 200 261 331 392 468
#     4  12  31  44  83 116 150 208 275 329 378 488
#     4  12  26  48  76 112 158 210 260 324 414 460
#
# _framework density 23.68
#
# number of rings (size 3 to 8) (size 9 to 14) (size 15 to 20)
#    0.000    1.143    4.286    1.714    4.000   11.429 
#    0.000    1.429    0.000    0.000    0.000    0.000 
#    0.000    0.000    0.000    0.000    0.000    0.000 
#
# Total GULP energy -78064.318998 kJ/mol
# GULP energy per Si atom -5576.022786 kJ/mol
# Density = 2.362610 g / cm^3
# Si number density = 23.680000 Si / 1000 Ang^3
#
#
#
# Elastic Constant Matrix: (Units=GPa)
#
#
# Indices 1 2 3 4 5 6 
#
# 1 194.2384 81.6872 66.9804 0.0000 0.0000 0.0000
# 2 81.6872 137.4506 38.3058 0.0000 0.0000 0.0000
# 3 66.9804 38.3058 81.8306 0.0000 0.0000 0.0000
# 4 0.0000 0.0000 0.0000 46.3944 0.0000 0.0000
# 5 0.0000 0.0000 0.0000 0.0000 44.6969 0.0000
# 6 0.0000 0.0000 0.0000 0.0000 0.0000 21.0400
#
#
#
# Elastic Compliance Matrix: (Units=1/GPa)
#
#
# Indices 1 2 3 4 5 6 
#
# 1 0.008459 -0.003562 -0.005256 0.000000 0.000000 0.000000
# 2 -0.003562 0.009867 -0.001703 0.000000 0.000000 0.000000
# 3 -0.005256 -0.001703 0.017320 0.000000 0.000000 0.000000
# 4 0.000000 0.000000 0.000000 0.021554 0.000000 0.000000
# 5 0.000000 0.000000 0.000000 0.000000 0.022373 0.000000
# 6 0.000000 0.000000 0.000000 0.000000 0.000000 0.047528
#
#
# Mechanical properties :
#
#
# Convention : Reuss Voigt Hill
#
# Bulk Modulus (GPa) = 68.48056 87.49627 77.98841
# Shear Modulus (GPa) = 32.67700 37.52936 35.10318
#
# Velocity S-wave (km/s) = 3.71879 3.98534 3.85437
# Velocity P-wave (km/s) = 6.88630 7.62935 7.26732
#
# Compressibility (1/GPa) = 0.01460269
#
# Stress axis : x y z
#
# Youngs Moduli (GPa) = 118.21677 101.34740 57.73666
#
# Poissons Ratio (x) = 0.36103 0.30348
# Poissons Ratio (y) = 0.42113 0.09833
# Poissons Ratio (z) = 0.62139 0.17260
#
# Static dielectric constant tensor:
#      x y z
#    x 1.955630 0.000000 0.000000 
#    y 0.000000 2.297770 0.000000 
#    z 0.000000 0.000000 1.955530 
# 
# From -- ./inp_files/4477.got.cif
#   From: 2010.05.17/outbox.cif.g08.bks.cpg/sg17_3_cif.got.tgz:4477.got - 2010.06.03 22:34:06.
