data_PCOD9311109
_publ_section_title
;
Structure prediction by ZEFSAII (Michael W. Deem and Ramdas Pophale) SiO2 
 PCOD9311109
Probable space group: P 2 2 21
;
_chemical_formula_sum "Si O2"
_cell_formula_units_Z 20
_cell_length_a 10.938153
_cell_length_b 7.053603
_cell_length_c 12.403820
_cell_angle_alpha 90.000000
_cell_angle_beta 90.000000
_cell_angle_gamma 90.000000
_cell_volume 956.996747
_symmetry_space_group_name_H-M "P 2 2 21"
_symmetry_group_IT_number 17
_symmetry_cell_setting 'orthorhombic'
loop_
_space_group_symop_operation_xyz
x,y,z
-x,-y,1/2+z
x,-y,-z
-x,y,1/2-z
loop_
_atom_site_type_symbol
_atom_site_label
_atom_site_fract_x
_atom_site_fract_y
_atom_site_fract_z
Si Si1 0.539058 0.886523 0.906043
Si Si2 0.228359 0.608583 0.325843
Si Si3 0.432137 0.500000 0.500000
Si Si4 0.967987 0.500000 0.000000
Si Si5 0.689743 0.992918 0.289699
Si Si6 0.113666 0.716265 0.825109
O O1 0.499503 0.682605 0.951605
O O2 0.425179 0.016280 0.869937
O O3 0.631729 0.878814 0.806721
O O4 0.606755 0.000000 0.000000
O O5 0.345435 0.560926 0.400239
O O6 0.118071 0.609952 0.413720
O O7 0.186636 0.449215 0.239672
O O8 0.261574 0.799473 0.261782
O O9 0.054049 0.638028 0.932954
O O10 0.797761 0.108928 0.342873
O O11 0.000000 0.774668 0.750000
#
# Coordination Sequence:
#
# PCOD9311109 Si02
#       6
#     4   4   2   2   4   4
#     4  11  24  41  63  98 128 171 224 265 327 404
#     4  10  21  41  67  91 131 171 212 273 326 391
#     4  11  20  41  68  88 126 181 215 260 332 396
#     4   9  22  41  68  96 130 177 227 260 332 402
#     4  11  24  41  64  97 134 164 218 278 326 385
#     4  10  22  42  65  98 128 170 221 270 324 388
#
# _framework density 20.898712
#
# number of rings (size 3 to 8) (size 9 to 14) (size 15 to 20)
#    0.000    1.600    4.000    0.000    0.000    6.400 
#    0.000    4.000    0.000    0.000    0.000    0.000 
#    0.000    0.000    0.000    0.000    0.000    0.000 
#
# Total GULP energy -111618.538765 kJ/mol
# GULP energy per Si atom -5580.926938 kJ/mol
# Density = 2.085115 g / cm^3
# Si number density = 20.898712 Si / 1000 Ang^3
#
#
#
# Elastic Constant Matrix: (Units=GPa)
#
#
# Indices 1 2 3 4 5 6 
#
# 1 78.6320 40.3008 15.1628 0.0000 0.0000 0.0000
# 2 40.3008 81.4376 23.1408 0.0000 0.0000 0.0000
# 3 15.1628 23.1408 64.0885 0.0000 0.0000 0.0000
# 4 0.0000 0.0000 0.0000 14.5985 0.0000 0.0000
# 5 0.0000 0.0000 0.0000 0.0000 8.6133 0.0000
# 6 0.0000 0.0000 0.0000 0.0000 0.0000 30.7189
#
#
#
# Elastic Compliance Matrix: (Units=1/GPa)
#
#
# Indices 1 2 3 4 5 6 
#
# 1 0.017109 -0.008153 -0.001104 0.000000 0.000000 0.000000
# 2 -0.008153 0.017568 -0.004415 0.000000 0.000000 0.000000
# 3 -0.001104 -0.004415 0.017459 0.000000 0.000000 0.000000
# 4 0.000000 0.000000 0.000000 0.068500 0.000000 0.000000
# 5 0.000000 0.000000 0.000000 0.000000 0.116100 0.000000
# 6 0.000000 0.000000 0.000000 0.000000 0.000000 0.032553
#
#
# Mechanical properties :
#
#
# Convention : Reuss Voigt Hill
#
# Bulk Modulus (GPa) = 40.33419 42.37409 41.35414
# Shear Modulus (GPa) = 16.39900 20.48971 18.44435
#
# Velocity S-wave (km/s) = 2.80427 3.13458 2.97401
# Velocity P-wave (km/s) = 5.46141 5.78107 5.62351
#
# Compressibility (1/GPa) = 0.02479286
#
# Stress axis : x y z
#
# Youngs Moduli (GPa) = 58.44893 56.92038 57.27832
#
# Poissons Ratio (x) = 0.46407 0.06324
# Poissons Ratio (y) = 0.47653 0.25286
# Poissons Ratio (z) = 0.06453 0.25128
#
# Static dielectric constant tensor:
#      x y z
#    x 1.736240 0.000000 0.000000 
#    y 0.000000 1.749080 0.000000 
#    z 0.000000 0.000000 1.652860 
# 
# From -- ./inp_files/8415.got.cif
#   From: 2010.05.17/outbox.cif.g08.bks.cpg/sg17_5_cif.got.tgz:8415.got - 2010.06.03 22:34:06.
