data_PCOD9311794
_publ_section_title
;
Structure prediction by ZEFSAII (Michael W. Deem and Ramdas Pophale) SiO2 
 PCOD9311794
Probable space group: P 21 21 2
;
_chemical_formula_sum "Si O2"
_cell_formula_units_Z 24
_cell_length_a 18.079109
_cell_length_b 8.519112
_cell_length_c 7.769674
_cell_angle_alpha 90.000000
_cell_angle_beta 90.000000
_cell_angle_gamma 90.000000
_cell_volume 1196.669296
_symmetry_space_group_name_H-M "P 21 21 2"
_symmetry_group_IT_number 18
_symmetry_cell_setting 'orthorhombic'
loop_
_space_group_symop_operation_xyz
x,y,z
-x,-y,z
1/2+x,1/2-y,-z
1/2-x,1/2+y,-z
loop_
_atom_site_type_symbol
_atom_site_label
_atom_site_fract_x
_atom_site_fract_y
_atom_site_fract_z
Si Si1 0.293024 0.945452 0.046967
Si Si2 0.080734 0.925657 0.622403
Si Si3 0.689350 0.461779 0.654207
Si Si4 0.696355 0.376030 0.181456
Si Si5 0.580716 0.941837 0.303200
Si Si6 0.682363 0.145192 0.507406
O O1 0.218554 0.968850 0.165631
O O2 0.358536 0.030054 0.153132
O O3 0.312781 0.762078 0.039649
O O4 0.270148 0.030548 0.871327
O O5 0.079967 0.739260 0.644877
O O6 0.116062 0.971679 0.436773
O O7 0.131581 0.002033 0.773182
O O8 0.000000 0.000000 0.635051
O O9 0.685113 0.272828 0.656944
O O10 0.752208 0.521421 0.518054
O O11 0.695075 0.263381 0.346940
O O12 0.500000 0.000000 0.249072
O O13 0.608244 0.050265 0.463278
#
# Coordination Sequence:
#
# PCOD9311794 Si02
#       6
#     4   4   4   4   4   4
#     4  10  19  33  54  79 108 138 176 220 256 308
#     4  11  20  34  55  76 103 138 175 220 266 317
#     4   9  17  31  49  76 101 131 172 213 256 300
#     4   9  19  33  50  78 104 138 177 210 260 311
#     4  10  19  32  51  77 103 133 174 219 264 315
#     4   9  18  31  51  76 103 134 172 214 256 309
#
# _framework density 20.055665000000001
#
# number of rings (size 3 to 8) (size 9 to 14) (size 15 to 20)
#    0.000    2.667    0.000    6.000    0.000    1.333 
#    0.000    0.833    0.000    4.000    0.000   29.167 
#    0.000    0.000    0.000    0.000    0.000    0.000 
#
# Total GULP energy -133609.125320 kJ/mol
# GULP energy per Si atom -5567.046888 kJ/mol
# Density = 2.001002 g / cm^3
# Si number density = 20.055665 Si / 1000 Ang^3
#
#
#
# Elastic Constant Matrix: (Units=GPa)
#
#
# Indices 1 2 3 4 5 6 
#
# 1 109.0424 43.5565 14.4671 0.0000 0.0000 0.0000
# 2 43.5565 165.0150 26.0085 0.0000 0.0000 0.0000
# 3 14.4671 26.0085 57.4282 0.0000 0.0000 0.0000
# 4 0.0000 0.0000 0.0000 19.3580 0.0000 0.0000
# 5 0.0000 0.0000 0.0000 0.0000 31.2883 0.0000
# 6 0.0000 0.0000 0.0000 0.0000 0.0000 36.6902
#
#
#
# Elastic Compliance Matrix: (Units=1/GPa)
#
#
# Indices 1 2 3 4 5 6 
#
# 1 0.010367 -0.002503 -0.001478 0.000000 0.000000 0.000000
# 2 -0.002503 0.007130 -0.002599 0.000000 0.000000 0.000000
# 3 -0.001478 -0.002599 0.018962 0.000000 0.000000 0.000000
# 4 0.000000 0.000000 0.000000 0.051658 0.000000 0.000000
# 5 0.000000 0.000000 0.000000 0.000000 0.031961 0.000000
# 6 0.000000 0.000000 0.000000 0.000000 0.000000 0.027255
#
#
# Mechanical properties :
#
#
# Convention : Reuss Voigt Hill
#
# Bulk Modulus (GPa) = 42.91896 55.50553 49.21225
# Shear Modulus (GPa) = 29.71593 33.96422 31.84008
#
# Velocity S-wave (km/s) = 3.85343 4.11968 3.98877
# Velocity P-wave (km/s) = 6.42222 7.09682 6.76793
#
# Compressibility (1/GPa) = 0.02329973
#
# Stress axis : x y z
#
# Youngs Moduli (GPa) = 96.46182 140.24401 52.73644
#
# Poissons Ratio (x) = 0.35109 0.07793
# Poissons Ratio (y) = 0.24149 0.13704
# Poissons Ratio (z) = 0.14255 0.36444
#
# Static dielectric constant tensor:
#      x y z
#    x 1.711790 0.000000 0.000000 
#    y 0.000000 1.754400 0.000000 
#    z 0.000000 0.000000 1.853690 
# 
# From -- ./inp_files/4463.got.cif
#   From: 2010.05.17/outbox.cif.g08.bks.cpg/sg18_3_cif.got.tgz:4463.got - 2010.06.03 22:40:56.
