data_PCOD9311668
_publ_section_title
;
Structure prediction by ZEFSAII (Michael W. Deem and Ramdas Pophale) SiO2 
 PCOD9311668
Probable space group: P 21 21 2
;
_chemical_formula_sum "Si O2"
_cell_formula_units_Z 24
_cell_length_a 7.935790
_cell_length_b 5.577041
_cell_length_c 17.958410
_cell_angle_alpha 90.000000
_cell_angle_beta 90.000000
_cell_angle_gamma 90.000000
_cell_volume 794.807372
_symmetry_space_group_name_H-M "P 21 21 2"
_symmetry_group_IT_number 18
_symmetry_cell_setting 'orthorhombic'
loop_
_space_group_symop_operation_xyz
x,y,z
-x,-y,z
1/2+x,1/2-y,-z
1/2-x,1/2+y,-z
loop_
_atom_site_type_symbol
_atom_site_label
_atom_site_fract_x
_atom_site_fract_y
_atom_site_fract_z
Si Si1 0.855439 0.243708 0.166113
Si Si2 0.150828 0.742200 0.491761
Si Si3 0.853394 0.255077 0.003462
Si Si4 0.000000 0.500000 0.718546
Si Si5 0.314873 0.248545 0.670848
Si Si6 0.000000 0.000000 0.617128
Si Si7 0.348784 0.259432 0.157330
O O1 0.942960 0.251026 0.084078
O O2 0.918378 0.253763 0.252248
O O3 0.752467 0.494377 0.163091
O O4 0.765686 0.981870 0.162871
O O5 0.241199 0.487566 0.500073
O O6 0.084691 0.752876 0.406359
O O7 0.024547 0.779969 0.560276
O O8 0.753634 0.507881 0.999820
O O9 0.941710 0.248793 0.922768
O O10 0.822709 0.536773 0.678051
O O11 0.975949 0.279068 0.775090
O O12 0.175279 0.037041 0.660131
#
# Coordination Sequence:
#
# PCOD9311668 Si02
#       7
#     4   4   4   2   4   2   4
#     4   9  17  28  45  68  94 126 163 205 248 293
#     4  10  22  37  55  79 107 143 179 218 277 333
#     4   8  14  26  41  61  89 120 155 189 232 293
#     4  10  18  28  48  76 106 134 168 220 258 296
#     4  10  19  32  53  79 106 135 177 221 267 316
#     4  10  20  36  56  78 110 142 176 226 272 330
#     4   9  17  27  42  67  98 131 160 196 251 296
#
# _framework density 30.195996000000001
#
# number of rings (size 3 to 8) (size 9 to 14) (size 15 to 20)
#    0.000    2.667    0.000    2.000    0.000    8.000 
#    0.000    0.000    0.000    0.000    0.000   39.667 
#    0.000    0.000    0.000    0.000    0.000    0.000 
#
# Total GULP energy -134081.308477 kJ/mol
# GULP energy per Si atom -5586.721187 kJ/mol
# Density = 3.012727 g / cm^3
# Si number density = 30.195996 Si / 1000 Ang^3
#
#
#
# Elastic Constant Matrix: (Units=GPa)
#
#
# Indices 1 2 3 4 5 6 
#
# 1 53.4708 71.0238 13.9561 0.0000 0.0000 0.0000
# 2 71.0238 272.2224 27.8194 0.0000 0.0000 0.0000
# 3 13.9561 27.8194 239.3943 0.0000 0.0000 0.0000
# 4 0.0000 0.0000 0.0000 49.4395 0.0000 0.0000
# 5 0.0000 0.0000 0.0000 0.0000 22.3558 0.0000
# 6 0.0000 0.0000 0.0000 0.0000 0.0000 90.2484
#
#
#
# Elastic Compliance Matrix: (Units=1/GPa)
#
#
# Indices 1 2 3 4 5 6 
#
# 1 0.028776 -0.007425 -0.000815 0.000000 0.000000 0.000000
# 2 -0.007425 0.005633 -0.000222 0.000000 0.000000 0.000000
# 3 -0.000815 -0.000222 0.004250 0.000000 0.000000 0.000000
# 4 0.000000 0.000000 0.000000 0.020227 0.000000 0.000000
# 5 0.000000 0.000000 0.000000 0.000000 0.044731 0.000000
# 6 0.000000 0.000000 0.000000 0.000000 0.000000 0.011081
#
#
# Mechanical properties :
#
#
# Convention : Reuss Voigt Hill
#
# Bulk Modulus (GPa) = 46.00300 87.85403 66.92851
# Shear Modulus (GPa) = 36.00575 62.56129 49.28352
#
# Velocity S-wave (km/s) = 3.45686 4.55669 4.04433
# Velocity P-wave (km/s) = 5.58579 7.53938 6.63488
#
# Compressibility (1/GPa) = 0.02173771
#
# Stress axis : x y z
#
# Youngs Moduli (GPa) = 34.75075 177.51787 235.26733
#
# Poissons Ratio (x) = 1.31800 0.19170
# Poissons Ratio (y) = 0.25801 0.05218
# Poissons Ratio (z) = 0.02832 0.03937
#
# Static dielectric constant tensor:
#      x y z
#    x 2.416190 0.000000 0.000000 
#    y 0.000000 2.303390 0.000000 
#    z 0.000000 0.000000 2.317520 
# 
# From -- ./inp_files/7364.got.cif
#   From: 2010.05.17/outbox.cif.g08.bks.cpg/sg18_4_cif.got.tgz:7364.got - 2010.06.03 22:40:56.
