data_PCOD9311050
_publ_section_title
;
Structure prediction by ZEFSAII (Michael W. Deem and Ramdas Pophale) SiO2 
 PCOD9311050
Probable space group: P 2 2 21
;
_chemical_formula_sum "Si O2"
_cell_formula_units_Z 30
_cell_length_a 5.799966
_cell_length_b 20.459748
_cell_length_c 10.951416
_cell_angle_alpha 90.000000
_cell_angle_beta 90.000000
_cell_angle_gamma 90.000000
_cell_volume 1299.559009
_symmetry_space_group_name_H-M "P 2 2 21"
_symmetry_group_IT_number 17
_symmetry_cell_setting 'orthorhombic'
loop_
_space_group_symop_operation_xyz
x,y,z
-x,-y,1/2+z
x,-y,-z
-x,y,1/2-z
loop_
_atom_site_type_symbol
_atom_site_label
_atom_site_fract_x
_atom_site_fract_y
_atom_site_fract_z
Si Si1 0.178195 0.486071 0.634963
Si Si2 0.070438 0.193694 0.376306
Si Si3 0.249044 0.984342 0.813564
Si Si4 0.808415 0.674917 0.578099
Si Si5 0.500000 0.412279 0.250000
Si Si6 0.156128 0.343594 0.630999
Si Si7 0.549472 0.764567 0.034263
Si Si8 0.232079 0.886868 0.040614
O O1 0.074101 0.500000 0.500000
O O2 0.370839 0.540785 0.655647
O O3 0.286647 0.412935 0.639675
O O4 0.000000 0.490841 0.750000
O O5 0.328198 0.215619 0.406030
O O6 0.000000 0.160670 0.250000
O O7 0.915136 0.258306 0.371407
O O8 0.995470 0.150862 0.493313
O O9 0.500000 0.981336 0.750000
O O10 0.000000 0.971227 0.750000
O O11 0.286060 0.932724 0.923683
O O12 0.216458 0.059512 0.855679
O O13 0.691092 0.631133 0.680667
O O14 0.612951 0.702751 0.489589
O O15 0.006096 0.646390 0.492363
O O16 0.267437 0.271486 0.620454
O O17 0.000000 0.341563 0.750000
O O18 0.411806 0.829121 0.071592
#
# Coordination Sequence:
#
# PCOD9311050 Si02
#       8
#     4   4   4   4   2   4   4   4
#     4  11  25  42  65  96 133 187 238 305 375 461
#     4  10  21  38  66  99 135 176 224 292 356 423
#     4  11  27  48  74 106 147 196 233 296 359 430
#     4  10  22  41  63  99 130 176 226 304 364 438
#     4  12  24  40  70  98 134 176 244 308 378 446
#     4  10  23  43  63  92 138 184 237 292 371 447
#     4  10  22  42  67  98 137 179 236 297 360 433
#     4  10  25  43  69 104 140 179 240 284 348 433
#
# _framework density 23.084752999999999
#
# number of rings (size 3 to 8) (size 9 to 14) (size 15 to 20)
#    0.000    1.600    0.000    2.800    5.600   10.133 
#    7.200    0.000    0.000    0.000    0.000    0.000 
#    0.000    0.000    0.000    0.000    0.000    0.000 
#
# Total GULP energy -167303.310024 kJ/mol
# GULP energy per Si atom -5576.777001 kJ/mol
# Density = 2.303221 g / cm^3
# Si number density = 23.084753 Si / 1000 Ang^3
#
#
#
# Elastic Constant Matrix: (Units=GPa)
#
#
# Indices 1 2 3 4 5 6 
#
# 1 60.9912 31.0991 14.5062 0.0000 0.0000 0.0000
# 2 31.0991 165.3590 29.5883 0.0000 0.0000 0.0000
# 3 14.5062 29.5883 63.8519 0.0000 0.0000 0.0000
# 4 0.0000 0.0000 0.0000 9.7057 0.0000 0.0000
# 5 0.0000 0.0000 0.0000 0.0000 13.1468 0.0000
# 6 0.0000 0.0000 0.0000 0.0000 0.0000 2.4340
#
#
#
# Elastic Compliance Matrix: (Units=1/GPa)
#
#
# Indices 1 2 3 4 5 6 
#
# 1 0.018595 -0.002989 -0.002839 0.000000 0.000000 0.000000
# 2 -0.002989 0.007075 -0.002599 0.000000 0.000000 0.000000
# 3 -0.002839 -0.002599 0.017511 0.000000 0.000000 0.000000
# 4 0.000000 0.000000 0.000000 0.103032 0.000000 0.000000
# 5 0.000000 0.000000 0.000000 0.000000 0.076064 0.000000
# 6 0.000000 0.000000 0.000000 0.000000 0.000000 0.410842
#
#
# Mechanical properties :
#
#
# Convention : Reuss Voigt Hill
#
# Bulk Modulus (GPa) = 37.98655 48.95438 43.47046
# Shear Modulus (GPa) = 7.59014 19.39121 13.49067
#
# Velocity S-wave (km/s) = 1.81524 2.90142 2.42005
# Velocity P-wave (km/s) = 4.56995 5.69884 5.16532
#
# Compressibility (1/GPa) = 0.02632511
#
# Stress axis : x y z
#
# Youngs Moduli (GPa) = 53.77704 141.34843 57.10766
#
# Poissons Ratio (x) = 0.42251 0.16215
# Poissons Ratio (y) = 0.16075 0.14844
# Poissons Ratio (z) = 0.15270 0.36740
#
# Static dielectric constant tensor:
#      x y z
#    x 2.135010 0.000000 0.000000 
#    y 0.000000 1.855990 0.000000 
#    z 0.000000 0.000000 2.237390 
# 
# From -- ./inp_files/6087.got.cif
#   From: 2010.05.17/outbox.cif.g08.bks.cpg/sg17_4_cif.got.tgz:6087.got - 2010.06.03 22:34:06.
