data_PCOD9311957
_publ_section_title
;
Structure prediction by ZEFSAII (Michael W. Deem and Ramdas Pophale) SiO2 
 PCOD9311957
Probable space group: P 21 21 2
;
_chemical_formula_sum "Si O2"
_cell_formula_units_Z 24
_cell_length_a 9.194407
_cell_length_b 5.349472
_cell_length_c 18.218585
_cell_angle_alpha 90.000000
_cell_angle_beta 90.000000
_cell_angle_gamma 90.000000
_cell_volume 896.085162
_symmetry_space_group_name_H-M "P 21 21 2"
_symmetry_group_IT_number 18
_symmetry_cell_setting 'orthorhombic'
loop_
_space_group_symop_operation_xyz
x,y,z
-x,-y,z
1/2+x,1/2-y,-z
1/2-x,1/2+y,-z
loop_
_atom_site_type_symbol
_atom_site_label
_atom_site_fract_x
_atom_site_fract_y
_atom_site_fract_z
Si Si1 0.181779 0.873329 0.330334
Si Si2 0.855961 0.730427 0.927926
Si Si3 0.679308 0.126907 0.753891
Si Si4 0.334749 0.768384 0.915746
Si Si5 0.841229 0.235336 0.492269
Si Si6 0.500000 0.500000 0.196916
Si Si7 0.500000 0.000000 0.385300
O O1 0.143429 0.647647 0.275952
O O2 0.112402 0.810132 0.408977
O O3 0.145816 0.146600 0.300332
O O4 0.358639 0.899245 0.342438
O O5 0.761801 0.482209 0.917609
O O6 0.956819 0.776203 0.858505
O O7 0.756278 0.977299 0.925532
O O8 0.927871 0.739164 0.009098
O O9 0.612044 0.203064 0.832802
O O10 0.856321 0.097145 0.762321
O O11 0.754494 0.495493 0.489313
O O12 0.951361 0.281952 0.558383
#
# Coordination Sequence:
#
# PCOD9311957 Si02
#       7
#     4   4   4   4   4   2   2
#     4  11  22  36  56  85 114 145 180 227 287 347
#     4   9  18  31  49  70  99 134 182 211 251 309
#     4  11  21  33  52  81 117 139 170 224 292 337
#     4   9  18  33  48  68 100 143 169 207 258 322
#     4  10  22  39  58  83 112 148 193 230 277 343
#     4  10  20  32  52  82 106 140 182 232 276 326
#     4  10  22  40  62  82 114 150 190 240 278 326
#
# _framework density 26.783168
#
# number of rings (size 3 to 8) (size 9 to 14) (size 15 to 20)
#    0.000    2.000    0.000    5.000    0.000   10.667 
#    0.000    0.000    0.000    2.000    0.000    0.000 
#    0.000    0.000    0.000    0.000    0.000    0.000 
#
# Total GULP energy -134420.104973 kJ/mol
# GULP energy per Si atom -5600.837707 kJ/mol
# Density = 2.672221 g / cm^3
# Si number density = 26.783168 Si / 1000 Ang^3
#
#
#
# Elastic Constant Matrix: (Units=GPa)
#
#
# Indices 1 2 3 4 5 6 
#
# 1 71.5595 69.1710 18.6844 0.0000 0.0000 0.0000
# 2 69.1710 240.0834 67.1551 0.0000 0.0000 0.0000
# 3 18.6844 67.1551 154.4934 0.0000 0.0000 0.0000
# 4 0.0000 0.0000 0.0000 27.0674 0.0000 0.0000
# 5 0.0000 0.0000 0.0000 0.0000 -89.1750 0.0000
# 6 0.0000 0.0000 0.0000 0.0000 0.0000 71.9557
#
#
#
# Elastic Compliance Matrix: (Units=1/GPa)
#
#
# Indices 1 2 3 4 5 6 
#
# 1 0.019370 -0.005607 0.000095 0.000000 0.000000 0.000000
# 2 -0.005607 0.006365 -0.002089 0.000000 0.000000 0.000000
# 3 0.000095 -0.002089 0.007369 0.000000 0.000000 0.000000
# 4 0.000000 0.000000 0.000000 0.036945 0.000000 0.000000
# 5 0.000000 0.000000 0.000000 0.000000 -0.011214 0.000000
# 6 0.000000 0.000000 0.000000 0.000000 0.000000 0.013897
#
#
# Mechanical properties :
#
#
# Convention : Reuss Voigt Hill
#
# Bulk Modulus (GPa) = 55.86031 86.23970 71.05001
# Shear Modulus (GPa) = 53.24741 22.71134 37.97938
#
# Velocity S-wave (km/s) = 4.46364 2.91515 3.76976
# Velocity P-wave (km/s) = 6.88965 6.60303 6.74786
#
# Compressibility (1/GPa) = 0.01790180
#
# Stress axis : x y z
#
# Youngs Moduli (GPa) = 51.62719 157.11140 135.70054
#
# Poissons Ratio (x) = 0.88095 -0.01286
# Poissons Ratio (y) = 0.28948 0.28342
# Poissons Ratio (z) = -0.00489 0.32814
#
# Static dielectric constant tensor:
#      x y z
#    x 2.377530 0.000000 0.000000 
#    y 0.000000 2.046130 0.000000 
#    z 0.000000 0.000000 2.069830 
# 
# From -- ./inp_files/7371.got.cif
#   From: 2010.05.17/outbox.cif.g08.bks.cpg/sg18_4_cif.got.tgz:7371.got - 2010.06.03 22:40:56.
