data_PCOD9311515
_publ_section_title
;
Structure prediction by ZEFSAII (Michael W. Deem and Ramdas Pophale) SiO2 
 PCOD9311515
Probable space group: P 2 2 21
;
_chemical_formula_sum "Si O2"
_cell_formula_units_Z 18
_cell_length_a 4.947001
_cell_length_b 13.907923
_cell_length_c 10.887644
_cell_angle_alpha 90.000000
_cell_angle_beta 90.000000
_cell_angle_gamma 90.000000
_cell_volume 749.097224
_symmetry_space_group_name_H-M "P 2 2 21"
_symmetry_group_IT_number 17
_symmetry_cell_setting 'orthorhombic'
loop_
_space_group_symop_operation_xyz
x,y,z
-x,-y,1/2+z
x,-y,-z
-x,y,1/2-z
loop_
_atom_site_type_symbol
_atom_site_label
_atom_site_fract_x
_atom_site_fract_y
_atom_site_fract_z
Si Si1 0.000000 0.649387 0.750000
Si Si2 0.232680 0.736198 0.162907
Si Si3 0.528667 0.944515 0.620372
Si Si4 0.321994 0.481208 0.869673
Si Si5 0.005801 0.819517 0.584407
O O1 0.849798 0.575432 0.660182
O O2 0.124034 0.724398 0.651551
O O3 0.500000 0.743124 0.250000
O O4 0.185502 0.623267 0.128931
O O5 0.000000 0.772486 0.250000
O O6 0.167496 0.790148 0.036253
O O7 0.500000 0.001903 0.750000
O O8 0.762810 0.869591 0.659139
O O9 0.254825 0.892779 0.572806
O O10 0.631774 0.000000 0.500000
O O11 0.500000 0.475255 0.750000
O O12 0.463516 0.500000 0.000000
#
# Coordination Sequence:
#
# PCOD9311515 Si02
#       5
#     2   4   4   4   4
#     4  12  24  42  72 100 146 194 258 294 368 430
#     4  11  24  44  67 107 151 196 247 299 361 430
#     4  12  27  50  77 110 143 187 243 316 389 461
#     4  11  25  41  66 102 147 201 250 306 361 421
#     4  12  26  46  77 107 147 192 248 300 374 458
#
# _framework density 24.028922000000001
#
# number of rings (size 3 to 8) (size 9 to 14) (size 15 to 20)
#    0.000    0.444    5.556    2.000    3.111    7.111 
#    0.000    0.000    0.000    0.000    0.000    0.000 
#    0.000    0.000    0.000    0.000    0.000    0.000 
#
# Total GULP energy -100268.639811 kJ/mol
# GULP energy per Si atom -5570.479990 kJ/mol
# Density = 2.397423 g / cm^3
# Si number density = 24.028922 Si / 1000 Ang^3
#
#
#
# Elastic Constant Matrix: (Units=GPa)
#
#
# Indices 1 2 3 4 5 6 
#
# 1 89.6421 19.1592 7.7469 0.0000 0.0000 0.0000
# 2 19.1592 84.2397 31.4891 0.0000 0.0000 0.0000
# 3 7.7469 31.4891 173.3575 0.0000 0.0000 0.0000
# 4 0.0000 0.0000 0.0000 39.9269 0.0000 0.0000
# 5 0.0000 0.0000 0.0000 0.0000 29.9616 0.0000
# 6 0.0000 0.0000 0.0000 0.0000 0.0000 29.7070
#
#
#
# Elastic Compliance Matrix: (Units=1/GPa)
#
#
# Indices 1 2 3 4 5 6 
#
# 1 0.011726 -0.002651 -0.000042 0.000000 0.000000 0.000000
# 2 -0.002651 0.013335 -0.002304 0.000000 0.000000 0.000000
# 3 -0.000042 -0.002304 0.006189 0.000000 0.000000 0.000000
# 4 0.000000 0.000000 0.000000 0.025046 0.000000 0.000000
# 5 0.000000 0.000000 0.000000 0.000000 0.033376 0.000000
# 6 0.000000 0.000000 0.000000 0.000000 0.000000 0.033662
#
#
# Mechanical properties :
#
#
# Convention : Reuss Voigt Hill
#
# Bulk Modulus (GPa) = 47.04749 51.55885 49.30317
# Shear Modulus (GPa) = 35.60928 39.17537 37.39233
#
# Velocity S-wave (km/s) = 3.85377 4.04213 3.94907
# Velocity P-wave (km/s) = 6.27886 6.57941 6.43089
#
# Compressibility (1/GPa) = 0.02125512
#
# Stress axis : x y z
#
# Youngs Moduli (GPa) = 85.28243 74.99085 161.58267
#
# Poissons Ratio (x) = 0.19880 0.00686
# Poissons Ratio (y) = 0.22608 0.37224
# Poissons Ratio (z) = 0.00362 0.17276
#
# Static dielectric constant tensor:
#      x y z
#    x 1.821270 0.000000 0.000000 
#    y 0.000000 1.969040 0.000000 
#    z 0.000000 0.000000 1.820950 
# 
# From -- ./inp_files/5819.got.cif
#   From: 2010.05.17/outbox.cif.g08.bks.cpg/sg17_3_cif.got.tgz:5819.got - 2010.06.03 22:34:06.
