data_PCOD9311190
_publ_section_title
;
Structure prediction by ZEFSAII (Michael W. Deem and Ramdas Pophale) SiO2 
 PCOD9311190
Probable space group: P 2 2 21
;
_chemical_formula_sum "Si O2"
_cell_formula_units_Z 24
_cell_length_a 8.396921
_cell_length_b 24.720885
_cell_length_c 5.449581
_cell_angle_alpha 90.000000
_cell_angle_beta 90.000000
_cell_angle_gamma 90.000000
_cell_volume 1131.220310
_symmetry_space_group_name_H-M "P 2 2 21"
_symmetry_group_IT_number 17
_symmetry_cell_setting 'orthorhombic'
loop_
_space_group_symop_operation_xyz
x,y,z
-x,-y,1/2+z
x,-y,-z
-x,y,1/2-z
loop_
_atom_site_type_symbol
_atom_site_label
_atom_site_fract_x
_atom_site_fract_y
_atom_site_fract_z
Si Si1 0.694995 0.385878 0.266746
Si Si2 0.769329 0.883738 0.055034
Si Si3 0.897779 0.000000 0.000000
Si Si4 0.000000 0.534680 0.750000
Si Si5 0.266245 0.210775 0.909925
Si Si6 0.500000 0.827614 0.750000
Si Si7 0.000000 0.182315 0.250000
Si Si8 0.310874 0.679623 0.270704
O O1 0.500000 0.400001 0.250000
O O2 0.728039 0.352539 0.518612
O O3 0.832262 0.431864 0.261910
O O4 0.726420 0.351194 0.020869
O O5 0.634916 0.865599 0.863091
O O6 0.930056 0.857010 0.955426
O O7 0.793688 0.947305 0.065624
O O8 0.736022 0.849446 0.298063
O O9 0.000000 0.989066 0.750000
O O10 0.006452 0.500000 0.500000
O O11 0.239479 0.259908 0.728319
O O12 0.435764 0.211678 0.040533
O O13 0.137385 0.215864 0.123683
O O14 0.500000 0.685023 0.250000
#
# Coordination Sequence:
#
# PCOD9311190 Si02
#       8
#     4   4   2   2   4   2   2   4
#     4  10  24  45  68 107 145 185 241 291 346 421
#     4  11  23  44  63  93 127 165 229 278 349 419
#     4  12  26  46  72  90 122 176 216 294 354 410
#     4  12  26  47  76 104 144 193 240 298 350 404
#     4  11  23  40  66  95 135 181 225 280 347 426
#     4  10  24  40  64  96 128 168 226 282 334 438
#     4  10  22  39  60  92 124 161 230 276 326 422
#     4  10  22  40  68  96 142 189 224 281 354 414
#
# _framework density 21.216028000000001
#
# number of rings (size 3 to 8) (size 9 to 14) (size 15 to 20)
#    0.000    1.333    0.833    4.000   10.500    1.333 
#    6.000    0.000    0.000    0.000    0.000    0.000 
#    0.000    0.000    0.000    0.000    0.000    0.000 
#
# Total GULP energy -133920.915086 kJ/mol
# GULP energy per Si atom -5580.038129 kJ/mol
# Density = 2.116774 g / cm^3
# Si number density = 21.216028 Si / 1000 Ang^3
#
#
#
# Elastic Constant Matrix: (Units=GPa)
#
#
# Indices 1 2 3 4 5 6 
#
# 1 66.6554 57.9878 34.8093 0.0000 0.0000 0.0000
# 2 57.9878 137.6706 71.8151 0.0000 0.0000 0.0000
# 3 34.8093 71.8151 156.5341 0.0000 0.0000 0.0000
# 4 0.0000 0.0000 0.0000 22.5254 0.0000 0.0000
# 5 0.0000 0.0000 0.0000 0.0000 29.8899 0.0000
# 6 0.0000 0.0000 0.0000 0.0000 0.0000 -199.0199
#
#
#
# Elastic Compliance Matrix: (Units=1/GPa)
#
#
# Indices 1 2 3 4 5 6 
#
# 1 0.023778 -0.009540 -0.000911 0.000000 0.000000 0.000000
# 2 -0.009540 0.013377 -0.004016 0.000000 0.000000 0.000000
# 3 -0.000911 -0.004016 0.008433 0.000000 0.000000 0.000000
# 4 0.000000 0.000000 0.000000 0.044394 0.000000 0.000000
# 5 0.000000 0.000000 0.000000 0.000000 0.033456 0.000000
# 6 0.000000 0.000000 0.000000 0.000000 0.000000 -0.005025
#
#
# Mechanical properties :
#
#
# Convention : Reuss Voigt Hill
#
# Bulk Modulus (GPa) = 60.04280 76.67606 68.35943
# Shear Modulus (GPa) = 32.70145 -16.23773 8.23186
#
# Velocity S-wave (km/s) = 3.93027 -2.76950 1.97191
# Velocity P-wave (km/s) = 6.99701 5.09826 6.12170
#
# Compressibility (1/GPa) = 0.01665479
#
# Stress axis : x y z
#
# Youngs Moduli (GPa) = 42.05587 74.75601 118.57970
#
# Poissons Ratio (x) = 0.71320 0.10799
# Poissons Ratio (y) = 0.40123 0.47616
# Poissons Ratio (z) = 0.03830 0.30018
#
# Static dielectric constant tensor:
#      x y z
#    x 1.868760 0.000000 0.000000 
#    y 0.000000 1.767770 0.000000 
#    z 0.000000 0.000000 2.419120 
# 
# From -- ./inp_files/1046.got.cif
#   From: 2010.05.17/outbox.cif.g08.bks.cpg/sg17_1_cif.got.tgz:1046.got - 2010.06.03 22:34:06.
