data_PCOD9311791
_publ_section_title
;
Structure prediction by ZEFSAII (Michael W. Deem and Ramdas Pophale) SiO2 
 PCOD9311791
Probable space group: P 21 21 2
;
_chemical_formula_sum "Si O2"
_cell_formula_units_Z 32
_cell_length_a 15.309939
_cell_length_b 11.324099
_cell_length_c 7.741580
_cell_angle_alpha 90.000000
_cell_angle_beta 90.000000
_cell_angle_gamma 90.000000
_cell_volume 1342.167517
_symmetry_space_group_name_H-M "P 21 21 2"
_symmetry_group_IT_number 18
_symmetry_cell_setting 'orthorhombic'
loop_
_space_group_symop_operation_xyz
x,y,z
-x,-y,z
1/2+x,1/2-y,-z
1/2-x,1/2+y,-z
loop_
_atom_site_type_symbol
_atom_site_label
_atom_site_fract_x
_atom_site_fract_y
_atom_site_fract_z
Si Si1 0.895595 0.658016 0.596957
Si Si2 0.806719 0.252921 0.782155
Si Si3 0.103411 0.347295 0.208106
Si Si4 0.419399 0.578321 0.447128
Si Si5 0.175218 0.915565 0.076456
Si Si6 0.632660 0.010114 0.097699
Si Si7 0.061754 0.108015 0.139923
Si Si8 0.811099 0.130335 0.453682
O O1 0.930153 0.635133 0.403140
O O2 0.922689 0.573722 0.752749
O O3 0.791702 0.637692 0.572813
O O4 0.909897 0.795832 0.640788
O O5 0.702540 0.214061 0.777054
O O6 0.835817 0.381278 0.845319
O O7 0.838698 0.231326 0.586439
O O8 0.851135 0.161579 0.914693
O O9 0.050755 0.245117 0.104210
O O10 0.099802 0.466241 0.095958
O O11 0.500000 0.500000 0.382710
O O12 0.435239 0.604424 0.650970
O O13 0.335395 0.493328 0.453216
O O14 0.278847 0.912119 0.086895
O O15 0.144068 0.869454 0.265002
O O16 0.150442 0.052971 0.063847
O O17 0.000000 0.000000 0.083655
#
# Coordination Sequence:
#
# PCOD9311791 Si02
#       8
#     4   4   4   4   4   4   4   4
#     4   9  19  32  53  79 106 139 176 223 266 318
#     4  10  19  32  50  74 105 137 170 217 261 310
#     4   9  18  33  48  75 104 130 170 215 262 310
#     4   9  18  35  57  83 111 140 181 227 271 320
#     4   9  18  33  48  75 104 130 170 215 262 310
#     4  10  19  32  50  74 105 137 170 217 261 310
#     4   9  16  31  57  77 102 134 169 219 266 310
#     4   9  19  32  53  79 106 139 176 223 266 318
#
# _framework density 23.842030999999999
#
# number of rings (size 3 to 8) (size 9 to 14) (size 15 to 20)
#    0.000    2.750    1.250    0.000    5.250    2.000 
#   11.250    2.500    0.000    3.000    0.000    7.000 
#    0.000    0.000    0.000    0.000    0.000    0.000 
#
# Total GULP energy -178294.039147 kJ/mol
# GULP energy per Si atom -5571.688723 kJ/mol
# Density = 2.378777 g / cm^3
# Si number density = 23.842031 Si / 1000 Ang^3
#
#
#
# Elastic Constant Matrix: (Units=GPa)
#
#
# Indices 1 2 3 4 5 6 
#
# 1 43.7715 4.6453 -15.7866 0.0000 0.0000 0.0000
# 2 4.6453 51.6804 15.7326 0.0000 0.0000 0.0000
# 3 -15.7866 15.7326 82.1460 0.0000 0.0000 0.0000
# 4 0.0000 0.0000 0.0000 34.7374 0.0000 0.0000
# 5 0.0000 0.0000 0.0000 0.0000 -0.6918 0.0000
# 6 0.0000 0.0000 0.0000 0.0000 0.0000 24.8283
#
#
#
# Elastic Compliance Matrix: (Units=1/GPa)
#
#
# Indices 1 2 3 4 5 6 
#
# 1 0.025298 -0.003986 0.005625 0.000000 0.000000 0.000000
# 2 -0.003986 0.021176 -0.004822 0.000000 0.000000 0.000000
# 3 0.005625 -0.004822 0.014178 0.000000 0.000000 0.000000
# 4 0.000000 0.000000 0.000000 0.028787 0.000000 0.000000
# 5 0.000000 0.000000 0.000000 0.000000 -1.445590 0.000000
# 6 0.000000 0.000000 0.000000 0.000000 0.000000 0.040277
#
#
# Mechanical properties :
#
#
# Convention : Reuss Voigt Hill
#
# Bulk Modulus (GPa) = 18.42105 20.75339 19.58722
# Shear Modulus (GPa) = -3.87173 23.30857 9.71842
#
# Velocity S-wave (km/s) = -1.27571 3.13009 2.02114
# Velocity P-wave (km/s) = 2.36075 4.66763 3.69864
#
# Compressibility (1/GPa) = 0.05428572
#
# Stress axis : x y z
#
# Youngs Moduli (GPa) = 39.52932 47.22370 70.53227
#
# Poissons Ratio (x) = 0.18825 -0.39675
# Poissons Ratio (y) = 0.15757 0.34008
# Poissons Ratio (z) = -0.22236 0.22770
#
# Static dielectric constant tensor:
#      x y z
#    x 2.062210 0.000000 0.000000 
#    y 0.000000 1.893910 0.000000 
#    z 0.000000 0.000000 1.979810 
# 
# From -- ./inp_files/4607.got.cif
#   From: 2010.05.17/outbox.cif.g08.bks.cpg/sg18_3_cif.got.tgz:4607.got - 2010.06.03 22:40:56.
