data_PCOD9311043
_publ_section_title
;
Structure prediction by ZEFSAII (Michael W. Deem and Ramdas Pophale) SiO2 
 PCOD9311043
Probable space group: P 2 2 21
;
_chemical_formula_sum "Si O2"
_cell_formula_units_Z 22
_cell_length_a 11.089756
_cell_length_b 5.807265
_cell_length_c 15.292476
_cell_angle_alpha 90.000000
_cell_angle_beta 90.000000
_cell_angle_gamma 90.000000
_cell_volume 984.853069
_symmetry_space_group_name_H-M "P 2 2 21"
_symmetry_group_IT_number 17
_symmetry_cell_setting 'orthorhombic'
loop_
_space_group_symop_operation_xyz
x,y,z
-x,-y,1/2+z
x,-y,-z
-x,y,1/2-z
loop_
_atom_site_type_symbol
_atom_site_label
_atom_site_fract_x
_atom_site_fract_y
_atom_site_fract_z
Si Si1 0.205172 0.791695 0.798644
Si Si2 0.067305 0.414941 0.910735
Si Si3 0.576310 0.246850 0.958234
Si Si4 0.632555 0.553308 0.224555
Si Si5 0.689076 0.169737 0.600327
Si Si6 0.000000 0.136745 0.750000
O O1 0.121395 0.624453 0.855173
O O2 0.274659 0.656675 0.722637
O O3 0.297464 0.907788 0.867360
O O4 0.118367 0.984587 0.760672
O O5 0.183621 0.257618 0.937751
O O6 0.989326 0.280799 0.839308
O O7 0.007551 0.500000 0.000000
O O8 0.622429 0.283546 0.859042
O O9 0.430162 0.224770 0.953477
O O10 0.603869 0.500000 0.000000
O O11 0.617349 0.000000 0.000000
O O12 0.500000 0.462320 0.250000
O O13 0.673748 0.694697 0.308874
#
# Coordination Sequence:
#
# PCOD9311043 Si02
#       6
#     4   4   4   4   4   2
#     4  10  21  39  70  92 132 173 227 281 345 421
#     4  10  21  38  63  99 134 167 226 292 362 409
#     4  11  25  38  61  97 144 179 226 280 337 414
#     4   9  21  39  60  94 131 180 219 274 344 415
#     4   9  21  35  61  94 128 177 221 278 344 406
#     4  10  22  40  64 104 128 182 224 292 358 422
#
# _framework density 22.338356000000001
#
# number of rings (size 3 to 8) (size 9 to 14) (size 15 to 20)
#    0.000    2.182    0.000    1.091   12.727    2.909 
#    0.000    0.000    0.000   26.182    0.000    0.000 
#    0.000    0.000    0.000    0.000    0.000    0.000 
#
# Total GULP energy -122815.379215 kJ/mol
# GULP energy per Si atom -5582.517237 kJ/mol
# Density = 2.228751 g / cm^3
# Si number density = 22.338356 Si / 1000 Ang^3
#
#
#
# Elastic Constant Matrix: (Units=GPa)
#
#
# Indices 1 2 3 4 5 6 
#
# 1 39.0258 28.9182 32.4493 0.0000 0.0000 0.0000
# 2 28.9182 119.9266 55.1388 0.0000 0.0000 0.0000
# 3 32.4493 55.1388 126.2658 0.0000 0.0000 0.0000
# 4 0.0000 0.0000 0.0000 32.1552 0.0000 0.0000
# 5 0.0000 0.0000 0.0000 0.0000 27.6201 0.0000
# 6 0.0000 0.0000 0.0000 0.0000 0.0000 12.0410
#
#
#
# Elastic Compliance Matrix: (Units=1/GPa)
#
#
# Indices 1 2 3 4 5 6 
#
# 1 0.035190 -0.005415 -0.006679 0.000000 0.000000 0.000000
# 2 -0.005415 0.011266 -0.003528 0.000000 0.000000 0.000000
# 3 -0.006679 -0.003528 0.011177 0.000000 0.000000 0.000000
# 4 0.000000 0.000000 0.000000 0.031099 0.000000 0.000000
# 5 0.000000 0.000000 0.000000 0.000000 0.036206 0.000000
# 6 0.000000 0.000000 0.000000 0.000000 0.000000 0.083050
#
#
# Mechanical properties :
#
#
# Convention : Reuss Voigt Hill
#
# Bulk Modulus (GPa) = 37.89423 57.58120 47.73772
# Shear Modulus (GPa) = 20.15901 25.61070 22.88485
#
# Velocity S-wave (km/s) = 3.00732 3.38966 3.20420
# Velocity P-wave (km/s) = 5.39066 6.41502 5.92502
#
# Compressibility (1/GPa) = 0.02638924
#
# Stress axis : x y z
#
# Youngs Moduli (GPa) = 28.41733 88.76027 89.46912
#
# Poissons Ratio (x) = 0.48060 0.59756
# Poissons Ratio (y) = 0.15387 0.31568
# Poissons Ratio (z) = 0.18980 0.31318
#
# Static dielectric constant tensor:
#      x y z
#    x 1.839290 0.000000 0.000000 
#    y 0.000000 1.899640 0.000000 
#    z 0.000000 0.000000 1.849170 
# 
# From -- ./inp_files/8402.got.cif
#   From: 2010.05.17/outbox.cif.g08.bks.cpg/sg17_5_cif.got.tgz:8402.got - 2010.06.03 22:34:06.
