data_PCOD9311117
_publ_section_title
;
Structure prediction by ZEFSAII (Michael W. Deem and Ramdas Pophale) SiO2 
 PCOD9311117
Probable space group: P 2 2 21
;
_chemical_formula_sum "Si O2"
_cell_formula_units_Z 32
_cell_length_a 16.978102
_cell_length_b 17.405164
_cell_length_c 5.426574
_cell_angle_alpha 90.000000
_cell_angle_beta 90.000000
_cell_angle_gamma 90.000000
_cell_volume 1603.588702
_symmetry_space_group_name_H-M "P 2 2 21"
_symmetry_group_IT_number 17
_symmetry_cell_setting 'orthorhombic'
loop_
_space_group_symop_operation_xyz
x,y,z
-x,-y,1/2+z
x,-y,-z
-x,y,1/2-z
loop_
_atom_site_type_symbol
_atom_site_label
_atom_site_fract_x
_atom_site_fract_y
_atom_site_fract_z
Si Si1 0.200876 0.188492 0.084969
Si Si2 0.285768 0.334915 0.938899
Si Si3 0.092403 0.920079 0.256022
Si Si4 0.757603 0.969435 0.752892
Si Si5 0.449340 0.588919 0.000940
Si Si6 0.953940 0.385754 0.985998
Si Si7 0.075945 0.776082 0.583236
Si Si8 0.226613 0.585210 0.557699
O O1 0.259101 0.245346 0.946545
O O2 0.242495 0.121782 0.239593
O O3 0.151263 0.244091 0.257513
O O4 0.134110 0.138500 0.939425
O O5 0.377715 0.351761 0.978509
O O6 0.248350 0.382663 0.170923
O O7 0.258754 0.364639 0.671083
O O8 0.090350 0.860350 0.479684
O O9 0.000000 0.945038 0.250000
O O10 0.153929 0.990462 0.257961
O O11 0.721977 0.000000 0.500000
O O12 0.719282 0.000000 0.000000
O O13 0.500000 0.599480 0.750000
O O14 0.419476 0.500000 0.000000
O O15 0.500000 0.596420 0.250000
O O16 0.936996 0.296280 0.910046
O O17 0.000000 0.386776 0.250000
O O18 0.867848 0.418308 0.032511
O O19 0.000000 0.420388 0.750000
O O20 0.000000 0.781658 0.750000
O O21 0.258989 0.500000 0.500000
#
# Coordination Sequence:
#
# PCOD9311117 Si02
#       8
#     4   4   4   4   4   4   4   4
#     4  11  23  38  54  83 116 161 206 259 313 372
#     4  12  25  42  66  94 129 160 197 246 314 388
#     4  11  21  33  53  75 113 158 212 269 314 355
#     4  10  22  36  51  74 110 151 203 254 306 355
#     4  10  21  41  69 100 130 157 187 231 299 390
#     4  11  24  38  55  77 109 157 215 269 314 355
#     4  11  20  32  53  74 107 152 210 262 316 359
#     4  12  25  41  62  88 118 158 209 261 311 367
#
# _framework density 19.95524
#
# number of rings (size 3 to 8) (size 9 to 14) (size 15 to 20)
#    0.000    1.000    3.750    3.750    3.500    3.500 
#    0.000    0.000    0.000    0.000    0.000    0.000 
#    0.000   12.000    0.000    0.000    0.000    0.000 
#
# Total GULP energy -178342.476909 kJ/mol
# GULP energy per Si atom -5573.202403 kJ/mol
# Density = 1.990982 g / cm^3
# Si number density = 19.955240 Si / 1000 Ang^3
#
#
#
# Elastic Constant Matrix: (Units=GPa)
#
#
# Indices 1 2 3 4 5 6 
#
# 1 56.1434 11.1738 13.0484 0.0000 0.0000 0.0000
# 2 11.1738 100.5764 5.3696 0.0000 0.0000 0.0000
# 3 13.0484 5.3696 98.6817 0.0000 0.0000 0.0000
# 4 0.0000 0.0000 0.0000 6.9516 0.0000 0.0000
# 5 0.0000 0.0000 0.0000 0.0000 21.5095 0.0000
# 6 0.0000 0.0000 0.0000 0.0000 0.0000 -234.6765
#
#
#
# Elastic Compliance Matrix: (Units=1/GPa)
#
#
# Indices 1 2 3 4 5 6 
#
# 1 0.018752 -0.001957 -0.002373 0.000000 0.000000 0.000000
# 2 -0.001957 0.010176 -0.000295 0.000000 0.000000 0.000000
# 3 -0.002373 -0.000295 0.010463 0.000000 0.000000 0.000000
# 4 0.000000 0.000000 0.000000 0.143851 0.000000 0.000000
# 5 0.000000 0.000000 0.000000 0.000000 0.046491 0.000000
# 6 0.000000 0.000000 0.000000 0.000000 0.000000 -0.004261
#
#
# Mechanical properties :
#
#
# Convention : Reuss Voigt Hill
#
# Bulk Modulus (GPa) = 33.17605 34.95390 34.06497
# Shear Modulus (GPa) = 20.42735 -26.18908 -2.88087
#
# Velocity S-wave (km/s) = 3.20294 -3.62662 -1.20283
# Velocity P-wave (km/s) = 5.50815 0.13281 3.89598
#
# Compressibility (1/GPa) = 0.03014223
#
# Stress axis : x y z
#
# Youngs Moduli (GPa) = 53.32629 98.27215 95.57089
#
# Poissons Ratio (x) = 0.19228 0.22680
# Poissons Ratio (y) = 0.10434 0.02819
# Poissons Ratio (z) = 0.12655 0.02899
#
# Static dielectric constant tensor:
#      x y z
#    x 1.761940 0.000000 0.000000 
#    y 0.000000 1.745990 0.000000 
#    z 0.000000 0.000000 1.917130 
# 
# From -- ./inp_files/2333.got.cif
#   From: 2010.05.17/outbox.cif.g08.bks.cpg/sg17_2_cif.got.tgz:2333.got - 2010.06.03 22:34:06.
