data_PCOD9311051
_publ_section_title
;
Structure prediction by ZEFSAII (Michael W. Deem and Ramdas Pophale) SiO2 
 PCOD9311051
Probable space group: P 2 2 21
;
_chemical_formula_sum "Si O2"
_cell_formula_units_Z 18
_cell_length_a 10.385131
_cell_length_b 16.361248
_cell_length_c 5.237331
_cell_angle_alpha 90.000000
_cell_angle_beta 90.000000
_cell_angle_gamma 90.000000
_cell_volume 889.894308
_symmetry_space_group_name_H-M "P 2 2 21"
_symmetry_group_IT_number 17
_symmetry_cell_setting 'orthorhombic'
loop_
_space_group_symop_operation_xyz
x,y,z
-x,-y,1/2+z
x,-y,-z
-x,y,1/2-z
loop_
_atom_site_type_symbol
_atom_site_label
_atom_site_fract_x
_atom_site_fract_y
_atom_site_fract_z
Si Si1 0.745985 0.161925 0.322092
Si Si2 0.500000 0.051822 0.250000
Si Si3 0.255513 0.335047 0.366666
Si Si4 0.860234 0.296908 0.635668
Si Si5 0.500000 0.554896 0.750000
Si Si6 0.000000 0.056569 0.250000
O O1 0.622848 0.104819 0.337249
O O2 0.712208 0.238261 0.139506
O O3 0.788022 0.211109 0.577822
O O4 0.872471 0.112728 0.235431
O O5 0.461407 0.000000 0.500000
O O6 0.208992 0.351555 0.651415
O O7 0.376027 0.388366 0.289424
O O8 0.148504 0.339599 0.141750
O O9 0.000000 0.280114 0.750000
O O10 0.516517 0.500000 0.500000
O O11 0.990478 0.000000 0.500000
#
# Coordination Sequence:
#
# PCOD9311051 Si02
#       6
#     4   2   4   4   2   2
#     4  10  25  42  67  90 133 175 236 276 338 412
#     4  12  27  42  57  88 134 178 222 288 355 398
#     4  10  23  40  69  97 127 172 223 267 331 405
#     4  10  21  38  69  97 125 163 230 271 323 385
#     4  12  25  46  71 104 142 172 218 284 349 412
#     4  12  26  38  64  98 134 180 232 288 352 392
#
# _framework density 20.227124
#
# number of rings (size 3 to 8) (size 9 to 14) (size 15 to 20)
#    1.333    0.000    0.000    5.333    7.778    0.000 
#    0.000    0.000    0.000   13.333    0.000    0.000 
#    0.000    0.000    0.000    0.000    0.000    0.000 
#
# Total GULP energy -100363.021541 kJ/mol
# GULP energy per Si atom -5575.723419 kJ/mol
# Density = 2.018109 g / cm^3
# Si number density = 20.227124 Si / 1000 Ang^3
#
#
#
# Elastic Constant Matrix: (Units=GPa)
#
#
# Indices 1 2 3 4 5 6 
#
# 1 142.3834 52.7155 26.3224 0.0000 0.0000 0.0000
# 2 52.7155 71.3612 34.1128 0.0000 0.0000 0.0000
# 3 26.3224 34.1128 109.4912 0.0000 0.0000 0.0000
# 4 0.0000 0.0000 0.0000 23.5827 0.0000 0.0000
# 5 0.0000 0.0000 0.0000 0.0000 26.7338 0.0000
# 6 0.0000 0.0000 0.0000 0.0000 0.0000 61.1162
#
#
#
# Elastic Compliance Matrix: (Units=1/GPa)
#
#
# Indices 1 2 3 4 5 6 
#
# 1 0.009669 -0.007087 -0.000116 0.000000 0.000000 0.000000
# 2 -0.007087 0.021660 -0.005045 0.000000 0.000000 0.000000
# 3 -0.000116 -0.005045 0.010733 0.000000 0.000000 0.000000
# 4 0.000000 0.000000 0.000000 0.042404 0.000000 0.000000
# 5 0.000000 0.000000 0.000000 0.000000 0.037406 0.000000
# 6 0.000000 0.000000 0.000000 0.000000 0.000000 0.016362
#
#
# Mechanical properties :
#
#
# Convention : Reuss Voigt Hill
#
# Bulk Modulus (GPa) = 56.92912 61.05969 58.99441
# Shear Modulus (GPa) = 29.65885 36.29220 32.97552
#
# Velocity S-wave (km/s) = 3.83337 4.24044 4.04203
# Velocity P-wave (km/s) = 6.91368 7.36394 7.14236
#
# Compressibility (1/GPa) = 0.01756570
#
# Stress axis : x y z
#
# Youngs Moduli (GPa) = 103.42820 46.16879 93.17203
#
# Poissons Ratio (x) = 0.32718 0.01085
# Poissons Ratio (y) = 0.73295 0.47001
# Poissons Ratio (z) = 0.01205 0.23290
#
# Static dielectric constant tensor:
#      x y z
#    x 1.694820 0.000000 0.000000 
#    y 0.000000 1.747380 0.000000 
#    z 0.000000 0.000000 1.620690 
# 
# From -- ./inp_files/781.got.cif
#   From: 2010.05.17/outbox.cif.g08.bks.cpg/sg17_1_cif.got.tgz:781.got - 2010.06.03 22:34:06.
