data_PCOD9311941
_publ_section_title
;
Structure prediction by ZEFSAII (Michael W. Deem and Ramdas Pophale) SiO2 
 PCOD9311941
Probable space group: P 21 21 2
;
_chemical_formula_sum "Si O2"
_cell_formula_units_Z 16
_cell_length_a 11.586265
_cell_length_b 5.062638
_cell_length_c 11.110798
_cell_angle_alpha 90.000000
_cell_angle_beta 90.000000
_cell_angle_gamma 90.000000
_cell_volume 651.726806
_symmetry_space_group_name_H-M "P 21 21 2"
_symmetry_group_IT_number 18
_symmetry_cell_setting 'orthorhombic'
loop_
_space_group_symop_operation_xyz
x,y,z
-x,-y,z
1/2+x,1/2-y,-z
1/2-x,1/2+y,-z
loop_
_atom_site_type_symbol
_atom_site_label
_atom_site_fract_x
_atom_site_fract_y
_atom_site_fract_z
Si Si1 0.369777 0.516863 0.567105
Si Si2 0.860484 0.481613 0.303543
Si Si3 0.726527 0.256575 0.073127
Si Si4 0.000000 0.000000 0.660948
Si Si5 0.500000 0.000000 0.181497
O O1 0.500000 0.500000 0.620437
O O2 0.165291 0.716171 0.415013
O O3 0.314085 0.735386 0.651565
O O4 0.400063 0.593261 0.430711
O O5 0.796455 0.362543 0.188623
O O6 0.000000 0.500000 0.282926
O O7 0.606022 0.119207 0.107419
O O8 0.706518 0.517649 0.992723
O O9 0.962110 0.250152 0.737895
#
# Coordination Sequence:
#
# PCOD9311941 Si02
#       5
#     4   4   4   2   2
#     4   8  17  34  68 105 138 178 228 284 356 439
#     4  10  19  40  70 104 138 180 246 301 349 436
#     4  12  28  48  71 106 145 201 261 305 383 424
#     4  10  20  42  74 104 152 192 226 300 392 442
#     4  12  26  48  70 106 154 194 240 320 372 460
#
# _framework density 24.550165
#
# number of rings (size 3 to 8) (size 9 to 14) (size 15 to 20)
#    0.750    1.000    0.000    4.500    1.750    0.000 
#    0.000    5.000    0.000    0.000    0.000    0.000 
#    0.000    0.000    0.000    0.000    0.000    0.000 
#
# Total GULP energy -89359.629693 kJ/mol
# GULP energy per Si atom -5584.976856 kJ/mol
# Density = 2.449429 g / cm^3
# Si number density = 24.550165 Si / 1000 Ang^3
#
#
#
# Elastic Constant Matrix: (Units=GPa)
#
#
# Indices 1 2 3 4 5 6 
#
# 1 124.2797 12.0758 28.5426 0.0000 0.0000 0.0000
# 2 12.0758 150.2988 45.0913 0.0000 0.0000 0.0000
# 3 28.5426 45.0913 100.9463 0.0000 0.0000 0.0000
# 4 0.0000 0.0000 0.0000 59.4260 0.0000 0.0000
# 5 0.0000 0.0000 0.0000 0.0000 15.2112 0.0000
# 6 0.0000 0.0000 0.0000 0.0000 0.0000 24.0210
#
#
#
# Elastic Compliance Matrix: (Units=1/GPa)
#
#
# Indices 1 2 3 4 5 6 
#
# 1 0.008605 0.000045 -0.002453 0.000000 0.000000 0.000000
# 2 0.000045 0.007683 -0.003445 0.000000 0.000000 0.000000
# 3 -0.002453 -0.003445 0.012139 0.000000 0.000000 0.000000
# 4 0.000000 0.000000 0.000000 0.016828 0.000000 0.000000
# 5 0.000000 0.000000 0.000000 0.000000 0.065741 0.000000
# 6 0.000000 0.000000 0.000000 0.000000 0.000000 0.041630
#
#
# Mechanical properties :
#
#
# Convention : Reuss Voigt Hill
#
# Bulk Modulus (GPa) = 59.80530 60.77159 60.28845
# Shear Modulus (GPa) = 29.42803 39.05266 34.24034
#
# Velocity S-wave (km/s) = 3.46597 3.99272 3.73863
# Velocity P-wave (km/s) = 6.35850 6.78701 6.57625
#
# Compressibility (1/GPa) = 0.01672092
#
# Stress axis : x y z
#
# Youngs Moduli (GPa) = 116.20583 130.15330 82.38243
#
# Poissons Ratio (x) = -0.00580 0.20209
# Poissons Ratio (y) = -0.00518 0.28377
# Poissons Ratio (z) = 0.28506 0.44832
#
# Static dielectric constant tensor:
#      x y z
#    x 2.105340 0.000000 0.000000 
#    y 0.000000 2.049500 0.000000 
#    z 0.000000 0.000000 1.953660 
# 
# From -- ./inp_files/5774.got.cif
#   From: 2010.05.17/outbox.cif.g08.bks.cpg/sg18_3_cif.got.tgz:5774.got - 2010.06.03 22:40:56.
