data_PCOD9311665
_publ_section_title
;
Structure prediction by ZEFSAII (Michael W. Deem and Ramdas Pophale) SiO2 
 PCOD9311665
Probable space group: P 21 21 2
;
_chemical_formula_sum "Si O2"
_cell_formula_units_Z 32
_cell_length_a 11.611211
_cell_length_b 14.623852
_cell_length_c 8.019371
_cell_angle_alpha 90.000000
_cell_angle_beta 90.000000
_cell_angle_gamma 90.000000
_cell_volume 1361.694258
_symmetry_space_group_name_H-M "P 21 21 2"
_symmetry_group_IT_number 18
_symmetry_cell_setting 'orthorhombic'
loop_
_space_group_symop_operation_xyz
x,y,z
-x,-y,z
1/2+x,1/2-y,-z
1/2-x,1/2+y,-z
loop_
_atom_site_type_symbol
_atom_site_label
_atom_site_fract_x
_atom_site_fract_y
_atom_site_fract_z
Si Si1 0.499975 0.868715 0.783406
Si Si2 0.278538 0.464402 0.864385
Si Si3 0.033003 0.823157 0.127224
Si Si4 0.081988 0.776041 0.753644
Si Si5 0.423519 0.580104 0.433511
Si Si6 0.704839 0.009445 0.750466
Si Si7 0.198960 0.161752 0.264215
Si Si8 0.455113 0.898863 0.181451
O O1 0.541250 0.765170 0.753772
O O2 0.606491 0.932402 0.737785
O O3 0.376889 0.902138 0.709288
O O4 0.483321 0.883633 0.984235
O O5 0.400811 0.416482 0.831034
O O6 0.252181 0.561104 0.777042
O O7 0.181416 0.395693 0.799557
O O8 0.252373 0.477856 0.060906
O O9 0.894558 0.829256 0.115409
O O10 0.084737 0.795518 0.950509
O O11 0.210874 0.742664 0.714972
O O12 0.012460 0.861208 0.678549
O O13 0.011224 0.683510 0.720056
O O14 0.500000 0.500000 0.510837
O O15 0.315393 0.527557 0.348965
O O16 0.373034 0.647820 0.569342
O O17 0.500000 0.000000 0.225170
#
# Coordination Sequence:
#
# PCOD9311665 Si02
#       8
#     4   4   4   4   4   4   4   4
#     4   9  19  37  65 105 135 181 237 292 355 418
#     4  11  20  39  71 100 137 180 229 296 363 418
#     4  11  24  37  73 104 135 172 235 299 363 411
#     4  11  26  45  71 109 135 183 248 293 359 432
#     4  12  28  47  68  97 149 197 238 292 359 439
#     4  10  20  41  68  98 141 184 237 288 349 425
#     4  12  27  49  66  99 148 182 230 295 359 434
#     4  10  17  38  65 103 140 175 227 303 357 419
#
# _framework density 23.500136000000001
#
# number of rings (size 3 to 8) (size 9 to 14) (size 15 to 20)
#    0.000    1.250    3.750    3.375    8.750    1.000 
#    2.250    2.500    0.000    0.000    0.000    0.000 
#    0.000    0.000    0.000    0.000    0.000    0.000 
#
# Total GULP energy -178566.253711 kJ/mol
# GULP energy per Si atom -5580.195428 kJ/mol
# Density = 2.344665 g / cm^3
# Si number density = 23.500136 Si / 1000 Ang^3
#
#
#
# Elastic Constant Matrix: (Units=GPa)
#
#
# Indices 1 2 3 4 5 6 
#
# 1 166.1701 68.5253 39.1641 0.0000 0.0000 0.0000
# 2 68.5253 79.6344 29.2693 0.0000 0.0000 0.0000
# 3 39.1641 29.2693 33.5992 0.0000 0.0000 0.0000
# 4 0.0000 0.0000 0.0000 9.4199 0.0000 0.0000
# 5 0.0000 0.0000 0.0000 0.0000 20.2538 0.0000
# 6 0.0000 0.0000 0.0000 0.0000 0.0000 40.6224
#
#
#
# Elastic Compliance Matrix: (Units=1/GPa)
#
#
# Indices 1 2 3 4 5 6 
#
# 1 0.010137 -0.006443 -0.006203 0.000000 0.000000 0.000000
# 2 -0.006443 0.022567 -0.012149 0.000000 0.000000 0.000000
# 3 -0.006203 -0.012149 0.047576 0.000000 0.000000 0.000000
# 4 0.000000 0.000000 0.000000 0.106158 0.000000 0.000000
# 5 0.000000 0.000000 0.000000 0.000000 0.049373 0.000000
# 6 0.000000 0.000000 0.000000 0.000000 0.000000 0.024617
#
#
# Mechanical properties :
#
#
# Convention : Reuss Voigt Hill
#
# Bulk Modulus (GPa) = 32.58336 61.48011 47.03173
# Shear Modulus (GPa) = 15.61291 23.55555 19.58423
#
# Velocity S-wave (km/s) = 2.58034 3.16944 2.88994
# Velocity P-wave (km/s) = 4.77209 6.29382 5.58503
#
# Compressibility (1/GPa) = 0.03069051
#
# Stress axis : x y z
#
# Youngs Moduli (GPa) = 98.65032 44.31341 21.01883
#
# Poissons Ratio (x) = 0.28550 0.13039
# Poissons Ratio (y) = 0.63558 0.25535
# Poissons Ratio (z) = 0.61195 0.53835
#
# Static dielectric constant tensor:
#      x y z
#    x 1.963850 0.000000 0.000000 
#    y 0.000000 1.955060 0.000000 
#    z 0.000000 0.000000 1.896190 
# 
# From -- ./inp_files/3949.got.cif
#   From: 2010.05.17/outbox.cif.g08.bks.cpg/sg18_2_cif.got.tgz:3949.got - 2010.06.03 22:40:56.
