data_PCOD9311328
_publ_section_title
;
Structure prediction by ZEFSAII (Michael W. Deem and Ramdas Pophale) SiO2 
 PCOD9311328
Probable space group: P 2 2 21
;
_chemical_formula_sum "Si O2"
_cell_formula_units_Z 32
_cell_length_a 6.947772
_cell_length_b 12.880401
_cell_length_c 17.930441
_cell_angle_alpha 90.000000
_cell_angle_beta 90.000000
_cell_angle_gamma 90.000000
_cell_volume 1604.596768
_symmetry_space_group_name_H-M "P 2 2 21"
_symmetry_group_IT_number 17
_symmetry_cell_setting 'orthorhombic'
loop_
_space_group_symop_operation_xyz
x,y,z
-x,-y,1/2+z
x,-y,-z
-x,y,1/2-z
loop_
_atom_site_type_symbol
_atom_site_label
_atom_site_fract_x
_atom_site_fract_y
_atom_site_fract_z
Si Si1 0.635361 0.899355 0.967503
Si Si2 0.852251 0.254664 0.318800
Si Si3 0.547071 0.342957 0.662691
Si Si4 0.593432 0.052684 0.325661
Si Si5 0.708739 0.137913 0.582379
Si Si6 0.195153 0.563437 0.432452
Si Si7 0.881937 0.510487 0.675786
Si Si8 0.975121 0.754351 0.985749
O O1 0.575432 0.921713 0.883695
O O2 0.763247 0.799423 0.975356
O O3 0.445978 0.886644 0.017785
O O4 0.742689 0.000000 0.000000
O O5 0.702344 0.160819 0.311688
O O6 0.789841 0.375436 0.313168
O O7 0.000000 0.241219 0.250000
O O8 0.934144 0.247648 0.403267
O O9 0.500000 0.330234 0.750000
O O10 0.624535 0.235329 0.628452
O O11 0.357145 0.382865 0.618739
O O12 0.716202 0.428629 0.657074
O O13 0.500000 0.011990 0.250000
O O14 0.721349 0.963690 0.365355
O O15 0.900237 0.172558 0.540020
O O16 0.290974 0.500000 0.500000
O O17 0.054630 0.647016 0.471181
O O18 0.052079 0.490256 0.385357
O O19 0.000000 0.480287 0.750000
#
# Coordination Sequence:
#
# PCOD9311328 Si02
#       8
#     4   4   4   4   4   4   4   4
#     4  10  23  39  66  94 128 171 220 272 329 398
#     4  11  25  43  69  98 137 180 229 279 339 409
#     4  12  25  43  72 100 135 180 226 277 353 410
#     4  11  24  46  66  97 142 175 227 287 339 406
#     4  11  24  43  67 101 132 174 228 283 337 411
#     4  12  25  42  67 103 138 178 228 287 343 414
#     4  11  24  45  66  98 136 176 225 285 338 412
#     4  12  23  41  69  97 135 175 227 278 347 403
#
# _framework density 19.942703999999999
#
# number of rings (size 3 to 8) (size 9 to 14) (size 15 to 20)
#    0.000    0.750    6.250    1.125    1.750    3.000 
#    0.000    0.625    0.000    0.000    0.000    0.000 
#    0.000    0.000    0.000    0.000    0.000    0.000 
#
# Total GULP energy -178682.961415 kJ/mol
# GULP energy per Si atom -5583.842544 kJ/mol
# Density = 1.989731 g / cm^3
# Si number density = 19.942704 Si / 1000 Ang^3
#
#
#
# Elastic Constant Matrix: (Units=GPa)
#
#
# Indices 1 2 3 4 5 6 
#
# 1 44.5638 19.1612 29.7593 0.0000 0.0000 0.0000
# 2 19.1612 72.7861 20.3117 0.0000 0.0000 0.0000
# 3 29.7593 20.3117 136.2405 0.0000 0.0000 0.0000
# 4 0.0000 0.0000 0.0000 35.0209 0.0000 0.0000
# 5 0.0000 0.0000 0.0000 0.0000 23.6056 0.0000
# 6 0.0000 0.0000 0.0000 0.0000 0.0000 24.8374
#
#
#
# Elastic Compliance Matrix: (Units=1/GPa)
#
#
# Indices 1 2 3 4 5 6 
#
# 1 0.028608 -0.006039 -0.005349 0.000000 0.000000 0.000000
# 2 -0.006039 0.015610 -0.001008 0.000000 0.000000 0.000000
# 3 -0.005349 -0.001008 0.008659 0.000000 0.000000 0.000000
# 4 0.000000 0.000000 0.000000 0.028554 0.000000 0.000000
# 5 0.000000 0.000000 0.000000 0.000000 0.042363 0.000000
# 6 0.000000 0.000000 0.000000 0.000000 0.000000 0.040262
#
#
# Mechanical properties :
#
#
# Convention : Reuss Voigt Hill
#
# Bulk Modulus (GPa) = 35.60541 43.56166 39.58354
# Shear Modulus (GPa) = 25.22601 28.98331 27.10466
#
# Velocity S-wave (km/s) = 3.56044 3.81639 3.69063
# Velocity P-wave (km/s) = 5.89872 6.42733 6.16869
#
# Compressibility (1/GPa) = 0.02808562
#
# Stress axis : x y z
#
# Youngs Moduli (GPa) = 34.95542 64.06186 115.49229
#
# Poissons Ratio (x) = 0.38684 0.61772
# Poissons Ratio (y) = 0.21108 0.11644
# Poissons Ratio (z) = 0.18696 0.06459
#
# Static dielectric constant tensor:
#      x y z
#    x 1.663770 0.000000 0.000000 
#    y 0.000000 1.731950 0.000000 
#    z 0.000000 0.000000 1.707110 
# 
# From -- ./inp_files/9125.got.cif
#   From: 2010.05.17/outbox.cif.g08.bks.cpg/sg17_5_cif.got.tgz:9125.got - 2010.06.03 22:34:06.
