data_PCOD9311640
_publ_section_title
;
Structure prediction by ZEFSAII (Michael W. Deem and Ramdas Pophale) SiO2 
 PCOD9311640
Probable space group: P 21 21 2
;
_chemical_formula_sum "Si O2"
_cell_formula_units_Z 32
_cell_length_a 23.335070
_cell_length_b 5.626155
_cell_length_c 10.477591
_cell_angle_alpha 90.000000
_cell_angle_beta 90.000000
_cell_angle_gamma 90.000000
_cell_volume 1375.568564
_symmetry_space_group_name_H-M "P 21 21 2"
_symmetry_group_IT_number 18
_symmetry_cell_setting 'orthorhombic'
loop_
_space_group_symop_operation_xyz
x,y,z
-x,-y,z
1/2+x,1/2-y,-z
1/2-x,1/2+y,-z
loop_
_atom_site_type_symbol
_atom_site_label
_atom_site_fract_x
_atom_site_fract_y
_atom_site_fract_z
Si Si1 0.072344 0.750001 0.062522
Si Si2 0.089969 0.750003 0.755279
Si Si3 0.564485 0.249999 0.927952
Si Si4 0.820846 0.249998 0.548309
Si Si5 0.916793 0.749997 0.769729
Si Si6 0.182983 0.250002 0.426130
Si Si7 0.219750 0.250002 0.154291
Si Si8 0.211535 0.250002 0.858076
O O1 0.088614 0.750002 0.910574
O O2 0.091847 0.497616 0.114862
O O3 0.004219 0.750000 0.091144
O O4 0.091847 0.002387 0.114862
O O5 0.151772 0.750003 0.688776
O O6 0.063698 0.499718 0.714216
O O7 0.063698 0.000287 0.714216
O O8 0.564935 0.249998 0.082467
O O9 0.839082 0.499773 0.483002
O O10 0.751959 0.249998 0.549162
O O11 0.839082 0.000222 0.483002
O O12 0.847317 0.749997 0.778703
O O13 0.178404 0.250002 0.274697
O O14 0.254089 0.503952 0.165155
O O15 0.254089 0.996053 0.165155
O O16 0.197241 0.250002 0.009019
#
# Coordination Sequence:
#
# PCOD9311640 Si02
#       8
#     4   4   4   4   4   4   4   4
#     4   8  14  24  36  53  79 108 128 149 189 239
#     4  10  18  27  41  60  83 110 135 166 198 241
#     4   8  14  23  36  55  78 107 128 148 191 241
#     4  10  19  28  41  58  75 104 141 169 203 240
#     4  10  17  26  42  61  83 108 133 166 200 241
#     4  10  19  30  41  55  78 104 136 177 206 233
#     4  10  20  32  44  58  80 108 140 178 211 240
#     4  10  19  30  45  62  78 105 143 173 208 251
#
# _framework density 23.263109
#
# number of rings (size 3 to 8) (size 9 to 14) (size 15 to 20)
#    0.000    2.500    0.000    3.750    0.000    2.000 
#    0.000    0.000    0.000    0.000    0.000    0.000 
#    0.000    0.000    0.000  108.000    0.000    0.000 
#
# Total GULP energy -178378.747236 kJ/mol
# GULP energy per Si atom -5574.335851 kJ/mol
# Density = 2.321016 g / cm^3
# Si number density = 23.263109 Si / 1000 Ang^3
#
#
#
# Elastic Constant Matrix: (Units=GPa)
#
#
# Indices 1 2 3 4 5 6 
#
# 1 54.9542 41.7202 19.7487 0.0000 0.0000 0.0000
# 2 41.7202 314.7865 50.2437 0.0000 0.0000 0.0000
# 3 19.7487 50.2437 67.5991 0.0000 0.0000 0.0000
# 4 0.0000 0.0000 0.0000 29.5451 0.0000 0.0000
# 5 0.0000 0.0000 0.0000 0.0000 -10.4369 0.0000
# 6 0.0000 0.0000 0.0000 0.0000 0.0000 8.8124
#
#
#
# Elastic Compliance Matrix: (Units=1/GPa)
#
#
# Indices 1 2 3 4 5 6 
#
# 1 0.021483 -0.002094 -0.004720 0.000000 0.000000 0.000000
# 2 -0.002094 0.003808 -0.002219 0.000000 0.000000 0.000000
# 3 -0.004720 -0.002219 0.017821 0.000000 0.000000 0.000000
# 4 0.000000 0.000000 0.000000 0.033847 0.000000 0.000000
# 5 0.000000 0.000000 0.000000 0.000000 -0.095814 0.000000
# 6 0.000000 0.000000 0.000000 0.000000 0.000000 0.113477
#
#
# Mechanical properties :
#
#
# Convention : Reuss Voigt Hill
#
# Bulk Modulus (GPa) = 39.92461 73.41832 56.67147
# Shear Modulus (GPa) = 41.31001 27.29261 34.30131
#
# Velocity S-wave (km/s) = 4.21856 3.42894 3.84408
# Velocity P-wave (km/s) = 6.39749 6.87789 6.64203
#
# Compressibility (1/GPa) = 0.02504721
#
# Stress axis : x y z
#
# Youngs Moduli (GPa) = 46.54901 262.57479 56.11299
#
# Poissons Ratio (x) = 0.54980 0.26484
# Poissons Ratio (y) = 0.09747 0.12451
# Poissons Ratio (z) = 0.21970 0.58264
#
# Static dielectric constant tensor:
#      x y z
#    x 1.750230 0.000000 0.000000 
#    y 0.000000 1.979990 0.000000 
#    z 0.000000 0.000000 1.826030 
# 
# From -- ./inp_files/6346.got.cif
#   From: 2010.05.17/outbox.cif.g08.bks.cpg/sg18_4_cif.got.tgz:6346.got - 2010.06.03 22:40:56.
