data_PCOD9311662
_publ_section_title
;
Structure prediction by ZEFSAII (Michael W. Deem and Ramdas Pophale) SiO2 
 PCOD9311662
Probable space group: P 21 21 2
;
_chemical_formula_sum "Si O2"
_cell_formula_units_Z 26
_cell_length_a 18.965344
_cell_length_b 7.813291
_cell_length_c 8.520134
_cell_angle_alpha 90.000000
_cell_angle_beta 90.000000
_cell_angle_gamma 90.000000
_cell_volume 1262.528380
_symmetry_space_group_name_H-M "P 21 21 2"
_symmetry_group_IT_number 18
_symmetry_cell_setting 'orthorhombic'
loop_
_space_group_symop_operation_xyz
x,y,z
-x,-y,z
1/2+x,1/2-y,-z
1/2-x,1/2+y,-z
loop_
_atom_site_type_symbol
_atom_site_label
_atom_site_fract_x
_atom_site_fract_y
_atom_site_fract_z
Si Si1 0.520063 0.310395 0.517324
Si Si2 0.412074 0.107391 0.307049
Si Si3 0.837282 0.897030 0.601383
Si Si4 0.318737 0.226723 0.558912
Si Si5 0.000000 0.500000 0.946177
Si Si6 0.583014 0.543704 0.117035
Si Si7 0.432713 0.275478 0.820610
O O1 0.500000 0.500000 0.455887
O O2 0.474599 0.172344 0.423034
O O3 0.602696 0.293019 0.492539
O O4 0.493286 0.311254 0.694099
O O5 0.346228 0.096035 0.423373
O O6 0.401110 0.273283 0.197042
O O7 0.437060 0.965646 0.180971
O O8 0.761642 0.810418 0.597931
O O9 0.830991 0.083090 0.514511
O O10 0.868602 0.921276 0.777186
O O11 0.368040 0.210859 0.713005
O O12 0.969905 0.356115 0.060263
O O13 0.500000 0.500000 0.129510
O O14 0.594186 0.569562 0.930873
#
# Coordination Sequence:
#
# PCOD9311662 Si02
#       7
#     4   4   4   4   2   4   4
#     4  11  17  37  67  90 107 153 227 253 286 358
#     4   9  18  36  58  86 119 156 198 258 296 367
#     4  11  21  39  61  91 119 169 210 252 314 376
#     4  10  23  39  60  87 130 162 207 259 310 375
#     4  10  22  36  58  92 126 158 198 252 332 358
#     4  10  17  35  63  86 111 151 206 260 291 365
#     4  10  22  37  62  93 124 157 198 271 311 360
#
# _framework density 20.593596000000002
#
# number of rings (size 3 to 8) (size 9 to 14) (size 15 to 20)
#    0.000    1.846    6.154    0.462    0.000    4.923 
#    0.000    6.154    0.000    0.000    0.000    0.000 
#    0.000    0.000    0.000    0.000    0.000    0.000 
#
# Total GULP energy -144850.174902 kJ/mol
# GULP energy per Si atom -5571.160573 kJ/mol
# Density = 2.054672 g / cm^3
# Si number density = 20.593596 Si / 1000 Ang^3
#
#
#
# Elastic Constant Matrix: (Units=GPa)
#
#
# Indices 1 2 3 4 5 6 
#
# 1 151.1513 11.3992 56.6352 0.0000 0.0000 0.0000
# 2 11.3992 37.6824 13.9038 0.0000 0.0000 0.0000
# 3 56.6352 13.9038 153.3805 0.0000 0.0000 0.0000
# 4 0.0000 0.0000 0.0000 25.7643 0.0000 0.0000
# 5 0.0000 0.0000 0.0000 0.0000 23.3745 0.0000
# 6 0.0000 0.0000 0.0000 0.0000 0.0000 24.5065
#
#
#
# Elastic Compliance Matrix: (Units=1/GPa)
#
#
# Indices 1 2 3 4 5 6 
#
# 1 0.007742 -0.001332 -0.002738 0.000000 0.000000 0.000000
# 2 -0.001332 0.027685 -0.002018 0.000000 0.000000 0.000000
# 3 -0.002738 -0.002018 0.007714 0.000000 0.000000 0.000000
# 4 0.000000 0.000000 0.000000 0.038813 0.000000 0.000000
# 5 0.000000 0.000000 0.000000 0.000000 0.042782 0.000000
# 6 0.000000 0.000000 0.000000 0.000000 0.000000 0.040805
#
#
# Mechanical properties :
#
#
# Convention : Reuss Voigt Hill
#
# Bulk Modulus (GPa) = 32.29405 56.23228 44.26317
# Shear Modulus (GPa) = 26.59027 32.08080 29.33553
#
# Velocity S-wave (km/s) = 3.59721 3.95119 3.77835
# Velocity P-wave (km/s) = 5.74185 6.94124 6.36984
#
# Compressibility (1/GPa) = 0.03096545
#
# Stress axis : x y z
#
# Youngs Moduli (GPa) = 129.16124 36.12065 129.63990
#
# Poissons Ratio (x) = 0.04811 0.35496
# Poissons Ratio (y) = 0.17202 0.26159
# Poissons Ratio (z) = 0.35365 0.07289
#
# Static dielectric constant tensor:
#      x y z
#    x 1.734670 0.000000 0.000000 
#    y 0.000000 1.865020 0.000000 
#    z 0.000000 0.000000 1.764120 
# 
# From -- ./inp_files/4520.got.cif
#   From: 2010.05.17/outbox.cif.g08.bks.cpg/sg18_3_cif.got.tgz:4520.got - 2010.06.03 22:40:56.
