data_PCOD9311881
_publ_section_title
;
Structure prediction by ZEFSAII (Michael W. Deem and Ramdas Pophale) SiO2 
 PCOD9311881
Probable space group: P 21 21 2
;
_chemical_formula_sum "Si O2"
_cell_formula_units_Z 26
_cell_length_a 13.252366
_cell_length_b 8.395972
_cell_length_c 8.806535
_cell_angle_alpha 90.000000
_cell_angle_beta 90.000000
_cell_angle_gamma 90.000000
_cell_volume 979.872273
_symmetry_space_group_name_H-M "P 21 21 2"
_symmetry_group_IT_number 18
_symmetry_cell_setting 'orthorhombic'
loop_
_space_group_symop_operation_xyz
x,y,z
-x,-y,z
1/2+x,1/2-y,-z
1/2-x,1/2+y,-z
loop_
_atom_site_type_symbol
_atom_site_label
_atom_site_fract_x
_atom_site_fract_y
_atom_site_fract_z
Si Si1 0.876545 0.796899 0.010906
Si Si2 0.000000 0.000000 0.797029
Si Si3 0.351322 0.079440 0.961852
Si Si4 0.129044 0.548916 0.692612
Si Si5 0.141007 0.195366 0.625513
Si Si6 0.116874 0.701952 0.367546
Si Si7 0.628762 0.436950 0.670476
O O1 0.900745 0.882742 0.166057
O O2 0.860126 0.611232 0.037855
O O3 0.766481 0.863798 0.955672
O O4 0.968020 0.857193 0.906624
O O5 0.904796 0.972365 0.686006
O O6 0.405716 0.138263 0.805488
O O7 0.386883 0.119312 0.136670
O O8 0.103792 0.360406 0.698523
O O9 0.090035 0.623590 0.532428
O O10 0.249706 0.550485 0.675716
O O11 0.260848 0.189551 0.632654
O O12 0.109282 0.199703 0.451020
O O13 0.090505 0.888251 0.368911
#
# Coordination Sequence:
#
# PCOD9311881 Si02
#       7
#     4   2   4   4   4   4   4
#     4  11  22  37  64  91 124 161 214 254 316 370
#     4  12  22  38  60  92 130 160 198 264 314 384
#     4  11  19  37  60  95 118 163 205 267 300 366
#     4   9  18  33  57  90 117 154 204 252 303 355
#     4  10  19  37  57  88 121 158 198 253 310 366
#     4  10  19  37  63  92 122 151 212 256 303 358
#     4   9  20  36  57  91 116 160 202 258 297 368
#
# _framework density 26.534071999999998
#
# number of rings (size 3 to 8) (size 9 to 14) (size 15 to 20)
#    0.000    1.846    3.077    2.769    0.000    4.308 
#    2.769    0.000    0.000   10.154    0.000    0.000 
#    0.000    0.000    0.000    0.000    0.000    0.000 
#
# Total GULP energy -145103.036938 kJ/mol
# GULP energy per Si atom -5580.886036 kJ/mol
# Density = 2.647368 g / cm^3
# Si number density = 26.534072 Si / 1000 Ang^3
#
#
#
# Elastic Constant Matrix: (Units=GPa)
#
#
# Indices 1 2 3 4 5 6 
#
# 1 103.8476 37.2680 14.9496 0.0000 0.0000 0.0000
# 2 37.2680 145.1975 65.1705 0.0000 0.0000 0.0000
# 3 14.9496 65.1705 207.6899 0.0000 0.0000 0.0000
# 4 0.0000 0.0000 0.0000 27.0279 0.0000 0.0000
# 5 0.0000 0.0000 0.0000 0.0000 0.8697 0.0000
# 6 0.0000 0.0000 0.0000 0.0000 0.0000 41.4590
#
#
#
# Elastic Compliance Matrix: (Units=1/GPa)
#
#
# Indices 1 2 3 4 5 6 
#
# 1 0.010608 -0.002770 0.000106 0.000000 0.000000 0.000000
# 2 -0.002770 0.008740 -0.002543 0.000000 0.000000 0.000000
# 3 0.000106 -0.002543 0.005605 0.000000 0.000000 0.000000
# 4 0.000000 0.000000 0.000000 0.036999 0.000000 0.000000
# 5 0.000000 0.000000 0.000000 0.000000 1.149777 0.000000
# 6 0.000000 0.000000 0.000000 0.000000 0.000000 0.024120
#
#
# Mechanical properties :
#
#
# Convention : Reuss Voigt Hill
#
# Bulk Modulus (GPa) = 68.78480 76.83457 72.80969
# Shear Modulus (GPa) = 3.99645 36.49446 20.24545
#
# Velocity S-wave (km/s) = 1.22859 3.71264 2.76524
# Velocity P-wave (km/s) = 5.29075 6.88462 6.13963
#
# Compressibility (1/GPa) = 0.01453810
#
# Stress axis : x y z
#
# Youngs Moduli (GPa) = 94.26424 114.42144 178.40529
#
# Poissons Ratio (x) = 0.31698 -0.01886
# Poissons Ratio (y) = 0.26114 0.45368
# Poissons Ratio (z) = -0.00996 0.29097
#
# Static dielectric constant tensor:
#      x y z
#    x 2.100660 0.000000 0.000000 
#    y 0.000000 2.036610 0.000000 
#    z 0.000000 0.000000 2.192930 
# 
# From -- ./inp_files/3370.got.cif
#   From: 2010.05.17/outbox.cif.g08.bks.cpg/sg18_2_cif.got.tgz:3370.got - 2010.06.03 22:40:56.
