data_PCOD9311307
_publ_section_title
;
Structure prediction by ZEFSAII (Michael W. Deem and Ramdas Pophale) SiO2 
 PCOD9311307
Probable space group: P 2 2 21
;
_chemical_formula_sum "Si O2"
_cell_formula_units_Z 18
_cell_length_a 9.523430
_cell_length_b 16.537380
_cell_length_c 5.734449
_cell_angle_alpha 90.000000
_cell_angle_beta 90.000000
_cell_angle_gamma 90.000000
_cell_volume 903.133173
_symmetry_space_group_name_H-M "P 2 2 21"
_symmetry_group_IT_number 17
_symmetry_cell_setting 'orthorhombic'
loop_
_space_group_symop_operation_xyz
x,y,z
-x,-y,1/2+z
x,-y,-z
-x,y,1/2-z
loop_
_atom_site_type_symbol
_atom_site_label
_atom_site_fract_x
_atom_site_fract_y
_atom_site_fract_z
Si Si1 0.655703 0.384828 0.150910
Si Si2 0.000000 0.643062 0.250000
Si Si3 0.916766 0.092392 0.498573
Si Si4 0.148185 0.500000 0.500000
Si Si5 0.756983 0.256049 0.488588
Si Si6 0.500000 0.684095 0.250000
O O1 0.500000 0.393527 0.250000
O O2 0.747678 0.463837 0.194661
O O3 0.737843 0.307175 0.250398
O O4 0.614973 0.369596 0.883329
O O5 0.938401 0.578767 0.065670
O O6 0.877739 0.697562 0.362568
O O7 0.804786 0.164021 0.479819
O O8 0.000000 0.099658 0.250000
O O9 0.862810 0.000000 0.500000
O O10 0.000000 0.102685 0.750000
O O11 0.599728 0.262306 0.589759
#
# Coordination Sequence:
#
# PCOD9311307 Si02
#       6
#     4   2   4   2   4   2
#     4  10  24  39  62  87 124 176 220 275 331 397
#     4  12  24  38  62  94 128 164 224 282 338 388
#     4  10  23  42  72 108 138 170 217 275 337 407
#     4  12  24  38  58  90 126 162 228 282 330 384
#     4  11  23  41  68  93 131 174 219 273 338 406
#     4  10  22  46  60  90 124 182 222 266 336 406
#
# _framework density 19.930613999999998
#
# number of rings (size 3 to 8) (size 9 to 14) (size 15 to 20)
#    0.000    1.333    3.333    1.333    7.778    0.000 
#    0.000    0.000    7.333    0.000    0.000    0.000 
#    0.000    0.000    0.000    0.000    0.000    0.000 
#
# Total GULP energy -100217.094208 kJ/mol
# GULP energy per Si atom -5567.616345 kJ/mol
# Density = 1.988525 g / cm^3
# Si number density = 19.930614 Si / 1000 Ang^3
#
#
#
# Elastic Constant Matrix: (Units=GPa)
#
#
# Indices 1 2 3 4 5 6 
#
# 1 87.0274 57.5570 21.7674 0.0000 0.0000 0.0000
# 2 57.5570 143.4269 25.2722 0.0000 0.0000 0.0000
# 3 21.7674 25.2722 69.2815 0.0000 0.0000 0.0000
# 4 0.0000 0.0000 0.0000 23.0120 0.0000 0.0000
# 5 0.0000 0.0000 0.0000 0.0000 28.3960 0.0000
# 6 0.0000 0.0000 0.0000 0.0000 0.0000 2.3080
#
#
#
# Elastic Compliance Matrix: (Units=1/GPa)
#
#
# Indices 1 2 3 4 5 6 
#
# 1 0.016169 -0.005978 -0.002900 0.000000 0.000000 0.000000
# 2 -0.005978 0.009661 -0.001646 0.000000 0.000000 0.000000
# 3 -0.002900 -0.001646 0.015945 0.000000 0.000000 0.000000
# 4 0.000000 0.000000 0.000000 0.043456 0.000000 0.000000
# 5 0.000000 0.000000 0.000000 0.000000 0.035216 0.000000
# 6 0.000000 0.000000 0.000000 0.000000 0.000000 0.433280
#
#
# Mechanical properties :
#
#
# Convention : Reuss Voigt Hill
#
# Bulk Modulus (GPa) = 48.24180 56.54766 52.39473
# Shear Modulus (GPa) = 8.59573 23.75247 16.17410
#
# Velocity S-wave (km/s) = 2.07899 3.45593 2.85181
# Velocity P-wave (km/s) = 5.47908 6.66021 6.09831
#
# Compressibility (1/GPa) = 0.02072891
#
# Stress axis : x y z
#
# Youngs Moduli (GPa) = 61.84504 103.50769 62.71437
#
# Poissons Ratio (x) = 0.61875 0.18185
# Poissons Ratio (y) = 0.36970 0.10323
# Poissons Ratio (z) = 0.17933 0.17037
#
# Static dielectric constant tensor:
#      x y z
#    x 1.719160 0.000000 0.000000 
#    y 0.000000 1.670620 0.000000 
#    z 0.000000 0.000000 1.972700 
# 
# From -- ./inp_files/811.got.cif
#   From: 2010.05.17/outbox.cif.g08.bks.cpg/sg17_1_cif.got.tgz:811.got - 2010.06.03 22:34:06.
