data_PCOD9311467
_publ_section_title
;
Structure prediction by ZEFSAII (Michael W. Deem and Ramdas Pophale) SiO2 
 PCOD9311467
Probable space group: P 2 2 21
;
_chemical_formula_sum "Si O2"
_cell_formula_units_Z 24
_cell_length_a 9.203631
_cell_length_b 9.166329
_cell_length_c 14.619482
_cell_angle_alpha 90.000000
_cell_angle_beta 90.000000
_cell_angle_gamma 90.000000
_cell_volume 1233.350812
_symmetry_space_group_name_H-M "P 2 2 21"
_symmetry_group_IT_number 17
_symmetry_cell_setting 'orthorhombic'
loop_
_space_group_symop_operation_xyz
x,y,z
-x,-y,1/2+z
x,-y,-z
-x,y,1/2-z
loop_
_atom_site_type_symbol
_atom_site_label
_atom_site_fract_x
_atom_site_fract_y
_atom_site_fract_z
Si Si1 0.848078 0.500000 0.500000
Si Si2 0.146766 0.153965 0.551394
Si Si3 0.116471 0.626037 0.606656
Si Si4 0.646310 0.686100 0.369991
Si Si5 0.157569 0.943024 0.103385
Si Si6 0.683743 0.645198 0.160045
Si Si7 0.000000 0.844342 0.750000
O O1 0.743608 0.610733 0.447032
O O2 0.956891 0.573172 0.573772
O O3 0.175237 0.277138 0.476440
O O4 0.245577 0.198123 0.635986
O O5 0.982366 0.161449 0.588197
O O6 0.165462 0.000000 0.500000
O O7 0.216640 0.487333 0.625318
O O8 0.100561 0.736682 0.690789
O O9 0.700660 0.853809 0.367557
O O10 0.677137 0.626411 0.268727
O O11 0.476401 0.654345 0.383168
O O12 0.094843 0.059012 0.177774
O O13 0.183288 0.000000 0.000000
#
# Coordination Sequence:
#
# PCOD9311467 Si02
#       7
#     2   4   4   4   4   4   2
#     4  12  22  40  66  98 126 168 226 278 324 394
#     4  11  21  41  65  97 127 169 224 271 334 394
#     4  12  22  40  66 100 126 172 222 272 336 385
#     4  11  25  41  65  92 133 178 219 265 336 401
#     4  11  21  41  66 101 130 169 223 282 336 395
#     4  11  25  43  64  94 136 179 218 269 336 405
#     4  12  22  36  72 102 134 166 224 292 330 388
#
# _framework density 19.459185000000002
#
# number of rings (size 3 to 8) (size 9 to 14) (size 15 to 20)
#    0.000    0.667    6.667    2.000    2.333    2.000 
#    0.000    0.000    7.333    0.000    0.000    0.000 
#    0.000    0.000    0.000    0.000    0.000    0.000 
#
# Total GULP energy -133885.706356 kJ/mol
# GULP energy per Si atom -5578.571098 kJ/mol
# Density = 1.941489 g / cm^3
# Si number density = 19.459185 Si / 1000 Ang^3
#
#
#
# Elastic Constant Matrix: (Units=GPa)
#
#
# Indices 1 2 3 4 5 6 
#
# 1 117.3124 50.6844 41.8320 0.0000 0.0000 0.0000
# 2 50.6844 86.8154 35.9154 0.0000 0.0000 0.0000
# 3 41.8320 35.9154 80.7253 0.0000 0.0000 0.0000
# 4 0.0000 0.0000 0.0000 38.7714 0.0000 0.0000
# 5 0.0000 0.0000 0.0000 0.0000 24.9208 0.0000
# 6 0.0000 0.0000 0.0000 0.0000 0.0000 8.8040
#
#
#
# Elastic Compliance Matrix: (Units=1/GPa)
#
#
# Indices 1 2 3 4 5 6 
#
# 1 0.012328 -0.005582 -0.003905 0.000000 0.000000 0.000000
# 2 -0.005582 0.016644 -0.004513 0.000000 0.000000 0.000000
# 3 -0.003905 -0.004513 0.016419 0.000000 0.000000 0.000000
# 4 0.000000 0.000000 0.000000 0.025792 0.000000 0.000000
# 5 0.000000 0.000000 0.000000 0.000000 0.040127 0.000000
# 6 0.000000 0.000000 0.000000 0.000000 0.000000 0.113584
#
#
# Mechanical properties :
#
#
# Convention : Reuss Voigt Hill
#
# Bulk Modulus (GPa) = 57.49657 60.19075 58.84366
# Shear Modulus (GPa) = 19.32797 24.92735 22.12766
#
# Velocity S-wave (km/s) = 3.15502 3.58300 3.37580
# Velocity P-wave (km/s) = 6.54856 6.93658 6.74536
#
# Compressibility (1/GPa) = 0.01739234
#
# Stress axis : x y z
#
# Youngs Moduli (GPa) = 81.11315 60.08007 60.90486
#
# Poissons Ratio (x) = 0.33537 0.23784
# Poissons Ratio (y) = 0.45278 0.27484
# Poissons Ratio (z) = 0.31676 0.27112
#
# Static dielectric constant tensor:
#      x y z
#    x 1.676630 0.000000 0.000000 
#    y 0.000000 1.706560 0.000000 
#    z 0.000000 0.000000 1.742590 
# 
# From -- ./inp_files/8158.got.cif
#   From: 2010.05.17/outbox.cif.g08.bks.cpg/sg17_5_cif.got.tgz:8158.got - 2010.06.03 22:34:06.
