data_PCOD9311111
_publ_section_title
;
Structure prediction by ZEFSAII (Michael W. Deem and Ramdas Pophale) SiO2 
 PCOD9311111
Probable space group: P 2 2 21
;
_chemical_formula_sum "Si O2"
_cell_formula_units_Z 30
_cell_length_a 8.788137
_cell_length_b 5.198081
_cell_length_c 28.031220
_cell_angle_alpha 90.000000
_cell_angle_beta 90.000000
_cell_angle_gamma 90.000000
_cell_volume 1280.506718
_symmetry_space_group_name_H-M "P 2 2 21"
_symmetry_group_IT_number 17
_symmetry_cell_setting 'orthorhombic'
loop_
_space_group_symop_operation_xyz
x,y,z
-x,-y,1/2+z
x,-y,-z
-x,y,1/2-z
loop_
_atom_site_type_symbol
_atom_site_label
_atom_site_fract_x
_atom_site_fract_y
_atom_site_fract_z
Si Si1 0.738627 0.980288 0.175966
Si Si2 0.733889 0.902317 0.426136
Si Si3 0.287854 0.632218 0.550287
Si Si4 0.989562 0.155043 0.107722
Si Si5 0.483708 0.000000 0.000000
Si Si6 0.320241 0.485906 0.262581
Si Si7 0.505893 0.728410 0.617082
Si Si8 0.232230 0.486439 0.839148
O O1 0.895250 0.989989 0.146101
O O2 0.728915 0.207871 0.215974
O O3 0.608689 0.063261 0.138364
O O4 0.709389 0.704289 0.198077
O O5 0.635193 0.811310 0.471684
O O6 0.640723 0.163049 0.415878
O O7 0.908971 0.986138 0.428867
O O8 0.734624 0.736396 0.377837
O O9 0.264209 0.500000 0.500000
O O10 0.132218 0.691862 0.576345
O O11 0.402500 0.516894 0.590088
O O12 0.393936 0.874966 0.536150
O O13 0.097523 0.343199 0.138452
O O14 0.500000 0.493625 0.250000
O O15 0.217688 0.568678 0.216619
O O16 0.607358 0.635479 0.660531
#
# Coordination Sequence:
#
# PCOD9311111 Si02
#       8
#     4   4   4   4   2   4   4   4
#     4  11  25  45  67 103 136 181 237 290 350 410
#     4  10  22  41  66  95 138 173 226 275 356 411
#     4  10  21  41  67  97 133 175 231 285 348 417
#     4  10  26  43  61  97 142 182 221 289 360 427
#     4  10  22  40  70 104 122 180 230 292 330 430
#     4  12  25  42  75  99 133 179 244 293 340 416
#     4   9  20  41  65  97 134 171 228 286 346 408
#     4  11  23  41  65  95 130 184 220 283 353 416
#
# _framework density 23.428227
#
# number of rings (size 3 to 8) (size 9 to 14) (size 15 to 20)
#    0.000    1.600    1.333    2.000    5.600    3.200 
#    4.800    1.333    0.000    0.000    0.000    0.000 
#    0.000    0.000    0.000    0.000    0.000    0.000 
#
# Total GULP energy -167225.784767 kJ/mol
# GULP energy per Si atom -5574.192826 kJ/mol
# Density = 2.337490 g / cm^3
# Si number density = 23.428227 Si / 1000 Ang^3
#
#
#
# Elastic Constant Matrix: (Units=GPa)
#
#
# Indices 1 2 3 4 5 6 
#
# 1 141.0255 16.2796 44.2948 0.0000 0.0000 0.0000
# 2 16.2796 38.8938 9.2687 0.0000 0.0000 0.0000
# 3 44.2948 9.2687 101.3039 0.0000 0.0000 0.0000
# 4 0.0000 0.0000 0.0000 39.9345 0.0000 0.0000
# 5 0.0000 0.0000 0.0000 0.0000 39.7490 0.0000
# 6 0.0000 0.0000 0.0000 0.0000 0.0000 0.2858
#
#
#
# Elastic Compliance Matrix: (Units=1/GPa)
#
#
# Indices 1 2 3 4 5 6 
#
# 1 0.008494 -0.002730 -0.003464 0.000000 0.000000 0.000000
# 2 -0.002730 0.027161 -0.001292 0.000000 0.000000 0.000000
# 3 -0.003464 -0.001292 0.011504 0.000000 0.000000 0.000000
# 4 0.000000 0.000000 0.000000 0.025041 0.000000 0.000000
# 5 0.000000 0.000000 0.000000 0.000000 0.025158 0.000000
# 6 0.000000 0.000000 0.000000 0.000000 0.000000 3.498392
#
#
# Mechanical properties :
#
#
# Convention : Reuss Voigt Hill
#
# Bulk Modulus (GPa) = 31.06693 46.76772 38.91733
# Shear Modulus (GPa) = 1.38066 30.08586 15.73326
#
# Velocity S-wave (km/s) = 0.76850 3.58742 2.59424
# Velocity P-wave (km/s) = 3.75190 6.09630 5.06170
#
# Compressibility (1/GPa) = 0.03218856
#
# Stress axis : x y z
#
# Youngs Moduli (GPa) = 117.72830 36.81697 86.92480
#
# Poissons Ratio (x) = 0.10050 0.30113
# Poissons Ratio (y) = 0.32137 0.11226
# Poissons Ratio (z) = 0.40784 0.04755
#
# Static dielectric constant tensor:
#      x y z
#    x 1.869700 0.000000 0.000000 
#    y 0.000000 1.961280 0.000000 
#    z 0.000000 0.000000 2.205320 
# 
# From -- ./inp_files/11217.got.cif
#   From: 2010.05.17/outbox.cif.g08.bks.cpg/sg17_6_cif.got.tgz:11217.got - 2010.06.03 22:34:06.
