data_PCOD9311562
_publ_section_title
;
Structure prediction by ZEFSAII (Michael W. Deem and Ramdas Pophale) SiO2 
 PCOD9311562
Probable space group: P 2 2 21
;
_chemical_formula_sum "Si O2"
_cell_formula_units_Z 18
_cell_length_a 7.177653
_cell_length_b 4.740546
_cell_length_c 20.239241
_cell_angle_alpha 90.000000
_cell_angle_beta 90.000000
_cell_angle_gamma 90.000000
_cell_volume 688.660297
_symmetry_space_group_name_H-M "P 2 2 21"
_symmetry_group_IT_number 17
_symmetry_cell_setting 'orthorhombic'
loop_
_space_group_symop_operation_xyz
x,y,z
-x,-y,1/2+z
x,-y,-z
-x,y,1/2-z
loop_
_atom_site_type_symbol
_atom_site_label
_atom_site_fract_x
_atom_site_fract_y
_atom_site_fract_z
Si Si1 0.398903 0.442846 0.197574
Si Si2 0.158645 0.257164 0.695327
Si Si3 0.799311 0.759424 0.899000
Si Si4 0.608446 0.028356 0.605191
Si Si5 0.085939 0.000000 0.000000
O O1 0.500000 0.227804 0.250000
O O2 0.320089 0.618551 0.259416
O O3 0.440775 0.686560 0.143712
O O4 0.297259 0.207734 0.152524
O O5 0.164404 0.448098 0.629136
O O6 0.000000 0.286715 0.750000
O O7 0.158951 0.947836 0.665728
O O8 0.585678 0.865550 0.915999
O O9 0.942818 0.811410 0.957879
O O10 0.763408 0.119300 0.552280
#
# Coordination Sequence:
#
# PCOD9311562 Si02
#       5
#     4   4   4   4   2
#     4  12  22  44  74 103 138 169 230 289 352 412
#     4  12  24  42  70 105 136 173 222 281 354 402
#     4  12  25  46  68  97 140 181 223 284 331 408
#     4  12  25  46  72 103 137 188 226 287 341 410
#     4  12  30  48  68 100 142 186 246 268 340 410
#
# _framework density 26.137703999999999
#
# number of rings (size 3 to 8) (size 9 to 14) (size 15 to 20)
#    0.000    0.000    4.444    6.000    0.000    3.556 
#    0.000    4.444    0.000    0.000    0.000    0.000 
#    0.000    0.000    0.000    0.000    0.000    0.000 
#
# Total GULP energy -100215.464706 kJ/mol
# GULP energy per Si atom -5567.525817 kJ/mol
# Density = 2.607821 g / cm^3
# Si number density = 26.137704 Si / 1000 Ang^3
#
#
#
# Elastic Constant Matrix: (Units=GPa)
#
#
# Indices 1 2 3 4 5 6 
#
# 1 84.3388 6.4309 66.6987 0.0000 0.0000 0.0000
# 2 6.4309 80.2093 5.8135 0.0000 0.0000 0.0000
# 3 66.6987 5.8135 111.6489 0.0000 0.0000 0.0000
# 4 0.0000 0.0000 0.0000 1.5990 0.0000 0.0000
# 5 0.0000 0.0000 0.0000 0.0000 63.7716 0.0000
# 6 0.0000 0.0000 0.0000 0.0000 0.0000 11.7643
#
#
#
# Elastic Compliance Matrix: (Units=1/GPa)
#
#
# Indices 1 2 3 4 5 6 
#
# 1 0.022531 -0.000834 -0.013416 0.000000 0.000000 0.000000
# 2 -0.000834 0.012545 -0.000155 0.000000 0.000000 0.000000
# 3 -0.013416 -0.000155 0.016980 0.000000 0.000000 0.000000
# 4 0.000000 0.000000 0.000000 0.625400 0.000000 0.000000
# 5 0.000000 0.000000 0.000000 0.000000 0.015681 0.000000
# 6 0.000000 0.000000 0.000000 0.000000 0.000000 0.085003
#
#
# Mechanical properties :
#
#
# Convention : Reuss Voigt Hill
#
# Bulk Modulus (GPa) = 43.01985 48.23147 45.62566
# Shear Modulus (GPa) = 6.13724 28.57724 17.35724
#
# Velocity S-wave (km/s) = 1.53399 3.31015 2.57975
# Velocity P-wave (km/s) = 4.43082 5.75346 5.13490
#
# Compressibility (1/GPa) = 0.02324508
#
# Stress axis : x y z
#
# Youngs Moduli (GPa) = 44.38366 79.70990 58.89401
#
# Poissons Ratio (x) = 0.06648 0.79015
# Poissons Ratio (y) = 0.03702 0.00913
# Poissons Ratio (z) = 0.59547 0.01236
#
# Static dielectric constant tensor:
#      x y z
#    x 1.785640 0.000000 0.000000 
#    y 0.000000 1.959830 0.000000 
#    z 0.000000 0.000000 2.024550 
# 
# From -- ./inp_files/9246.got.cif
#   From: 2010.05.17/outbox.cif.g08.bks.cpg/sg17_5_cif.got.tgz:9246.got - 2010.06.03 22:34:06.
