data_PCOD9311822
_publ_section_title
;
Structure prediction by ZEFSAII (Michael W. Deem and Ramdas Pophale) SiO2 
 PCOD9311822
Probable space group: P 21 21 2
;
_chemical_formula_sum "Si O2"
_cell_formula_units_Z 32
_cell_length_a 11.794730
_cell_length_b 15.525456
_cell_length_c 8.735558
_cell_angle_alpha 90.000000
_cell_angle_beta 90.000000
_cell_angle_gamma 90.000000
_cell_volume 1599.642816
_symmetry_space_group_name_H-M "P 21 21 2"
_symmetry_group_IT_number 18
_symmetry_cell_setting 'orthorhombic'
loop_
_space_group_symop_operation_xyz
x,y,z
-x,-y,z
1/2+x,1/2-y,-z
1/2-x,1/2+y,-z
loop_
_atom_site_type_symbol
_atom_site_label
_atom_site_fract_x
_atom_site_fract_y
_atom_site_fract_z
Si Si1 0.748888 0.669855 0.094877
Si Si2 0.866107 0.814733 0.289341
Si Si3 0.697118 0.778847 0.543019
Si Si4 0.613852 0.690129 0.810166
Si Si5 0.307046 0.493974 0.700056
Si Si6 0.486983 0.897305 0.456177
Si Si7 0.088598 0.431346 0.867959
Si Si8 0.239039 0.897399 0.590236
O O1 0.787704 0.756124 0.181199
O O2 0.726959 0.599750 0.228381
O O3 0.641898 0.691277 0.988483
O O4 0.847383 0.630380 0.986282
O O5 0.812258 0.807268 0.459077
O O6 0.991954 0.783136 0.252613
O O7 0.861015 0.916177 0.256924
O O8 0.702486 0.751609 0.720247
O O9 0.597874 0.847036 0.511679
O O10 0.668593 0.686258 0.465037
O O11 0.631302 0.590965 0.761678
O O12 0.184539 0.487261 0.779821
O O13 0.294323 0.476942 0.517761
O O14 0.468236 0.881039 0.274698
O O15 0.370509 0.876468 0.546264
O O16 0.500000 0.000000 0.475210
O O17 0.000000 0.500000 0.936486
#
# Coordination Sequence:
#
# PCOD9311822 Si02
#       8
#     4   4   4   4   4   4   4   4
#     4  10  22  36  54  86 124 152 189 248 302 357
#     4  11  21  37  62  85 112 159 202 240 299 354
#     4  10  19  34  56  81 112 151 201 243 280 346
#     4  10  22  39  58  84 121 156 193 247 301 350
#     4   9  19  38  60  80 109 152 203 247 285 351
#     4  10  19  35  60  89 117 153 201 253 297 344
#     4   9  18  34  57  85 119 158 196 241 296 348
#     4   9  19  35  55  82 113 147 193 245 297 352
#
# _framework density 20.004463999999999
#
# number of rings (size 3 to 8) (size 9 to 14) (size 15 to 20)
#    0.000    2.250    0.000    4.875    0.000    3.500 
#    0.000    7.500    0.000    9.000    0.000    0.000 
#    0.000    0.000    0.000    0.000    0.000    0.000 
#
# Total GULP energy -178326.667970 kJ/mol
# GULP energy per Si atom -5572.708374 kJ/mol
# Density = 1.995893 g / cm^3
# Si number density = 20.004464 Si / 1000 Ang^3
#
#
#
# Elastic Constant Matrix: (Units=GPa)
#
#
# Indices 1 2 3 4 5 6 
#
# 1 69.4278 21.0474 24.8544 0.0000 0.0000 0.0000
# 2 21.0474 77.0562 23.2743 0.0000 0.0000 0.0000
# 3 24.8544 23.2743 102.8947 0.0000 0.0000 0.0000
# 4 0.0000 0.0000 0.0000 22.7343 0.0000 0.0000
# 5 0.0000 0.0000 0.0000 0.0000 20.8528 0.0000
# 6 0.0000 0.0000 0.0000 0.0000 0.0000 32.0736
#
#
#
# Elastic Compliance Matrix: (Units=1/GPa)
#
#
# Indices 1 2 3 4 5 6 
#
# 1 0.016636 -0.003575 -0.003210 0.000000 0.000000 0.000000
# 2 -0.003575 0.014697 -0.002461 0.000000 0.000000 0.000000
# 3 -0.003210 -0.002461 0.011051 0.000000 0.000000 0.000000
# 4 0.000000 0.000000 0.000000 0.043986 0.000000 0.000000
# 5 0.000000 0.000000 0.000000 0.000000 0.047955 0.000000
# 6 0.000000 0.000000 0.000000 0.000000 0.000000 0.031178
#
#
# Mechanical properties :
#
#
# Convention : Reuss Voigt Hill
#
# Bulk Modulus (GPa) = 41.85299 43.08121 42.46710
# Shear Modulus (GPa) = 26.04717 27.14565 26.59641
#
# Velocity S-wave (km/s) = 3.61233 3.68772 3.65022
# Velocity P-wave (km/s) = 6.19402 6.30198 6.24823
#
# Compressibility (1/GPa) = 0.02389316
#
# Stress axis : x y z
#
# Youngs Moduli (GPa) = 60.10981 68.04009 90.49183
#
# Poissons Ratio (x) = 0.24321 0.29048
# Poissons Ratio (y) = 0.21486 0.22270
# Poissons Ratio (z) = 0.19295 0.16745
#
# Static dielectric constant tensor:
#      x y z
#    x 1.775040 0.000000 0.000000 
#    y 0.000000 1.717700 0.000000 
#    z 0.000000 0.000000 1.752230 
# 
# From -- ./inp_files/4034.got.cif
#   From: 2010.05.17/outbox.cif.g08.bks.cpg/sg18_3_cif.got.tgz:4034.got - 2010.06.03 22:40:56.
