data_PCOD9311882
_publ_section_title
;
Structure prediction by ZEFSAII (Michael W. Deem and Ramdas Pophale) SiO2 
 PCOD9311882
Probable space group: P 21 21 2
;
_chemical_formula_sum "Si O2"
_cell_formula_units_Z 32
_cell_length_a 18.429468
_cell_length_b 7.751648
_cell_length_c 9.476128
_cell_angle_alpha 90.000000
_cell_angle_beta 90.000000
_cell_angle_gamma 90.000000
_cell_volume 1353.747789
_symmetry_space_group_name_H-M "P 21 21 2"
_symmetry_group_IT_number 18
_symmetry_cell_setting 'orthorhombic'
loop_
_space_group_symop_operation_xyz
x,y,z
-x,-y,z
1/2+x,1/2-y,-z
1/2-x,1/2+y,-z
loop_
_atom_site_type_symbol
_atom_site_label
_atom_site_fract_x
_atom_site_fract_y
_atom_site_fract_z
Si Si1 0.830882 0.888081 0.385407
Si Si2 0.251861 0.129690 0.655524
Si Si3 0.588011 0.843144 0.209272
Si Si4 0.960584 0.812790 0.937965
Si Si5 0.106339 0.728066 0.459667
Si Si6 0.522087 0.296175 0.742255
Si Si7 0.774213 0.542575 0.837361
Si Si8 0.178722 0.969942 0.889548
O O1 0.796223 0.809065 0.524691
O O2 0.770187 0.913655 0.265852
O O3 0.898998 0.787729 0.325427
O O4 0.861040 0.078987 0.431336
O O5 0.250524 0.274411 0.775451
O O6 0.331112 0.101604 0.595321
O O7 0.214252 0.974010 0.735183
O O8 0.504334 0.813743 0.165592
O O9 0.591217 0.800558 0.375919
O O10 0.640384 0.005962 0.179585
O O11 0.630568 0.702123 0.111813
O O12 0.877446 0.871260 0.913131
O O13 0.000000 0.000000 0.925266
O O14 0.972823 0.741007 0.095546
O O15 0.036682 0.710365 0.359367
O O16 0.500000 0.500000 0.748023
O O17 0.740540 0.527304 0.992350
#
# Coordination Sequence:
#
# PCOD9311882 Si02
#       8
#     4   4   4   4   4   4   4   4
#     4  10  19  37  59  83 118 153 198 244 290 348
#     4  11  23  37  60  90 121 156 197 238 302 364
#     4  11  22  37  59  88 119 149 198 247 294 346
#     4   9  20  34  57  88 116 148 198 252 291 342
#     4  10  21  34  57  89 116 151 197 249 293 341
#     4   9  18  33  58  85 116 147 192 251 298 333
#     4  11  23  39  57  90 123 157 189 244 301 352
#     4  11  22  39  62  88 116 156 199 245 293 350
#
# _framework density 23.638082000000001
#
# number of rings (size 3 to 8) (size 9 to 14) (size 15 to 20)
#    0.000    1.750    3.750    0.750    8.750    1.500 
#    0.000    0.625    0.000    0.000    3.250    0.000 
#    0.000    0.000    0.000    0.000    0.000    0.000 
#
# Total GULP energy -178910.008831 kJ/mol
# GULP energy per Si atom -5590.937776 kJ/mol
# Density = 2.358428 g / cm^3
# Si number density = 23.638082 Si / 1000 Ang^3
#
#
#
# Elastic Constant Matrix: (Units=GPa)
#
#
# Indices 1 2 3 4 5 6 
#
# 1 121.7100 -2.1678 40.9883 0.0000 0.0000 0.0000
# 2 -2.1678 47.2722 -4.4483 0.0000 0.0000 0.0000
# 3 40.9883 -4.4483 123.0869 0.0000 0.0000 0.0000
# 4 0.0000 0.0000 0.0000 9.8807 0.0000 0.0000
# 5 0.0000 0.0000 0.0000 0.0000 45.3112 0.0000
# 6 0.0000 0.0000 0.0000 0.0000 0.0000 19.0100
#
#
#
# Elastic Compliance Matrix: (Units=1/GPa)
#
#
# Indices 1 2 3 4 5 6 
#
# 1 0.009255 0.000135 -0.003077 0.000000 0.000000 0.000000
# 2 0.000135 0.021228 0.000722 0.000000 0.000000 0.000000
# 3 -0.003077 0.000722 0.009175 0.000000 0.000000 0.000000
# 4 0.000000 0.000000 0.000000 0.101207 0.000000 0.000000
# 5 0.000000 0.000000 0.000000 0.000000 0.022070 0.000000
# 6 0.000000 0.000000 0.000000 0.000000 0.000000 0.052604
#
#
# Mechanical properties :
#
#
# Convention : Reuss Voigt Hill
#
# Bulk Modulus (GPa) = 28.39423 40.09038 34.24230
# Shear Modulus (GPa) = 21.57797 32.02020 26.79909
#
# Velocity S-wave (km/s) = 3.02461 3.68449 3.37074
# Velocity P-wave (km/s) = 4.92299 5.92431 5.44671
#
# Compressibility (1/GPa) = 0.03521842
#
# Stress axis : x y z
#
# Youngs Moduli (GPa) = 108.05081 47.10712 108.99056
#
# Poissons Ratio (x) = -0.00635 0.33537
# Poissons Ratio (y) = -0.01457 -0.07872
# Poissons Ratio (z) = 0.33248 -0.03402
#
# Static dielectric constant tensor:
#      x y z
#    x 1.903270 0.000000 0.000000 
#    y 0.000000 1.999730 0.000000 
#    z 0.000000 0.000000 1.824870 
# 
# From -- ./inp_files/4713.got.cif
#   From: 2010.05.17/outbox.cif.g08.bks.cpg/sg18_3_cif.got.tgz:4713.got - 2010.06.03 22:40:56.
