data_PCOD9311085
_publ_section_title
;
Structure prediction by ZEFSAII (Michael W. Deem and Ramdas Pophale) SiO2 
 PCOD9311085
Probable space group: P 2 2 21
;
_chemical_formula_sum "Si O2"
_cell_formula_units_Z 24
_cell_length_a 12.079641
_cell_length_b 4.966422
_cell_length_c 20.138229
_cell_angle_alpha 90.000000
_cell_angle_beta 90.000000
_cell_angle_gamma 90.000000
_cell_volume 1208.144613
_symmetry_space_group_name_H-M "P 2 2 21"
_symmetry_group_IT_number 17
_symmetry_cell_setting 'orthorhombic'
loop_
_space_group_symop_operation_xyz
x,y,z
-x,-y,1/2+z
x,-y,-z
-x,y,1/2-z
loop_
_atom_site_type_symbol
_atom_site_label
_atom_site_fract_x
_atom_site_fract_y
_atom_site_fract_z
Si Si1 0.144871 0.252814 0.950693
Si Si2 0.896795 0.750816 0.048888
Si Si3 0.680299 0.881999 0.129887
Si Si4 0.442143 0.395186 0.425442
Si Si5 0.623201 0.100175 0.269946
Si Si6 0.657698 0.587001 0.357232
O O1 0.238359 0.290051 0.895843
O O2 0.020290 0.270688 0.921493
O O3 0.155065 0.500000 0.000000
O O4 0.158513 0.000000 0.000000
O O5 0.800312 0.819742 0.099919
O O6 0.871647 0.500000 0.000000
O O7 0.903246 0.000000 0.000000
O O8 0.619041 0.597086 0.124864
O O9 0.609274 0.100207 0.086734
O O10 0.682581 0.997067 0.203814
O O11 0.421612 0.500000 0.500000
O O12 0.570625 0.442486 0.407235
O O13 0.500000 0.196790 0.250000
O O14 0.683926 0.346932 0.305849
O O15 0.607594 0.842822 0.318120
#
# Coordination Sequence:
#
# PCOD9311085 Si02
#       6
#     4   4   4   4   4   4
#     4  10  22  41  66  93 125 164 208 264 327 375
#     4  10  21  40  64  91 123 161 205 260 322 375
#     4  12  23  38  60  88 123 163 207 249 307 373
#     4  12  23  35  58  90 122 152 198 261 314 368
#     4  12  23  41  60  87 128 177 207 247 313 377
#     4  12  23  40  62  90 125 165 212 252 313 383
#
# _framework density 19.865172000000001
#
# number of rings (size 3 to 8) (size 9 to 14) (size 15 to 20)
#    0.000    0.667    3.333    6.000    0.000    1.333 
#    0.000    0.833    0.000    2.000    0.000    0.000 
#    0.000    0.000    0.000    0.000    0.000    0.000 
#
# Total GULP energy -134110.417823 kJ/mol
# GULP energy per Si atom -5587.934076 kJ/mol
# Density = 1.981996 g / cm^3
# Si number density = 19.865172 Si / 1000 Ang^3
#
#
#
# Elastic Constant Matrix: (Units=GPa)
#
#
# Indices 1 2 3 4 5 6 
#
# 1 116.9459 11.6887 63.9470 0.0000 0.0000 0.0000
# 2 11.6887 117.0175 27.1590 0.0000 0.0000 0.0000
# 3 63.9470 27.1590 74.7238 0.0000 0.0000 0.0000
# 4 0.0000 0.0000 0.0000 25.5622 0.0000 0.0000
# 5 0.0000 0.0000 0.0000 0.0000 13.1279 0.0000
# 6 0.0000 0.0000 0.0000 0.0000 0.0000 26.3589
#
#
#
# Elastic Compliance Matrix: (Units=1/GPa)
#
#
# Indices 1 2 3 4 5 6 
#
# 1 0.016400 0.001768 -0.014677 0.000000 0.000000 0.000000
# 2 0.001768 0.009524 -0.004975 0.000000 0.000000 0.000000
# 3 -0.014677 -0.004975 0.027751 0.000000 0.000000 0.000000
# 4 0.000000 0.000000 0.000000 0.039120 0.000000 0.000000
# 5 0.000000 0.000000 0.000000 0.000000 0.076174 0.000000
# 6 0.000000 0.000000 0.000000 0.000000 0.000000 0.037938
#
#
# Mechanical properties :
#
#
# Convention : Reuss Voigt Hill
#
# Bulk Modulus (GPa) = 55.84320 57.14185 56.49253
# Shear Modulus (GPa) = 20.10908 26.73596 23.42252
#
# Velocity S-wave (km/s) = 3.18508 3.67259 3.43749
# Velocity P-wave (km/s) = 6.45744 6.84187 6.65243
#
# Compressibility (1/GPa) = 0.01790728
#
# Stress axis : x y z
#
# Youngs Moduli (GPa) = 60.97570 105.00108 36.03423
#
# Poissons Ratio (x) = -0.18568 0.52889
# Poissons Ratio (y) = -0.10783 0.17926
# Poissons Ratio (z) = 0.89497 0.52236
#
# Static dielectric constant tensor:
#      x y z
#    x 1.826500 0.000000 0.000000 
#    y 0.000000 1.686010 0.000000 
#    z 0.000000 0.000000 1.701790 
# 
# From -- ./inp_files/9581.got.cif
#   From: 2010.05.17/outbox.cif.g08.bks.cpg/sg17_5_cif.got.tgz:9581.got - 2010.06.03 22:34:06.
