data_PCOD9311303
_publ_section_title
;
Structure prediction by ZEFSAII (Michael W. Deem and Ramdas Pophale) SiO2 
 PCOD9311303
Probable space group: P 2 2 21
;
_chemical_formula_sum "Si O2"
_cell_formula_units_Z 32
_cell_length_a 11.740621
_cell_length_b 9.161672
_cell_length_c 14.762458
_cell_angle_alpha 90.000000
_cell_angle_beta 90.000000
_cell_angle_gamma 90.000000
_cell_volume 1587.904879
_symmetry_space_group_name_H-M "P 2 2 21"
_symmetry_group_IT_number 17
_symmetry_cell_setting 'orthorhombic'
loop_
_space_group_symop_operation_xyz
x,y,z
-x,-y,1/2+z
x,-y,-z
-x,y,1/2-z
loop_
_atom_site_type_symbol
_atom_site_label
_atom_site_fract_x
_atom_site_fract_y
_atom_site_fract_z
Si Si1 0.711822 0.590960 0.915776
Si Si2 0.724885 0.979877 0.393443
Si Si3 0.374554 0.476331 0.895629
Si Si4 0.856276 0.690137 0.351882
Si Si5 0.627438 0.244026 0.270473
Si Si6 0.894027 0.349031 0.857971
Si Si7 0.259640 0.150706 0.548073
Si Si8 0.499435 0.810580 0.145294
O O1 0.663422 0.665212 0.822203
O O2 0.813565 0.480518 0.891206
O O3 0.648859 0.500000 0.000000
O O4 0.751339 0.731443 0.969462
O O5 0.703483 0.116690 0.322310
O O6 0.757696 0.000000 0.500000
O O7 0.813495 0.857921 0.356684
O O8 0.601532 0.901671 0.399781
O O9 0.249551 0.405539 0.885170
O O10 0.382248 0.627648 0.843803
O O11 0.464632 0.359093 0.858853
O O12 0.394926 0.500000 0.000000
O O13 0.881753 0.644759 0.249434
O O14 0.978229 0.655297 0.396763
O O15 0.500000 0.184996 0.250000
O O16 0.836920 0.194695 0.882276
O O17 0.380957 0.162887 0.597687
O O18 0.247206 0.000000 0.500000
O O19 0.500000 0.851032 0.250000
#
# Coordination Sequence:
#
# PCOD9311303 Si02
#       8
#     4   4   4   4   4   4   4   4
#     4  10  25  43  64 100 137 176 230 285 336 419
#     4  11  25  44  64  99 136 177 224 286 345 419
#     4  11  24  39  64  96 127 177 227 278 340 410
#     4  10  22  45  71  85 130 174 228 277 346 410
#     4  12  26  38  67 102 143 178 224 285 349 418
#     4  10  22  45  68  93 122 178 225 285 340 412
#     4  11  25  39  67  97 135 175 221 282 346 417
#     4  11  24  41  64  90 135 181 222 269 341 418
#
# _framework density 20.152341
#
# number of rings (size 3 to 8) (size 9 to 14) (size 15 to 20)
#    0.000    1.250    1.250    4.125   14.000    2.000 
#    0.000    1.250    0.000    0.000    0.000    0.000 
#    0.000    0.000    0.000    0.000    0.000    0.000 
#
# Total GULP energy -178269.811087 kJ/mol
# GULP energy per Si atom -5570.931596 kJ/mol
# Density = 2.010647 g / cm^3
# Si number density = 20.152341 Si / 1000 Ang^3
#
#
#
# Elastic Constant Matrix: (Units=GPa)
#
#
# Indices 1 2 3 4 5 6 
#
# 1 22.6998 26.7908 24.1424 0.0000 0.0000 0.0000
# 2 26.7908 126.6905 32.6098 0.0000 0.0000 0.0000
# 3 24.1424 32.6098 101.0709 0.0000 0.0000 0.0000
# 4 0.0000 0.0000 0.0000 21.5928 0.0000 0.0000
# 5 0.0000 0.0000 0.0000 0.0000 25.3267 0.0000
# 6 0.0000 0.0000 0.0000 0.0000 0.0000 12.0953
#
#
#
# Elastic Compliance Matrix: (Units=1/GPa)
#
#
# Indices 1 2 3 4 5 6 
#
# 1 0.072333 -0.011831 -0.013461 0.000000 0.000000 0.000000
# 2 -0.011831 0.010543 -0.000576 0.000000 0.000000 0.000000
# 3 -0.013461 -0.000576 0.013295 0.000000 0.000000 0.000000
# 4 0.000000 0.000000 0.000000 0.046312 0.000000 0.000000
# 5 0.000000 0.000000 0.000000 0.000000 0.039484 0.000000
# 6 0.000000 0.000000 0.000000 0.000000 0.000000 0.082677
#
#
# Mechanical properties :
#
#
# Convention : Reuss Voigt Hill
#
# Bulk Modulus (GPa) = 22.50417 46.39414 34.44915
# Shear Modulus (GPa) = 15.09703 22.93083 19.01393
#
# Velocity S-wave (km/s) = 2.74002 3.37690 3.07499
# Velocity P-wave (km/s) = 4.60451 6.18678 5.45334
#
# Compressibility (1/GPa) = 0.04443622
#
# Stress axis : x y z
#
# Youngs Moduli (GPa) = 13.82499 94.84662 75.21604
#
# Poissons Ratio (x) = 1.12216 1.01245
# Poissons Ratio (y) = 0.16357 0.04330
# Poissons Ratio (z) = 0.18609 0.05460
#
# Static dielectric constant tensor:
#      x y z
#    x 1.912350 0.000000 0.000000 
#    y 0.000000 1.724010 0.000000 
#    z 0.000000 0.000000 1.737040 
# 
# From -- ./inp_files/8273.got.cif
#   From: 2010.05.17/outbox.cif.g08.bks.cpg/sg17_5_cif.got.tgz:8273.got - 2010.06.03 22:34:06.
