data_PCOD9311495
_publ_section_title
;
Structure prediction by ZEFSAII (Michael W. Deem and Ramdas Pophale) SiO2 
 PCOD9311495
Probable space group: P 2 2 21
;
_chemical_formula_sum "Si O2"
_cell_formula_units_Z 30
_cell_length_a 5.466392
_cell_length_b 11.981975
_cell_length_c 19.283090
_cell_angle_alpha 90.000000
_cell_angle_beta 90.000000
_cell_angle_gamma 90.000000
_cell_volume 1263.007151
_symmetry_space_group_name_H-M "P 2 2 21"
_symmetry_group_IT_number 17
_symmetry_cell_setting 'orthorhombic'
loop_
_space_group_symop_operation_xyz
x,y,z
-x,-y,1/2+z
x,-y,-z
-x,y,1/2-z
loop_
_atom_site_type_symbol
_atom_site_label
_atom_site_fract_x
_atom_site_fract_y
_atom_site_fract_z
Si Si1 0.186867 0.191272 0.013038
Si Si2 0.371102 0.291311 0.322713
Si Si3 0.189096 0.000000 0.500000
Si Si4 0.530959 0.932183 0.626853
Si Si5 0.891448 0.715834 0.172034
Si Si6 0.336844 0.416203 0.058895
Si Si7 0.390585 0.826616 0.125873
Si Si8 0.973924 0.520166 0.830620
O O1 0.259022 0.135457 0.086340
O O2 0.157613 0.323475 0.024088
O O3 0.408332 0.175870 0.958201
O O4 0.975998 0.109572 0.986465
O O5 0.500000 0.328881 0.250000
O O6 0.395466 0.158619 0.325887
O O7 0.483564 0.342112 0.393960
O O8 0.112269 0.351661 0.328264
O O9 0.341489 0.971577 0.568261
O O10 0.639423 0.047531 0.654728
O O11 0.136725 0.758733 0.133814
O O12 0.000000 0.724429 0.250000
O O13 0.639052 0.781184 0.159898
O O14 0.818625 0.588992 0.149095
O O15 0.198546 0.485654 0.117755
O O16 0.432960 0.500000 0.000000
O O17 0.000000 0.497392 0.750000
#
# Coordination Sequence:
#
# PCOD9311495 Si02
#       8
#     4   4   2   4   4   4   4   4
#     4  11  23  39  68 100 142 183 239 297 380 446
#     4  11  25  46  72 103 146 199 249 316 389 476
#     4  12  18  42  66 102 142 194 242 306 376 458
#     4  11  24  40  69 102 142 193 246 306 378 459
#     4  11  28  44  74 101 142 189 252 303 376 452
#     4  11  25  44  68 106 141 183 250 315 377 450
#     4  12  23  47  71 106 144 193 240 314 381 452
#     4  11  24  47  72 100 140 201 249 312 387 474
#
# _framework density 23.752834
#
# number of rings (size 3 to 8) (size 9 to 14) (size 15 to 20)
#    0.000    0.800    4.000    2.800    3.733    1.600 
#    2.400    0.667    0.000    0.000    0.000    0.000 
#    0.000    0.000    0.000    0.000    0.000    0.000 
#
# Total GULP energy -167199.201879 kJ/mol
# GULP energy per Si atom -5573.306729 kJ/mol
# Density = 2.369877 g / cm^3
# Si number density = 23.752834 Si / 1000 Ang^3
#
#
#
# Elastic Constant Matrix: (Units=GPa)
#
#
# Indices 1 2 3 4 5 6 
#
# 1 55.8849 9.8553 19.9115 0.0000 0.0000 0.0000
# 2 9.8553 124.1245 13.3753 0.0000 0.0000 0.0000
# 3 19.9115 13.3753 70.4073 0.0000 0.0000 0.0000
# 4 0.0000 0.0000 0.0000 42.4832 0.0000 0.0000
# 5 0.0000 0.0000 0.0000 0.0000 31.8351 0.0000
# 6 0.0000 0.0000 0.0000 0.0000 0.0000 19.1874
#
#
#
# Elastic Compliance Matrix: (Units=1/GPa)
#
#
# Indices 1 2 3 4 5 6 
#
# 1 0.020020 -0.001000 -0.005472 0.000000 0.000000 0.000000
# 2 -0.001000 0.008275 -0.001289 0.000000 0.000000 0.000000
# 3 -0.005472 -0.001289 0.015995 0.000000 0.000000 0.000000
# 4 0.000000 0.000000 0.000000 0.023539 0.000000 0.000000
# 5 0.000000 0.000000 0.000000 0.000000 0.031412 0.000000
# 6 0.000000 0.000000 0.000000 0.000000 0.000000 0.052118
#
#
# Mechanical properties :
#
#
# Convention : Reuss Voigt Hill
#
# Bulk Modulus (GPa) = 34.76050 37.41122 36.08586
# Shear Modulus (GPa) = 28.33354 32.51944 30.42649
#
# Velocity S-wave (km/s) = 3.45751 3.70412 3.58294
# Velocity P-wave (km/s) = 5.53220 5.83767 5.68698
#
# Compressibility (1/GPa) = 0.02876828
#
# Stress axis : x y z
#
# Youngs Moduli (GPa) = 49.95048 120.84981 62.51793
#
# Poissons Ratio (x) = 0.12084 0.34208
# Poissons Ratio (y) = 0.04995 0.08060
# Poissons Ratio (z) = 0.27332 0.15580
#
# Static dielectric constant tensor:
#      x y z
#    x 1.949320 0.000000 0.000000 
#    y 0.000000 1.994070 0.000000 
#    z 0.000000 0.000000 1.945640 
# 
# From -- ./inp_files/9960.got.cif
#   From: 2010.05.17/outbox.cif.g08.bks.cpg/sg17_5_cif.got.tgz:9960.got - 2010.06.03 22:34:06.
