data_PCOD9311608
_publ_section_title
;
Structure prediction by ZEFSAII (Michael W. Deem and Ramdas Pophale) SiO2 
 PCOD9311608
Probable space group: P 2 2 21
;
_chemical_formula_sum "Si O2"
_cell_formula_units_Z 32
_cell_length_a 9.000000
_cell_length_b 12.000000
_cell_length_c 15.000000
_cell_angle_alpha 90.000000
_cell_angle_beta 90.000000
_cell_angle_gamma 90.000000
_cell_volume 1620.000000
_symmetry_space_group_name_H-M "P 2 2 21"
_symmetry_group_IT_number 17
_symmetry_cell_setting 'orthorhombic'
loop_
_space_group_symop_operation_xyz
x,y,z
-x,-y,1/2+z
x,-y,-z
-x,y,1/2-z
loop_
_atom_site_type_symbol
_atom_site_label
_atom_site_fract_x
_atom_site_fract_y
_atom_site_fract_z
Si Si1 0.265762 0.632628 0.500548
Si Si2 0.594577 0.680345 0.564146
Si Si3 0.651504 0.511939 0.292164
Si Si4 0.099406 0.261384 0.662893
Si Si5 0.848382 0.664341 0.807684
Si Si6 0.674519 0.889723 0.274671
Si Si7 0.213015 0.711780 0.100852
Si Si8 0.334573 0.853662 0.789198
O O1 0.282904 0.500000 0.500000
O O2 0.428573 0.683944 0.523232
O O3 0.204885 0.667503 0.402953
O O4 0.156254 0.663295 0.584300
O O5 0.602541 0.576654 0.632222
O O6 0.719491 0.666414 0.489891
O O7 0.643319 0.790786 0.617360
O O8 0.500000 0.558615 0.250000
O O9 0.743611 0.438386 0.222161
O O10 0.750900 0.610173 0.331374
O O11 0.208926 0.166332 0.703854
O O12 0.000000 0.298895 0.750000
O O13 0.956035 0.245158 0.598523
O O14 0.770422 0.776832 0.771856
O O15 0.000000 0.652348 0.750000
O O16 0.500000 0.883854 0.250000
O O17 0.694184 0.816281 0.363023
O O18 0.715347 0.018537 0.290779
O O19 0.500000 0.851832 0.750000
#
# Coordination Sequence:
#
# PCOD9311608 Si02
#       8
#     4   4   4   4   4   4   4   4
#     4  12  25  38  67  99 140 182 233 288 341 424
#     4  11  22  41  64 100 132 173 230 285 339 418
#     4  11  22  41  65  94 140 182 228 282 349 419
#     4  10  26  44  61  96 140 177 230 283 347 418
#     4  11  25  39  64 100 137 183 225 282 359 414
#     4  10  22  43  72  89 117 178 221 280 344 406
#     4  11  24  37  66  94 135 171 222 281 347 412
#     4  10  21  46  70  91 132 172 229 289 345 411
#
# _framework density 19.753086
#
# number of rings (size 3 to 8) (size 9 to 14) (size 15 to 20)
#    0.000    1.250    2.500    3.000    8.750    2.000 
#    0.000    0.625    5.500    0.000    0.000    0.000 
#    0.000    0.000    0.000    0.000    0.000    0.000 
#
# Total GULP energy -178455.582535 kJ/mol
# GULP energy per Si atom -5576.736954 kJ/mol
# Density = 1.970813 g / cm^3
# Si number density = 19.753086 Si / 1000 Ang^3
#
#
#
# Elastic Constant Matrix: (Units=GPa)
#
#
# Indices 1 2 3 4 5 6 
#
# 1 107.8302 33.2753 33.8573 0.0000 0.0000 0.0000
# 2 33.2753 112.5127 44.4021 0.0000 0.0000 0.0000
# 3 33.8573 44.4021 93.6784 0.0000 0.0000 0.0000
# 4 0.0000 0.0000 0.0000 -5.0274 0.0000 0.0000
# 5 0.0000 0.0000 0.0000 0.0000 35.8568 0.0000
# 6 0.0000 0.0000 0.0000 0.0000 0.0000 -55.9054
#
#
#
# Elastic Compliance Matrix: (Units=1/GPa)
#
#
# Indices 1 2 3 4 5 6 
#
# 1 0.010829 -0.002040 -0.002947 0.000000 0.000000 0.000000
# 2 -0.002040 0.011317 -0.004627 0.000000 0.000000 0.000000
# 3 -0.002947 -0.004627 0.013933 0.000000 0.000000 0.000000
# 4 0.000000 0.000000 0.000000 -0.198910 0.000000 0.000000
# 5 0.000000 0.000000 0.000000 0.000000 0.027889 0.000000
# 6 0.000000 0.000000 0.000000 0.000000 0.000000 -0.017887
#
#
# Mechanical properties :
#
#
# Convention : Reuss Voigt Hill
#
# Bulk Modulus (GPa) = 59.34120 59.67675 59.50898
# Shear Modulus (GPa) = -39.06667 8.48390 -15.29139
#
# Velocity S-wave (km/s) = -4.45202 2.07468 -2.78533
# Velocity P-wave (km/s) = 1.91819 6.00133 4.45508
#
# Compressibility (1/GPa) = 0.01685170
#
# Stress axis : x y z
#
# Youngs Moduli (GPa) = 92.34874 88.36207 71.77191
#
# Poissons Ratio (x) = 0.18022 0.21151
# Poissons Ratio (y) = 0.18835 0.33209
# Poissons Ratio (z) = 0.27215 0.40885
#
# Static dielectric constant tensor:
#      x y z
#    x 1.712820 0.000000 0.000000 
#    y 0.000000 1.687340 0.000000 
#    z 0.000000 0.000000 1.821790 
# 
# From -- ./inp_files/8275.got.cif
#   From: 2010.05.17/outbox.ucp.g08.bks.cvg/sg17_5_cif.got.tgz:8275.got - 2010.06.11 13:12:59.
