data_PCOD9311472
_publ_section_title
;
Structure prediction by ZEFSAII (Michael W. Deem and Ramdas Pophale) SiO2 
 PCOD9311472
Probable space group: P 2 2 21
;
_chemical_formula_sum "Si O2"
_cell_formula_units_Z 16
_cell_length_a 9.119848
_cell_length_b 10.494467
_cell_length_c 7.621289
_cell_angle_alpha 90.000000
_cell_angle_beta 90.000000
_cell_angle_gamma 90.000000
_cell_volume 729.417900
_symmetry_space_group_name_H-M "P 2 2 21"
_symmetry_group_IT_number 17
_symmetry_cell_setting 'orthorhombic'
loop_
_space_group_symop_operation_xyz
x,y,z
-x,-y,1/2+z
x,-y,-z
-x,y,1/2-z
loop_
_atom_site_type_symbol
_atom_site_label
_atom_site_fract_x
_atom_site_fract_y
_atom_site_fract_z
Si Si1 0.189066 0.244527 0.868130
Si Si2 0.666268 0.487432 0.790570
Si Si3 0.104890 0.856990 0.491774
Si Si4 0.666394 0.216481 0.291884
O O1 0.229104 0.385524 0.801497
O O2 0.187110 0.160922 0.692501
O O3 0.032368 0.237953 0.967789
O O4 0.299149 0.185811 0.008045
O O5 0.500000 0.443062 0.750000
O O6 0.679001 0.629315 0.716204
O O7 0.688440 0.500000 0.000000
O O8 0.213863 0.833023 0.652785
O O9 0.044666 0.000000 0.500000
O O10 0.500000 0.180612 0.250000
#
# Coordination Sequence:
#
# PCOD9311472 Si02
#       4
#     4   4   4   4
#     4  11  25  44  75  99 138 191 230 291 356 421
#     4  11  21  43  72 107 149 181 229 295 362 424
#     4  11  27  49  68 101 142 191 241 291 351 416
#     4  11  24  46  74 108 142 182 231 294 360 424
#
# _framework density 21.935300000000002
#
# number of rings (size 3 to 8) (size 9 to 14) (size 15 to 20)
#    0.000    1.000    2.500    4.500    7.000    0.000 
#   22.500    0.000    0.000    0.000    0.000    0.000 
#    0.000    0.000    0.000    0.000    0.000    0.000 
#
# Total GULP energy -89460.457251 kJ/mol
# GULP energy per Si atom -5591.278578 kJ/mol
# Density = 2.188537 g / cm^3
# Si number density = 21.935300 Si / 1000 Ang^3
#
#
#
# Elastic Constant Matrix: (Units=GPa)
#
#
# Indices 1 2 3 4 5 6 
#
# 1 102.8478 45.7480 39.3523 0.0000 0.0000 0.0000
# 2 45.7480 46.1550 -11.5342 0.0000 0.0000 0.0000
# 3 39.3523 -11.5342 117.3204 0.0000 0.0000 0.0000
# 4 0.0000 0.0000 0.0000 6.5656 0.0000 0.0000
# 5 0.0000 0.0000 0.0000 0.0000 43.6064 0.0000
# 6 0.0000 0.0000 0.0000 0.0000 0.0000 45.1727
#
#
#
# Elastic Compliance Matrix: (Units=1/GPa)
#
#
# Indices 1 2 3 4 5 6 
#
# 1 0.028599 -0.031518 -0.012692 0.000000 0.000000 0.000000
# 2 -0.031518 0.056948 0.016171 0.000000 0.000000 0.000000
# 3 -0.012692 0.016171 0.014371 0.000000 0.000000 0.000000
# 4 0.000000 0.000000 0.000000 0.152308 0.000000 0.000000
# 5 0.000000 0.000000 0.000000 0.000000 0.022932 0.000000
# 6 0.000000 0.000000 0.000000 0.000000 0.000000 0.022137
#
#
# Mechanical properties :
#
#
# Convention : Reuss Voigt Hill
#
# Bulk Modulus (GPa) = 22.81078 45.93950 34.37514
# Shear Modulus (GPa) = 13.58747 31.91942 22.75344
#
# Velocity S-wave (km/s) = 2.49154 3.81880 3.22421
# Velocity P-wave (km/s) = 4.32420 6.35869 5.43745
#
# Compressibility (1/GPa) = 0.04383891
#
# Stress axis : x y z
#
# Youngs Moduli (GPa) = 34.96621 17.55998 69.58685
#
# Poissons Ratio (x) = 0.55346 0.88316
# Poissons Ratio (y) = 1.10208 -1.12528
# Poissons Ratio (z) = 0.44377 -0.28396
#
# Static dielectric constant tensor:
#      x y z
#    x 1.857110 0.000000 0.000000 
#    y 0.000000 1.790040 0.000000 
#    z 0.000000 0.000000 1.825270 
# 
# From -- ./inp_files/3894.got.cif
#   From: 2010.05.17/outbox.cif.g08.bks.cpg/sg17_2_cif.got.tgz:3894.got - 2010.06.03 22:34:06.
