data_PCOD9311342
_publ_section_title
;
Structure prediction by ZEFSAII (Michael W. Deem and Ramdas Pophale) SiO2 
 PCOD9311342
Probable space group: P 2 2 21
;
_chemical_formula_sum "Si O2"
_cell_formula_units_Z 20
_cell_length_a 5.029237
_cell_length_b 10.808084
_cell_length_c 15.054508
_cell_angle_alpha 90.000000
_cell_angle_beta 90.000000
_cell_angle_gamma 90.000000
_cell_volume 818.309099
_symmetry_space_group_name_H-M "P 2 2 21"
_symmetry_group_IT_number 17
_symmetry_cell_setting 'orthorhombic'
loop_
_space_group_symop_operation_xyz
x,y,z
-x,-y,1/2+z
x,-y,-z
-x,y,1/2-z
loop_
_atom_site_type_symbol
_atom_site_label
_atom_site_fract_x
_atom_site_fract_y
_atom_site_fract_z
Si Si1 0.739441 0.367020 0.190787
Si Si2 0.458950 0.162654 0.091207
Si Si3 0.547498 0.111924 0.888519
Si Si4 0.032821 0.748192 0.157348
Si Si5 0.939940 0.625130 0.525261
O O1 0.500000 0.423007 0.250000
O O2 0.643598 0.230089 0.162153
O O3 0.000000 0.366072 0.250000
O O4 0.830852 0.414957 0.094176
O O5 0.225813 0.262691 0.070888
O O6 0.414750 0.022732 0.122978
O O7 0.583751 0.138025 0.993790
O O8 0.828617 0.135864 0.842051
O O9 0.334661 0.209918 0.853744
O O10 0.000000 0.677977 0.250000
O O11 0.961117 0.675972 0.068544
O O12 0.781329 0.500000 0.500000
#
# Coordination Sequence:
#
# PCOD9311342 Si02
#       5
#     4   4   4   4   4
#     4  12  25  45  71 105 144 183 245 299 361 433
#     4  10  23  44  73 105 142 190 239 295 369 437
#     4  10  23  41  73 100 146 184 238 298 367 435
#     4  11  24  45  69 108 138 192 242 295 370 443
#     4  11  26  50  76 104 151 198 243 308 368 438
#
# _framework density 24.440639999999998
#
# number of rings (size 3 to 8) (size 9 to 14) (size 15 to 20)
#    0.000    1.200    4.000    0.600    2.800    5.600 
#    0.000    0.000    0.000    0.000    0.000    0.000 
#    0.000    0.000    0.000    0.000    0.000    0.000 
#
# Total GULP energy -111652.730983 kJ/mol
# GULP energy per Si atom -5582.636549 kJ/mol
# Density = 2.438501 g / cm^3
# Si number density = 24.440640 Si / 1000 Ang^3
#
#
#
# Elastic Constant Matrix: (Units=GPa)
#
#
# Indices 1 2 3 4 5 6 
#
# 1 115.2855 23.1808 58.4083 0.0000 0.0000 0.0000
# 2 23.1808 102.4670 15.3602 0.0000 0.0000 0.0000
# 3 58.4083 15.3602 150.0293 0.0000 0.0000 0.0000
# 4 0.0000 0.0000 0.0000 -42.1785 0.0000 0.0000
# 5 0.0000 0.0000 0.0000 0.0000 32.2146 0.0000
# 6 0.0000 0.0000 0.0000 0.0000 0.0000 -3.8632
#
#
#
# Elastic Compliance Matrix: (Units=1/GPa)
#
#
# Indices 1 2 3 4 5 6 
#
# 1 0.011159 -0.001902 -0.004150 0.000000 0.000000 0.000000
# 2 -0.001902 0.010236 -0.000307 0.000000 0.000000 0.000000
# 3 -0.004150 -0.000307 0.008312 0.000000 0.000000 0.000000
# 4 0.000000 0.000000 0.000000 -0.023709 0.000000 0.000000
# 5 0.000000 0.000000 0.000000 0.000000 0.031042 0.000000
# 6 0.000000 0.000000 0.000000 0.000000 0.000000 -0.258856
#
#
# Mechanical properties :
#
#
# Convention : Reuss Voigt Hill
#
# Bulk Modulus (GPa) = 58.86372 62.40891 60.63632
# Shear Modulus (GPa) = -24.57792 15.29011 -4.64391
#
# Velocity S-wave (km/s) = -3.17459 2.50392 -1.37993
# Velocity P-wave (km/s) = 3.27098 5.82664 4.72489
#
# Compressibility (1/GPa) = 0.01698839
#
# Stress axis : x y z
#
# Youngs Moduli (GPa) = 89.61394 97.69742 120.30360
#
# Poissons Ratio (x) = 0.18586 0.49921
# Poissons Ratio (y) = 0.17048 0.03697
# Poissons Ratio (z) = 0.37186 0.03002
#
# Static dielectric constant tensor:
#      x y z
#    x 1.941030 0.000000 0.000000 
#    y 0.000000 1.965780 0.000000 
#    z 0.000000 0.000000 1.993910 
# 
# From -- ./inp_files/7606.got.cif
#   From: 2010.05.17/outbox.cif.g08.bks.cpg/sg17_4_cif.got.tgz:7606.got - 2010.06.03 22:34:06.
