data_PCOD9311542
_publ_section_title
;
Structure prediction by ZEFSAII (Michael W. Deem and Ramdas Pophale) SiO2 
 PCOD9311542
Probable space group: P 2 2 21
;
_chemical_formula_sum "Si O2"
_cell_formula_units_Z 20
_cell_length_a 6.894027
_cell_length_b 9.528060
_cell_length_c 13.045805
_cell_angle_alpha 90.000000
_cell_angle_beta 90.000000
_cell_angle_gamma 90.000000
_cell_volume 856.935917
_symmetry_space_group_name_H-M "P 2 2 21"
_symmetry_group_IT_number 17
_symmetry_cell_setting 'orthorhombic'
loop_
_space_group_symop_operation_xyz
x,y,z
-x,-y,1/2+z
x,-y,-z
-x,y,1/2-z
loop_
_atom_site_type_symbol
_atom_site_label
_atom_site_fract_x
_atom_site_fract_y
_atom_site_fract_z
Si Si1 0.653921 0.283866 0.455956
Si Si2 0.500000 0.140284 0.250000
Si Si3 0.150549 0.948825 0.330038
Si Si4 0.969198 0.417632 0.129888
Si Si5 0.860432 0.000000 0.500000
Si Si6 0.264632 0.682285 0.453414
O O1 0.560845 0.230377 0.348887
O O2 0.490337 0.348330 0.529384
O O3 0.825647 0.387551 0.423889
O O4 0.736316 0.141943 0.510239
O O5 0.315360 0.043550 0.279433
O O6 0.248142 0.829132 0.397467
O O7 0.000000 0.881512 0.250000
O O8 0.000951 0.027789 0.404354
O O9 0.863944 0.566955 0.107128
O O10 0.000000 0.394255 0.250000
O O11 0.826623 0.315358 0.067157
#
# Coordination Sequence:
#
# PCOD9311542 Si02
#       6
#     4   2   4   4   2   4
#     4  12  25  46  75 111 152 198 254 320 389 462
#     4  12  26  42  80 118 152 196 252 316 394 478
#     4  12  25  46  74 115 151 197 249 314 394 463
#     4  11  26  49  77 106 145 209 256 316 381 453
#     4  12  24  46  76 110 158 196 246 320 390 462
#     4  11  26  48  73 107 155 196 262 317 379 461
#
# _framework density 23.338967
#
# number of rings (size 3 to 8) (size 9 to 14) (size 15 to 20)
#    0.000    0.400    4.000    4.200    2.800    3.200 
#    0.000    4.000    0.000    0.000    0.000    0.000 
#    0.000    0.000    0.000    0.000    0.000    0.000 
#
# Total GULP energy -111875.007948 kJ/mol
# GULP energy per Si atom -5593.750397 kJ/mol
# Density = 2.328585 g / cm^3
# Si number density = 23.338967 Si / 1000 Ang^3
#
#
#
# Elastic Constant Matrix: (Units=GPa)
#
#
# Indices 1 2 3 4 5 6 
#
# 1 174.5596 36.9872 33.6922 0.0000 0.0000 0.0000
# 2 36.9872 77.8952 10.8948 0.0000 0.0000 0.0000
# 3 33.6922 10.8948 78.2617 0.0000 0.0000 0.0000
# 4 0.0000 0.0000 0.0000 36.5036 0.0000 0.0000
# 5 0.0000 0.0000 0.0000 0.0000 49.5170 0.0000
# 6 0.0000 0.0000 0.0000 0.0000 0.0000 19.1792
#
#
#
# Elastic Compliance Matrix: (Units=1/GPa)
#
#
# Indices 1 2 3 4 5 6 
#
# 1 0.006831 -0.002888 -0.002539 0.000000 0.000000 0.000000
# 2 -0.002888 0.014314 -0.000749 0.000000 0.000000 0.000000
# 3 -0.002539 -0.000749 0.013975 0.000000 0.000000 0.000000
# 4 0.000000 0.000000 0.000000 0.027395 0.000000 0.000000
# 5 0.000000 0.000000 0.000000 0.000000 0.020195 0.000000
# 6 0.000000 0.000000 0.000000 0.000000 0.000000 0.052140
#
#
# Mechanical properties :
#
#
# Convention : Reuss Voigt Hill
#
# Bulk Modulus (GPa) = 43.92271 54.87389 49.39830
# Shear Modulus (GPa) = 32.30175 37.64945 34.97560
#
# Velocity S-wave (km/s) = 3.72429 4.02077 3.87537
# Velocity P-wave (km/s) = 6.11180 6.71701 6.42154
#
# Compressibility (1/GPa) = 0.02276726
#
# Stress axis : x y z
#
# Youngs Moduli (GPa) = 146.39807 69.86149 71.55736
#
# Poissons Ratio (x) = 0.20179 0.18165
# Poissons Ratio (y) = 0.42285 0.05361
# Poissons Ratio (z) = 0.37164 0.05234
#
# Static dielectric constant tensor:
#      x y z
#    x 1.895250 0.000000 0.000000 
#    y 0.000000 1.890610 0.000000 
#    z 0.000000 0.000000 1.909960 
# 
# From -- ./inp_files/7655.got.cif
#   From: 2010.05.17/outbox.cif.g08.bks.cpg/sg17_4_cif.got.tgz:7655.got - 2010.06.03 22:34:06.
