data_PCOD9311727
_publ_section_title
;
Structure prediction by ZEFSAII (Michael W. Deem and Ramdas Pophale) SiO2 
 PCOD9311727
Probable space group: P 21 21 2
;
_chemical_formula_sum "Si O2"
_cell_formula_units_Z 22
_cell_length_a 4.990754
_cell_length_b 13.121202
_cell_length_c 14.244254
_cell_angle_alpha 90.000000
_cell_angle_beta 90.000000
_cell_angle_gamma 90.000000
_cell_volume 932.780577
_symmetry_space_group_name_H-M "P 21 21 2"
_symmetry_group_IT_number 18
_symmetry_cell_setting 'orthorhombic'
loop_
_space_group_symop_operation_xyz
x,y,z
-x,-y,z
1/2+x,1/2-y,-z
1/2-x,1/2+y,-z
loop_
_atom_site_type_symbol
_atom_site_label
_atom_site_fract_x
_atom_site_fract_y
_atom_site_fract_z
Si Si1 0.165782 0.319320 0.507750
Si Si2 0.217382 0.804733 0.290821
Si Si3 0.281890 0.338709 0.307128
Si Si4 0.500000 0.000000 0.824451
Si Si5 0.653664 0.144120 0.087527
Si Si6 0.657894 0.381024 0.025651
O O1 0.361932 0.219904 0.501110
O O2 0.221055 0.362089 0.611198
O O3 0.245513 0.378603 0.413847
O O4 0.425160 0.708438 0.291340
O O5 0.264718 0.865876 0.195368
O O6 0.921982 0.756690 0.294463
O O7 0.179529 0.423751 0.236777
O O8 0.294032 0.061230 0.889071
O O9 0.356485 0.109714 0.063108
O O10 0.863290 0.097100 0.013574
O O11 0.657539 0.264204 0.061799
#
# Coordination Sequence:
#
# PCOD9311727 Si02
#       6
#     4   4   4   2   4   4
#     4   8  16  31  51  81 110 138 182 232 277 343
#     4  10  18  35  59  80 111 151 198 242 286 334
#     4  10  21  32  54  86 118 149 183 236 303 360
#     4  12  24  38  56  88 128 156 188 246 326 356
#     4  10  20  38  53  80 109 155 203 242 277 344
#     4  10  23  34  54  78 117 152 196 240 292 349
#
# _framework density 23.585398999999999
#
# number of rings (size 3 to 8) (size 9 to 14) (size 15 to 20)
#    0.000    2.182    1.818    1.091    5.091    2.909 
#    0.000    0.000    0.000    1.091    0.000   12.727 
#    0.000    0.000    0.000    0.000    0.000    0.000 
#
# Total GULP energy -123082.549696 kJ/mol
# GULP energy per Si atom -5594.661350 kJ/mol
# Density = 2.353172 g / cm^3
# Si number density = 23.585399 Si / 1000 Ang^3
#
#
#
# Elastic Constant Matrix: (Units=GPa)
#
#
# Indices 1 2 3 4 5 6 
#
# 1 97.9723 9.8766 4.4169 0.0000 0.0000 0.0000
# 2 9.8766 44.1326 17.7988 0.0000 0.0000 0.0000
# 3 4.4169 17.7988 154.5107 0.0000 0.0000 0.0000
# 4 0.0000 0.0000 0.0000 24.9288 0.0000 0.0000
# 5 0.0000 0.0000 0.0000 0.0000 32.4107 0.0000
# 6 0.0000 0.0000 0.0000 0.0000 0.0000 24.2110
#
#
#
# Elastic Compliance Matrix: (Units=1/GPa)
#
#
# Indices 1 2 3 4 5 6 
#
# 1 0.010443 -0.002325 -0.000031 0.000000 0.000000 0.000000
# 2 -0.002325 0.024280 -0.002731 0.000000 0.000000 0.000000
# 3 -0.000031 -0.002731 0.006787 0.000000 0.000000 0.000000
# 4 0.000000 0.000000 0.000000 0.040114 0.000000 0.000000
# 5 0.000000 0.000000 0.000000 0.000000 0.030854 0.000000
# 6 0.000000 0.000000 0.000000 0.000000 0.000000 0.041304
#
#
# Mechanical properties :
#
#
# Convention : Reuss Voigt Hill
#
# Bulk Modulus (GPa) = 31.90927 40.08893 35.99910
# Shear Modulus (GPa) = 28.66964 33.94497 31.30730
#
# Velocity S-wave (km/s) = 3.49028 3.79784 3.64731
# Velocity P-wave (km/s) = 5.45906 6.02210 5.74748
#
# Compressibility (1/GPa) = 0.03133885
#
# Stress axis : x y z
#
# Youngs Moduli (GPa) = 95.76069 41.18534 147.33037
#
# Poissons Ratio (x) = 0.09574 0.00453
# Poissons Ratio (y) = 0.22261 0.40229
# Poissons Ratio (z) = 0.00294 0.11246
#
# Static dielectric constant tensor:
#      x y z
#    x 1.841820 0.000000 0.000000 
#    y 0.000000 1.894360 0.000000 
#    z 0.000000 0.000000 1.922150 
# 
# From -- ./inp_files/6466.got.cif
#   From: 2010.05.17/outbox.cif.g08.bks.cpg/sg18_4_cif.got.tgz:6466.got - 2010.06.03 22:40:56.
