data_PCOD9311984
_publ_section_title
;
Structure prediction by ZEFSAII (Michael W. Deem and Ramdas Pophale) SiO2 
 PCOD9311984
Probable space group: P 21 21 2
;
_chemical_formula_sum "Si O2"
_cell_formula_units_Z 32
_cell_length_a 27.826513
_cell_length_b 8.501527
_cell_length_c 5.299178
_cell_angle_alpha 90.000000
_cell_angle_beta 90.000000
_cell_angle_gamma 90.000000
_cell_volume 1253.615155
_symmetry_space_group_name_H-M "P 21 21 2"
_symmetry_group_IT_number 18
_symmetry_cell_setting 'orthorhombic'
loop_
_space_group_symop_operation_xyz
x,y,z
-x,-y,z
1/2+x,1/2-y,-z
1/2-x,1/2+y,-z
loop_
_atom_site_type_symbol
_atom_site_label
_atom_site_fract_x
_atom_site_fract_y
_atom_site_fract_z
Si Si1 0.345832 0.449130 0.097558
Si Si2 0.070032 0.575765 0.224228
Si Si3 0.305934 0.143033 0.936895
Si Si4 0.479718 0.734052 0.764346
Si Si5 0.788110 0.857115 0.207884
Si Si6 0.752534 0.571547 0.430118
Si Si7 0.379752 0.983384 0.281729
Si Si8 0.927550 0.858298 0.722526
O O1 0.342625 0.288966 0.938079
O O2 0.337798 0.601164 0.916789
O O3 0.393463 0.489938 0.247599
O O4 0.298141 0.436114 0.273440
O O5 0.042544 0.409625 0.266884
O O6 0.085445 0.556290 0.933260
O O7 0.036156 0.727359 0.246685
O O8 0.109473 0.565023 0.448843
O O9 0.290670 0.048833 0.690005
O O10 0.329167 0.024883 0.145769
O O11 0.253239 0.201296 0.023146
O O12 0.460546 0.665832 0.029093
O O13 0.459379 0.638098 0.528492
O O14 0.782496 0.732369 0.428212
O O15 0.767315 0.020707 0.303911
O O16 0.393378 0.798747 0.299095
#
# Coordination Sequence:
#
# PCOD9311984 Si02
#       8
#     4   4   4   4   4   4   4   4
#     4  10  22  38  54  80 114 152 193 238 289 343
#     4   9  18  34  57  85 115 147 189 241 293 343
#     4  10  22  38  54  80 114 152 193 238 289 343
#     4   9  18  34  57  85 115 147 189 241 293 343
#     4  10  21  37  58  81 111 151 193 239 289 345
#     4  10  21  37  58  81 111 151 193 239 289 345
#     4  10  20  34  57  87 114 149 193 241 289 343
#     4  10  20  34  57  87 114 149 193 241 289 343
#
# _framework density 25.526177000000001
#
# number of rings (size 3 to 8) (size 9 to 14) (size 15 to 20)
#    0.000    2.250    0.000    2.250    3.500    6.000 
#    0.000    0.000    0.000    4.500    0.000    0.000 
#    0.000    0.000    0.000    0.000    0.000    0.000 
#
# Total GULP energy -178682.737035 kJ/mol
# GULP energy per Si atom -5583.835532 kJ/mol
# Density = 2.546808 g / cm^3
# Si number density = 25.526177 Si / 1000 Ang^3
#
#
#
# Elastic Constant Matrix: (Units=GPa)
#
#
# Indices 1 2 3 4 5 6 
#
# 1 52.5039 -5.6991 3.2035 0.0000 0.0000 0.0000
# 2 -5.6991 71.5987 6.9858 0.0000 0.0000 0.0000
# 3 3.2035 6.9858 91.2670 0.0000 0.0000 0.0000
# 4 0.0000 0.0000 0.0000 14.2383 0.0000 0.0000
# 5 0.0000 0.0000 0.0000 0.0000 18.8568 0.0000
# 6 0.0000 0.0000 0.0000 0.0000 0.0000 30.0889
#
#
#
# Elastic Compliance Matrix: (Units=1/GPa)
#
#
# Indices 1 2 3 4 5 6 
#
# 1 0.019270 0.001612 -0.000800 0.000000 0.000000 0.000000
# 2 0.001612 0.014207 -0.001144 0.000000 0.000000 0.000000
# 3 -0.000800 -0.001144 0.011072 0.000000 0.000000 0.000000
# 4 0.000000 0.000000 0.000000 0.070233 0.000000 0.000000
# 5 0.000000 0.000000 0.000000 0.000000 0.053031 0.000000
# 6 0.000000 0.000000 0.000000 0.000000 0.000000 0.033235
#
#
# Mechanical properties :
#
#
# Convention : Reuss Voigt Hill
#
# Bulk Modulus (GPa) = 22.78664 24.92779 23.85721
# Shear Modulus (GPa) = 23.11171 26.69542 24.90357
#
# Velocity S-wave (km/s) = 3.01227 3.23740 3.12686
# Velocity P-wave (km/s) = 4.58743 4.87454 4.73316
#
# Compressibility (1/GPa) = 0.04388536
#
# Stress axis : x y z
#
# Youngs Moduli (GPa) = 51.89421 70.38952 90.31390
#
# Poissons Ratio (x) = -0.11346 0.07223
# Poissons Ratio (y) = -0.08365 0.10332
# Poissons Ratio (z) = 0.04150 0.08052
#
# Static dielectric constant tensor:
#      x y z
#    x 2.029400 0.000000 0.000000 
#    y 0.000000 2.116400 0.000000 
#    z 0.000000 0.000000 1.999520 
# 
# From -- ./inp_files/2297.got.cif
#   From: 2010.05.17/outbox.cif.g08.bks.cpg/sg18_2_cif.got.tgz:2297.got - 2010.06.03 22:40:56.
