data_PCOD9311682
_publ_section_title
;
Structure prediction by ZEFSAII (Michael W. Deem and Ramdas Pophale) SiO2 
 PCOD9311682
Probable space group: P 21 21 2
;
_chemical_formula_sum "Si O2"
_cell_formula_units_Z 32
_cell_length_a 15.396151
_cell_length_b 14.688851
_cell_length_c 5.380633
_cell_angle_alpha 90.000000
_cell_angle_beta 90.000000
_cell_angle_gamma 90.000000
_cell_volume 1216.839666
_symmetry_space_group_name_H-M "P 21 21 2"
_symmetry_group_IT_number 18
_symmetry_cell_setting 'orthorhombic'
loop_
_space_group_symop_operation_xyz
x,y,z
-x,-y,z
1/2+x,1/2-y,-z
1/2-x,1/2+y,-z
loop_
_atom_site_type_symbol
_atom_site_label
_atom_site_fract_x
_atom_site_fract_y
_atom_site_fract_z
Si Si1 0.727398 0.772056 0.523742
Si Si2 0.156261 0.379062 0.764726
Si Si3 0.920506 0.208156 0.162681
Si Si4 0.542032 0.890397 0.068339
Si Si5 0.931897 0.915785 0.072297
Si Si6 0.604196 0.474607 0.435756
Si Si7 0.785595 0.119998 0.838470
Si Si8 0.134384 0.544032 0.432617
O O1 0.795902 0.716916 0.698906
O O2 0.743534 0.719197 0.264412
O O3 0.712433 0.880208 0.565848
O O4 0.629132 0.738353 0.593317
O O5 0.059585 0.375307 0.875115
O O6 0.158449 0.440462 0.512588
O O7 0.211751 0.423229 0.989068
O O8 0.919374 0.291867 0.977991
O O9 0.862648 0.132527 0.036546
O O10 0.016510 0.170707 0.177177
O O11 0.579731 0.930747 0.320511
O O12 0.576283 0.941674 0.816771
O O13 0.868418 0.938864 0.295820
O O14 0.000000 0.000000 0.045578
O O15 0.894303 0.906426 0.798174
O O16 0.500000 0.500000 0.461849
O O17 0.665637 0.557853 0.362309
#
# Coordination Sequence:
#
# PCOD9311682 Si02
#       8
#     4   4   4   4   4   4   4   4
#     4  10  23  45  78 106 161 195 256 318 413 466
#     4  11  28  46  80 118 153 205 267 337 399 472
#     4  10  20  40  69 102 143 200 245 320 379 467
#     4  11  26  48  79 114 144 202 276 320 381 466
#     4  10  18  30  56  92 133 179 248 286 352 447
#     4  10  19  31  57  90 135 185 250 284 357 465
#     4  11  21  41  70 103 150 201 243 320 402 464
#     4  11  26  51  82 114 155 209 263 328 396 474
#
# _framework density 26.297629000000001
#
# number of rings (size 3 to 8) (size 9 to 14) (size 15 to 20)
#    0.000    1.500    3.750    1.875    5.250    1.000 
#    0.000    2.500    2.750    0.000    0.000    0.000 
#    0.000    0.000    0.000    0.000    0.000    0.000 
#
# Total GULP energy -178739.593348 kJ/mol
# GULP energy per Si atom -5585.612292 kJ/mol
# Density = 2.623777 g / cm^3
# Si number density = 26.297629 Si / 1000 Ang^3
#
#
#
# Elastic Constant Matrix: (Units=GPa)
#
#
# Indices 1 2 3 4 5 6 
#
# 1 124.7655 39.4834 33.9398 0.0000 0.0000 0.0000
# 2 39.4834 88.8873 20.5765 0.0000 0.0000 0.0000
# 3 33.9398 20.5765 150.7941 0.0000 0.0000 0.0000
# 4 0.0000 0.0000 0.0000 27.9361 0.0000 0.0000
# 5 0.0000 0.0000 0.0000 0.0000 32.0220 0.0000
# 6 0.0000 0.0000 0.0000 0.0000 0.0000 37.2658
#
#
#
# Elastic Compliance Matrix: (Units=1/GPa)
#
#
# Indices 1 2 3 4 5 6 
#
# 1 0.009707 -0.003930 -0.001649 0.000000 0.000000 0.000000
# 2 -0.003930 0.013208 -0.000918 0.000000 0.000000 0.000000
# 3 -0.001649 -0.000918 0.007128 0.000000 0.000000 0.000000
# 4 0.000000 0.000000 0.000000 0.035796 0.000000 0.000000
# 5 0.000000 0.000000 0.000000 0.000000 0.031229 0.000000
# 6 0.000000 0.000000 0.000000 0.000000 0.000000 0.026834
#
#
# Mechanical properties :
#
#
# Convention : Reuss Voigt Hill
#
# Bulk Modulus (GPa) = 58.64970 61.38293 60.01632
# Shear Modulus (GPa) = 35.06827 37.47459 36.27143
#
# Velocity S-wave (km/s) = 3.65569 3.77904 3.71788
# Velocity P-wave (km/s) = 6.33794 6.51412 6.42663
#
# Compressibility (1/GPa) = 0.01705039
#
# Stress axis : x y z
#
# Youngs Moduli (GPa) = 103.01543 75.70887 140.29509
#
# Poissons Ratio (x) = 0.29756 0.23128
# Poissons Ratio (y) = 0.40488 0.12875
# Poissons Ratio (z) = 0.16983 0.06948
#
# Static dielectric constant tensor:
#      x y z
#    x 2.109920 0.000000 0.000000 
#    y 0.000000 2.187640 0.000000 
#    z 0.000000 0.000000 2.063730 
# 
# From -- ./inp_files/1677.got.cif
#   From: 2010.05.17/outbox.cif.g08.bks.cpg/sg18_1_cif.got.tgz:1677.got - 2010.06.03 22:40:56.
