data_PCOD9311412
_publ_section_title
;
Structure prediction by ZEFSAII (Michael W. Deem and Ramdas Pophale) SiO2 
 PCOD9311412
Probable space group: P 2 2 21
;
_chemical_formula_sum "Si O2"
_cell_formula_units_Z 20
_cell_length_a 8.365157
_cell_length_b 5.719837
_cell_length_c 16.885094
_cell_angle_alpha 90.000000
_cell_angle_beta 90.000000
_cell_angle_gamma 90.000000
_cell_volume 807.906741
_symmetry_space_group_name_H-M "P 2 2 21"
_symmetry_group_IT_number 17
_symmetry_cell_setting 'orthorhombic'
loop_
_space_group_symop_operation_xyz
x,y,z
-x,-y,1/2+z
x,-y,-z
-x,y,1/2-z
loop_
_atom_site_type_symbol
_atom_site_label
_atom_site_fract_x
_atom_site_fract_y
_atom_site_fract_z
Si Si1 0.487557 0.018198 0.843573
Si Si2 0.953548 0.500000 0.000000
Si Si3 0.000000 0.005803 0.750000
Si Si4 0.730882 0.363194 0.296357
Si Si5 0.783379 0.317973 0.853447
Si Si6 0.249142 0.321573 0.941653
O O1 0.500000 0.097072 0.750000
O O2 0.651490 0.123734 0.876680
O O3 0.354075 0.119318 0.903750
O O4 0.431334 0.752166 0.830423
O O5 0.842012 0.481123 0.924193
O O6 0.083450 0.287997 0.989703
O O7 0.070955 0.168956 0.682167
O O8 0.145360 0.844873 0.779208
O O9 0.722100 0.516545 0.217488
O O10 0.796258 0.527052 0.364879
O O11 0.343747 0.500000 0.000000
#
# Coordination Sequence:
#
# PCOD9311412 Si02
#       6
#     4   2   2   4   4   4
#     4  12  25  45  73 110 139 195 262 301 362 454
#     4  10  24  48  72 104 150 198 232 316 382 438
#     4  12  24  42  76 112 140 192 258 304 362 466
#     4  12  24  46  77 105 141 202 245 308 378 436
#     4  12  26  46  74 111 152 191 256 312 369 448
#     4  10  25  48  74 103 154 195 243 314 380 438
#
# _framework density 24.755334999999999
#
# number of rings (size 3 to 8) (size 9 to 14) (size 15 to 20)
#    0.600    0.000    4.000    4.200    4.200    0.800 
#    0.000    5.000    0.000    0.000    0.000    0.000 
#    0.000    0.000    0.000    0.000    0.000    0.000 
#
# Total GULP energy -111643.369782 kJ/mol
# GULP energy per Si atom -5582.168489 kJ/mol
# Density = 2.469899 g / cm^3
# Si number density = 24.755335 Si / 1000 Ang^3
#
#
#
# Elastic Constant Matrix: (Units=GPa)
#
#
# Indices 1 2 3 4 5 6 
#
# 1 100.0671 46.8520 23.8304 0.0000 0.0000 0.0000
# 2 46.8520 88.3147 13.7473 0.0000 0.0000 0.0000
# 3 23.8304 13.7473 69.7669 0.0000 0.0000 0.0000
# 4 0.0000 0.0000 0.0000 1.0157 0.0000 0.0000
# 5 0.0000 0.0000 0.0000 0.0000 41.4557 0.0000
# 6 0.0000 0.0000 0.0000 0.0000 0.0000 26.0302
#
#
#
# Elastic Compliance Matrix: (Units=1/GPa)
#
#
# Indices 1 2 3 4 5 6 
#
# 1 0.014051 -0.006920 -0.003436 0.000000 0.000000 0.000000
# 2 -0.006920 0.015089 -0.000610 0.000000 0.000000 0.000000
# 3 -0.003436 -0.000610 0.015627 0.000000 0.000000 0.000000
# 4 0.000000 0.000000 0.000000 0.984564 0.000000 0.000000
# 5 0.000000 0.000000 0.000000 0.000000 0.024122 0.000000
# 6 0.000000 0.000000 0.000000 0.000000 0.000000 0.038417
#
#
# Mechanical properties :
#
#
# Convention : Reuss Voigt Hill
#
# Bulk Modulus (GPa) = 43.78874 47.44534 45.61704
# Shear Modulus (GPa) = 4.45866 25.28159 14.87012
#
# Velocity S-wave (km/s) = 1.34350 3.19918 2.45354
# Velocity P-wave (km/s) = 4.48706 5.73181 5.14720
#
# Compressibility (1/GPa) = 0.02283692
#
# Stress axis : x y z
#
# Youngs Moduli (GPa) = 71.16759 66.27368 63.99085
#
# Poissons Ratio (x) = 0.45858 0.21988
# Poissons Ratio (y) = 0.49245 0.03901
# Poissons Ratio (z) = 0.24454 0.04041
#
# Static dielectric constant tensor:
#      x y z
#    x 2.053390 0.000000 0.000000 
#    y 0.000000 1.984270 0.000000 
#    z 0.000000 0.000000 2.033190 
# 
# From -- ./inp_files/9295.got.cif
#   From: 2010.05.17/outbox.cif.g08.bks.cpg/sg17_5_cif.got.tgz:9295.got - 2010.06.03 22:34:06.
