data_PCOD9311594
_publ_section_title
;
Structure prediction by ZEFSAII (Michael W. Deem and Ramdas Pophale) SiO2 
 PCOD9311594
Probable space group: P 2 2 21
;
_chemical_formula_sum "Si O2"
_cell_formula_units_Z 16
_cell_length_a 8.271194
_cell_length_b 5.285571
_cell_length_c 15.472007
_cell_angle_alpha 90.000000
_cell_angle_beta 90.000000
_cell_angle_gamma 90.000000
_cell_volume 676.404941
_symmetry_space_group_name_H-M "P 2 2 21"
_symmetry_group_IT_number 17
_symmetry_cell_setting 'orthorhombic'
loop_
_space_group_symop_operation_xyz
x,y,z
-x,-y,1/2+z
x,-y,-z
-x,y,1/2-z
loop_
_atom_site_type_symbol
_atom_site_label
_atom_site_fract_x
_atom_site_fract_y
_atom_site_fract_z
Si Si1 0.951545 0.000000 0.000000
Si Si2 0.164096 0.644996 0.091458
Si Si3 0.000000 0.344362 0.250000
Si Si4 0.525164 0.245353 0.852327
Si Si5 0.272091 0.249418 0.377468
O O1 0.836830 0.214814 0.038099
O O2 0.064768 0.900998 0.075976
O O3 0.351418 0.699657 0.106924
O O4 0.081697 0.505306 0.172343
O O5 0.150272 0.500000 0.000000
O O6 0.848176 0.207416 0.204304
O O7 0.500000 0.237923 0.750000
O O8 0.645072 0.478435 0.871732
O O9 0.598261 0.976276 0.879514
#
# Coordination Sequence:
#
# PCOD9311594 Si02
#       5
#     2   4   2   4   4
#     4  12  30  48  82 118 162 218 278 340 408 484
#     4  12  29  53  80 121 165 216 276 337 411 489
#     4  12  26  56  82 114 166 216 276 338 408 490
#     4  12  29  49  80 117 161 212 269 335 413 489
#     4  12  29  50  79 116 161 212 269 335 405 485
#
# _framework density 23.654472999999999
#
# number of rings (size 3 to 8) (size 9 to 14) (size 15 to 20)
#    0.000    0.000    5.000    2.250   10.500    1.000 
#    0.000    0.000    0.000    0.000    0.000    0.000 
#    0.000    0.000    0.000    0.000    0.000    0.000 
#
# Total GULP energy -89699.406453 kJ/mol
# GULP energy per Si atom -5606.212903 kJ/mol
# Density = 2.360063 g / cm^3
# Si number density = 23.654473 Si / 1000 Ang^3
#
#
#
# Elastic Constant Matrix: (Units=GPa)
#
#
# Indices 1 2 3 4 5 6 
#
# 1 130.8299 21.1769 48.4668 0.0000 0.0000 0.0000
# 2 21.1769 70.1819 14.2352 0.0000 0.0000 0.0000
# 3 48.4668 14.2352 112.1900 0.0000 0.0000 0.0000
# 4 0.0000 0.0000 0.0000 43.8634 0.0000 0.0000
# 5 0.0000 0.0000 0.0000 0.0000 59.4161 0.0000
# 6 0.0000 0.0000 0.0000 0.0000 0.0000 46.2513
#
#
#
# Elastic Compliance Matrix: (Units=1/GPa)
#
#
# Indices 1 2 3 4 5 6 
#
# 1 0.009382 -0.002062 -0.003791 0.000000 0.000000 0.000000
# 2 -0.002062 0.015078 -0.001022 0.000000 0.000000 0.000000
# 3 -0.003791 -0.001022 0.010681 0.000000 0.000000 0.000000
# 4 0.000000 0.000000 0.000000 0.022798 0.000000 0.000000
# 5 0.000000 0.000000 0.000000 0.000000 0.016830 0.000000
# 6 0.000000 0.000000 0.000000 0.000000 0.000000 0.021621
#
#
# Mechanical properties :
#
#
# Convention : Reuss Voigt Hill
#
# Bulk Modulus (GPa) = 46.75146 53.43995 50.09570
# Shear Modulus (GPa) = 42.63592 45.19433 43.91513
#
# Velocity S-wave (km/s) = 4.25013 4.37579 4.31342
# Velocity P-wave (km/s) = 6.62511 6.94053 6.78465
#
# Compressibility (1/GPa) = 0.02138971
#
# Stress axis : x y z
#
# Youngs Moduli (GPa) = 106.58927 66.32072 93.62342
#
# Poissons Ratio (x) = 0.13675 0.35496
# Poissons Ratio (y) = 0.21977 0.09573
# Poissons Ratio (z) = 0.40412 0.06781
#
# Static dielectric constant tensor:
#      x y z
#    x 1.874520 0.000000 0.000000 
#    y 0.000000 1.912370 0.000000 
#    z 0.000000 0.000000 1.902050 
# 
# From -- ./inp_files/7883.got.cif
#   From: 2010.05.17/outbox.cif.g08.bks.cpg/sg17_4_cif.got.tgz:7883.got - 2010.06.03 22:34:06.
