data_PCOD9311898
_publ_section_title
;
Structure prediction by ZEFSAII (Michael W. Deem and Ramdas Pophale) SiO2 
 PCOD9311898
Probable space group: P 21 21 2
;
_chemical_formula_sum "Si O2"
_cell_formula_units_Z 22
_cell_length_a 12.797495
_cell_length_b 8.539540
_cell_length_c 7.531147
_cell_angle_alpha 90.000000
_cell_angle_beta 90.000000
_cell_angle_gamma 90.000000
_cell_volume 823.039295
_symmetry_space_group_name_H-M "P 21 21 2"
_symmetry_group_IT_number 18
_symmetry_cell_setting 'orthorhombic'
loop_
_space_group_symop_operation_xyz
x,y,z
-x,-y,z
1/2+x,1/2-y,-z
1/2-x,1/2+y,-z
loop_
_atom_site_type_symbol
_atom_site_label
_atom_site_fract_x
_atom_site_fract_y
_atom_site_fract_z
Si Si1 0.885051 0.302985 0.603187
Si Si2 0.726017 0.099187 0.443808
Si Si3 0.845753 0.846734 0.852431
Si Si4 0.376416 0.454764 0.840287
Si Si5 0.037452 0.662118 0.000711
Si Si6 0.500000 0.500000 0.410733
O O1 0.776653 0.206017 0.593614
O O2 0.859153 0.468857 0.508355
O O3 0.916580 0.351641 0.801459
O O4 0.971617 0.179985 0.525088
O O5 0.695068 0.217576 0.285343
O O6 0.823927 0.011289 0.347786
O O7 0.904728 0.967768 0.724037
O O8 0.930619 0.753813 0.967067
O O9 0.804984 0.961580 0.008636
O O10 0.500000 0.500000 0.834003
O O11 0.384703 0.270381 0.888350
O O12 0.000000 0.500000 0.080535
#
# Coordination Sequence:
#
# PCOD9311898 Si02
#       6
#     4   4   4   4   4   2
#     4  11  24  41  64 102 138 183 233 278 354 421
#     4  12  26  40  67 103 139 176 235 295 340 412
#     4  10  19  37  66  92 125 175 220 273 342 410
#     4  10  23  43  65  99 137 177 224 292 349 404
#     4  10  19  42  68  92 127 183 231 271 348 425
#     4  10  20  42  70  86 136 184 216 278 344 428
#
# _framework density 26.730194000000001
#
# number of rings (size 3 to 8) (size 9 to 14) (size 15 to 20)
#    0.000    1.455    6.364    1.091    3.818    0.000 
#    0.000    6.364    0.000    0.000    0.000    0.000 
#    0.000    0.000    0.000    0.000    0.000    0.000 
#
# Total GULP energy -122630.207830 kJ/mol
# GULP energy per Si atom -5574.100356 kJ/mol
# Density = 2.666935 g / cm^3
# Si number density = 26.730194 Si / 1000 Ang^3
#
#
#
# Elastic Constant Matrix: (Units=GPa)
#
#
# Indices 1 2 3 4 5 6 
#
# 1 37.0793 37.8289 4.2380 0.0000 0.0000 0.0000
# 2 37.8289 163.8063 28.0708 0.0000 0.0000 0.0000
# 3 4.2380 28.0708 42.1349 0.0000 0.0000 0.0000
# 4 0.0000 0.0000 0.0000 27.9249 0.0000 0.0000
# 5 0.0000 0.0000 0.0000 0.0000 36.2194 0.0000
# 6 0.0000 0.0000 0.0000 0.0000 0.0000 54.9678
#
#
#
# Elastic Compliance Matrix: (Units=1/GPa)
#
#
# Indices 1 2 3 4 5 6 
#
# 1 0.035451 -0.008552 0.002132 0.000000 0.000000 0.000000
# 2 -0.008552 0.008955 -0.005106 0.000000 0.000000 0.000000
# 3 0.002132 -0.005106 0.026920 0.000000 0.000000 0.000000
# 4 0.000000 0.000000 0.000000 0.035810 0.000000 0.000000
# 5 0.000000 0.000000 0.000000 0.000000 0.027609 0.000000
# 6 0.000000 0.000000 0.000000 0.000000 0.000000 0.018192
#
#
# Mechanical properties :
#
#
# Convention : Reuss Voigt Hill
#
# Bulk Modulus (GPa) = 20.71513 42.58843 31.65178
# Shear Modulus (GPa) = 26.03070 35.34793 30.68932
#
# Velocity S-wave (km/s) = 3.12401 3.64042 3.39206
# Velocity P-wave (km/s) = 4.55841 5.79979 5.21616
#
# Compressibility (1/GPa) = 0.04827389
#
# Stress axis : x y z
#
# Youngs Moduli (GPa) = 28.20827 111.67322 37.14676
#
# Poissons Ratio (x) = 0.95505 -0.07919
# Poissons Ratio (y) = 0.24124 0.18965
# Poissons Ratio (z) = -0.06014 0.57015
#
# Static dielectric constant tensor:
#      x y z
#    x 2.523180 0.000000 0.000000 
#    y 0.000000 2.371280 0.000000 
#    z 0.000000 0.000000 2.025000 
# 
# From -- ./inp_files/4135.got.cif
#   From: 2010.05.17/outbox.cif.g08.bks.cpg/sg18_3_cif.got.tgz:4135.got - 2010.06.03 22:40:56.
