data_PCOD9311869
_publ_section_title
;
Structure prediction by ZEFSAII (Michael W. Deem and Ramdas Pophale) SiO2 
 PCOD9311869
Probable space group: P 21 21 2
;
_chemical_formula_sum "Si O2"
_cell_formula_units_Z 32
_cell_length_a 16.511841
_cell_length_b 5.297032
_cell_length_c 17.015644
_cell_angle_alpha 90.000000
_cell_angle_beta 90.000000
_cell_angle_gamma 90.000000
_cell_volume 1488.252036
_symmetry_space_group_name_H-M "P 21 21 2"
_symmetry_group_IT_number 18
_symmetry_cell_setting 'orthorhombic'
loop_
_space_group_symop_operation_xyz
x,y,z
-x,-y,z
1/2+x,1/2-y,-z
1/2-x,1/2+y,-z
loop_
_atom_site_type_symbol
_atom_site_label
_atom_site_fract_x
_atom_site_fract_y
_atom_site_fract_z
Si Si1 0.446599 0.750978 0.801963
Si Si2 0.833655 0.223704 0.936780
Si Si3 0.690995 0.259914 0.331004
Si Si4 0.200992 0.241075 0.319956
Si Si5 0.200376 0.316577 0.494693
Si Si6 0.978351 0.749151 0.646020
Si Si7 0.047192 0.749374 0.809057
Si Si8 0.642866 0.223520 0.966816
O O1 0.500000 0.500000 0.790500
O O2 0.369052 0.745832 0.744336
O O3 0.414364 0.760326 0.891469
O O4 0.500000 0.000000 0.786648
O O5 0.866077 0.462876 0.985965
O O6 0.864394 0.967188 0.977486
O O7 0.736609 0.226408 0.938405
O O8 0.865757 0.244919 0.848804
O O9 0.740677 0.513167 0.314839
O O10 0.601260 0.251884 0.297545
O O11 0.746647 0.017164 0.315727
O O12 0.659244 0.248024 0.422654
O O13 0.164761 0.261598 0.409099
O O14 0.274194 0.110767 0.499523
O O15 0.047354 0.746560 0.714804
O O16 0.000000 0.500000 0.598852
O O17 0.000000 0.000000 0.600001
O O18 0.000000 0.500000 0.836495
O O19 0.000000 0.000000 0.835193
#
# Coordination Sequence:
#
# PCOD9311869 Si02
#       8
#     4   4   4   4   4   4   4   4
#     4  12  26  42  59  85 120 155 195 248 307 357
#     4  10  21  40  60  84 107 139 190 237 278 344
#     4  10  19  36  62  87 117 153 194 236 279 343
#     4  10  21  39  62  84 110 153 200 241 284 335
#     4   8  16  32  57  86 110 143 194 241 279 328
#     4  10  21  35  50  83 125 154 180 220 278 344
#     4  10  21  34  53  80 112 144 173 213 268 331
#     4  10  23  40  61  81 107 143 190 240 287 336
#
# _framework density 21.501732000000001
#
# number of rings (size 3 to 8) (size 9 to 14) (size 15 to 20)
#    0.000    2.000    0.000    3.000    0.000    7.000 
#    0.000    3.750    0.000    0.000    0.000    0.000 
#    0.000    0.000    0.000    0.000    0.000    0.000 
#
# Total GULP energy -178493.835427 kJ/mol
# GULP energy per Si atom -5577.932357 kJ/mol
# Density = 2.145279 g / cm^3
# Si number density = 21.501732 Si / 1000 Ang^3
#
#
#
# Elastic Constant Matrix: (Units=GPa)
#
#
# Indices 1 2 3 4 5 6 
#
# 1 50.3559 44.1657 3.2319 0.0000 0.0000 0.0000
# 2 44.1657 168.8737 -9.5290 0.0000 0.0000 0.0000
# 3 3.2319 -9.5290 33.3268 0.0000 0.0000 0.0000
# 4 0.0000 0.0000 0.0000 9.6508 0.0000 0.0000
# 5 0.0000 0.0000 0.0000 0.0000 -11.1684 0.0000
# 6 0.0000 0.0000 0.0000 0.0000 0.0000 28.4122
#
#
#
# Elastic Compliance Matrix: (Units=1/GPa)
#
#
# Indices 1 2 3 4 5 6 
#
# 1 0.026451 -0.007178 -0.004618 0.000000 0.000000 0.000000
# 2 -0.007178 0.007967 0.002974 0.000000 0.000000 0.000000
# 3 -0.004618 0.002974 0.031304 0.000000 0.000000 0.000000
# 4 0.000000 0.000000 0.000000 0.103618 0.000000 0.000000
# 5 0.000000 0.000000 0.000000 0.000000 -0.089539 0.000000
# 6 0.000000 0.000000 0.000000 0.000000 0.000000 0.035196
#
#
# Mechanical properties :
#
#
# Convention : Reuss Voigt Hill
#
# Bulk Modulus (GPa) = 20.79957 36.47709 28.63833
# Shear Modulus (GPa) = 33.63228 19.69146 26.66187
#
# Velocity S-wave (km/s) = 3.95924 3.02952 3.52517
# Velocity P-wave (km/s) = 5.53130 5.40729 5.46965
#
# Compressibility (1/GPa) = 0.04807792
#
# Stress axis : x y z
#
# Youngs Moduli (GPa) = 37.80598 125.52186 31.94481
#
# Poissons Ratio (x) = 0.90103 0.14751
# Poissons Ratio (y) = 0.27138 -0.09500
# Poissons Ratio (z) = 0.17457 -0.37330
#
# Static dielectric constant tensor:
#      x y z
#    x 2.300680 0.000000 0.000000 
#    y 0.000000 1.595360 0.000000 
#    z 0.000000 0.000000 2.020070 
# 
# From -- ./inp_files/7419.got.cif
#   From: 2010.05.17/outbox.cif.g08.bks.cpg/sg18_4_cif.got.tgz:7419.got - 2010.06.03 22:40:56.
