data_PCOD9311308
_publ_section_title
;
Structure prediction by ZEFSAII (Michael W. Deem and Ramdas Pophale) SiO2 
 PCOD9311308
Probable space group: P 2 2 21
;
_chemical_formula_sum "Si O2"
_cell_formula_units_Z 26
_cell_length_a 10.695833
_cell_length_b 10.036989
_cell_length_c 11.456113
_cell_angle_alpha 90.000000
_cell_angle_beta 90.000000
_cell_angle_gamma 90.000000
_cell_volume 1229.859076
_symmetry_space_group_name_H-M "P 2 2 21"
_symmetry_group_IT_number 17
_symmetry_cell_setting 'orthorhombic'
loop_
_space_group_symop_operation_xyz
x,y,z
-x,-y,1/2+z
x,-y,-z
-x,y,1/2-z
loop_
_atom_site_type_symbol
_atom_site_label
_atom_site_fract_x
_atom_site_fract_y
_atom_site_fract_z
Si Si1 0.705148 0.133661 0.426299
Si Si2 0.628311 0.272055 0.812464
Si Si3 0.908812 0.500000 0.000000
Si Si4 0.268674 0.467809 0.282924
Si Si5 0.920963 0.705390 0.632696
Si Si6 0.360199 0.977240 0.692388
Si Si7 0.439526 0.726681 0.568570
O O1 0.840915 0.194545 0.448193
O O2 0.720000 0.090520 0.292241
O O3 0.587320 0.236051 0.432288
O O4 0.675516 0.000000 0.500000
O O5 0.500000 0.240370 0.750000
O O6 0.683841 0.390975 0.736352
O O7 0.688414 0.126309 0.825934
O O8 0.598142 0.324419 0.941719
O O9 0.820360 0.516757 0.111599
O O10 0.992234 0.377316 0.044350
O O11 0.184975 0.389308 0.190866
O O12 0.379213 0.373302 0.335776
O O13 0.000000 0.750043 0.750000
O O14 0.500000 0.976823 0.750000
O O15 0.374359 0.871326 0.589060
#
# Coordination Sequence:
#
# PCOD9311308 Si02
#       7
#     4   4   2   4   4   4   4
#     4  11  22  39  66  95 132 171 220 277 335 416
#     4  11  22  33  56  97 135 160 209 267 325 409
#     4  10  22  46  64  88 124 174 230 284 320 390
#     4  11  22  41  66  94 129 170 221 277 340 410
#     4  10  24  43  67  88 125 181 234 273 338 389
#     4   9  19  35  56  87 130 166 197 252 335 394
#     4  11  20  38  63  93 132 173 206 261 355 414
#
# _framework density 21.140635
#
# number of rings (size 3 to 8) (size 9 to 14) (size 15 to 20)
#    0.000    1.538    3.077    3.231    2.154    2.462 
#    0.000    1.538    0.000    0.000    0.000    0.000 
#    0.000    0.000    0.000    0.000    0.000    0.000 
#
# Total GULP energy -144775.444055 kJ/mol
# GULP energy per Si atom -5568.286310 kJ/mol
# Density = 2.109252 g / cm^3
# Si number density = 21.140635 Si / 1000 Ang^3
#
#
#
# Elastic Constant Matrix: (Units=GPa)
#
#
# Indices 1 2 3 4 5 6 
#
# 1 84.9809 37.5775 2.9978 0.0000 0.0000 0.0000
# 2 37.5775 90.2558 -4.5950 0.0000 0.0000 0.0000
# 3 2.9978 -4.5950 36.3374 0.0000 0.0000 0.0000
# 4 0.0000 0.0000 0.0000 20.3443 0.0000 0.0000
# 5 0.0000 0.0000 0.0000 0.0000 6.3517 0.0000
# 6 0.0000 0.0000 0.0000 0.0000 0.0000 37.8245
#
#
#
# Elastic Compliance Matrix: (Units=1/GPa)
#
#
# Indices 1 2 3 4 5 6 
#
# 1 0.014563 -0.006164 -0.001981 0.000000 0.000000 0.000000
# 2 -0.006164 0.013760 0.002249 0.000000 0.000000 0.000000
# 3 -0.001981 0.002249 0.027968 0.000000 0.000000 0.000000
# 4 0.000000 0.000000 0.000000 0.049154 0.000000 0.000000
# 5 0.000000 0.000000 0.000000 0.000000 0.157438 0.000000
# 6 0.000000 0.000000 0.000000 0.000000 0.000000 0.026438
#
#
# Mechanical properties :
#
#
# Convention : Reuss Voigt Hill
#
# Bulk Modulus (GPa) = 22.47277 31.50385 26.98831
# Shear Modulus (GPa) = 15.82547 24.61036 20.21791
#
# Velocity S-wave (km/s) = 2.73899 3.41563 3.09585
# Velocity P-wave (km/s) = 4.54488 5.52175 5.05696
#
# Compressibility (1/GPa) = 0.04449830
#
# Stress axis : x y z
#
# Youngs Moduli (GPa) = 68.66776 72.67203 35.75565
#
# Poissons Ratio (x) = 0.44795 0.07083
# Poissons Ratio (y) = 0.42327 -0.08040
# Poissons Ratio (z) = 0.13602 -0.16341
#
# Static dielectric constant tensor:
#      x y z
#    x 1.966620 0.000000 0.000000 
#    y 0.000000 1.857100 0.000000 
#    z 0.000000 0.000000 1.786000 
# 
# From -- ./inp_files/8471.got.cif
#   From: 2010.05.17/outbox.cif.g08.bks.cpg/sg17_5_cif.got.tgz:8471.got - 2010.06.03 22:34:06.
