data_PCOD9311771
_publ_section_title
;
Structure prediction by ZEFSAII (Michael W. Deem and Ramdas Pophale) SiO2 
 PCOD9311771
Probable space group: P 21 21 2
;
_chemical_formula_sum "Si O2"
_cell_formula_units_Z 24
_cell_length_a 13.276525
_cell_length_b 4.973758
_cell_length_c 18.136260
_cell_angle_alpha 90.000000
_cell_angle_beta 90.000000
_cell_angle_gamma 90.000000
_cell_volume 1197.613827
_symmetry_space_group_name_H-M "P 21 21 2"
_symmetry_group_IT_number 18
_symmetry_cell_setting 'orthorhombic'
loop_
_space_group_symop_operation_xyz
x,y,z
-x,-y,z
1/2+x,1/2-y,-z
1/2-x,1/2+y,-z
loop_
_atom_site_type_symbol
_atom_site_label
_atom_site_fract_x
_atom_site_fract_y
_atom_site_fract_z
Si Si1 0.811400 0.956649 0.983102
Si Si2 0.311401 0.456657 0.483102
Si Si3 0.743873 0.927985 0.669772
Si Si4 0.743873 0.072011 0.830228
Si Si5 0.610323 0.425870 0.634761
Si Si6 0.389677 0.425875 0.865239
O O1 0.821948 0.022706 0.897101
O O2 0.715382 0.144357 0.005948
O O3 0.888984 0.041411 0.045788
O O4 0.215382 0.644364 0.505947
O O5 0.321948 0.522710 0.397100
O O6 0.388984 0.541421 0.545788
O O7 0.784527 0.999996 0.750000
O O8 0.650613 0.132660 0.654961
O O9 0.694576 0.634321 0.664020
O O10 0.694577 0.365675 0.835979
O O11 0.650614 0.867336 0.845040
O O12 0.500000 0.500000 0.662577
O O13 0.500000 0.500000 0.837423
#
# Coordination Sequence:
#
# PCOD9311771 Si02
#       6
#     4   4   4   4   4   4
#     4   8  16  30  44  59  82 115 148 170 200 252
#     4   8  16  30  44  59  82 115 148 170 200 252
#     4  10  19  30  45  65  89 115 142 175 214 255
#     4  10  19  30  45  65  89 115 142 175 214 255
#     4  10  19  30  45  65  89 115 142 175 214 255
#     4  10  19  30  45  65  89 115 142 175 214 255
#
# _framework density 20.039849
#
# number of rings (size 3 to 8) (size 9 to 14) (size 15 to 20)
#    0.000    2.667    0.000    2.000    0.000    4.000 
#    0.000    0.000    0.000    1.000    0.000    0.000 
#    0.000   32.000    0.000    0.000    0.000    5.333 
#
# Total GULP energy -133707.857319 kJ/mol
# GULP energy per Si atom -5571.160722 kJ/mol
# Density = 1.999424 g / cm^3
# Si number density = 20.039849 Si / 1000 Ang^3
#
#
#
# Elastic Constant Matrix: (Units=GPa)
#
#
# Indices 1 2 3 4 5 6 
#
# 1 6.5194 -4.8232 2.2949 0.0000 0.0000 0.0000
# 2 -4.8232 73.6762 -9.2352 0.0000 0.0000 0.0000
# 3 2.2949 -9.2352 177.1529 0.0000 0.0000 0.0000
# 4 0.0000 0.0000 0.0000 24.6743 0.0000 0.0000
# 5 0.0000 0.0000 0.0000 0.0000 1.9030 0.0000
# 6 0.0000 0.0000 0.0000 0.0000 0.0000 7.5868
#
#
#
# Elastic Compliance Matrix: (Units=1/GPa)
#
#
# Indices 1 2 3 4 5 6 
#
# 1 0.161619 0.010386 -0.001552 0.000000 0.000000 0.000000
# 2 0.010386 0.014330 0.000612 0.000000 0.000000 0.000000
# 3 -0.001552 0.000612 0.005697 0.000000 0.000000 0.000000
# 4 0.000000 0.000000 0.000000 0.040528 0.000000 0.000000
# 5 0.000000 0.000000 0.000000 0.000000 0.525499 0.000000
# 6 0.000000 0.000000 0.000000 0.000000 0.000000 0.131808
#
#
# Mechanical properties :
#
#
# Convention : Reuss Voigt Hill
#
# Bulk Modulus (GPa) = 4.98661 25.98016 15.48338
# Shear Modulus (GPa) = 5.39122 24.77361 15.08242
#
# Velocity S-wave (km/s) = 1.64198 3.51980 2.74637
# Velocity P-wave (km/s) = 2.46750 5.43241 4.21898
#
# Compressibility (1/GPa) = 0.20053712
#
# Stress axis : x y z
#
# Youngs Moduli (GPa) = 6.18741 69.78571 175.53474
#
# Poissons Ratio (x) = -0.72478 0.27247
# Poissons Ratio (y) = -0.06426 -0.10751
# Poissons Ratio (z) = 0.00960 -0.04274
#
# Static dielectric constant tensor:
#      x y z
#    x 1.649210 0.000000 0.000000 
#    y 0.000000 1.685060 0.000000 
#    z 0.000000 0.000000 1.811520 
# 
# From -- ./inp_files/1105.got.cif
#   From: 2010.05.17/outbox.cif.g08.bks.cpg/sg18_1_cif.got.tgz:1105.got - 2010.06.03 22:40:56.
