data_PCOD9311223
_publ_section_title
;
Structure prediction by ZEFSAII (Michael W. Deem and Ramdas Pophale) SiO2 
 PCOD9311223
Probable space group: P 2 2 21
;
_chemical_formula_sum "Si O2"
_cell_formula_units_Z 24
_cell_length_a 17.334676
_cell_length_b 5.926842
_cell_length_c 11.317618
_cell_angle_alpha 90.000000
_cell_angle_beta 90.000000
_cell_angle_gamma 90.000000
_cell_volume 1162.770781
_symmetry_space_group_name_H-M "P 2 2 21"
_symmetry_group_IT_number 17
_symmetry_cell_setting 'orthorhombic'
loop_
_space_group_symop_operation_xyz
x,y,z
-x,-y,1/2+z
x,-y,-z
-x,y,1/2-z
loop_
_atom_site_type_symbol
_atom_site_label
_atom_site_fract_x
_atom_site_fract_y
_atom_site_fract_z
Si Si1 0.958081 0.500000 0.000000
Si Si2 0.877324 0.000000 0.000000
Si Si3 0.587796 0.762953 0.715245
Si Si4 0.294342 0.138848 0.833642
Si Si5 0.833100 0.851310 0.761151
Si Si6 0.286204 0.488534 0.359034
Si Si7 0.351584 0.500000 0.000000
Si Si8 0.000000 0.652083 0.750000
O O1 0.918714 0.247743 0.000988
O O2 0.997255 0.492025 0.129280
O O3 0.830077 0.001320 0.119901
O O4 0.500000 0.795185 0.750000
O O5 0.641446 0.669610 0.821825
O O6 0.597078 0.587717 0.607768
O O7 0.629756 0.985655 0.668085
O O8 0.298047 0.281386 0.712233
O O9 0.218648 0.982476 0.832742
O O10 0.298693 0.306802 0.943383
O O11 0.789167 0.622716 0.798126
O O12 0.922357 0.801330 0.736510
O O13 0.277364 0.500000 0.500000
#
# Coordination Sequence:
#
# PCOD9311223 Si02
#       8
#     2   2   4   4   4   4   2   2
#     4  10  24  44  67 101 140 186 236 310 368 431
#     4  10  22  40  74  94 138 182 234 302 364 414
#     4  10  23  42  66  98 133 175 222 277 343 414
#     4  10  22  42  67  96 134 180 225 279 354 418
#     4  10  22  40  68  98 133 183 231 294 348 421
#     4  10  22  40  67 102 130 175 227 280 341 417
#     4  10  22  44  67  91 138 180 220 282 346 421
#     4  10  24  44  70 104 140 186 242 298 362 422
#
# _framework density 20.640353999999999
#
# number of rings (size 3 to 8) (size 9 to 14) (size 15 to 20)
#    0.000    2.000    0.000    1.500   10.500    7.333 
#    3.000    9.167   22.000    0.000    0.000    0.000 
#    0.000    0.000    0.000    0.000    0.000    0.000 
#
# Total GULP energy -133811.551045 kJ/mol
# GULP energy per Si atom -5575.481294 kJ/mol
# Density = 2.059338 g / cm^3
# Si number density = 20.640354 Si / 1000 Ang^3
#
#
#
# Elastic Constant Matrix: (Units=GPa)
#
#
# Indices 1 2 3 4 5 6 
#
# 1 152.9656 47.2832 40.4076 0.0000 0.0000 0.0000
# 2 47.2832 97.2492 38.7787 0.0000 0.0000 0.0000
# 3 40.4076 38.7787 104.7197 0.0000 0.0000 0.0000
# 4 0.0000 0.0000 0.0000 44.2053 0.0000 0.0000
# 5 0.0000 0.0000 0.0000 0.0000 14.6549 0.0000
# 6 0.0000 0.0000 0.0000 0.0000 0.0000 9.0706
#
#
#
# Elastic Compliance Matrix: (Units=1/GPa)
#
#
# Indices 1 2 3 4 5 6 
#
# 1 0.008015 -0.003125 -0.001935 0.000000 0.000000 0.000000
# 2 -0.003125 0.013283 -0.003713 0.000000 0.000000 0.000000
# 3 -0.001935 -0.003713 0.011671 0.000000 0.000000 0.000000
# 4 0.000000 0.000000 0.000000 0.022622 0.000000 0.000000
# 5 0.000000 0.000000 0.000000 0.000000 0.068237 0.000000
# 6 0.000000 0.000000 0.000000 0.000000 0.000000 0.110246
#
#
# Mechanical properties :
#
#
# Convention : Reuss Voigt Hill
#
# Bulk Modulus (GPa) = 64.84289 67.54150 66.19219
# Shear Modulus (GPa) = 19.47341 28.81716 24.14529
#
# Velocity S-wave (km/s) = 3.07492 3.74057 3.42396
# Velocity P-wave (km/s) = 6.64008 7.17286 6.91160
#
# Compressibility (1/GPa) = 0.01542189
#
# Stress axis : x y z
#
# Youngs Moduli (GPa) = 124.77157 75.28515 85.68250
#
# Poissons Ratio (x) = 0.23527 0.16582
# Poissons Ratio (y) = 0.38992 0.31813
# Poissons Ratio (z) = 0.24147 0.27953
#
# Static dielectric constant tensor:
#      x y z
#    x 1.736320 0.000000 0.000000 
#    y 0.000000 1.798980 0.000000 
#    z 0.000000 0.000000 1.728730 
# 
# From -- ./inp_files/7368.got.cif
#   From: 2010.05.17/outbox.cif.g08.bks.cpg/sg17_4_cif.got.tgz:7368.got - 2010.06.03 22:34:06.
