data_PCOD9311789
_publ_section_title
;
Structure prediction by ZEFSAII (Michael W. Deem and Ramdas Pophale) SiO2 
 PCOD9311789
Probable space group: P 21 21 2
;
_chemical_formula_sum "Si O2"
_cell_formula_units_Z 32
_cell_length_a 7.964017
_cell_length_b 21.533902
_cell_length_c 9.618917
_cell_angle_alpha 90.000000
_cell_angle_beta 90.000000
_cell_angle_gamma 90.000000
_cell_volume 1649.609268
_symmetry_space_group_name_H-M "P 21 21 2"
_symmetry_group_IT_number 18
_symmetry_cell_setting 'orthorhombic'
loop_
_space_group_symop_operation_xyz
x,y,z
-x,-y,z
1/2+x,1/2-y,-z
1/2-x,1/2+y,-z
loop_
_atom_site_type_symbol
_atom_site_label
_atom_site_fract_x
_atom_site_fract_y
_atom_site_fract_z
Si Si1 0.060532 0.066991 0.857351
Si Si2 0.497634 0.706724 0.090080
Si Si3 0.031844 0.349135 0.436595
Si Si4 0.025562 0.172830 0.405163
Si Si5 0.664169 0.240885 0.360383
Si Si6 0.868269 0.741932 0.189432
Si Si7 0.370421 0.429598 0.437024
Si Si8 0.169404 0.540040 0.349253
O O1 0.038429 0.133041 0.933120
O O2 0.247492 0.055453 0.799032
O O3 0.955765 0.076940 0.713868
O O4 0.000000 0.000000 0.918274
O O5 0.373091 0.734895 0.207092
O O6 0.684644 0.717230 0.149329
O O7 0.471847 0.745547 0.949799
O O8 0.034282 0.310038 0.578245
O O9 0.050493 0.305790 0.300322
O O10 0.202024 0.388822 0.435527
O O11 0.881476 0.396634 0.422117
O O12 0.122511 0.202456 0.536231
O O13 0.132359 0.192490 0.271707
O O14 0.845618 0.209144 0.383748
O O15 0.979592 0.102447 0.442858
O O16 0.302326 0.499762 0.438367
O O17 0.000000 0.500000 0.331643
#
# Coordination Sequence:
#
# PCOD9311789 Si02
#       8
#     4   4   4   4   4   4   4   4
#     4  10  20  34  56  78 110 149 191 239 288 338
#     4  12  23  39  55  85 119 155 205 242 300 359
#     4   9  18  34  54  85 115 145 188 239 296 345
#     4  10  19  34  55  84 114 151 188 236 301 343
#     4  10  19  31  55  80 114 148 184 236 291 351
#     4  11  24  35  55  82 119 155 189 247 303 358
#     4   9  16  34  54  83 112 145 189 242 282 347
#     4   9  19  31  55  88 115 144 193 243 290 341
#
# _framework density 19.398531999999999
#
# number of rings (size 3 to 8) (size 9 to 14) (size 15 to 20)
#    0.000    2.000    2.500    2.250    5.250    1.000 
#    0.000    0.000    0.000    3.750    0.000    4.375 
#    0.000    0.000    0.000    0.000    0.000    0.000 
#
# Total GULP energy -178351.293502 kJ/mol
# GULP energy per Si atom -5573.477922 kJ/mol
# Density = 1.935438 g / cm^3
# Si number density = 19.398532 Si / 1000 Ang^3
#
#
#
# Elastic Constant Matrix: (Units=GPa)
#
#
# Indices 1 2 3 4 5 6 
#
# 1 60.5610 37.2111 -0.5289 0.0000 0.0000 0.0000
# 2 37.2111 110.4715 23.4111 0.0000 0.0000 0.0000
# 3 -0.5289 23.4111 63.4822 0.0000 0.0000 0.0000
# 4 0.0000 0.0000 0.0000 20.4758 0.0000 0.0000
# 5 0.0000 0.0000 0.0000 0.0000 12.3819 0.0000
# 6 0.0000 0.0000 0.0000 0.0000 0.0000 40.9396
#
#
#
# Elastic Compliance Matrix: (Units=1/GPa)
#
#
# Indices 1 2 3 4 5 6 
#
# 1 0.021360 -0.007846 0.003071 0.000000 0.000000 0.000000
# 2 -0.007846 0.012701 -0.004749 0.000000 0.000000 0.000000
# 3 0.003071 -0.004749 0.017530 0.000000 0.000000 0.000000
# 4 0.000000 0.000000 0.000000 0.048838 0.000000 0.000000
# 5 0.000000 0.000000 0.000000 0.000000 0.080763 0.000000
# 6 0.000000 0.000000 0.000000 0.000000 0.000000 0.024426
#
#
# Mechanical properties :
#
#
# Convention : Reuss Voigt Hill
#
# Bulk Modulus (GPa) = 30.72849 39.41128 35.06988
# Shear Modulus (GPa) = 21.23025 26.38757 23.80891
#
# Velocity S-wave (km/s) = 3.31180 3.69221 3.50716
# Velocity P-wave (km/s) = 5.52259 6.20784 5.87521
#
# Compressibility (1/GPa) = 0.03254309
#
# Stress axis : x y z
#
# Youngs Moduli (GPa) = 46.81695 78.73196 57.04662
#
# Poissons Ratio (x) = 0.61771 -0.17521
# Poissons Ratio (y) = 0.36731 0.27094
# Poissons Ratio (z) = -0.14379 0.37393
#
# Static dielectric constant tensor:
#      x y z
#    x 1.749290 0.000000 0.000000 
#    y 0.000000 1.740680 0.000000 
#    z 0.000000 0.000000 1.636430 
# 
# From -- ./inp_files/3530.got.cif
#   From: 2010.05.17/outbox.cif.g08.bks.cpg/sg18_2_cif.got.tgz:3530.got - 2010.06.03 22:40:56.
