data_PCOD9311964
_publ_section_title
;
Structure prediction by ZEFSAII (Michael W. Deem and Ramdas Pophale) SiO2 
 PCOD9311964
Probable space group: P 21 21 2
;
_chemical_formula_sum "Si O2"
_cell_formula_units_Z 32
_cell_length_a 17.516085
_cell_length_b 9.160095
_cell_length_c 11.816599
_cell_angle_alpha 90.000000
_cell_angle_beta 90.000000
_cell_angle_gamma 90.000000
_cell_volume 1895.961524
_symmetry_space_group_name_H-M "P 21 21 2"
_symmetry_group_IT_number 18
_symmetry_cell_setting 'orthorhombic'
loop_
_space_group_symop_operation_xyz
x,y,z
-x,-y,z
1/2+x,1/2-y,-z
1/2-x,1/2+y,-z
loop_
_atom_site_type_symbol
_atom_site_label
_atom_site_fract_x
_atom_site_fract_y
_atom_site_fract_z
Si Si1 0.586777 0.827919 0.265376
Si Si2 0.307950 0.833911 0.844887
Si Si3 0.728700 0.675882 0.382344
Si Si4 0.307951 0.166090 0.844887
Si Si5 0.086778 0.327922 0.734624
Si Si6 0.136559 0.165722 0.950855
Si Si7 0.363442 0.334280 0.049145
Si Si8 0.728701 0.324116 0.382344
O O1 0.648218 0.738813 0.337996
O O2 0.499999 0.808001 0.305389
O O3 0.593149 0.768673 0.137110
O O4 0.605397 0.999999 0.267868
O O5 0.290596 0.788550 0.716222
O O6 0.223610 0.837269 0.902551
O O7 0.337270 0.000000 0.846985
O O8 0.358364 0.730044 0.923243
O O9 0.725199 0.499999 0.390416
O O10 0.749999 0.749999 0.500000
O O11 0.223610 0.162733 0.902551
O O12 0.290597 0.211451 0.716222
O O13 0.358365 0.269957 0.923244
O O14 0.093150 0.268676 0.862890
O O15 0.148220 0.238816 0.662004
O O16 0.392248 0.500001 0.051812
#
# Coordination Sequence:
#
# PCOD9311964 Si02
#       8
#     4   4   4   4   4   4   4   4
#     4  10  20  33  50  72  99 131 165 204 252 303
#     4   8  15  27  43  66  94 122 152 188 233 283
#     4  10  20  33  51  74 100 132 170 211 251 296
#     4   8  15  27  43  66  94 122 152 188 233 283
#     4  10  20  33  50  72  99 131 165 204 252 303
#     4   9  16  26  44  69  94 121 152 190 237 285
#     4   9  16  26  44  69  94 121 152 190 237 285
#     4  10  20  33  51  74 100 132 170 211 251 296
#
# _framework density 16.877980000000001
#
# number of rings (size 3 to 8) (size 9 to 14) (size 15 to 20)
#    0.000    2.750    0.000    3.750    0.000    9.000 
#    0.000    0.000    0.000    1.500    0.000   10.500 
#    0.000    0.000    0.000    0.000    0.000    0.000 
#
# Total GULP energy -178278.109098 kJ/mol
# GULP energy per Si atom -5571.190909 kJ/mol
# Density = 1.683956 g / cm^3
# Si number density = 16.877980 Si / 1000 Ang^3
#
#
#
# Elastic Constant Matrix: (Units=GPa)
#
#
# Indices 1 2 3 4 5 6 
#
# 1 39.7872 32.7914 30.0368 0.0000 0.0000 0.0000
# 2 32.7914 87.6745 63.6761 0.0000 0.0000 0.0000
# 3 30.0368 63.6761 146.6516 0.0000 0.0000 0.0000
# 4 0.0000 0.0000 0.0000 31.9648 0.0000 0.0000
# 5 0.0000 0.0000 0.0000 0.0000 10.4294 0.0000
# 6 0.0000 0.0000 0.0000 0.0000 0.0000 17.1634
#
#
#
# Elastic Compliance Matrix: (Units=1/GPa)
#
#
# Indices 1 2 3 4 5 6 
#
# 1 0.036850 -0.012124 -0.002283 0.000000 0.000000 0.000000
# 2 -0.012124 0.020648 -0.006482 0.000000 0.000000 0.000000
# 3 -0.002283 -0.006482 0.010101 0.000000 0.000000 0.000000
# 4 0.000000 0.000000 0.000000 0.031284 0.000000 0.000000
# 5 0.000000 0.000000 0.000000 0.000000 0.095883 0.000000
# 6 0.000000 0.000000 0.000000 0.000000 0.000000 0.058263
#
#
# Mechanical properties :
#
#
# Convention : Reuss Voigt Hill
#
# Bulk Modulus (GPa) = 38.72957 58.56910 48.64934
# Shear Modulus (GPa) = 16.47906 21.75212 19.11559
#
# Velocity S-wave (km/s) = 3.12807 3.59386 3.36903
# Velocity P-wave (km/s) = 6.00359 7.21096 6.63480
#
# Compressibility (1/GPa) = 0.02582006
#
# Stress axis : x y z
#
# Youngs Moduli (GPa) = 27.13738 48.43026 98.99884
#
# Poissons Ratio (x) = 0.58716 0.22604
# Poissons Ratio (y) = 0.32901 0.64174
# Poissons Ratio (z) = 0.06196 0.31394
#
# Static dielectric constant tensor:
#      x y z
#    x 1.570590 0.000000 0.000000 
#    y 0.000000 1.573570 0.000000 
#    z 0.000000 0.000000 1.572380 
# 
# From -- ./inp_files/6238.got.cif
#   From: 2010.05.17/outbox.cif.g08.bks.cpg/sg18_4_cif.got.tgz:6238.got - 2010.06.03 22:40:56.
