data_PCOD9311904
_publ_section_title
;
Structure prediction by ZEFSAII (Michael W. Deem and Ramdas Pophale) SiO2 
 PCOD9311904
Probable space group: P 21 21 2
;
_chemical_formula_sum "Si O2"
_cell_formula_units_Z 20
_cell_length_a 15.665976
_cell_length_b 6.801122
_cell_length_c 7.625741
_cell_angle_alpha 90.000000
_cell_angle_beta 90.000000
_cell_angle_gamma 90.000000
_cell_volume 812.493833
_symmetry_space_group_name_H-M "P 21 21 2"
_symmetry_group_IT_number 18
_symmetry_cell_setting 'orthorhombic'
loop_
_space_group_symop_operation_xyz
x,y,z
-x,-y,z
1/2+x,1/2-y,-z
1/2-x,1/2+y,-z
loop_
_atom_site_type_symbol
_atom_site_label
_atom_site_fract_x
_atom_site_fract_y
_atom_site_fract_z
Si Si1 0.431932 0.697983 0.379772
Si Si2 0.661051 0.238541 0.040007
Si Si3 0.705103 0.297794 0.666776
Si Si4 0.666858 0.885857 0.819713
Si Si5 0.397071 0.158937 0.466635
O O1 0.400395 0.670181 0.182487
O O2 0.361595 0.627553 0.522059
O O3 0.534492 0.683670 0.393656
O O4 0.421580 0.934737 0.421039
O O5 0.755861 0.247960 0.123292
O O6 0.669939 0.357350 0.858622
O O7 0.635048 0.015283 0.985085
O O8 0.802270 0.330178 0.613324
O O9 0.704830 0.062773 0.700630
O O10 0.601267 0.803856 0.678246
#
# Coordination Sequence:
#
# PCOD9311904 Si02
#       5
#     4   4   4   4   4
#     4  10  20  36  61  86 119 156 207 249 296 363
#     4  10  19  38  58  90 116 162 200 247 303 363
#     4   9  20  36  58  86 120 156 196 252 301 350
#     4   9  20  35  64  85 122 161 199 249 312 356
#     4  10  19  39  58  90 119 158 200 255 300 355
#
# _framework density 24.615570000000002
#
# number of rings (size 3 to 8) (size 9 to 14) (size 15 to 20)
#    1.200    1.200    2.000    1.200    0.000    0.000 
#   10.800    1.000    0.000    0.000    0.000    0.000 
#    0.000    0.000    0.000    0.000    0.000    0.000 
#
# Total GULP energy -111413.370791 kJ/mol
# GULP energy per Si atom -5570.668540 kJ/mol
# Density = 2.455954 g / cm^3
# Si number density = 24.615570 Si / 1000 Ang^3
#
#
#
# Elastic Constant Matrix: (Units=GPa)
#
#
# Indices 1 2 3 4 5 6 
#
# 1 123.0616 -8.6036 70.0600 0.0000 0.0000 0.0000
# 2 -8.6036 14.1995 0.2797 0.0000 0.0000 0.0000
# 3 70.0600 0.2797 184.6881 0.0000 0.0000 0.0000
# 4 0.0000 0.0000 0.0000 0.6536 0.0000 0.0000
# 5 0.0000 0.0000 0.0000 0.0000 26.3979 0.0000
# 6 0.0000 0.0000 0.0000 0.0000 0.0000 33.4610
#
#
#
# Elastic Compliance Matrix: (Units=1/GPa)
#
#
# Indices 1 2 3 4 5 6 
#
# 1 0.010972 0.006730 -0.004172 0.000000 0.000000 0.000000
# 2 0.006730 0.074555 -0.002666 0.000000 0.000000 0.000000
# 3 -0.004172 -0.002666 0.007001 0.000000 0.000000 0.000000
# 4 0.000000 0.000000 0.000000 1.529991 0.000000 0.000000
# 5 0.000000 0.000000 0.000000 0.000000 0.037882 0.000000
# 6 0.000000 0.000000 0.000000 0.000000 0.000000 0.029886
#
#
# Mechanical properties :
#
#
# Convention : Reuss Voigt Hill
#
# Bulk Modulus (GPa) = 10.83279 49.49127 30.16203
# Shear Modulus (GPa) = 2.90483 29.45004 16.17743
#
# Velocity S-wave (km/s) = 1.08749 3.46265 2.56638
# Velocity P-wave (km/s) = 2.44687 6.01132 4.58929
#
# Compressibility (1/GPa) = 0.09231228
#
# Stress axis : x y z
#
# Youngs Moduli (GPa) = 91.14238 13.41286 142.83079
#
# Poissons Ratio (x) = -0.09027 0.59593
# Poissons Ratio (y) = -0.61340 0.38078
# Poissons Ratio (z) = 0.38027 0.03576
#
# Static dielectric constant tensor:
#      x y z
#    x 2.192340 0.000000 0.000000 
#    y 0.000000 2.166070 0.000000 
#    z 0.000000 0.000000 1.989520 
# 
# From -- ./inp_files/3807.got.cif
#   From: 2010.05.17/outbox.cif.g08.bks.cpg/sg18_2_cif.got.tgz:3807.got - 2010.06.03 22:40:56.
