data_PCOD9311887
_publ_section_title
;
Structure prediction by ZEFSAII (Michael W. Deem and Ramdas Pophale) SiO2 
 PCOD9311887
Probable space group: P 21 21 2
;
_chemical_formula_sum "Si O2"
_cell_formula_units_Z 30
_cell_length_a 15.075390
_cell_length_b 7.391593
_cell_length_c 12.984827
_cell_angle_alpha 90.000000
_cell_angle_beta 90.000000
_cell_angle_gamma 90.000000
_cell_volume 1446.914169
_symmetry_space_group_name_H-M "P 21 21 2"
_symmetry_group_IT_number 18
_symmetry_cell_setting 'orthorhombic'
loop_
_space_group_symop_operation_xyz
x,y,z
-x,-y,z
1/2+x,1/2-y,-z
1/2-x,1/2+y,-z
loop_
_atom_site_type_symbol
_atom_site_label
_atom_site_fract_x
_atom_site_fract_y
_atom_site_fract_z
Si Si1 0.843561 0.689699 0.240251
Si Si2 0.101320 0.561494 0.716995
Si Si3 0.900214 0.033569 0.806215
Si Si4 0.000000 0.500000 0.351859
Si Si5 0.698512 0.486884 0.385008
Si Si6 0.643846 0.806403 0.507475
Si Si7 0.757733 0.033798 0.151922
Si Si8 0.771480 0.426076 0.076075
O O1 0.937596 0.633693 0.286353
O O2 0.768949 0.615306 0.321546
O O3 0.822859 0.896974 0.212005
O O4 0.829084 0.574210 0.136075
O O5 0.107321 0.756650 0.773472
O O6 0.132274 0.584268 0.599250
O O7 0.171583 0.440581 0.777473
O O8 0.000000 0.500000 0.720613
O O9 0.872720 0.930714 0.700468
O O10 0.829166 0.974040 0.890380
O O11 0.000000 0.000000 0.838230
O O12 0.934358 0.376200 0.419907
O O13 0.646536 0.599525 0.471325
O O14 0.762044 0.342729 0.437810
O O15 0.794972 0.228602 0.119752
O O16 0.725173 0.940214 0.046061
#
# Coordination Sequence:
#
# PCOD9311887 Si02
#       8
#     4   4   4   2   4   4   4   4
#     4  10  21  44  61  93 128 167 219 262 327 391
#     4  11  21  36  59  95 127 159 221 266 315 381
#     4  10  20  39  56  89 127 161 209 272 317 380
#     4  10  22  40  66  86 140 172 212 280 324 388
#     4   9  20  37  59  85 121 158 213 261 308 390
#     4  10  19  37  62  87 121 172 208 262 329 375
#     4  12  21  41  68  94 125 171 214 267 325 398
#     4  11  22  40  69  93 127 170 212 264 335 392
#
# _framework density 20.733779999999999
#
# number of rings (size 3 to 8) (size 9 to 14) (size 15 to 20)
#    0.000    1.600    6.000    0.800    0.000    4.267 
#    3.600    2.000    2.933    0.000    0.000    0.000 
#    0.000    0.000    0.000    0.000    0.000    0.000 
#
# Total GULP energy -167557.939943 kJ/mol
# GULP energy per Si atom -5585.264665 kJ/mol
# Density = 2.068659 g / cm^3
# Si number density = 20.733780 Si / 1000 Ang^3
#
#
#
# Elastic Constant Matrix: (Units=GPa)
#
#
# Indices 1 2 3 4 5 6 
#
# 1 71.5021 2.2209 32.9333 0.0000 0.0000 0.0000
# 2 2.2209 74.6628 8.3748 0.0000 0.0000 0.0000
# 3 32.9333 8.3748 70.7997 0.0000 0.0000 0.0000
# 4 0.0000 0.0000 0.0000 24.0383 0.0000 0.0000
# 5 0.0000 0.0000 0.0000 0.0000 17.1945 0.0000
# 6 0.0000 0.0000 0.0000 0.0000 0.0000 20.2511
#
#
#
# Elastic Compliance Matrix: (Units=1/GPa)
#
#
# Indices 1 2 3 4 5 6 
#
# 1 0.017811 0.000405 -0.008333 0.000000 0.000000 0.000000
# 2 0.000405 0.013583 -0.001795 0.000000 0.000000 0.000000
# 3 -0.008333 -0.001795 0.018213 0.000000 0.000000 0.000000
# 4 0.000000 0.000000 0.000000 0.041600 0.000000 0.000000
# 5 0.000000 0.000000 0.000000 0.000000 0.058158 0.000000
# 6 0.000000 0.000000 0.000000 0.000000 0.000000 0.049380
#
#
# Mechanical properties :
#
#
# Convention : Reuss Voigt Hill
#
# Bulk Modulus (GPa) = 33.15580 33.78029 33.46804
# Shear Modulus (GPa) = 21.90628 23.85915 22.88272
#
# Velocity S-wave (km/s) = 3.25399 3.39593 3.32572
# Velocity P-wave (km/s) = 5.49034 5.63065 5.56094
#
# Compressibility (1/GPa) = 0.03016064
#
# Stress axis : x y z
#
# Youngs Moduli (GPa) = 56.14472 73.62223 54.90630
#
# Poissons Ratio (x) = -0.02981 0.45753
# Poissons Ratio (y) = -0.02273 0.09856
# Poissons Ratio (z) = 0.46785 0.13215
#
# Static dielectric constant tensor:
#      x y z
#    x 1.718820 0.000000 0.000000 
#    y 0.000000 1.796530 0.000000 
#    z 0.000000 0.000000 1.733030 
# 
# From -- ./inp_files/6076.got.cif
#   From: 2010.05.17/outbox.cif.g08.bks.cpg/sg18_4_cif.got.tgz:6076.got - 2010.06.03 22:40:56.
