data_PCOD9311128
_publ_section_title
;
Structure prediction by ZEFSAII (Michael W. Deem and Ramdas Pophale) SiO2 
 PCOD9311128
Probable space group: P 2 2 21
;
_chemical_formula_sum "Si O2"
_cell_formula_units_Z 22
_cell_length_a 5.289949
_cell_length_b 5.286418
_cell_length_c 29.789722
_cell_angle_alpha 90.000000
_cell_angle_beta 90.000000
_cell_angle_gamma 90.000000
_cell_volume 833.066049
_symmetry_space_group_name_H-M "P 2 2 21"
_symmetry_group_IT_number 17
_symmetry_cell_setting 'orthorhombic'
loop_
_space_group_symop_operation_xyz
x,y,z
-x,-y,1/2+z
x,-y,-z
-x,y,1/2-z
loop_
_atom_site_type_symbol
_atom_site_label
_atom_site_fract_x
_atom_site_fract_y
_atom_site_fract_z
Si Si1 0.955983 0.244899 0.469542
Si Si2 0.395079 0.994158 0.293746
Si Si3 0.545525 0.425992 0.051911
Si Si4 0.920353 0.379882 0.160942
Si Si5 0.000000 0.624513 0.250000
Si Si6 0.402801 0.335715 0.865451
O O1 0.934812 0.500000 0.500000
O O2 0.686800 0.232603 0.445523
O O3 0.191884 0.288927 0.436622
O O4 0.999854 0.000000 0.500000
O O5 0.500000 0.151765 0.250000
O O6 0.238816 0.788691 0.264938
O O7 0.602258 0.895758 0.330221
O O8 0.180276 0.100373 0.328075
O O9 0.486797 0.669690 0.082247
O O10 0.572252 0.500000 0.000000
O O11 0.645890 0.510181 0.153495
O O12 0.049445 0.450215 0.208118
O O13 0.139499 0.510713 0.131583
#
# Coordination Sequence:
#
# PCOD9311128 Si02
#       6
#     4   4   4   4   2   4
#     4  10  21  42  72 104 135 187 241 297 369 449
#     4  11  24  43  73 101 145 203 243 308 378 446
#     4  10  22  45  73 101 141 189 237 302 377 448
#     4  11  25  40  70 104 141 188 243 302 364 444
#     4  10  22  42  68  94 146 182 244 298 356 450
#     4  11  25  47  65 108 147 183 249 309 365 447
#
# _framework density 26.408466000000001
#
# number of rings (size 3 to 8) (size 9 to 14) (size 15 to 20)
#    0.000    1.455    1.818    2.182    5.091    0.000 
#   19.636    0.000    0.000    0.000    0.000    0.000 
#    0.000    0.000    0.000    0.000    0.000    0.000 
#
# Total GULP energy -122543.672953 kJ/mol
# GULP energy per Si atom -5570.166952 kJ/mol
# Density = 2.634836 g / cm^3
# Si number density = 26.408466 Si / 1000 Ang^3
#
#
#
# Elastic Constant Matrix: (Units=GPa)
#
#
# Indices 1 2 3 4 5 6 
#
# 1 207.6617 22.3820 -18.0720 0.0000 0.0000 0.0000
# 2 22.3820 68.0679 -11.5747 0.0000 0.0000 0.0000
# 3 -18.0720 -11.5747 36.0855 0.0000 0.0000 0.0000
# 4 0.0000 0.0000 0.0000 14.6485 0.0000 0.0000
# 5 0.0000 0.0000 0.0000 0.0000 46.2445 0.0000
# 6 0.0000 0.0000 0.0000 0.0000 0.0000 25.2605
#
#
#
# Elastic Compliance Matrix: (Units=1/GPa)
#
#
# Indices 1 2 3 4 5 6 
#
# 1 0.005146 -0.001326 0.002152 0.000000 0.000000 0.000000
# 2 -0.001326 0.015881 0.004430 0.000000 0.000000 0.000000
# 3 0.002152 0.004430 0.030210 0.000000 0.000000 0.000000
# 4 0.000000 0.000000 0.000000 0.068266 0.000000 0.000000
# 5 0.000000 0.000000 0.000000 0.000000 0.021624 0.000000
# 6 0.000000 0.000000 0.000000 0.000000 0.000000 0.039588
#
#
# Mechanical properties :
#
#
# Convention : Reuss Voigt Hill
#
# Bulk Modulus (GPa) = 16.19512 33.03173 24.61342
# Shear Modulus (GPa) = 26.20729 38.50269 32.35499
#
# Velocity S-wave (km/s) = 3.15363 3.82248 3.50405
# Velocity P-wave (km/s) = 4.40526 5.65835 5.07066
#
# Compressibility (1/GPa) = 0.06174700
#
# Stress axis : x y z
#
# Youngs Moduli (GPa) = 194.33678 62.97027 33.10123
#
# Poissons Ratio (x) = 0.08351 -0.07122
# Poissons Ratio (y) = 0.25771 -0.14663
# Poissons Ratio (z) = -0.41815 -0.27894
#
# Static dielectric constant tensor:
#      x y z
#    x 2.294370 0.000000 0.000000 
#    y 0.000000 2.167150 0.000000 
#    z 0.000000 0.000000 2.198520 
# 
# From -- ./inp_files/11081.got.cif
#   From: 2010.05.17/outbox.cif.g08.bks.cpg/sg17_6_cif.got.tgz:11081.got - 2010.06.03 22:34:06.
