data_PCOD9311044
_publ_section_title
;
Structure prediction by ZEFSAII (Michael W. Deem and Ramdas Pophale) SiO2 
 PCOD9311044
Probable space group: P 2 2 21
;
_chemical_formula_sum "Si O2"
_cell_formula_units_Z 32
_cell_length_a 7.632437
_cell_length_b 5.409123
_cell_length_c 29.979461
_cell_angle_alpha 90.000000
_cell_angle_beta 90.000000
_cell_angle_gamma 90.000000
_cell_volume 1237.695767
_symmetry_space_group_name_H-M "P 2 2 21"
_symmetry_group_IT_number 17
_symmetry_cell_setting 'orthorhombic'
loop_
_space_group_symop_operation_xyz
x,y,z
-x,-y,1/2+z
x,-y,-z
-x,y,1/2-z
loop_
_atom_site_type_symbol
_atom_site_label
_atom_site_fract_x
_atom_site_fract_y
_atom_site_fract_z
Si Si1 0.790200 0.549768 0.759508
Si Si2 0.674069 0.611906 0.618610
Si Si3 0.596440 0.886308 0.432136
Si Si4 0.050844 0.169602 0.960762
Si Si5 0.715576 0.413802 0.951273
Si Si6 0.318978 0.343199 0.353211
Si Si7 0.185869 0.062190 0.776209
Si Si8 0.982649 0.087659 0.365572
O O1 0.754359 0.502832 0.811637
O O2 0.717940 0.318309 0.732414
O O3 0.000000 0.566720 0.750000
O O4 0.724895 0.817028 0.743381
O O5 0.635916 0.330687 0.604373
O O6 0.525348 0.690379 0.653885
O O7 0.636209 0.831503 0.581795
O O8 0.876312 0.651700 0.631352
O O9 0.742408 0.798730 0.467896
O O10 0.395011 0.840355 0.444626
O O11 0.029929 0.037456 0.913254
O O12 0.924294 0.399134 0.956372
O O13 0.979180 0.000000 0.000000
O O14 0.692439 0.554740 0.904096
O O15 0.649257 0.500000 0.000000
O O16 0.184836 0.114598 0.352857
O O17 0.128426 0.041808 0.827265
O O18 0.000000 0.078390 0.750000
#
# Coordination Sequence:
#
# PCOD9311044 Si02
#       8
#     4   4   4   4   4   4   4   4
#     4  10  21  38  64  98 124 170 231 263 334 415
#     4  10  24  43  69 108 129 178 241 268 345 415
#     4  10  24  47  68  96 144 186 224 282 336 399
#     4  11  25  41  67 105 140 182 233 277 338 409
#     4  11  25  41  67 105 140 182 233 277 338 409
#     4  11  22  42  71  96 139 182 218 293 338 398
#     4  10  21  38  64  98 124 170 231 263 334 415
#     4  11  22  42  71  96 139 182 218 293 338 398
#
# _framework density 25.854493999999999
#
# number of rings (size 3 to 8) (size 9 to 14) (size 15 to 20)
#    0.000    1.500    2.500    2.250    3.500   11.000 
#    0.000    0.625    0.000    3.000    0.000    0.000 
#    0.000    0.000    0.000    0.000    0.000    0.000 
#
# Total GULP energy -178581.666413 kJ/mol
# GULP energy per Si atom -5580.677075 kJ/mol
# Density = 2.579565 g / cm^3
# Si number density = 25.854494 Si / 1000 Ang^3
#
#
#
# Elastic Constant Matrix: (Units=GPa)
#
#
# Indices 1 2 3 4 5 6 
#
# 1 92.6148 4.8343 6.2092 0.0000 0.0000 0.0000
# 2 4.8343 96.9287 29.7567 0.0000 0.0000 0.0000
# 3 6.2092 29.7567 149.5972 0.0000 0.0000 0.0000
# 4 0.0000 0.0000 0.0000 16.7407 0.0000 0.0000
# 5 0.0000 0.0000 0.0000 0.0000 23.0576 0.0000
# 6 0.0000 0.0000 0.0000 0.0000 0.0000 22.4946
#
#
#
# Elastic Compliance Matrix: (Units=1/GPa)
#
#
# Indices 1 2 3 4 5 6 
#
# 1 0.010844 -0.000429 -0.000365 0.000000 0.000000 0.000000
# 2 -0.000429 0.011005 -0.002171 0.000000 0.000000 0.000000
# 3 -0.000365 -0.002171 0.007132 0.000000 0.000000 0.000000
# 4 0.000000 0.000000 0.000000 0.059735 0.000000 0.000000
# 5 0.000000 0.000000 0.000000 0.000000 0.043370 0.000000
# 6 0.000000 0.000000 0.000000 0.000000 0.000000 0.044455
#
#
# Mechanical properties :
#
#
# Convention : Reuss Voigt Hill
#
# Bulk Modulus (GPa) = 43.38210 46.74902 45.06556
# Shear Modulus (GPa) = 26.29453 32.34793 29.32123
#
# Velocity S-wave (km/s) = 3.19253 3.54100 3.37127
# Velocity P-wave (km/s) = 5.51411 5.90247 5.71159
#
# Compressibility (1/GPa) = 0.02305098
#
# Stress axis : x y z
#
# Youngs Moduli (GPa) = 92.21477 90.86950 140.22033
#
# Poissons Ratio (x) = 0.03897 0.05115
# Poissons Ratio (y) = 0.03955 0.30444
# Poissons Ratio (z) = 0.03364 0.19729
#
# Static dielectric constant tensor:
#      x y z
#    x 2.073770 0.000000 0.000000 
#    y 0.000000 2.135990 0.000000 
#    z 0.000000 0.000000 2.081790 
# 
# From -- ./inp_files/11257.got.cif
#   From: 2010.05.17/outbox.cif.g08.bks.cpg/sg17_6_cif.got.tgz:11257.got - 2010.06.03 22:34:06.
