data_PCOD9311633
_publ_section_title
;
Structure prediction by ZEFSAII (Michael W. Deem and Ramdas Pophale) SiO2 
 PCOD9311633
Probable space group: P 21 21 2
;
_chemical_formula_sum "Si O2"
_cell_formula_units_Z 30
_cell_length_a 15.026763
_cell_length_b 8.691344
_cell_length_c 11.230681
_cell_angle_alpha 90.000000
_cell_angle_beta 90.000000
_cell_angle_gamma 90.000000
_cell_volume 1466.758008
_symmetry_space_group_name_H-M "P 21 21 2"
_symmetry_group_IT_number 18
_symmetry_cell_setting 'orthorhombic'
loop_
_space_group_symop_operation_xyz
x,y,z
-x,-y,z
1/2+x,1/2-y,-z
1/2-x,1/2+y,-z
loop_
_atom_site_type_symbol
_atom_site_label
_atom_site_fract_x
_atom_site_fract_y
_atom_site_fract_z
Si Si1 0.992868 0.685990 0.505246
Si Si2 0.185886 0.206845 0.638647
Si Si3 0.716021 0.517700 0.546298
Si Si4 0.000000 0.500000 0.839072
Si Si5 0.566517 0.373737 0.710300
Si Si6 0.681049 0.139721 0.105549
Si Si7 0.769527 0.803039 0.134858
Si Si8 0.136235 0.692732 0.676298
O O1 0.907352 0.738018 0.581870
O O2 0.981827 0.747633 0.371486
O O3 0.000000 0.500000 0.505464
O O4 0.076871 0.763445 0.571488
O O5 0.258824 0.308553 0.569650
O O6 0.206363 0.036929 0.589656
O O7 0.188251 0.253455 0.776466
O O8 0.629513 0.465230 0.617671
O O9 0.797667 0.427550 0.611509
O O10 0.076218 0.405262 0.909002
O O11 0.060141 0.607915 0.754880
O O12 0.500000 0.500000 0.763046
O O13 0.633675 0.303060 0.805098
O O14 0.734449 0.979471 0.124221
O O15 0.722116 0.224356 0.992331
O O16 0.698906 0.726210 0.226140
#
# Coordination Sequence:
#
# PCOD9311633 Si02
#       8
#     4   4   4   2   4   4   4   4
#     4  11  18  34  63  94 112 152 214 258 299 384
#     4  11  20  37  61  91 120 156 204 255 315 370
#     4  10  20  34  61  90 121 158 194 251 315 379
#     4  10  16  36  70  82 110 160 222 246 298 356
#     4  10  23  40  54  85 132 162 190 253 331 365
#     4  11  21  44  65  90 120 171 218 262 305 375
#     4  10  23  44  61  86 129 168 216 253 313 374
#     4  10  16  36  63  85 115 159 197 257 307 356
#
# _framework density 20.453271000000001
#
# number of rings (size 3 to 8) (size 9 to 14) (size 15 to 20)
#    0.000    1.600    7.333    0.000    1.867    0.000 
#   13.200    0.000    0.000    0.800    0.000    0.000 
#    0.000    0.000    0.000    0.000    0.000    0.000 
#
# Total GULP energy -167357.756553 kJ/mol
# GULP energy per Si atom -5578.591885 kJ/mol
# Density = 2.040672 g / cm^3
# Si number density = 20.453271 Si / 1000 Ang^3
#
#
#
# Elastic Constant Matrix: (Units=GPa)
#
#
# Indices 1 2 3 4 5 6 
#
# 1 87.2027 10.4777 36.0492 0.0000 0.0000 0.0000
# 2 10.4777 35.5833 49.7001 0.0000 0.0000 0.0000
# 3 36.0492 49.7001 120.3525 0.0000 0.0000 0.0000
# 4 0.0000 0.0000 0.0000 35.6869 0.0000 0.0000
# 5 0.0000 0.0000 0.0000 0.0000 28.7190 0.0000
# 6 0.0000 0.0000 0.0000 0.0000 0.0000 22.2212
#
#
#
# Elastic Compliance Matrix: (Units=1/GPa)
#
#
# Indices 1 2 3 4 5 6 
#
# 1 0.013313 0.003898 -0.005597 0.000000 0.000000 0.000000
# 2 0.003898 0.067545 -0.029061 0.000000 0.000000 0.000000
# 3 -0.005597 -0.029061 0.021986 0.000000 0.000000 0.000000
# 4 0.000000 0.000000 0.000000 0.028021 0.000000 0.000000
# 5 0.000000 0.000000 0.000000 0.000000 0.034820 0.000000
# 6 0.000000 0.000000 0.000000 0.000000 0.000000 0.045002
#
#
# Mechanical properties :
#
#
# Convention : Reuss Voigt Hill
#
# Bulk Modulus (GPa) = 24.19890 48.39918 36.29904
# Shear Modulus (GPa) = 17.48357 27.11953 22.30155
#
# Velocity S-wave (km/s) = 2.92688 3.64528 3.30565
# Velocity P-wave (km/s) = 4.82485 6.43677 5.68820
#
# Compressibility (1/GPa) = 0.04132420
#
# Stress axis : x y z
#
# Youngs Moduli (GPa) = 75.11403 14.80494 45.48317
#
# Poissons Ratio (x) = -0.05771 0.25458
# Poissons Ratio (y) = -0.29278 1.32176
# Poissons Ratio (z) = 0.42043 0.43024
#
# Static dielectric constant tensor:
#      x y z
#    x 1.758250 0.000000 0.000000 
#    y 0.000000 1.861050 0.000000 
#    z 0.000000 0.000000 1.724050 
# 
# From -- ./inp_files/6090.got.cif
#   From: 2010.05.17/outbox.cif.g08.bks.cpg/sg18_4_cif.got.tgz:6090.got - 2010.06.03 22:40:56.
