data_PCOD9311102
_publ_section_title
;
Structure prediction by ZEFSAII (Michael W. Deem and Ramdas Pophale) SiO2 
 PCOD9311102
Probable space group: P 2 2 21
;
_chemical_formula_sum "Si O2"
_cell_formula_units_Z 32
_cell_length_a 11.882579
_cell_length_b 13.609554
_cell_length_c 8.383859
_cell_angle_alpha 90.000000
_cell_angle_beta 90.000000
_cell_angle_gamma 90.000000
_cell_volume 1355.809177
_symmetry_space_group_name_H-M "P 2 2 21"
_symmetry_group_IT_number 17
_symmetry_cell_setting 'orthorhombic'
loop_
_space_group_symop_operation_xyz
x,y,z
-x,-y,1/2+z
x,-y,-z
-x,y,1/2-z
loop_
_atom_site_type_symbol
_atom_site_label
_atom_site_fract_x
_atom_site_fract_y
_atom_site_fract_z
Si Si1 0.760055 0.344927 0.804530
Si Si2 0.529109 0.104896 0.063796
Si Si3 0.921310 0.095789 0.402111
Si Si4 0.932939 0.266113 0.012714
Si Si5 0.302898 0.656225 0.933988
Si Si6 0.740405 0.162488 0.210879
Si Si7 0.120850 0.543783 0.723247
Si Si8 0.523218 0.317307 0.932506
O O1 0.726559 0.325467 0.620703
O O2 0.795682 0.457725 0.828742
O O3 0.658932 0.326518 0.932427
O O4 0.869757 0.281401 0.847126
O O5 0.500000 0.115330 0.250000
O O6 0.663460 0.110043 0.082087
O O7 0.496088 0.201722 0.964797
O O8 0.490150 0.000000 0.000000
O O9 0.791762 0.094245 0.347867
O O10 0.000000 0.085368 0.250000
O O11 0.953807 0.202069 0.479124
O O12 0.946893 0.000000 0.500000
O O13 0.846528 0.203500 0.117649
O O14 0.924758 0.370821 0.104080
O O15 0.310321 0.745783 0.808566
O O16 0.198207 0.592693 0.863137
O O17 0.435478 0.624172 0.954087
O O18 0.000000 0.491308 0.750000
O O19 0.500000 0.345469 0.750000
#
# Coordination Sequence:
#
# PCOD9311102 Si02
#       8
#     4   4   4   4   4   4   4   4
#     4  11  23  40  69 106 135 181 238 295 353 419
#     4  12  24  42  71 101 133 182 234 287 354 415
#     4  10  23  42  64  94 135 177 233 288 345 415
#     4  10  21  42  66  95 131 180 231 285 352 409
#     4  10  22  43  71  97 144 187 226 291 361 424
#     4  10  21  41  64  93 132 178 220 283 353 414
#     4  11  24  44  70 101 143 188 240 292 357 432
#     4  10  22  45  68 101 147 179 235 289 351 429
#
# _framework density 23.602142000000001
#
# number of rings (size 3 to 8) (size 9 to 14) (size 15 to 20)
#    0.000    1.500    2.500    3.000    0.000    6.500 
#    4.500    7.500    0.000    0.000    0.000    0.000 
#    0.000    0.000    0.000    0.000    0.000    0.000 
#
# Total GULP energy -178227.819840 kJ/mol
# GULP energy per Si atom -5569.619370 kJ/mol
# Density = 2.354842 g / cm^3
# Si number density = 23.602142 Si / 1000 Ang^3
#
#
#
# Elastic Constant Matrix: (Units=GPa)
#
#
# Indices 1 2 3 4 5 6 
#
# 1 73.2362 5.1502 6.0576 0.0000 0.0000 0.0000
# 2 5.1502 74.3637 13.4716 0.0000 0.0000 0.0000
# 3 6.0576 13.4716 70.5235 0.0000 0.0000 0.0000
# 4 0.0000 0.0000 0.0000 30.0824 0.0000 0.0000
# 5 0.0000 0.0000 0.0000 0.0000 35.5354 0.0000
# 6 0.0000 0.0000 0.0000 0.0000 0.0000 16.9769
#
#
#
# Elastic Compliance Matrix: (Units=1/GPa)
#
#
# Indices 1 2 3 4 5 6 
#
# 1 0.013794 -0.000767 -0.001038 0.000000 0.000000 0.000000
# 2 -0.000767 0.013972 -0.002603 0.000000 0.000000 0.000000
# 3 -0.001038 -0.002603 0.014766 0.000000 0.000000 0.000000
# 4 0.000000 0.000000 0.000000 0.033242 0.000000 0.000000
# 5 0.000000 0.000000 0.000000 0.000000 0.028141 0.000000
# 6 0.000000 0.000000 0.000000 0.000000 0.000000 0.058904
#
#
# Mechanical properties :
#
#
# Convention : Reuss Voigt Hill
#
# Bulk Modulus (GPa) = 29.66016 29.72023 29.69020
# Shear Modulus (GPa) = 27.34110 29.41519 28.37815
#
# Velocity S-wave (km/s) = 3.40724 3.53412 3.47126
# Velocity P-wave (km/s) = 5.29840 5.41044 5.35471
#
# Compressibility (1/GPa) = 0.03371526
#
# Stress axis : x y z
#
# Youngs Moduli (GPa) = 72.49380 71.57107 67.72269
#
# Poissons Ratio (x) = 0.05491 0.07032
# Poissons Ratio (y) = 0.05562 0.17629
# Poissons Ratio (z) = 0.07527 0.18631
#
# Static dielectric constant tensor:
#      x y z
#    x 2.268620 0.000000 0.000000 
#    y 0.000000 1.935620 0.000000 
#    z 0.000000 0.000000 1.972660 
# 
# From -- ./inp_files/4947.got.cif
#   From: 2010.05.17/outbox.cif.g08.bks.cpg/sg17_3_cif.got.tgz:4947.got - 2010.06.03 22:34:06.
