data_PCOD9311576
_publ_section_title
;
Structure prediction by ZEFSAII (Michael W. Deem and Ramdas Pophale) SiO2 
 PCOD9311576
Probable space group: P 2 2 21
;
_chemical_formula_sum "Si O2"
_cell_formula_units_Z 20
_cell_length_a 8.746578
_cell_length_b 8.508124
_cell_length_c 12.327751
_cell_angle_alpha 90.000000
_cell_angle_beta 90.000000
_cell_angle_gamma 90.000000
_cell_volume 917.393879
_symmetry_space_group_name_H-M "P 2 2 21"
_symmetry_group_IT_number 17
_symmetry_cell_setting 'orthorhombic'
loop_
_space_group_symop_operation_xyz
x,y,z
-x,-y,1/2+z
x,-y,-z
-x,y,1/2-z
loop_
_atom_site_type_symbol
_atom_site_label
_atom_site_fract_x
_atom_site_fract_y
_atom_site_fract_z
Si Si1 0.515081 0.272345 0.875291
Si Si2 0.798782 0.580673 0.390729
Si Si3 0.829787 0.674016 0.789586
Si Si4 0.747709 0.500000 0.000000
Si Si5 0.738428 0.000475 0.873586
Si Si6 0.000000 0.805410 0.250000
O O1 0.500000 0.321545 0.750000
O O2 0.348860 0.313478 0.919852
O O3 0.578935 0.095347 0.873549
O O4 0.639073 0.372077 0.941520
O O5 0.849726 0.500000 0.500000
O O6 0.764872 0.444088 0.301742
O O7 0.923598 0.693626 0.338790
O O8 0.733540 0.828863 0.819506
O O9 0.000000 0.718949 0.750000
O O10 0.838491 0.580464 0.902688
O O11 0.864530 0.095740 0.804750
O O12 0.787788 0.000000 0.000000
#
# Coordination Sequence:
#
# PCOD9311576 Si02
#       6
#     4   4   4   2   4   2
#     4  12  24  49  71 105 150 195 247 305 372 450
#     4  12  28  47  76 113 148 200 262 313 370 455
#     4  12  27  46  77 114 147 199 259 314 383 458
#     4  12  24  48  78 106 148 202 258 316 376 442
#     4  12  27  47  73 107 156 197 244 311 393 449
#     4  12  26  46  74 110 156 192 248 322 382 452
#
# _framework density 21.800885000000001
#
# number of rings (size 3 to 8) (size 9 to 14) (size 15 to 20)
#    0.000    0.000    9.000    0.000    4.200    0.000 
#    7.200    1.000    0.000    0.000    0.000    0.000 
#    0.000    0.000    0.000    0.000    0.000    0.000 
#
# Total GULP energy -111893.928453 kJ/mol
# GULP energy per Si atom -5594.696423 kJ/mol
# Density = 2.175127 g / cm^3
# Si number density = 21.800885 Si / 1000 Ang^3
#
#
#
# Elastic Constant Matrix: (Units=GPa)
#
#
# Indices 1 2 3 4 5 6 
#
# 1 81.8154 48.4255 22.5578 0.0000 0.0000 0.0000
# 2 48.4255 144.3013 48.3386 0.0000 0.0000 0.0000
# 3 22.5578 48.3386 156.1748 0.0000 0.0000 0.0000
# 4 0.0000 0.0000 0.0000 25.9915 0.0000 0.0000
# 5 0.0000 0.0000 0.0000 0.0000 31.9765 0.0000
# 6 0.0000 0.0000 0.0000 0.0000 0.0000 -1.0453
#
#
#
# Elastic Compliance Matrix: (Units=1/GPa)
#
#
# Indices 1 2 3 4 5 6 
#
# 1 0.015319 -0.004909 -0.000693 0.000000 0.000000 0.000000
# 2 -0.004909 0.009304 -0.002171 0.000000 0.000000 0.000000
# 3 -0.000693 -0.002171 0.007175 0.000000 0.000000 0.000000
# 4 0.000000 0.000000 0.000000 0.038474 0.000000 0.000000
# 5 0.000000 0.000000 0.000000 0.000000 0.031273 0.000000
# 6 0.000000 0.000000 0.000000 0.000000 0.000000 -0.956707
#
#
# Mechanical properties :
#
#
# Convention : Reuss Voigt Hill
#
# Bulk Modulus (GPa) = 61.52720 68.99279 65.25999
# Shear Modulus (GPa) = -5.99378 28.91586 11.46104
#
# Velocity S-wave (km/s) = -1.65991 3.64588 2.29533
# Velocity P-wave (km/s) = 4.96083 7.03127 6.08476
#
# Compressibility (1/GPa) = 0.01625297
#
# Stress axis : x y z
#
# Youngs Moduli (GPa) = 65.27767 107.47583 139.36984
#
# Poissons Ratio (x) = 0.52756 0.09664
# Poissons Ratio (y) = 0.32042 0.30255
# Poissons Ratio (z) = 0.04526 0.23332
#
# Static dielectric constant tensor:
#      x y z
#    x 1.824010 0.000000 0.000000 
#    y 0.000000 1.810490 0.000000 
#    z 0.000000 0.000000 1.768810 
# 
# From -- ./inp_files/6429.got.cif
#   From: 2010.05.17/outbox.cif.g08.bks.cpg/sg17_4_cif.got.tgz:6429.got - 2010.06.03 22:34:06.
