data_PCOD9311403
_publ_section_title
;
Structure prediction by ZEFSAII (Michael W. Deem and Ramdas Pophale) SiO2 
 PCOD9311403
Probable space group: P 2 2 21
;
_chemical_formula_sum "Si O2"
_cell_formula_units_Z 20
_cell_length_a 15.057362
_cell_length_b 11.034129
_cell_length_c 5.030421
_cell_angle_alpha 90.000000
_cell_angle_beta 90.000000
_cell_angle_gamma 90.000000
_cell_volume 835.778667
_symmetry_space_group_name_H-M "P 2 2 21"
_symmetry_group_IT_number 17
_symmetry_cell_setting 'orthorhombic'
loop_
_space_group_symop_operation_xyz
x,y,z
-x,-y,1/2+z
x,-y,-z
-x,y,1/2-z
loop_
_atom_site_type_symbol
_atom_site_label
_atom_site_fract_x
_atom_site_fract_y
_atom_site_fract_z
Si Si1 0.086444 0.115690 0.628926
Si Si2 0.859239 0.500000 0.000000
Si Si3 0.500000 0.080229 0.250000
Si Si4 0.500000 0.434750 0.250000
Si Si5 0.000000 0.322857 0.250000
Si Si6 0.231567 0.282413 0.812886
Si Si7 0.347532 0.740396 0.679462
O O1 0.041591 0.224451 0.458261
O O2 0.150243 0.187625 0.830368
O O3 0.000000 0.053571 0.750000
O O4 0.135922 0.000000 0.500000
O O5 0.802444 0.593865 0.176098
O O6 0.920202 0.422034 0.206045
O O7 0.587763 0.158832 0.302470
O O8 0.479399 0.000000 0.500000
O O9 0.543430 0.500000 0.500000
O O10 0.579989 0.361875 0.114704
O O11 0.298139 0.227445 0.591648
O O12 0.277682 0.297719 0.095711
#
# Coordination Sequence:
#
# PCOD9311403 Si02
#       7
#     4   2   2   2   2   4   4
#     4  11  25  45  71  98 139 190 243 303 362 421
#     4  10  26  40  72 100 146 198 240 300 356 430
#     4  11  24  47  80 102 140 189 234 293 360 428
#     4  11  24  43  72  98 138 185 222 279 354 424
#     4  10  24  46  64 100 130 190 248 288 358 428
#     4  11  27  43  71 105 148 186 241 295 358 429
#     4  11  26  47  67 109 140 178 237 288 352 427
#
# _framework density 23.929777999999999
#
# number of rings (size 3 to 8) (size 9 to 14) (size 15 to 20)
#    0.000    1.200    1.000    2.400   15.400    5.600 
#    0.000    0.000    0.000    0.000    0.000    0.000 
#    0.000    0.000    0.000    0.000    0.000    0.000 
#
# Total GULP energy -111562.961797 kJ/mol
# GULP energy per Si atom -5578.148090 kJ/mol
# Density = 2.387531 g / cm^3
# Si number density = 23.929778 Si / 1000 Ang^3
#
#
#
# Elastic Constant Matrix: (Units=GPa)
#
#
# Indices 1 2 3 4 5 6 
#
# 1 87.6978 12.0836 10.3152 0.0000 0.0000 0.0000
# 2 12.0836 85.4821 -3.6846 0.0000 0.0000 0.0000
# 3 10.3152 -3.6846 73.5310 0.0000 0.0000 0.0000
# 4 0.0000 0.0000 0.0000 23.8290 0.0000 0.0000
# 5 0.0000 0.0000 0.0000 0.0000 48.9876 0.0000
# 6 0.0000 0.0000 0.0000 0.0000 0.0000 -199.4492
#
#
#
# Elastic Compliance Matrix: (Units=1/GPa)
#
#
# Indices 1 2 3 4 5 6 
#
# 1 0.011850 -0.001751 -0.001750 0.000000 0.000000 0.000000
# 2 -0.001751 0.011982 0.000846 0.000000 0.000000 0.000000
# 3 -0.001750 0.000846 0.013888 0.000000 0.000000 0.000000
# 4 0.000000 0.000000 0.000000 0.041966 0.000000 0.000000
# 5 0.000000 0.000000 0.000000 0.000000 0.020413 0.000000
# 6 0.000000 0.000000 0.000000 0.000000 0.000000 -0.005014
#
#
# Mechanical properties :
#
#
# Convention : Reuss Voigt Hill
#
# Bulk Modulus (GPa) = 30.85414 31.57104 31.21259
# Shear Modulus (GPa) = 44.96504 -10.12673 17.41916
#
# Velocity S-wave (km/s) = 4.33949 -2.05938 2.70094
# Velocity P-wave (km/s) = 6.16684 2.75084 4.77478
#
# Compressibility (1/GPa) = 0.03241057
#
# Stress axis : x y z
#
# Youngs Moduli (GPa) = 84.38938 83.45662 72.00669
#
# Poissons Ratio (x) = 0.14609 0.12602
# Poissons Ratio (y) = 0.14772 -0.06092
# Poissons Ratio (z) = 0.14769 -0.07060
#
# Static dielectric constant tensor:
#      x y z
#    x 1.877960 0.000000 0.000000 
#    y 0.000000 1.934580 0.000000 
#    z 0.000000 0.000000 2.156960 
# 
# From -- ./inp_files/2092.got.cif
#   From: 2010.05.17/outbox.cif.g08.bks.cpg/sg17_2_cif.got.tgz:2092.got - 2010.06.03 22:34:06.
