data_PCOD9311279
_publ_section_title
;
Structure prediction by ZEFSAII (Michael W. Deem and Ramdas Pophale) SiO2 
 PCOD9311279
Probable space group: P 2 2 21
;
_chemical_formula_sum "Si O2"
_cell_formula_units_Z 16
_cell_length_a 10.470713
_cell_length_b 5.491952
_cell_length_c 10.712449
_cell_angle_alpha 90.000000
_cell_angle_beta 90.000000
_cell_angle_gamma 90.000000
_cell_volume 616.015665
_symmetry_space_group_name_H-M "P 2 2 21"
_symmetry_group_IT_number 17
_symmetry_cell_setting 'orthorhombic'
loop_
_space_group_symop_operation_xyz
x,y,z
-x,-y,1/2+z
x,-y,-z
-x,y,1/2-z
loop_
_atom_site_type_symbol
_atom_site_label
_atom_site_fract_x
_atom_site_fract_y
_atom_site_fract_z
Si Si1 0.321780 0.644233 0.389074
Si Si2 0.849466 0.079142 0.712748
Si Si3 0.500000 0.728972 0.750000
Si Si4 0.091181 0.567631 0.871353
Si Si5 0.478550 0.000000 0.000000
O O1 0.251787 0.500000 0.500000
O O2 0.236902 0.863767 0.332785
O O3 0.384808 0.445713 0.297121
O O4 0.440430 0.772130 0.453575
O O5 0.820765 0.327975 0.638083
O O6 0.000000 0.085784 0.750000
O O7 0.841688 0.828668 0.637503
O O8 0.560940 0.894514 0.638000
O O9 0.000000 0.568633 0.750000
O O10 0.022094 0.500000 0.000000
#
# Coordination Sequence:
#
# PCOD9311279 Si02
#       5
#     4   4   2   4   2
#     4  10  23  43  74 109 143 195 251 307 381 457
#     4  10  23  42  69 106 148 193 246 305 363 444
#     4  10  22  44  76 114 140 190 248 318 382 454
#     4  10  22  43  67 101 142 196 251 309 368 434
#     4  10  22  44  76 108 146 186 252 308 384 452
#
# _framework density 25.973365999999999
#
# number of rings (size 3 to 8) (size 9 to 14) (size 15 to 20)
#    0.000    2.000    0.000    1.500    7.000    4.000 
#    9.000    6.250   11.000    0.000    0.000    0.000 
#    0.000    0.000    0.000    0.000    0.000    0.000 
#
# Total GULP energy -89111.209813 kJ/mol
# GULP energy per Si atom -5569.450613 kJ/mol
# Density = 2.591425 g / cm^3
# Si number density = 25.973366 Si / 1000 Ang^3
#
#
#
# Elastic Constant Matrix: (Units=GPa)
#
#
# Indices 1 2 3 4 5 6 
#
# 1 72.5018 28.7379 56.7278 0.0000 0.0000 0.0000
# 2 28.7379 247.1606 78.0018 0.0000 0.0000 0.0000
# 3 56.7278 78.0018 177.1134 0.0000 0.0000 0.0000
# 4 0.0000 0.0000 0.0000 91.7531 0.0000 0.0000
# 5 0.0000 0.0000 0.0000 0.0000 1.1977 0.0000
# 6 0.0000 0.0000 0.0000 0.0000 0.0000 78.3359
#
#
#
# Elastic Compliance Matrix: (Units=1/GPa)
#
#
# Indices 1 2 3 4 5 6 
#
# 1 0.018428 -0.000325 -0.005759 0.000000 0.000000 0.000000
# 2 -0.000325 0.004705 -0.001968 0.000000 0.000000 0.000000
# 3 -0.005759 -0.001968 0.008357 0.000000 0.000000 0.000000
# 4 0.000000 0.000000 0.000000 0.010899 0.000000 0.000000
# 5 0.000000 0.000000 0.000000 0.000000 0.834902 0.000000
# 6 0.000000 0.000000 0.000000 0.000000 0.000000 0.012766
#
#
# Mechanical properties :
#
#
# Convention : Reuss Voigt Hill
#
# Bulk Modulus (GPa) = 64.99529 91.52342 78.25935
# Shear Modulus (GPa) = 5.48673 56.47790 30.98232
#
# Velocity S-wave (km/s) = 1.45500 4.66816 3.45751
# Velocity P-wave (km/s) = 5.28213 8.02306 6.79229
#
# Compressibility (1/GPa) = 0.01538573
#
# Stress axis : x y z
#
# Youngs Moduli (GPa) = 54.26621 212.54864 119.65538
#
# Poissons Ratio (x) = 0.06910 0.68910
# Poissons Ratio (y) = 0.01764 0.23547
# Poissons Ratio (z) = 0.31252 0.41827
#
# Static dielectric constant tensor:
#      x y z
#    x 2.069290 0.000000 0.000000 
#    y 0.000000 2.078710 0.000000 
#    z 0.000000 0.000000 2.157820 
# 
# From -- ./inp_files/6784.got.cif
#   From: 2010.05.17/outbox.cif.g08.bks.cpg/sg17_4_cif.got.tgz:6784.got - 2010.06.03 22:34:06.
