data_PCOD9311780
_publ_section_title
;
Structure prediction by ZEFSAII (Michael W. Deem and Ramdas Pophale) SiO2 
 PCOD9311780
Probable space group: P 21 21 2
;
_chemical_formula_sum "Si O2"
_cell_formula_units_Z 24
_cell_length_a 23.865145
_cell_length_b 5.012686
_cell_length_c 10.780770
_cell_angle_alpha 90.000000
_cell_angle_beta 90.000000
_cell_angle_gamma 90.000000
_cell_volume 1289.687109
_symmetry_space_group_name_H-M "P 21 21 2"
_symmetry_group_IT_number 18
_symmetry_cell_setting 'orthorhombic'
loop_
_space_group_symop_operation_xyz
x,y,z
-x,-y,z
1/2+x,1/2-y,-z
1/2-x,1/2+y,-z
loop_
_atom_site_type_symbol
_atom_site_label
_atom_site_fract_x
_atom_site_fract_y
_atom_site_fract_z
Si Si1 0.932472 0.033129 0.930329
Si Si2 0.129158 0.681140 0.403922
Si Si3 0.871330 0.817752 0.576295
Si Si4 0.067124 0.464148 0.794816
Si Si5 0.250458 0.797390 0.417315
Si Si6 0.540167 0.747322 0.811430
O O1 0.926072 0.157873 0.065765
O O2 0.911023 0.240901 0.826766
O O3 0.000000 0.000000 0.917791
O O4 0.912628 0.735369 0.903782
O O5 0.130712 0.386188 0.460562
O O6 0.191093 0.752438 0.351875
O O7 0.081716 0.698241 0.301091
O O8 0.118601 0.892495 0.516664
O O9 0.915090 0.688869 0.670874
O O10 0.809539 0.794445 0.638659
O O11 0.000000 0.500000 0.794432
O O12 0.245586 0.602688 0.538168
O O13 0.500000 0.500000 0.778898
O O14 0.500000 0.000000 0.838909
#
# Coordination Sequence:
#
# PCOD9311780 Si02
#       6
#     4   4   4   4   4   4
#     4   9  18  33  49  66  91 130 170 193 226 285
#     4  10  20  33  50  74 101 129 160 199 248 293
#     4  10  19  32  51  75 101 129 161 200 247 293
#     4  10  19  31  49  71  97 128 161 199 239 284
#     4   8  16  31  49  68  94 130 166 193 229 292
#     4  11  21  34  52  72  98 130 164 202 241 289
#
# _framework density 18.609164
#
# number of rings (size 3 to 8) (size 9 to 14) (size 15 to 20)
#    0.000    2.333    0.000    4.500    0.000    2.000 
#    0.000    0.000    0.000    2.000    0.000    0.000 
#    0.000    0.000    0.000    0.000    0.000    0.000 
#
# Total GULP energy -133636.499107 kJ/mol
# GULP energy per Si atom -5568.187463 kJ/mol
# Density = 1.856681 g / cm^3
# Si number density = 18.609164 Si / 1000 Ang^3
#
#
#
# Elastic Constant Matrix: (Units=GPa)
#
#
# Indices 1 2 3 4 5 6 
#
# 1 36.0014 8.5843 17.0227 0.0000 0.0000 0.0000
# 2 8.5843 73.6154 1.9131 0.0000 0.0000 0.0000
# 3 17.0227 1.9131 43.7890 0.0000 0.0000 0.0000
# 4 0.0000 0.0000 0.0000 20.5538 0.0000 0.0000
# 5 0.0000 0.0000 0.0000 0.0000 -5.9372 0.0000
# 6 0.0000 0.0000 0.0000 0.0000 0.0000 17.5180
#
#
#
# Elastic Compliance Matrix: (Units=1/GPa)
#
#
# Indices 1 2 3 4 5 6 
#
# 1 0.035029 -0.003735 -0.013454 0.000000 0.000000 0.000000
# 2 -0.003735 0.013998 0.000840 0.000000 0.000000 0.000000
# 3 -0.013454 0.000840 0.028030 0.000000 0.000000 0.000000
# 4 0.000000 0.000000 0.000000 0.048653 0.000000 0.000000
# 5 0.000000 0.000000 0.000000 0.000000 -0.168428 0.000000
# 6 0.000000 0.000000 0.000000 0.000000 0.000000 0.057084
#
#
# Mechanical properties :
#
#
# Convention : Reuss Voigt Hill
#
# Bulk Modulus (GPa) = 22.54306 23.16065 22.85186
# Shear Modulus (GPa) = 80.84155 14.81929 47.83042
#
# Velocity S-wave (km/s) = 6.59819 2.82502 5.07527
# Velocity P-wave (km/s) = 8.37785 4.80768 6.83016
#
# Compressibility (1/GPa) = 0.04435954
#
# Stress axis : x y z
#
# Youngs Moduli (GPa) = 28.54791 71.43970 35.67572
#
# Poissons Ratio (x) = 0.26683 0.47998
# Poissons Ratio (y) = 0.10663 -0.02998
# Poissons Ratio (z) = 0.38409 -0.06004
#
# Static dielectric constant tensor:
#      x y z
#    x 1.678580 0.000000 0.000000 
#    y 0.000000 1.664600 0.000000 
#    z 0.000000 0.000000 1.646390 
# 
# From -- ./inp_files/4727.got.cif
#   From: 2010.05.17/outbox.cif.g08.bks.cpg/sg18_3_cif.got.tgz:4727.got - 2010.06.03 22:40:56.
