data_PCOD9311025
_publ_section_title
;
Structure prediction by ZEFSAII (Michael W. Deem and Ramdas Pophale) SiO2 
 PCOD9311025
Probable space group: P 2 2 21
;
_chemical_formula_sum "Si O2"
_cell_formula_units_Z 32
_cell_length_a 7.777310
_cell_length_b 11.586648
_cell_length_c 17.761073
_cell_angle_alpha 90.000000
_cell_angle_beta 90.000000
_cell_angle_gamma 90.000000
_cell_volume 1600.502743
_symmetry_space_group_name_H-M "P 2 2 21"
_symmetry_group_IT_number 17
_symmetry_cell_setting 'orthorhombic'
loop_
_space_group_symop_operation_xyz
x,y,z
-x,-y,1/2+z
x,-y,-z
-x,y,1/2-z
loop_
_atom_site_type_symbol
_atom_site_label
_atom_site_fract_x
_atom_site_fract_y
_atom_site_fract_z
Si Si1 0.830131 0.431513 0.577830
Si Si2 0.886660 0.337661 0.817070
Si Si3 0.297766 0.927403 0.893405
Si Si4 0.698425 0.827951 0.445240
Si Si5 0.283586 0.161228 0.567312
Si Si6 0.284509 0.899043 0.597056
Si Si7 0.691049 0.527418 0.721108
Si Si8 0.288279 0.218445 0.249446
O O1 0.849929 0.500000 0.500000
O O2 0.769638 0.298975 0.568855
O O3 0.699684 0.498594 0.632814
O O4 0.000712 0.418980 0.628170
O O5 0.792802 0.249386 0.872527
O O6 0.769178 0.422844 0.768544
O O7 0.000000 0.279838 0.750000
O O8 0.506594 0.913561 0.898534
O O9 0.236261 0.861486 0.820155
O O10 0.249352 0.062561 0.893831
O O11 0.244412 0.867427 0.971337
O O12 0.491054 0.825350 0.435760
O O13 0.233540 0.168686 0.478995
O O14 0.228635 0.031890 0.590759
O O15 0.229288 0.833952 0.671706
O O16 0.500000 0.538034 0.750000
O O17 0.774198 0.651536 0.736759
O O18 0.500000 0.217871 0.250000
#
# Coordination Sequence:
#
# PCOD9311025 Si02
#       8
#     4   4   4   4   4   4   4   4
#     4  11  23  38  55  78 114 155 186 223 276 330
#     4  10  23  39  54  75 111 150 183 225 280 333
#     4   8  15  29  50  83 116 136 168 226 282 323
#     4   9  17  32  57  83 107 142 186 226 268 323
#     4   9  17  35  57  80 107 138 184 232 270 325
#     4   8  16  29  53  82 108 135 170 227 286 322
#     4  10  21  38  59  83 108 140 189 238 271 317
#     4   9  16  28  49  80 111 135 166 220 282 328
#
# _framework density 19.99372
#
# number of rings (size 3 to 8) (size 9 to 14) (size 15 to 20)
#    0.000    2.750    0.000    3.000    0.000    4.000 
#    0.000    7.500    0.000    9.750    0.000    0.000 
#    0.000    0.000    0.000    0.000    0.000    0.000 
#
# Total GULP energy -178394.085703 kJ/mol
# GULP energy per Si atom -5574.815178 kJ/mol
# Density = 1.994821 g / cm^3
# Si number density = 19.993720 Si / 1000 Ang^3
#
#
#
# Elastic Constant Matrix: (Units=GPa)
#
#
# Indices 1 2 3 4 5 6 
#
# 1 22.0822 4.8856 19.1182 0.0000 0.0000 0.0000
# 2 4.8856 112.1633 79.4417 0.0000 0.0000 0.0000
# 3 19.1182 79.4417 166.9046 0.0000 0.0000 0.0000
# 4 0.0000 0.0000 0.0000 36.9012 0.0000 0.0000
# 5 0.0000 0.0000 0.0000 0.0000 9.6620 0.0000
# 6 0.0000 0.0000 0.0000 0.0000 0.0000 -17.5133
#
#
#
# Elastic Compliance Matrix: (Units=1/GPa)
#
#
# Indices 1 2 3 4 5 6 
#
# 1 0.050882 0.002884 -0.007201 0.000000 0.000000 0.000000
# 2 0.002884 0.013613 -0.006810 0.000000 0.000000 0.000000
# 3 -0.007201 -0.006810 0.010058 0.000000 0.000000 0.000000
# 4 0.000000 0.000000 0.000000 0.027099 0.000000 0.000000
# 5 0.000000 0.000000 0.000000 0.000000 0.103498 0.000000
# 6 0.000000 0.000000 0.000000 0.000000 0.000000 -0.057099
#
#
# Mechanical properties :
#
#
# Convention : Reuss Voigt Hill
#
# Bulk Modulus (GPa) = 19.12092 56.44901 37.78496
# Shear Modulus (GPa) = 26.63296 18.99028 22.81162
#
# Velocity S-wave (km/s) = 3.65371 3.08525 3.38144
# Velocity P-wave (km/s) = 5.23294 6.40206 5.84679
#
# Compressibility (1/GPa) = 0.05229875
#
# Stress axis : x y z
#
# Youngs Moduli (GPa) = 19.65341 73.45861 99.42801
#
# Poissons Ratio (x) = -0.21184 0.71597
# Poissons Ratio (y) = -0.05668 0.67708
# Poissons Ratio (z) = 0.14152 0.50024
#
# Static dielectric constant tensor:
#      x y z
#    x 1.753490 0.000000 0.000000 
#    y 0.000000 1.702150 0.000000 
#    z 0.000000 0.000000 1.690380 
# 
# From -- ./inp_files/9529.got.cif
#   From: 2010.05.17/outbox.cif.g08.bks.cpg/sg17_5_cif.got.tgz:9529.got - 2010.06.03 22:34:06.
