data_PCOD9311649
_publ_section_title
;
Structure prediction by ZEFSAII (Michael W. Deem and Ramdas Pophale) SiO2 
 PCOD9311649
Probable space group: P 21 21 2
;
_chemical_formula_sum "Si O2"
_cell_formula_units_Z 26
_cell_length_a 13.224474
_cell_length_b 13.074202
_cell_length_c 6.183061
_cell_angle_alpha 90.000000
_cell_angle_beta 90.000000
_cell_angle_gamma 90.000000
_cell_volume 1069.047812
_symmetry_space_group_name_H-M "P 21 21 2"
_symmetry_group_IT_number 18
_symmetry_cell_setting 'orthorhombic'
loop_
_space_group_symop_operation_xyz
x,y,z
-x,-y,z
1/2+x,1/2-y,-z
1/2-x,1/2+y,-z
loop_
_atom_site_type_symbol
_atom_site_label
_atom_site_fract_x
_atom_site_fract_y
_atom_site_fract_z
Si Si1 0.053463 0.311348 0.246408
Si Si2 0.216290 0.054140 0.699248
Si Si3 0.153933 0.431925 0.623127
Si Si4 0.756316 0.780022 0.046020
Si Si5 0.663881 0.600599 0.922551
Si Si6 0.500000 0.000000 0.019360
Si Si7 0.404099 0.591720 0.691219
O O1 0.088240 0.352138 0.481870
O O2 0.024316 0.190800 0.268173
O O3 0.152473 0.300088 0.092024
O O4 0.988969 0.399681 0.131436
O O5 0.306713 0.014517 0.549770
O O6 0.236474 0.157660 0.826055
O O7 0.114823 0.069287 0.558707
O O8 0.199966 0.967318 0.875803
O O9 0.253713 0.383420 0.731097
O O10 0.092469 0.483636 0.816670
O O11 0.654989 0.712635 0.033758
O O12 0.793530 0.861531 0.226922
O O13 0.591355 0.517803 0.808320
#
# Coordination Sequence:
#
# PCOD9311649 Si02
#       7
#     4   4   4   4   4   2   4
#     4  10  20  33  46  72 105 146 179 206 261 316
#     4  10  17  30  48  71 101 139 175 217 264 311
#     4  11  19  31  50  73 104 145 177 207 258 314
#     4   9  17  29  46  68 102 138 170 215 254 313
#     4  10  17  30  48  71 101 136 173 219 259 310
#     4  12  22  32  50  74 116 150 174 212 248 316
#     4   8  18  27  47  67  97 140 167 214 259 312
#
# _framework density 24.320706999999999
#
# number of rings (size 3 to 8) (size 9 to 14) (size 15 to 20)
#    0.923    1.231    3.077    1.385    0.000    0.000 
#    0.000    0.000    0.000    0.000    0.000    0.000 
#    0.000   50.462    0.000    0.000    0.000    0.000 
#
# Total GULP energy -144742.599051 kJ/mol
# GULP energy per Si atom -5567.023040 kJ/mol
# Density = 2.426535 g / cm^3
# Si number density = 24.320707 Si / 1000 Ang^3
#
#
#
# Elastic Constant Matrix: (Units=GPa)
#
#
# Indices 1 2 3 4 5 6 
#
# 1 11.0661 0.7285 -0.1445 0.0000 0.0000 0.0000
# 2 0.7285 116.1322 26.0619 0.0000 0.0000 0.0000
# 3 -0.1445 26.0619 87.5718 0.0000 0.0000 0.0000
# 4 0.0000 0.0000 0.0000 49.6300 0.0000 0.0000
# 5 0.0000 0.0000 0.0000 0.0000 414.6119 0.0000
# 6 0.0000 0.0000 0.0000 0.0000 0.0000 32.1328
#
#
#
# Elastic Compliance Matrix: (Units=1/GPa)
#
#
# Indices 1 2 3 4 5 6 
#
# 1 0.090413 -0.000644 0.000341 0.000000 0.000000 0.000000
# 2 -0.000644 0.009232 -0.002748 0.000000 0.000000 0.000000
# 3 0.000341 -0.002748 0.012238 0.000000 0.000000 0.000000
# 4 0.000000 0.000000 0.000000 0.020149 0.000000 0.000000
# 5 0.000000 0.000000 0.000000 0.000000 0.002412 0.000000
# 6 0.000000 0.000000 0.000000 0.000000 0.000000 0.031121
#
#
# Mechanical properties :
#
#
# Convention : Reuss Voigt Hill
#
# Bulk Modulus (GPa) = 9.45363 29.78465 19.61914
# Shear Modulus (GPa) = 24.16317 111.81656 67.98987
#
# Velocity S-wave (km/s) = 3.15544 6.78791 5.29304
# Velocity P-wave (km/s) = 4.14382 8.58530 6.74087
#
# Compressibility (1/GPa) = 0.10577944
#
# Stress axis : x y z
#
# Youngs Moduli (GPa) = 11.06039 108.32228 81.71456
#
# Poissons Ratio (x) = 0.06972 -0.02784
# Poissons Ratio (y) = 0.00712 0.22459
# Poissons Ratio (z) = -0.00377 0.29772
#
# Static dielectric constant tensor:
#      x y z
#    x 2.088950 0.000000 0.000000 
#    y 0.000000 1.977180 0.000000 
#    z 0.000000 0.000000 1.896310 
# 
# From -- ./inp_files/2020.got.cif
#   From: 2010.05.17/outbox.cif.g08.bks.cpg/sg18_2_cif.got.tgz:2020.got - 2010.06.03 22:40:56.
