data_PCOD9311379
_publ_section_title
;
Structure prediction by ZEFSAII (Michael W. Deem and Ramdas Pophale) SiO2 
 PCOD9311379
Probable space group: P 2 2 21
;
_chemical_formula_sum "Si O2"
_cell_formula_units_Z 32
_cell_length_a 8.127719
_cell_length_b 13.489307
_cell_length_c 11.981215
_cell_angle_alpha 90.000000
_cell_angle_beta 90.000000
_cell_angle_gamma 90.000000
_cell_volume 1313.588025
_symmetry_space_group_name_H-M "P 2 2 21"
_symmetry_group_IT_number 17
_symmetry_cell_setting 'orthorhombic'
loop_
_space_group_symop_operation_xyz
x,y,z
-x,-y,1/2+z
x,-y,-z
-x,y,1/2-z
loop_
_atom_site_type_symbol
_atom_site_label
_atom_site_fract_x
_atom_site_fract_y
_atom_site_fract_z
Si Si1 0.190390 0.024619 0.874434
Si Si2 0.811404 0.578561 0.767146
Si Si3 0.416065 0.601161 0.544260
Si Si4 0.183037 0.236150 0.961648
Si Si5 0.818561 0.268097 0.896495
Si Si6 0.319070 0.617172 0.197277
Si Si7 0.198326 0.968367 0.376232
Si Si8 0.361993 0.245372 0.179033
O O1 0.194859 0.144359 0.877928
O O2 0.256069 0.996696 0.749266
O O3 0.994910 0.999105 0.877582
O O4 0.258720 0.000000 0.000000
O O5 0.736018 0.554009 0.886133
O O6 0.725431 0.497276 0.689512
O O7 0.769626 0.693852 0.750469
O O8 0.000000 0.563647 0.750000
O O9 0.495847 0.500000 0.500000
O O10 0.327362 0.680407 0.464991
O O11 0.528027 0.666300 0.625652
O O12 0.297740 0.324154 0.917200
O O13 0.994642 0.273146 0.959547
O O14 0.255043 0.199670 0.080034
O O15 0.809624 0.328380 0.780703
O O16 0.789121 0.151184 0.878194
O O17 0.500000 0.627389 0.250000
O O18 0.266321 0.000000 0.500000
O O19 0.500000 0.187727 0.250000
#
# Coordination Sequence:
#
# PCOD9311379 Si02
#       8
#     4   4   4   4   4   4   4   4
#     4   9  18  36  63  94 132 165 213 275 344 401
#     4  11  23  40  59  87 121 161 219 276 318 373
#     4  11  22  38  58  85 125 168 208 253 322 388
#     4  11  22  38  64  91 122 167 221 278 325 384
#     4  11  21  38  62  96 126 164 221 276 321 390
#     4  12  23  36  59  89 125 171 214 265 328 396
#     4   9  18  36  62  99 132 166 211 278 342 400
#     4  10  24  42  59  85 126 174 217 264 327 396
#
# _framework density 24.360759000000002
#
# number of rings (size 3 to 8) (size 9 to 14) (size 15 to 20)
#    0.000    1.500    2.500    3.750    1.750    0.000 
#    4.500    0.000    0.000    3.750    0.000    0.000 
#    0.000    0.000    0.000    0.000    0.000    0.000 
#
# Total GULP energy -178468.182762 kJ/mol
# GULP energy per Si atom -5577.130711 kJ/mol
# Density = 2.430531 g / cm^3
# Si number density = 24.360759 Si / 1000 Ang^3
#
#
#
# Elastic Constant Matrix: (Units=GPa)
#
#
# Indices 1 2 3 4 5 6 
#
# 1 90.0692 17.3655 34.6715 0.0000 0.0000 0.0000
# 2 17.3655 51.8441 10.1022 0.0000 0.0000 0.0000
# 3 34.6715 10.1022 142.1625 0.0000 0.0000 0.0000
# 4 0.0000 0.0000 0.0000 33.5402 0.0000 0.0000
# 5 0.0000 0.0000 0.0000 0.0000 37.5819 0.0000
# 6 0.0000 0.0000 0.0000 0.0000 0.0000 17.5638
#
#
#
# Elastic Compliance Matrix: (Units=1/GPa)
#
#
# Indices 1 2 3 4 5 6 
#
# 1 0.012942 -0.003772 -0.002888 0.000000 0.000000 0.000000
# 2 -0.003772 0.020659 -0.000548 0.000000 0.000000 0.000000
# 3 -0.002888 -0.000548 0.007778 0.000000 0.000000 0.000000
# 4 0.000000 0.000000 0.000000 0.029815 0.000000 0.000000
# 5 0.000000 0.000000 0.000000 0.000000 0.026609 0.000000
# 6 0.000000 0.000000 0.000000 0.000000 0.000000 0.056935
#
#
# Mechanical properties :
#
#
# Convention : Reuss Voigt Hill
#
# Bulk Modulus (GPa) = 37.09026 45.37269 41.23147
# Shear Modulus (GPa) = 28.06771 32.53296 30.30033
#
# Velocity S-wave (km/s) = 3.39804 3.65837 3.53061
# Velocity P-wave (km/s) = 5.53661 6.04240 5.79503
#
# Compressibility (1/GPa) = 0.02696126
#
# Stress axis : x y z
#
# Youngs Moduli (GPa) = 77.26986 48.40535 128.57504
#
# Poissons Ratio (x) = 0.18259 0.37136
# Poissons Ratio (y) = 0.29147 0.07047
# Poissons Ratio (z) = 0.22317 0.02653
#
# Static dielectric constant tensor:
#      x y z
#    x 1.970160 0.000000 0.000000 
#    y 0.000000 1.933930 0.000000 
#    z 0.000000 0.000000 2.063200 
# 
# From -- ./inp_files/6734.got.cif
#   From: 2010.05.17/outbox.cif.g08.bks.cpg/sg17_4_cif.got.tgz:6734.got - 2010.06.03 22:34:06.
