data_PCOD9311620
_publ_section_title
;
Structure prediction by ZEFSAII (Michael W. Deem and Ramdas Pophale) SiO2 
 PCOD9311620
Probable space group: P 21 21 2
;
_chemical_formula_sum "Si O2"
_cell_formula_units_Z 26
_cell_length_a 17.057608
_cell_length_b 10.830499
_cell_length_c 5.342042
_cell_angle_alpha 90.000000
_cell_angle_beta 90.000000
_cell_angle_gamma 90.000000
_cell_volume 986.901694
_symmetry_space_group_name_H-M "P 21 21 2"
_symmetry_group_IT_number 18
_symmetry_cell_setting 'orthorhombic'
loop_
_space_group_symop_operation_xyz
x,y,z
-x,-y,z
1/2+x,1/2-y,-z
1/2-x,1/2+y,-z
loop_
_atom_site_type_symbol
_atom_site_label
_atom_site_fract_x
_atom_site_fract_y
_atom_site_fract_z
Si Si1 0.298191 0.100984 0.321076
Si Si2 0.557972 0.741175 0.170711
Si Si3 0.480312 0.668937 0.662119
Si Si4 0.624884 0.089449 0.647628
Si Si5 0.848261 0.011525 0.148776
Si Si6 0.208993 0.949654 0.651682
Si Si7 0.500000 0.000000 0.018585
O O1 0.355430 0.209832 0.246847
O O2 0.355805 0.985249 0.392316
O O3 0.231234 0.072681 0.120332
O O4 0.242282 0.087164 0.569016
O O5 0.519464 0.661110 0.391665
O O6 0.541577 0.692950 0.888483
O O7 0.508286 0.872183 0.166125
O O8 0.422299 0.560743 0.746035
O O9 0.424626 0.787927 0.639377
O O10 0.712738 0.118628 0.741940
O O11 0.575915 0.002734 0.834440
O O12 0.819213 0.096603 0.378656
O O13 0.856146 0.050930 0.862931
#
# Coordination Sequence:
#
# PCOD9311620 Si02
#       7
#     4   4   4   4   4   4   2
#     4   8  18  30  48  58  89 127 164 161 217 279
#     4  11  20  27  44  66  94 123 149 182 217 270
#     4  11  21  29  43  71  99 111 149 200 230 239
#     4   8  17  28  44  66  89 123 152 181 207 273
#     4   9  18  32  44  60  88 126 149 190 218 258
#     4   8  18  29  48  54  84 123 166 164 211 271
#     4  10  16  26  42  64 102 120 148 174 220 258
#
# _framework density 26.345078000000001
#
# number of rings (size 3 to 8) (size 9 to 14) (size 15 to 20)
#    1.846    0.615    0.000    4.615    2.154    3.077 
#    0.000    0.000    0.000    0.000    0.000    0.000 
#    0.000   16.000    0.000    0.000    0.000    0.000 
#
# Total GULP energy -145082.010243 kJ/mol
# GULP energy per Si atom -5580.077317 kJ/mol
# Density = 2.628512 g / cm^3
# Si number density = 26.345078 Si / 1000 Ang^3
#
#
#
# Elastic Constant Matrix: (Units=GPa)
#
#
# Indices 1 2 3 4 5 6 
#
# 1 155.5505 26.3860 83.8695 0.0000 0.0000 0.0000
# 2 26.3860 83.3470 37.4228 0.0000 0.0000 0.0000
# 3 83.8695 37.4228 174.1157 0.0000 0.0000 0.0000
# 4 0.0000 0.0000 0.0000 39.8813 0.0000 0.0000
# 5 0.0000 0.0000 0.0000 0.0000 41.5550 0.0000
# 6 0.0000 0.0000 0.0000 0.0000 0.0000 43.5382
#
#
#
# Elastic Compliance Matrix: (Units=1/GPa)
#
#
# Indices 1 2 3 4 5 6 
#
# 1 0.008755 -0.000972 -0.004008 0.000000 0.000000 0.000000
# 2 -0.000972 0.013387 -0.002409 0.000000 0.000000 0.000000
# 3 -0.004008 -0.002409 0.008192 0.000000 0.000000 0.000000
# 4 0.000000 0.000000 0.000000 0.025074 0.000000 0.000000
# 5 0.000000 0.000000 0.000000 0.000000 0.024064 0.000000
# 6 0.000000 0.000000 0.000000 0.000000 0.000000 0.022968
#
#
# Mechanical properties :
#
#
# Convention : Reuss Voigt Hill
#
# Bulk Modulus (GPa) = 64.28623 78.70775 71.49699
# Shear Modulus (GPa) = 40.84800 42.68390 41.76595
#
# Velocity S-wave (km/s) = 3.94191 4.02952 3.98595
# Velocity P-wave (km/s) = 6.72107 7.18261 6.95567
#
# Compressibility (1/GPa) = 0.01555543
#
# Stress axis : x y z
#
# Youngs Moduli (GPa) = 114.22346 74.69674 122.07307
#
# Poissons Ratio (x) = 0.07260 0.48929
# Poissons Ratio (y) = 0.11102 0.29410
# Poissons Ratio (z) = 0.45783 0.17996
#
# Static dielectric constant tensor:
#      x y z
#    x 2.175390 0.000000 0.000000 
#    y 0.000000 2.242820 0.000000 
#    z 0.000000 0.000000 2.066400 
# 
# From -- ./inp_files/1885.got.cif
#   From: 2010.05.17/outbox.cif.g08.bks.cpg/sg18_1_cif.got.tgz:1885.got - 2010.06.03 22:40:56.
