data_PCOD9311015
_publ_section_title
;
Structure prediction by ZEFSAII (Michael W. Deem and Ramdas Pophale) SiO2 
 PCOD9311015
Probable space group: P 2 2 21
;
_chemical_formula_sum "Si O2"
_cell_formula_units_Z 24
_cell_length_a 5.615389
_cell_length_b 8.654747
_cell_length_c 19.456647
_cell_angle_alpha 90.000000
_cell_angle_beta 90.000000
_cell_angle_gamma 90.000000
_cell_volume 945.588591
_symmetry_space_group_name_H-M "P 2 2 21"
_symmetry_group_IT_number 17
_symmetry_cell_setting 'orthorhombic'
loop_
_space_group_symop_operation_xyz
x,y,z
-x,-y,1/2+z
x,-y,-z
-x,y,1/2-z
loop_
_atom_site_type_symbol
_atom_site_label
_atom_site_fract_x
_atom_site_fract_y
_atom_site_fract_z
Si Si1 0.267030 0.393013 0.329836
Si Si2 0.236552 0.512942 0.177908
Si Si3 0.216986 0.883208 0.451601
Si Si4 0.831397 0.168146 0.643799
Si Si5 0.609685 0.681659 0.495375
Si Si6 0.557723 0.882446 0.617804
O O1 0.249826 0.415979 0.248021
O O2 0.499610 0.490552 0.354112
O O3 0.355537 0.219791 0.345526
O O4 0.011907 0.455633 0.356499
O O5 0.213724 0.693884 0.195872
O O6 0.330605 0.732593 0.486655
O O7 0.102512 0.849086 0.378250
O O8 0.063624 0.000000 0.500000
O O9 0.427265 0.998666 0.431695
O O10 0.737592 0.247054 0.571586
O O11 0.723748 0.000184 0.659992
O O12 0.645518 0.500000 0.500000
O O13 0.691748 0.766659 0.565542
#
# Coordination Sequence:
#
# PCOD9311015 Si02
#       6
#     4   4   4   4   4   4
#     4  10  23  47  68  99 127 184 233 294 336 410
#     4  10  24  43  74  91 137 176 238 286 348 399
#     4   9  20  37  57  92 135 174 218 278 346 421
#     4  11  22  38  65  97 137 183 223 288 350 420
#     4  10  21  37  59  98 133 183 227 280 342 428
#     4  10  22  38  67  92 142 171 235 276 357 410
#
# _framework density 25.381014
#
# number of rings (size 3 to 8) (size 9 to 14) (size 15 to 20)
#    0.000    2.000    0.000    3.500    9.333    0.667 
#    3.000    3.333    0.000    0.000    0.000    0.000 
#    0.000    0.000    0.000    0.000    0.000    0.000 
#
# Total GULP energy -133767.398645 kJ/mol
# GULP energy per Si atom -5573.641610 kJ/mol
# Density = 2.532325 g / cm^3
# Si number density = 25.381014 Si / 1000 Ang^3
#
#
#
# Elastic Constant Matrix: (Units=GPa)
#
#
# Indices 1 2 3 4 5 6 
#
# 1 133.5926 47.9769 0.2268 0.0000 0.0000 0.0000
# 2 47.9769 177.1183 8.1870 0.0000 0.0000 0.0000
# 3 0.2268 8.1870 36.6661 0.0000 0.0000 0.0000
# 4 0.0000 0.0000 0.0000 27.5246 0.0000 0.0000
# 5 0.0000 0.0000 0.0000 0.0000 30.1211 0.0000
# 6 0.0000 0.0000 0.0000 0.0000 0.0000 13.1975
#
#
#
# Elastic Compliance Matrix: (Units=1/GPa)
#
#
# Indices 1 2 3 4 5 6 
#
# 1 0.008300 -0.002269 0.000455 0.000000 0.000000 0.000000
# 2 -0.002269 0.006325 -0.001398 0.000000 0.000000 0.000000
# 3 0.000455 -0.001398 0.027583 0.000000 0.000000 0.000000
# 4 0.000000 0.000000 0.000000 0.036331 0.000000 0.000000
# 5 0.000000 0.000000 0.000000 0.000000 0.033199 0.000000
# 6 0.000000 0.000000 0.000000 0.000000 0.000000 0.075772
#
#
# Mechanical properties :
#
#
# Convention : Reuss Voigt Hill
#
# Bulk Modulus (GPa) = 27.94615 51.12871 39.53743
# Shear Modulus (GPa) = 24.28813 33.56772 28.92792
#
# Velocity S-wave (km/s) = 3.09680 3.64064 3.37968
# Velocity P-wave (km/s) = 4.88072 6.15309 5.55347
#
# Compressibility (1/GPa) = 0.03578310
#
# Stress axis : x y z
#
# Youngs Moduli (GPa) = 120.48764 158.09655 36.25476
#
# Poissons Ratio (x) = 0.35875 -0.01651
# Poissons Ratio (y) = 0.27341 0.05070
# Poissons Ratio (z) = -0.05486 0.22107
#
# Static dielectric constant tensor:
#      x y z
#    x 2.159540 0.000000 0.000000 
#    y 0.000000 2.092470 0.000000 
#    z 0.000000 0.000000 2.188810 
# 
# From -- ./inp_files/10415.got.cif
#   From: 2010.05.17/outbox.cif.g08.bks.cpg/sg17_6_cif.got.tgz:10415.got - 2010.06.03 22:34:06.
