data_PCOD9311969
_publ_section_title
;
Structure prediction by ZEFSAII (Michael W. Deem and Ramdas Pophale) SiO2 
 PCOD9311969
Probable space group: P 21 21 2
;
_chemical_formula_sum "Si O2"
_cell_formula_units_Z 28
_cell_length_a 19.634198
_cell_length_b 6.943783
_cell_length_c 11.524455
_cell_angle_alpha 90.000000
_cell_angle_beta 90.000000
_cell_angle_gamma 90.000000
_cell_volume 1571.193606
_symmetry_space_group_name_H-M "P 21 21 2"
_symmetry_group_IT_number 18
_symmetry_cell_setting 'orthorhombic'
loop_
_space_group_symop_operation_xyz
x,y,z
-x,-y,z
1/2+x,1/2-y,-z
1/2-x,1/2+y,-z
loop_
_atom_site_type_symbol
_atom_site_label
_atom_site_fract_x
_atom_site_fract_y
_atom_site_fract_z
Si Si1 0.849152 0.924767 0.731985
Si Si2 0.318610 0.691173 0.017009
Si Si3 0.277710 0.338933 0.654536
Si Si4 0.811876 0.312323 0.599924
Si Si5 0.919775 0.461584 0.961228
Si Si6 0.169219 0.819600 0.102972
Si Si7 0.074731 0.436672 0.691287
O O1 0.835587 0.132329 0.678311
O O2 0.845172 0.925681 0.870569
O O3 0.787819 0.786987 0.690654
O O4 0.914570 0.794045 0.699076
O O5 0.367538 0.871884 0.999290
O O6 0.240769 0.746105 0.046219
O O7 0.325673 0.547904 0.911568
O O8 0.252671 0.562060 0.645755
O O9 0.299512 0.269439 0.527937
O O10 0.329712 0.289955 0.758584
O O11 0.872300 0.467219 0.604259
O O12 0.911747 0.472930 0.820586
O O13 0.000000 0.500000 0.983437
O O14 0.891834 0.276621 0.030555
O O15 0.000000 0.500000 0.658502
#
# Coordination Sequence:
#
# PCOD9311969 Si02
#       7
#     4   4   4   4   4   4   4
#     4   9  19  33  55  80 109 143 180 224 292 328
#     4  10  20  33  57  86 111 146 185 234 282 339
#     4  10  22  33  53  82 110 143 190 230 287 336
#     4  11  19  36  55  78 113 145 184 244 278 337
#     4  10  21  39  58  85 121 152 187 235 290 350
#     4  11  21  34  55  87 115 149 188 233 287 346
#     4   9  20  36  57  85 111 144 192 235 280 342
#
# _framework density 17.820847000000001
#
# number of rings (size 3 to 8) (size 9 to 14) (size 15 to 20)
#    0.000    2.000    2.857    1.714    2.000    1.143 
#    0.000    5.000    0.000    1.714    0.000    0.000 
#    0.000    0.000    0.000    0.000    0.000    0.000 
#
# Total GULP energy -155924.363976 kJ/mol
# GULP energy per Si atom -5568.727285 kJ/mol
# Density = 1.778029 g / cm^3
# Si number density = 17.820847 Si / 1000 Ang^3
#
#
#
# Elastic Constant Matrix: (Units=GPa)
#
#
# Indices 1 2 3 4 5 6 
#
# 1 69.5639 15.1115 17.9708 0.0000 0.0000 0.0000
# 2 15.1115 65.9086 23.5465 0.0000 0.0000 0.0000
# 3 17.9708 23.5465 29.2105 0.0000 0.0000 0.0000
# 4 0.0000 0.0000 0.0000 26.5384 0.0000 0.0000
# 5 0.0000 0.0000 0.0000 0.0000 15.8709 0.0000
# 6 0.0000 0.0000 0.0000 0.0000 0.0000 26.3672
#
#
#
# Elastic Compliance Matrix: (Units=1/GPa)
#
#
# Indices 1 2 3 4 5 6 
#
# 1 0.017094 -0.000228 -0.010333 0.000000 0.000000 0.000000
# 2 -0.000228 0.021312 -0.017040 0.000000 0.000000 0.000000
# 3 -0.010333 -0.017040 0.054327 0.000000 0.000000 0.000000
# 4 0.000000 0.000000 0.000000 0.037681 0.000000 0.000000
# 5 0.000000 0.000000 0.000000 0.000000 0.063008 0.000000
# 6 0.000000 0.000000 0.000000 0.000000 0.000000 0.037926
#
#
# Mechanical properties :
#
#
# Convention : Reuss Voigt Hill
#
# Bulk Modulus (GPa) = 26.64355 30.88226 28.76290
# Shear Modulus (GPa) = 16.71901 20.95890 18.83895
#
# Velocity S-wave (km/s) = 3.06628 3.43314 3.25488
# Velocity P-wave (km/s) = 5.24589 5.75171 5.50461
#
# Compressibility (1/GPa) = 0.03753254
#
# Stress axis : x y z
#
# Youngs Moduli (GPa) = 58.49963 46.92112 18.40707
#
# Poissons Ratio (x) = 0.01069 0.19020
# Poissons Ratio (y) = 0.01332 0.31365
# Poissons Ratio (z) = 0.60447 0.79952
#
# Static dielectric constant tensor:
#      x y z
#    x 1.615970 0.000000 0.000000 
#    y 0.000000 1.647150 0.000000 
#    z 0.000000 0.000000 1.606190 
# 
# From -- ./inp_files/5213.got.cif
#   From: 2010.05.17/outbox.cif.g08.bks.cpg/sg18_3_cif.got.tgz:5213.got - 2010.06.03 22:40:56.
