data_PCOD9311606
_publ_section_title
;
Structure prediction by ZEFSAII (Michael W. Deem and Ramdas Pophale) SiO2 
 PCOD9311606
Probable space group: P 2 2 21
;
_chemical_formula_sum "Si O2"
_cell_formula_units_Z 32
_cell_length_a 15.000000
_cell_length_b 12.000000
_cell_length_c 9.000000
_cell_angle_alpha 90.000000
_cell_angle_beta 90.000000
_cell_angle_gamma 90.000000
_cell_volume 1620.000000
_symmetry_space_group_name_H-M "P 2 2 21"
_symmetry_group_IT_number 17
_symmetry_cell_setting 'orthorhombic'
loop_
_space_group_symop_operation_xyz
x,y,z
-x,-y,1/2+z
x,-y,-z
-x,y,1/2-z
loop_
_atom_site_type_symbol
_atom_site_label
_atom_site_fract_x
_atom_site_fract_y
_atom_site_fract_z
Si Si1 0.163634 0.510603 0.177079
Si Si2 0.123720 0.332141 0.430556
Si Si3 0.599188 0.183941 0.912928
Si Si4 0.299361 0.588468 0.388765
Si Si5 0.948645 0.722770 0.390286
Si Si6 0.768731 0.890351 0.900795
Si Si7 0.207556 0.127039 0.045414
Si Si8 0.601534 0.118926 0.581572
O O1 0.128479 0.405817 0.277604
O O2 0.263106 0.535488 0.237473
O O3 0.101954 0.620289 0.190506
O O4 0.165946 0.500000 0.000000
O O5 0.204593 0.381770 0.530585
O O6 0.156914 0.204653 0.427247
O O7 0.024732 0.327512 0.499773
O O8 0.637259 0.305859 0.871442
O O9 0.608080 0.111628 0.761227
O O10 0.493568 0.180088 0.951266
O O11 0.669666 0.143268 0.038081
O O12 0.343194 0.500000 0.500000
O O13 0.874169 0.795354 0.482428
O O14 0.000000 0.782089 0.250000
O O15 0.772106 0.888722 0.721472
O O16 0.790880 0.000000 0.000000
O O17 0.302413 0.166067 0.973148
O O18 0.187281 0.000000 0.000000
O O19 0.594285 0.000000 0.500000
#
# Coordination Sequence:
#
# PCOD9311606 Si02
#       8
#     4   4   4   4   4   4   4   4
#     4  11  23  37  64  95 135 172 223 285 336 398
#     4  10  24  41  60  96 128 168 229 271 333 411
#     4  10  21  39  67  99 130 174 219 273 347 404
#     4   9  19  39  64  93 128 175 220 268 332 410
#     4  12  26  41  68  95 132 182 227 293 351 408
#     4  11  23  41  67  92 134 179 215 276 346 419
#     4  11  26  44  64  96 133 173 228 279 345 426
#     4  10  21  38  66  99 129 166 223 281 334 417
#
# _framework density 19.753086
#
# number of rings (size 3 to 8) (size 9 to 14) (size 15 to 20)
#    0.000    1.500    1.250    3.375    5.250    4.500 
#    0.000    0.000    0.000   17.250    0.000    0.000 
#    0.000    0.000    0.000    0.000    0.000    0.000 
#
# Total GULP energy -178358.596217 kJ/mol
# GULP energy per Si atom -5573.706132 kJ/mol
# Density = 1.970813 g / cm^3
# Si number density = 19.753086 Si / 1000 Ang^3
#
#
#
# Elastic Constant Matrix: (Units=GPa)
#
#
# Indices 1 2 3 4 5 6 
#
# 1 126.7269 49.7564 49.1617 0.0000 0.0000 0.0000
# 2 49.7564 98.3875 40.0484 0.0000 0.0000 0.0000
# 3 49.1617 40.0484 141.6353 0.0000 0.0000 0.0000
# 4 0.0000 0.0000 0.0000 34.4113 0.0000 0.0000
# 5 0.0000 0.0000 0.0000 0.0000 27.4714 0.0000
# 6 0.0000 0.0000 0.0000 0.0000 0.0000 28.9963
#
#
#
# Elastic Compliance Matrix: (Units=1/GPa)
#
#
# Indices 1 2 3 4 5 6 
#
# 1 0.010538 -0.004340 -0.002431 0.000000 0.000000 0.000000
# 2 -0.004340 0.013273 -0.002247 0.000000 0.000000 0.000000
# 3 -0.002431 -0.002247 0.008539 0.000000 0.000000 0.000000
# 4 0.000000 0.000000 0.000000 0.029060 0.000000 0.000000
# 5 0.000000 0.000000 0.000000 0.000000 0.036402 0.000000
# 6 0.000000 0.000000 0.000000 0.000000 0.000000 0.034487
#
#
# Mechanical properties :
#
#
# Convention : Reuss Voigt Hill
#
# Bulk Modulus (GPa) = 69.85161 71.63140 70.74151
# Shear Modulus (GPa) = 32.23615 33.36135 32.79875
#
# Velocity S-wave (km/s) = 4.04413 4.11410 4.07927
# Velocity P-wave (km/s) = 7.56609 7.67528 7.62088
#
# Compressibility (1/GPa) = 0.01431606
#
# Stress axis : x y z
#
# Youngs Moduli (GPa) = 94.89637 75.34012 117.10539
#
# Poissons Ratio (x) = 0.32696 0.28463
# Poissons Ratio (y) = 0.41183 0.26310
# Poissons Ratio (z) = 0.23065 0.16927
#
# Static dielectric constant tensor:
#      x y z
#    x 1.680970 0.000000 0.000000 
#    y 0.000000 1.758930 0.000000 
#    z 0.000000 0.000000 1.776600 
# 
# From -- ./inp_files/5254.got.cif
#   From: 2010.05.17/outbox.ucp.g08.bks.cvg/sg17_3_cif.got.tgz:5254.got - 2010.06.11 13:12:59.
