data_PCOD9311676
_publ_section_title
;
Structure prediction by ZEFSAII (Michael W. Deem and Ramdas Pophale) SiO2 
 PCOD9311676
Probable space group: P 21 21 2
;
_chemical_formula_sum "Si O2"
_cell_formula_units_Z 26
_cell_length_a 12.693675
_cell_length_b 13.506773
_cell_length_c 5.586674
_cell_angle_alpha 90.000000
_cell_angle_beta 90.000000
_cell_angle_gamma 90.000000
_cell_volume 957.838535
_symmetry_space_group_name_H-M "P 21 21 2"
_symmetry_group_IT_number 18
_symmetry_cell_setting 'orthorhombic'
loop_
_space_group_symop_operation_xyz
x,y,z
-x,-y,z
1/2+x,1/2-y,-z
1/2-x,1/2+y,-z
loop_
_atom_site_type_symbol
_atom_site_label
_atom_site_fract_x
_atom_site_fract_y
_atom_site_fract_z
Si Si1 0.496918 0.776074 0.863460
Si Si2 0.515242 0.319955 0.370146
Si Si3 0.500000 0.000000 0.964121
Si Si4 0.732242 0.719360 0.394189
Si Si5 0.765188 0.473886 0.012961
Si Si6 0.699229 0.446735 0.514182
Si Si7 0.244793 0.758212 0.110012
O O1 0.455916 0.735327 0.120386
O O2 0.498559 0.894074 0.836639
O O3 0.617770 0.738024 0.874655
O O4 0.453296 0.732966 0.618213
O O5 0.388559 0.318401 0.376762
O O6 0.584519 0.418455 0.405542
O O7 0.615954 0.992528 0.081969
O O8 0.736721 0.841838 0.433444
O O9 0.780738 0.694749 0.137247
O O10 0.780434 0.690449 0.647457
O O11 0.693009 0.495847 0.779304
O O12 0.741434 0.358373 0.067235
O O13 0.752835 0.506329 0.294031
#
# Coordination Sequence:
#
# PCOD9311676 Si02
#       7
#     4   4   2   4   4   4   4
#     4   9  18  28  44  66  91 128 159 195 242 293
#     4  10  18  30  45  65  96 129 165 202 243 297
#     4  10  20  34  52  74 108 136 168 202 256 324
#     4   8  14  24  38  57  80 113 146 182 228 272
#     4   9  18  28  44  66  91 128 159 195 242 293
#     4  10  18  30  45  65  96 129 165 202 243 297
#     4   7  12  23  36  54  80 108 144 172 214 271
#
# _framework density 27.144451
#
# number of rings (size 3 to 8) (size 9 to 14) (size 15 to 20)
#    0.000    3.077    0.000    2.769    0.000    2.462 
#    0.000    0.000    0.000    0.000    0.000    0.000 
#    0.000    7.385    0.000    0.000    0.000    0.000 
#
# Total GULP energy -144922.885613 kJ/mol
# GULP energy per Si atom -5573.957139 kJ/mol
# Density = 2.708267 g / cm^3
# Si number density = 27.144451 Si / 1000 Ang^3
#
#
#
# Elastic Constant Matrix: (Units=GPa)
#
#
# Indices 1 2 3 4 5 6 
#
# 1 122.3555 16.2670 46.1679 0.0000 0.0000 0.0000
# 2 16.2670 66.8118 22.5935 0.0000 0.0000 0.0000
# 3 46.1679 22.5935 286.3687 0.0000 0.0000 0.0000
# 4 0.0000 0.0000 0.0000 -7.7628 0.0000 0.0000
# 5 0.0000 0.0000 0.0000 0.0000 47.4626 0.0000
# 6 0.0000 0.0000 0.0000 0.0000 0.0000 40.0216
#
#
#
# Elastic Compliance Matrix: (Units=1/GPa)
#
#
# Indices 1 2 3 4 5 6 
#
# 1 0.008892 -0.001726 -0.001297 0.000000 0.000000 0.000000
# 2 -0.001726 0.015713 -0.000961 0.000000 0.000000 0.000000
# 3 -0.001297 -0.000961 0.003777 0.000000 0.000000 0.000000
# 4 0.000000 0.000000 0.000000 -0.128820 0.000000 0.000000
# 5 0.000000 0.000000 0.000000 0.000000 0.021069 0.000000
# 6 0.000000 0.000000 0.000000 0.000000 0.000000 0.024987
#
#
# Mechanical properties :
#
#
# Convention : Reuss Voigt Hill
#
# Bulk Modulus (GPa) = 48.99123 71.73252 60.36188
# Shear Modulus (GPa) = -126.23612 41.97812 -42.12900
#
# Velocity S-wave (km/s) = -6.82688 3.93679 -3.94385
# Velocity P-wave (km/s) = 6.63733 6.86644 1.24374
#
# Compressibility (1/GPa) = 0.02041181
#
# Stress axis : x y z
#
# Youngs Moduli (GPa) = 112.46150 63.64230 264.75982
#
# Poissons Ratio (x) = 0.10986 0.34349
# Poissons Ratio (y) = 0.19414 0.25454
# Poissons Ratio (z) = 0.14590 0.06118
#
# Static dielectric constant tensor:
#      x y z
#    x 2.215550 0.000000 0.000000 
#    y 0.000000 2.185630 0.000000 
#    z 0.000000 0.000000 2.201690 
# 
# From -- ./inp_files/1551.got.cif
#   From: 2010.05.17/outbox.cif.g08.bks.cpg/sg18_1_cif.got.tgz:1551.got - 2010.06.03 22:40:56.
