data_PCOD9311387
_publ_section_title
;
Structure prediction by ZEFSAII (Michael W. Deem and Ramdas Pophale) SiO2 
 PCOD9311387
Probable space group: P 2 2 21
;
_chemical_formula_sum "Si O2"
_cell_formula_units_Z 18
_cell_length_a 8.302005
_cell_length_b 13.509481
_cell_length_c 8.069849
_cell_angle_alpha 90.000000
_cell_angle_beta 90.000000
_cell_angle_gamma 90.000000
_cell_volume 905.080199
_symmetry_space_group_name_H-M "P 2 2 21"
_symmetry_group_IT_number 17
_symmetry_cell_setting 'orthorhombic'
loop_
_space_group_symop_operation_xyz
x,y,z
-x,-y,1/2+z
x,-y,-z
-x,y,1/2-z
loop_
_atom_site_type_symbol
_atom_site_label
_atom_site_fract_x
_atom_site_fract_y
_atom_site_fract_z
Si Si1 0.679438 0.953846 0.819199
Si Si2 0.172723 0.771645 0.821437
Si Si3 0.586032 0.608688 0.570903
Si Si4 0.826041 0.141401 0.678279
Si Si5 0.500000 0.734960 0.250000
O O1 0.500000 0.960501 0.750000
O O2 0.731345 0.839616 0.809574
O O3 0.795751 0.026833 0.718357
O O4 0.681227 0.000000 0.000000
O O5 0.259055 0.673152 0.882111
O O6 0.000000 0.749628 0.750000
O O7 0.165334 0.839382 0.983951
O O8 0.618851 0.500000 0.500000
O O9 0.500000 0.600553 0.750000
O O10 0.500405 0.669218 0.419330
O O11 0.664706 0.199541 0.742061
O O12 0.000000 0.173267 0.750000
#
# Coordination Sequence:
#
# PCOD9311387 Si02
#       5
#     4   4   4   4   2
#     4  12  24  39  64  99 141 186 231 278 339 420
#     4  11  25  43  65 100 139 179 230 287 353 420
#     4  11  24  45  74  98 133 177 241 296 364 416
#     4  11  23  41  67  97 143 183 230 276 344 416
#     4  10  24  44  66 106 136 184 230 292 346 436
#
# _framework density 19.887739
#
# number of rings (size 3 to 8) (size 9 to 14) (size 15 to 20)
#    0.000    0.889    2.222    4.667    9.333    0.000 
#    0.000    5.556    0.000    0.000    0.000    0.000 
#    0.000    0.000    0.000    0.000    0.000    0.000 
#
# Total GULP energy -100548.634246 kJ/mol
# GULP energy per Si atom -5586.035236 kJ/mol
# Density = 1.984247 g / cm^3
# Si number density = 19.887739 Si / 1000 Ang^3
#
#
#
# Elastic Constant Matrix: (Units=GPa)
#
#
# Indices 1 2 3 4 5 6 
#
# 1 130.7624 61.1428 63.5548 0.0000 0.0000 0.0000
# 2 61.1428 121.4681 57.8792 0.0000 0.0000 0.0000
# 3 63.5548 57.8792 126.4387 0.0000 0.0000 0.0000
# 4 0.0000 0.0000 0.0000 31.9553 0.0000 0.0000
# 5 0.0000 0.0000 0.0000 0.0000 35.4325 0.0000
# 6 0.0000 0.0000 0.0000 0.0000 0.0000 13.2717
#
#
#
# Elastic Compliance Matrix: (Units=1/GPa)
#
#
# Indices 1 2 3 4 5 6 
#
# 1 0.011364 -0.003835 -0.003956 0.000000 0.000000 0.000000
# 2 -0.003835 0.011823 -0.003485 0.000000 0.000000 0.000000
# 3 -0.003956 -0.003485 0.011493 0.000000 0.000000 0.000000
# 4 0.000000 0.000000 0.000000 0.031294 0.000000 0.000000
# 5 0.000000 0.000000 0.000000 0.000000 0.028223 0.000000
# 6 0.000000 0.000000 0.000000 0.000000 0.000000 0.075348
#
#
# Mechanical properties :
#
#
# Convention : Reuss Voigt Hill
#
# Bulk Modulus (GPa) = 82.45529 82.64696 82.55113
# Shear Modulus (GPa) = 25.49213 29.20473 27.34843
#
# Velocity S-wave (km/s) = 3.58411 3.83623 3.71231
# Velocity P-wave (km/s) = 7.66017 7.82746 7.74427
#
# Compressibility (1/GPa) = 0.01212778
#
# Stress axis : x y z
#
# Youngs Moduli (GPa) = 88.00092 84.57824 87.00999
#
# Poissons Ratio (x) = 0.32434 0.34425
# Poissons Ratio (y) = 0.33746 0.30321
# Poissons Ratio (z) = 0.34818 0.29474
#
# Static dielectric constant tensor:
#      x y z
#    x 1.699690 0.000000 0.000000 
#    y 0.000000 1.688430 0.000000 
#    z 0.000000 0.000000 1.740670 
# 
# From -- ./inp_files/3928.got.cif
#   From: 2010.05.17/outbox.cif.g08.bks.cpg/sg17_2_cif.got.tgz:3928.got - 2010.06.03 22:34:06.
