data_PCOD9311670
_publ_section_title
;
Structure prediction by ZEFSAII (Michael W. Deem and Ramdas Pophale) SiO2 
 PCOD9311670
Probable space group: P 21 21 2
;
_chemical_formula_sum "Si O2"
_cell_formula_units_Z 24
_cell_length_a 5.518602
_cell_length_b 12.988851
_cell_length_c 13.683072
_cell_angle_alpha 90.000000
_cell_angle_beta 90.000000
_cell_angle_gamma 90.000000
_cell_volume 980.806694
_symmetry_space_group_name_H-M "P 21 21 2"
_symmetry_group_IT_number 18
_symmetry_cell_setting 'orthorhombic'
loop_
_space_group_symop_operation_xyz
x,y,z
-x,-y,z
1/2+x,1/2-y,-z
1/2-x,1/2+y,-z
loop_
_atom_site_type_symbol
_atom_site_label
_atom_site_fract_x
_atom_site_fract_y
_atom_site_fract_z
Si Si1 0.959993 0.178468 0.295139
Si Si2 0.452061 0.393629 0.344631
Si Si3 0.521777 0.812664 0.886634
Si Si4 0.520195 0.614356 0.026698
Si Si5 0.539851 0.842710 0.320469
Si Si6 0.450902 0.152869 0.553204
O O1 0.968461 0.277505 0.224828
O O2 0.711824 0.119332 0.278514
O O3 0.956865 0.230117 0.403537
O O4 0.206424 0.117414 0.282213
O O5 0.500000 0.500000 0.286613
O O6 0.457276 0.280412 0.296925
O O7 0.689506 0.389075 0.414098
O O8 0.192758 0.396557 0.399912
O O9 0.273527 0.871226 0.914399
O O10 0.771758 0.868937 0.912883
O O11 0.520291 0.705325 0.947005
O O12 0.500000 0.500000 0.984396
O O13 0.534199 0.853605 0.437107
#
# Coordination Sequence:
#
# PCOD9311670 Si02
#       6
#     4   4   4   4   4   4
#     4  10  18  32  53  79 107 136 176 225 259 310
#     4  10  18  29  45  67  95 129 176 223 262 302
#     4  10  21  37  60  90 114 146 189 230 282 341
#     4  10  21  40  62  84 116 149 181 228 290 352
#     4  10  19  33  53  73 102 147 182 210 260 315
#     4  10  19  33  50  71 100 145 183 208 258 314
#
# _framework density 24.469652
#
# number of rings (size 3 to 8) (size 9 to 14) (size 15 to 20)
#    0.000    2.000    0.000    7.000    0.000    0.000 
#    0.000   20.000    0.000   11.000    0.000    0.000 
#    0.000    0.000    0.000    0.000    0.000    0.000 
#
# Total GULP energy -134042.340159 kJ/mol
# GULP energy per Si atom -5585.097507 kJ/mol
# Density = 2.441396 g / cm^3
# Si number density = 24.469652 Si / 1000 Ang^3
#
#
#
# Elastic Constant Matrix: (Units=GPa)
#
#
# Indices 1 2 3 4 5 6 
#
# 1 269.4644 10.0948 29.4332 0.0000 0.0000 0.0000
# 2 10.0948 57.0344 12.4144 0.0000 0.0000 0.0000
# 3 29.4332 12.4144 31.9502 0.0000 0.0000 0.0000
# 4 0.0000 0.0000 0.0000 -60.4060 0.0000 0.0000
# 5 0.0000 0.0000 0.0000 0.0000 28.4891 0.0000
# 6 0.0000 0.0000 0.0000 0.0000 0.0000 3.4781
#
#
#
# Elastic Compliance Matrix: (Units=1/GPa)
#
#
# Indices 1 2 3 4 5 6 
#
# 1 0.004127 0.000106 -0.003843 0.000000 0.000000 0.000000
# 2 0.000106 0.019156 -0.007541 0.000000 0.000000 0.000000
# 3 -0.003843 -0.007541 0.037769 0.000000 0.000000 0.000000
# 4 0.000000 0.000000 0.000000 -0.016555 0.000000 0.000000
# 5 0.000000 0.000000 0.000000 0.000000 0.035101 0.000000
# 6 0.000000 0.000000 0.000000 0.000000 0.000000 0.287515
#
#
# Mechanical properties :
#
#
# Convention : Reuss Voigt Hill
#
# Bulk Modulus (GPa) = 25.97655 51.37043 38.67349
# Shear Modulus (GPa) = 12.42233 14.74601 13.58417
#
# Velocity S-wave (km/s) = 2.25558 2.45750 2.35870
# Velocity P-wave (km/s) = 4.17402 5.39366 4.82255
#
# Compressibility (1/GPa) = 0.03849626
#
# Stress axis : x y z
#
# Youngs Moduli (GPa) = 242.31535 52.20326 26.47675
#
# Poissons Ratio (x) = -0.00554 0.10175
# Poissons Ratio (y) = -0.02570 0.19966
# Poissons Ratio (z) = 0.93121 0.39366
#
# Static dielectric constant tensor:
#      x y z
#    x 2.023990 0.000000 0.000000 
#    y 0.000000 2.048570 0.000000 
#    z 0.000000 0.000000 1.959030 
# 
# From -- ./inp_files/6487.got.cif
#   From: 2010.05.17/outbox.cif.g08.bks.cpg/sg18_4_cif.got.tgz:6487.got - 2010.06.03 22:40:56.
