data_PCOD9311441
_publ_section_title
;
Structure prediction by ZEFSAII (Michael W. Deem and Ramdas Pophale) SiO2 
 PCOD9311441
Probable space group: P 2 2 21
;
_chemical_formula_sum "Si O2"
_cell_formula_units_Z 20
_cell_length_a 5.118252
_cell_length_b 4.990806
_cell_length_c 30.023882
_cell_angle_alpha 90.000000
_cell_angle_beta 90.000000
_cell_angle_gamma 90.000000
_cell_volume 766.936130
_symmetry_space_group_name_H-M "P 2 2 21"
_symmetry_group_IT_number 17
_symmetry_cell_setting 'orthorhombic'
loop_
_space_group_symop_operation_xyz
x,y,z
-x,-y,1/2+z
x,-y,-z
-x,y,1/2-z
loop_
_atom_site_type_symbol
_atom_site_label
_atom_site_fract_x
_atom_site_fract_y
_atom_site_fract_z
Si Si1 0.500000 0.462756 0.250000
Si Si2 0.852531 0.500000 0.500000
Si Si3 0.740053 0.092775 0.045900
Si Si4 0.786703 0.934114 0.213873
Si Si5 0.620500 0.533964 0.591296
Si Si6 0.104107 0.735064 0.378332
O O1 0.561036 0.702895 0.213633
O O2 0.698364 0.230589 0.230109
O O3 0.666875 0.420392 0.541306
O O4 0.051051 0.694954 0.526386
O O5 0.510963 0.184036 0.079126
O O6 0.913077 0.896404 0.075509
O O7 0.615680 0.000000 0.000000
O O8 0.911023 0.920116 0.164968
O O9 0.000000 0.836907 0.250000
O O10 0.387824 0.392197 0.617113
O O11 0.881251 0.491241 0.619407
#
# Coordination Sequence:
#
# PCOD9311441 Si02
#       6
#     2   2   4   4   4   4
#     4  10  26  52  82 120 158 210 268 334 422 502
#     4  12  24  48  72 108 158 212 272 328 394 492
#     4  12  25  50  75 112 159 218 268 334 408 485
#     4  11  27  53  86 120 163 215 271 350 428 511
#     4  12  27  50  69 115 157 206 271 331 392 490
#     4  12  30  48  79 115 158 211 270 339 418 491
#
# _framework density 26.077791999999999
#
# number of rings (size 3 to 8) (size 9 to 14) (size 15 to 20)
#    0.000    0.400    4.000    2.400   11.200    0.800 
#    7.200    0.000    0.000    0.000    0.000    0.000 
#    0.000    0.000    0.000    0.000    0.000    0.000 
#
# Total GULP energy -111401.117534 kJ/mol
# GULP energy per Si atom -5570.055877 kJ/mol
# Density = 2.601844 g / cm^3
# Si number density = 26.077792 Si / 1000 Ang^3
#
#
#
# Elastic Constant Matrix: (Units=GPa)
#
#
# Indices 1 2 3 4 5 6 
#
# 1 103.1391 15.3591 11.9037 0.0000 0.0000 0.0000
# 2 15.3591 98.0383 0.6771 0.0000 0.0000 0.0000
# 3 11.9037 0.6771 73.6251 0.0000 0.0000 0.0000
# 4 0.0000 0.0000 0.0000 -13.2654 0.0000 0.0000
# 5 0.0000 0.0000 0.0000 0.0000 31.7728 0.0000
# 6 0.0000 0.0000 0.0000 0.0000 0.0000 33.8173
#
#
#
# Elastic Compliance Matrix: (Units=1/GPa)
#
#
# Indices 1 2 3 4 5 6 
#
# 1 0.010117 -0.001574 -0.001621 0.000000 0.000000 0.000000
# 2 -0.001574 0.010446 0.000158 0.000000 0.000000 0.000000
# 3 -0.001621 0.000158 0.013843 0.000000 0.000000 0.000000
# 4 0.000000 0.000000 0.000000 -0.075384 0.000000 0.000000
# 5 0.000000 0.000000 0.000000 0.000000 0.031473 0.000000
# 6 0.000000 0.000000 0.000000 0.000000 0.000000 0.029571
#
#
# Mechanical properties :
#
#
# Convention : Reuss Voigt Hill
#
# Bulk Modulus (GPa) = 35.29536 36.74248 36.01892
# Shear Modulus (GPa) = 140.51526 26.92245 83.71885
#
# Velocity S-wave (km/s) = 7.34848 3.21657 5.67214
# Velocity P-wave (km/s) = 9.25009 5.28349 7.53258
#
# Compressibility (1/GPa) = 0.02833234
#
# Stress axis : x y z
#
# Youngs Moduli (GPa) = 98.84228 95.73446 72.23868
#
# Poissons Ratio (x) = 0.15067 0.11712
# Poissons Ratio (y) = 0.15556 -0.01144
# Poissons Ratio (z) = 0.16025 -0.01516
#
# Static dielectric constant tensor:
#      x y z
#    x 2.124100 0.000000 0.000000 
#    y 0.000000 2.332610 0.000000 
#    z 0.000000 0.000000 2.053320 
# 
# From -- ./inp_files/11049.got.cif
#   From: 2010.05.17/outbox.cif.g08.bks.cpg/sg17_6_cif.got.tgz:11049.got - 2010.06.03 22:34:06.
