data_PCOD9311793
_publ_section_title
;
Structure prediction by ZEFSAII (Michael W. Deem and Ramdas Pophale) SiO2 
 PCOD9311793
Probable space group: P 21 21 2
;
_chemical_formula_sum "Si O2"
_cell_formula_units_Z 24
_cell_length_a 19.542410
_cell_length_b 9.106110
_cell_length_c 5.316729
_cell_angle_alpha 90.000000
_cell_angle_beta 90.000000
_cell_angle_gamma 90.000000
_cell_volume 946.140291
_symmetry_space_group_name_H-M "P 21 21 2"
_symmetry_group_IT_number 18
_symmetry_cell_setting 'orthorhombic'
loop_
_space_group_symop_operation_xyz
x,y,z
-x,-y,z
1/2+x,1/2-y,-z
1/2-x,1/2+y,-z
loop_
_atom_site_type_symbol
_atom_site_label
_atom_site_fract_x
_atom_site_fract_y
_atom_site_fract_z
Si Si1 0.687049 0.321474 0.870007
Si Si2 0.985921 0.758163 0.472031
Si Si3 0.816531 0.442730 0.979498
Si Si4 0.886139 0.039176 0.415423
Si Si5 0.735252 0.101701 0.525714
Si Si6 0.566755 0.118735 0.031934
O O1 0.763003 0.308732 0.985001
O O2 0.648209 0.477252 0.843315
O O3 0.702227 0.260894 0.585903
O O4 0.633366 0.224255 0.018982
O O5 0.967603 0.658211 0.232293
O O6 0.060170 0.828473 0.422482
O O7 0.932860 0.897390 0.490419
O O8 0.975195 0.666197 0.725277
O O9 0.788009 0.524563 0.729935
O O10 0.798866 0.513481 0.246224
O O11 0.898006 0.457812 0.956604
O O12 0.817158 0.092513 0.553502
#
# Coordination Sequence:
#
# PCOD9311793 Si02
#       6
#     4   4   4   4   4   4
#     4   9  19  34  53  78 103 130 168 214 256 300
#     4  10  20  32  51  74 106 134 165 207 244 306
#     4  10  19  32  51  74 104 134 165 209 255 301
#     4   9  19  33  51  77 103 134 167 204 257 297
#     4  10  20  33  51  76 106 133 166 211 254 301
#     4  10  19  33  49  75 102 132 167 203 254 299
#
# _framework density 25.366216999999999
#
# number of rings (size 3 to 8) (size 9 to 14) (size 15 to 20)
#    0.000    2.333    0.000    4.000    0.000   12.000 
#    0.000    0.000    0.000    1.000    0.000    7.000 
#    0.000    0.000    0.000    0.000    0.000    0.000 
#
# Total GULP energy -133762.916847 kJ/mol
# GULP energy per Si atom -5573.454869 kJ/mol
# Density = 2.530848 g / cm^3
# Si number density = 25.366217 Si / 1000 Ang^3
#
#
#
# Elastic Constant Matrix: (Units=GPa)
#
#
# Indices 1 2 3 4 5 6 
#
# 1 140.6244 55.8875 56.6621 0.0000 0.0000 0.0000
# 2 55.8875 44.5663 20.4134 0.0000 0.0000 0.0000
# 3 56.6621 20.4134 132.0996 0.0000 0.0000 0.0000
# 4 0.0000 0.0000 0.0000 23.8539 0.0000 0.0000
# 5 0.0000 0.0000 0.0000 0.0000 16.4457 0.0000
# 6 0.0000 0.0000 0.0000 0.0000 0.0000 67.5493
#
#
#
# Elastic Compliance Matrix: (Units=1/GPa)
#
#
# Indices 1 2 3 4 5 6 
#
# 1 0.015954 -0.018158 -0.004037 0.000000 0.000000 0.000000
# 2 -0.018158 0.044813 0.000864 0.000000 0.000000 0.000000
# 3 -0.004037 0.000864 0.009168 0.000000 0.000000 0.000000
# 4 0.000000 0.000000 0.000000 0.041922 0.000000 0.000000
# 5 0.000000 0.000000 0.000000 0.000000 0.060806 0.000000
# 6 0.000000 0.000000 0.000000 0.000000 0.000000 0.014804
#
#
# Mechanical properties :
#
#
# Convention : Reuss Voigt Hill
#
# Bulk Modulus (GPa) = 36.66685 64.80183 50.73434
# Shear Modulus (GPa) = 20.90102 33.85826 27.37964
#
# Velocity S-wave (km/s) = 2.87360 3.65742 3.28895
# Velocity P-wave (km/s) = 5.04941 6.59072 5.87087
#
# Compressibility (1/GPa) = 0.02727259
#
# Stress axis : x y z
#
# Youngs Moduli (GPa) = 62.67898 22.31474 109.07034
#
# Poissons Ratio (x) = 0.40519 0.44036
# Poissons Ratio (y) = 1.13812 -0.09418
# Poissons Ratio (z) = 0.25306 -0.01927
#
# Static dielectric constant tensor:
#      x y z
#    x 2.145430 0.000000 0.000000 
#    y 0.000000 2.295060 0.000000 
#    z 0.000000 0.000000 1.921080 
# 
# From -- ./inp_files/1119.got.cif
#   From: 2010.05.17/outbox.cif.g08.bks.cpg/sg18_1_cif.got.tgz:1119.got - 2010.06.03 22:40:56.
