data_PCOD9311906
_publ_section_title
;
Structure prediction by ZEFSAII (Michael W. Deem and Ramdas Pophale) SiO2 
 PCOD9311906
Probable space group: P 21 21 2
;
_chemical_formula_sum "Si O2"
_cell_formula_units_Z 32
_cell_length_a 17.186405
_cell_length_b 5.351407
_cell_length_c 18.193937
_cell_angle_alpha 90.000000
_cell_angle_beta 90.000000
_cell_angle_gamma 90.000000
_cell_volume 1673.322731
_symmetry_space_group_name_H-M "P 21 21 2"
_symmetry_group_IT_number 18
_symmetry_cell_setting 'orthorhombic'
loop_
_space_group_symop_operation_xyz
x,y,z
-x,-y,z
1/2+x,1/2-y,-z
1/2-x,1/2+y,-z
loop_
_atom_site_type_symbol
_atom_site_label
_atom_site_fract_x
_atom_site_fract_y
_atom_site_fract_z
Si Si1 0.296003 0.294668 0.523988
Si Si2 0.418337 0.143536 0.409508
Si Si3 0.930908 0.696956 0.850700
Si Si4 0.954038 0.764534 0.011864
Si Si5 0.273265 0.862916 0.328338
Si Si6 0.722333 0.174566 0.958222
Si Si7 0.702398 0.870301 0.184909
Si Si8 0.607886 0.516185 0.279019
O O1 0.257533 0.547782 0.490544
O O2 0.377912 0.241269 0.484196
O O3 0.293450 0.336411 0.611403
O O4 0.427865 0.367478 0.351547
O O5 0.500000 0.000000 0.418560
O O6 0.349065 0.981358 0.370554
O O7 0.842742 0.595914 0.854002
O O8 0.937565 0.816274 0.769788
O O9 0.000000 0.500000 0.855932
O O10 0.937559 0.843865 0.926796
O O11 0.869914 0.714782 0.045420
O O12 0.000000 0.500000 0.014156
O O13 0.000000 0.000000 0.045313
O O14 0.308817 0.601820 0.301637
O O15 0.253023 0.023075 0.256170
O O16 0.755320 0.208088 0.875759
O O17 0.757243 0.406421 0.006062
O O18 0.629806 0.724747 0.220232
#
# Coordination Sequence:
#
# PCOD9311906 Si02
#       8
#     4   4   4   4   4   4   4   4
#     4  10  19  38  61  81 114 163 197 241 287 352
#     4  10  21  35  54  88 123 154 203 240 295 362
#     4  10  22  34  50  81 123 167 195 231 301 379
#     4  11  24  42  60  86 121 166 207 248 313 375
#     4   9  20  36  55  85 117 156 200 238 303 362
#     4  12  24  41  64  93 125 163 211 271 311 368
#     4  10  22  36  57  89 114 159 205 253 305 359
#     4  10  20  36  52  80 120 159 195 238 299 360
#
# _framework density 19.123626000000002
#
# number of rings (size 3 to 8) (size 9 to 14) (size 15 to 20)
#    0.000    1.750    2.500    1.500    7.000    6.000 
#    0.000    0.000    0.000    0.000    3.250    0.000 
#    0.000    0.000    0.000    0.000    0.000    0.000 
#
# Total GULP energy -178431.081692 kJ/mol
# GULP energy per Si atom -5575.971303 kJ/mol
# Density = 1.908010 g / cm^3
# Si number density = 19.123626 Si / 1000 Ang^3
#
#
#
# Elastic Constant Matrix: (Units=GPa)
#
#
# Indices 1 2 3 4 5 6 
#
# 1 68.3503 3.1202 25.0548 0.0000 0.0000 0.0000
# 2 3.1202 58.2870 0.2689 0.0000 0.0000 0.0000
# 3 25.0548 0.2689 85.9213 0.0000 0.0000 0.0000
# 4 0.0000 0.0000 0.0000 20.2895 0.0000 0.0000
# 5 0.0000 0.0000 0.0000 0.0000 16.2167 0.0000
# 6 0.0000 0.0000 0.0000 0.0000 0.0000 26.8929
#
#
#
# Elastic Compliance Matrix: (Units=1/GPa)
#
#
# Indices 1 2 3 4 5 6 
#
# 1 0.016424 -0.000857 -0.004787 0.000000 0.000000 0.000000
# 2 -0.000857 0.017201 0.000196 0.000000 0.000000 0.000000
# 3 -0.004787 0.000196 0.013034 0.000000 0.000000 0.000000
# 4 0.000000 0.000000 0.000000 0.049287 0.000000 0.000000
# 5 0.000000 0.000000 0.000000 0.000000 0.061665 0.000000
# 6 0.000000 0.000000 0.000000 0.000000 0.000000 0.037185
#
#
# Mechanical properties :
#
#
# Convention : Reuss Voigt Hill
#
# Bulk Modulus (GPa) = 27.96102 29.93850 28.94976
# Shear Modulus (GPa) = 22.97667 24.95413 23.96540
#
# Velocity S-wave (km/s) = 3.47000 3.61624 3.54387
# Velocity P-wave (km/s) = 5.54143 5.75547 5.64947
#
# Compressibility (1/GPa) = 0.03576408
#
# Stress axis : x y z
#
# Youngs Moduli (GPa) = 60.88556 58.13458 76.72400
#
# Poissons Ratio (x) = 0.04983 0.36725
# Poissons Ratio (y) = 0.05219 -0.01505
# Poissons Ratio (z) = 0.29144 -0.01140
#
# Static dielectric constant tensor:
#      x y z
#    x 1.687760 0.000000 0.000000 
#    y 0.000000 1.834030 0.000000 
#    z 0.000000 0.000000 1.688480 
# 
# From -- ./inp_files/7422.got.cif
#   From: 2010.05.17/outbox.cif.g08.bks.cpg/sg18_4_cif.got.tgz:7422.got - 2010.06.03 22:40:56.
