data_PCOD9311408
_publ_section_title
;
Structure prediction by ZEFSAII (Michael W. Deem and Ramdas Pophale) SiO2 
 PCOD9311408
Probable space group: P 2 2 21
;
_chemical_formula_sum "Si O2"
_cell_formula_units_Z 18
_cell_length_a 4.903435
_cell_length_b 16.701394
_cell_length_c 8.923004
_cell_angle_alpha 90.000000
_cell_angle_beta 90.000000
_cell_angle_gamma 90.000000
_cell_volume 730.742273
_symmetry_space_group_name_H-M "P 2 2 21"
_symmetry_group_IT_number 17
_symmetry_cell_setting 'orthorhombic'
loop_
_space_group_symop_operation_xyz
x,y,z
-x,-y,1/2+z
x,-y,-z
-x,y,1/2-z
loop_
_atom_site_type_symbol
_atom_site_label
_atom_site_fract_x
_atom_site_fract_y
_atom_site_fract_z
Si Si1 0.996511 0.000000 0.500000
Si Si2 0.500000 0.221167 0.750000
Si Si3 0.000000 0.117994 0.250000
Si Si4 0.655538 0.500000 0.000000
Si Si5 0.500000 0.773029 0.750000
Si Si6 0.615662 0.335597 0.492784
Si Si7 0.000000 0.116678 0.750000
Si Si8 0.000000 0.412426 0.250000
O O1 0.125316 0.938172 0.619066
O O2 0.866488 0.938288 0.380923
O O3 0.656106 0.278234 0.632450
O O4 0.746483 0.167221 0.813717
O O5 0.248541 0.172866 0.196516
O O6 0.488208 0.421571 0.954629
O O7 0.816821 0.469686 0.145781
O O8 0.586612 0.716266 0.887676
O O9 0.845255 0.359031 0.372928
#
# Coordination Sequence:
#
# PCOD9311408 Si02
#       8
#     2   2   2   2   2   4   2   2
#     4  10  24  46  76 106 152 190 254 308 388 476
#     4  12  30  46  78 114 164 200 270 334 406 470
#     4  11  25  42  74 104 142 192 238 307 375 472
#     4  12  28  48  74 114 144 216 276 334 406 490
#     4  12  24  46  72 104 146 196 248 306 394 458
#     4  12  28  47  73 109 152 209 263 333 396 481
#     4  11  26  49  73 119 148 210 254 329 400 481
#     4  12  27  49  77 105 156 204 282 334 411 475
#
# _framework density 24.632487999999999
#
# number of rings (size 3 to 8) (size 9 to 14) (size 15 to 20)
#    0.000    0.444    2.222    4.000    9.333    5.333 
#    0.000    0.000    0.000    0.000    0.000    0.000 
#    0.000    0.000    0.000    0.000    0.000    0.000 
#
# Total GULP energy -100440.790098 kJ/mol
# GULP energy per Si atom -5580.043894 kJ/mol
# Density = 2.457642 g / cm^3
# Si number density = 24.632488 Si / 1000 Ang^3
#
#
#
# Elastic Constant Matrix: (Units=GPa)
#
#
# Indices 1 2 3 4 5 6 
#
# 1 98.2392 49.3487 24.5677 0.0000 0.0000 0.0000
# 2 49.3487 151.1097 59.2935 0.0000 0.0000 0.0000
# 3 24.5677 59.2935 130.1107 0.0000 0.0000 0.0000
# 4 0.0000 0.0000 0.0000 48.4475 0.0000 0.0000
# 5 0.0000 0.0000 0.0000 0.0000 21.9012 0.0000
# 6 0.0000 0.0000 0.0000 0.0000 0.0000 -7.4427
#
#
#
# Elastic Compliance Matrix: (Units=1/GPa)
#
#
# Indices 1 2 3 4 5 6 
#
# 1 0.012215 -0.003756 -0.000595 0.000000 0.000000 0.000000
# 2 -0.003756 0.009213 -0.003490 0.000000 0.000000 0.000000
# 3 -0.000595 -0.003490 0.009388 0.000000 0.000000 0.000000
# 4 0.000000 0.000000 0.000000 0.020641 0.000000 0.000000
# 5 0.000000 0.000000 0.000000 0.000000 0.045660 0.000000
# 6 0.000000 0.000000 0.000000 0.000000 0.000000 -0.134360
#
#
# Mechanical properties :
#
#
# Convention : Reuss Voigt Hill
#
# Bulk Modulus (GPa) = 66.06643 71.76436 68.91540
# Shear Modulus (GPa) = -302.70775 28.99786 -136.85495
#
# Velocity S-wave (km/s) = -11.09759 3.43479 -7.46186
# Velocity P-wave (km/s) = 11.71877 6.70281 6.79713
#
# Compressibility (1/GPa) = 0.01513628
#
# Stress axis : x y z
#
# Youngs Moduli (GPa) = 81.86966 108.53709 106.51493
#
# Poissons Ratio (x) = 0.40761 0.06337
# Poissons Ratio (y) = 0.30746 0.37169
# Poissons Ratio (z) = 0.04871 0.37875
#
# Static dielectric constant tensor:
#      x y z
#    x 1.976850 0.000000 0.000000 
#    y 0.000000 1.967330 0.000000 
#    z 0.000000 0.000000 1.851100 
# 
# From -- ./inp_files/3465.got.cif
#   From: 2010.05.17/outbox.cif.g08.bks.cpg/sg17_2_cif.got.tgz:3465.got - 2010.06.03 22:34:06.
