data_PCOD9311161
_publ_section_title
;
Structure prediction by ZEFSAII (Michael W. Deem and Ramdas Pophale) SiO2 
 PCOD9311161
Probable space group: P 2 2 21
;
_chemical_formula_sum "Si O2"
_cell_formula_units_Z 16
_cell_length_a 7.422836
_cell_length_b 11.162526
_cell_length_c 8.075541
_cell_angle_alpha 90.000000
_cell_angle_beta 90.000000
_cell_angle_gamma 90.000000
_cell_volume 669.119945
_symmetry_space_group_name_H-M "P 2 2 21"
_symmetry_group_IT_number 17
_symmetry_cell_setting 'orthorhombic'
loop_
_space_group_symop_operation_xyz
x,y,z
-x,-y,1/2+z
x,-y,-z
-x,y,1/2-z
loop_
_atom_site_type_symbol
_atom_site_label
_atom_site_fract_x
_atom_site_fract_y
_atom_site_fract_z
Si Si1 0.696912 0.136346 0.049313
Si Si2 0.296715 0.234297 0.129194
Si Si3 0.209454 0.486417 0.299999
Si Si4 0.705355 0.251939 0.728488
O O1 0.503813 0.199926 0.086257
O O2 0.783541 0.148693 0.230073
O O3 0.791540 0.205789 0.898691
O O4 0.670494 0.000000 0.000000
O O5 0.281041 0.366442 0.210510
O O6 0.211453 0.219307 0.947839
O O7 0.229686 0.500000 0.500000
O O8 0.299538 0.604805 0.226831
O O9 0.000000 0.491526 0.250000
O O10 0.500000 0.204762 0.750000
#
# Coordination Sequence:
#
# PCOD9311161 Si02
#       4
#     4   4   4   4
#     4  10  22  38  62  96 130 166 212 261 316 377
#     4  10  22  37  61  92 126 165 209 262 317 375
#     4  12  24  42  64  94 133 171 212 265 329 392
#     4  10  22  37  63  97 129 165 206 264 320 380
#
# _framework density 23.912006000000002
#
# number of rings (size 3 to 8) (size 9 to 14) (size 15 to 20)
#    0.000    1.500    2.500    2.250   14.000    0.000 
#    0.000    0.000    0.000    3.000    0.000    0.000 
#    0.000    0.000    0.000    0.000    0.000    0.000 
#
# Total GULP energy -89272.490513 kJ/mol
# GULP energy per Si atom -5579.530657 kJ/mol
# Density = 2.385758 g / cm^3
# Si number density = 23.912006 Si / 1000 Ang^3
#
#
#
# Elastic Constant Matrix: (Units=GPa)
#
#
# Indices 1 2 3 4 5 6 
#
# 1 81.9966 21.7063 20.8244 0.0000 0.0000 0.0000
# 2 21.7063 101.3653 62.1327 0.0000 0.0000 0.0000
# 3 20.8244 62.1327 294.9035 0.0000 0.0000 0.0000
# 4 0.0000 0.0000 0.0000 30.6492 0.0000 0.0000
# 5 0.0000 0.0000 0.0000 0.0000 6.2143 0.0000
# 6 0.0000 0.0000 0.0000 0.0000 0.0000 119.1336
#
#
#
# Elastic Compliance Matrix: (Units=1/GPa)
#
#
# Indices 1 2 3 4 5 6 
#
# 1 0.012965 -0.002544 -0.000380 0.000000 0.000000 0.000000
# 2 -0.002544 0.011827 -0.002312 0.000000 0.000000 0.000000
# 3 -0.000380 -0.002312 0.003905 0.000000 0.000000 0.000000
# 4 0.000000 0.000000 0.000000 0.032627 0.000000 0.000000
# 5 0.000000 0.000000 0.000000 0.000000 0.160918 0.000000
# 6 0.000000 0.000000 0.000000 0.000000 0.000000 0.008394
#
#
# Mechanical properties :
#
#
# Convention : Reuss Voigt Hill
#
# Bulk Modulus (GPa) = 54.86521 76.39914 65.63217
# Shear Modulus (GPa) = 20.22788 56.10621 38.16705
#
# Velocity S-wave (km/s) = 2.91164 4.84918 3.99951
# Velocity P-wave (km/s) = 5.85645 7.96067 6.98821
#
# Compressibility (1/GPa) = 0.01822649
#
# Stress axis : x y z
#
# Youngs Moduli (GPa) = 77.12830 84.54984 256.08767
#
# Poissons Ratio (x) = 0.21507 0.09721
# Poissons Ratio (y) = 0.19619 0.59214
# Poissons Ratio (z) = 0.02928 0.19550
#
# Static dielectric constant tensor:
#      x y z
#    x 1.991750 0.000000 0.000000 
#    y 0.000000 1.852700 0.000000 
#    z 0.000000 0.000000 1.956830 
# 
# From -- ./inp_files/3840.got.cif
#   From: 2010.05.17/outbox.cif.g08.bks.cpg/sg17_2_cif.got.tgz:3840.got - 2010.06.03 22:34:06.
