data_PCOD9311595
_publ_section_title
;
Structure prediction by ZEFSAII (Michael W. Deem and Ramdas Pophale) SiO2 
 PCOD9311595
Probable space group: P 2 2 21
;
_chemical_formula_sum "Si O2"
_cell_formula_units_Z 20
_cell_length_a 8.779531
_cell_length_b 5.210972
_cell_length_c 17.674623
_cell_angle_alpha 90.000000
_cell_angle_beta 90.000000
_cell_angle_gamma 90.000000
_cell_volume 808.612062
_symmetry_space_group_name_H-M "P 2 2 21"
_symmetry_group_IT_number 17
_symmetry_cell_setting 'orthorhombic'
loop_
_space_group_symop_operation_xyz
x,y,z
-x,-y,1/2+z
x,-y,-z
-x,y,1/2-z
loop_
_atom_site_type_symbol
_atom_site_label
_atom_site_fract_x
_atom_site_fract_y
_atom_site_fract_z
Si Si1 0.742530 0.467244 0.355333
Si Si2 0.907345 0.500000 0.500000
Si Si3 0.257471 0.967245 0.644667
Si Si4 0.000000 0.750002 0.750000
Si Si5 0.500000 0.750000 0.250000
Si Si6 0.907346 0.000000 0.000000
Si Si7 0.500000 0.250000 0.052146
O O1 0.809550 0.605232 0.429398
O O2 0.885302 0.407978 0.302669
O O3 0.613620 0.597153 0.304829
O O4 0.649426 0.234365 0.394600
O O5 1.000000 0.750000 0.527241
O O6 0.114699 0.907982 0.697331
O O7 0.350573 0.734365 0.605399
O O8 0.190450 0.105233 0.570602
O O9 0.386383 0.097153 0.695170
O O10 0.493130 0.500000 0.000000
O O11 0.506869 0.000000 0.000000
#
# Coordination Sequence:
#
# PCOD9311595 Si02
#       7
#     4   2   4   2   2   2   4
#     4  12  28  50  82 116 166 210 274 330 412 481
#     4  12  30  50  82 118 158 210 276 336 400 482
#     4  12  28  50  82 116 166 210 274 330 412 481
#     4  12  28  48  76 116 166 212 262 340 410 486
#     4  12  30  52  80 124 164 222 264 346 410 496
#     4  12  30  50  82 118 158 210 276 336 400 482
#     4  12  27  49  84 122 158 208 274 338 399 479
#
# _framework density 24.733737999999999
#
# number of rings (size 3 to 8) (size 9 to 14) (size 15 to 20)
#    0.000    0.000    4.000    3.600    8.400    0.000 
#    0.000    0.000    0.000    0.000    0.000    0.000 
#    0.000    0.000    0.000    0.000    0.000    0.000 
#
# Total GULP energy -111932.926703 kJ/mol
# GULP energy per Si atom -5596.646335 kJ/mol
# Density = 2.467744 g / cm^3
# Si number density = 24.733738 Si / 1000 Ang^3
#
#
#
# Elastic Constant Matrix: (Units=GPa)
#
#
# Indices 1 2 3 4 5 6 
#
# 1 211.0281 57.1313 103.3438 0.0000 0.0000 0.0000
# 2 57.1313 101.4899 54.9730 0.0000 0.0000 0.0000
# 3 103.3438 54.9730 203.9410 0.0000 0.0000 0.0000
# 4 0.0000 0.0000 0.0000 219.3068 0.0000 0.0000
# 5 0.0000 0.0000 0.0000 0.0000 163.5793 0.0000
# 6 0.0000 0.0000 0.0000 0.0000 0.0000 4.9654
#
#
#
# Elastic Compliance Matrix: (Units=1/GPa)
#
#
# Indices 1 2 3 4 5 6 
#
# 1 0.006722 -0.002270 -0.002794 0.000000 0.000000 0.000000
# 2 -0.002270 0.012305 -0.002166 0.000000 0.000000 0.000000
# 3 -0.002794 -0.002166 0.006903 0.000000 0.000000 0.000000
# 4 0.000000 0.000000 0.000000 0.004560 0.000000 0.000000
# 5 0.000000 0.000000 0.000000 0.000000 0.006113 0.000000
# 6 0.000000 0.000000 0.000000 0.000000 0.000000 0.201394
#
#
# Mechanical properties :
#
#
# Convention : Reuss Voigt Hill
#
# Bulk Modulus (GPa) = 87.19937 105.26166 96.23052
# Shear Modulus (GPa) = 19.50988 97.63771 58.57380
#
# Velocity S-wave (km/s) = 2.81160 6.28977 4.87167
# Velocity P-wave (km/s) = 6.77288 9.76722 8.40448
#
# Compressibility (1/GPa) = 0.01146797
#
# Stress axis : x y z
#
# Youngs Moduli (GPa) = 148.77237 81.27026 144.86059
#
# Poissons Ratio (x) = 0.18451 0.40476
# Poissons Ratio (y) = 0.33776 0.31381
# Poissons Ratio (z) = 0.41569 0.17606
#
# Static dielectric constant tensor:
#      x y z
#    x 1.783950 0.000000 0.000000 
#    y 0.000000 1.980940 0.000000 
#    z 0.000000 0.000000 1.992330 
# 
# From -- ./inp_files/9308.got.cif
#   From: 2010.05.17/outbox.cif.g08.bks.cpg/sg17_5_cif.got.tgz:9308.got - 2010.06.03 22:34:06.
