data_PCOD9311271
_publ_section_title
;
Structure prediction by ZEFSAII (Michael W. Deem and Ramdas Pophale) SiO2 
 PCOD9311271
Probable space group: P 2 2 21
;
_chemical_formula_sum "Si O2"
_cell_formula_units_Z 18
_cell_length_a 7.024044
_cell_length_b 7.192375
_cell_length_c 17.124498
_cell_angle_alpha 90.000000
_cell_angle_beta 90.000000
_cell_angle_gamma 90.000000
_cell_volume 865.122078
_symmetry_space_group_name_H-M "P 2 2 21"
_symmetry_group_IT_number 17
_symmetry_cell_setting 'orthorhombic'
loop_
_space_group_symop_operation_xyz
x,y,z
-x,-y,1/2+z
x,-y,-z
-x,y,1/2-z
loop_
_atom_site_type_symbol
_atom_site_label
_atom_site_fract_x
_atom_site_fract_y
_atom_site_fract_z
Si Si1 0.045264 0.655877 0.916782
Si Si2 0.552821 0.810617 0.548856
Si Si3 0.354261 0.035145 0.686451
Si Si4 0.806798 0.717653 0.048636
Si Si5 0.000000 0.827199 0.750000
O O1 0.266768 0.678734 0.937193
O O2 0.931404 0.461479 0.925810
O O3 0.021069 0.711833 0.828245
O O4 0.939314 0.793178 0.978028
O O5 0.463108 0.885027 0.630747
O O6 0.393292 0.706295 0.497685
O O7 0.601878 0.000000 0.500000
O O8 0.500000 0.120020 0.750000
O O9 0.189105 0.945540 0.737844
O O10 0.249018 0.169773 0.625334
#
# Coordination Sequence:
#
# PCOD9311271 Si02
#       5
#     4   4   4   4   2
#     4  11  24  43  68 105 141 187 232 304 365 428
#     4  10  22  42  73 101 135 186 244 289 354 438
#     4  11  23  44  72 104 137 187 246 300 354 434
#     4  10  25  44  68 104 145 182 241 298 365 435
#     4  12  24  40  72 104 140 186 242 300 356 426
#
# _framework density 20.806314
#
# number of rings (size 3 to 8) (size 9 to 14) (size 15 to 20)
#    0.000    1.333    4.444    0.000    3.111    4.444 
#    0.000   10.000    0.000    0.000    0.000    0.000 
#    0.000    0.000    0.000    0.000    0.000    0.000 
#
# Total GULP energy -100294.342951 kJ/mol
# GULP energy per Si atom -5571.907942 kJ/mol
# Density = 2.075896 g / cm^3
# Si number density = 20.806314 Si / 1000 Ang^3
#
#
#
# Elastic Constant Matrix: (Units=GPa)
#
#
# Indices 1 2 3 4 5 6 
#
# 1 159.0520 63.3706 64.0662 0.0000 0.0000 0.0000
# 2 63.3706 90.1278 54.3173 0.0000 0.0000 0.0000
# 3 64.0662 54.3173 174.4911 0.0000 0.0000 0.0000
# 4 0.0000 0.0000 0.0000 5.9684 0.0000 0.0000
# 5 0.0000 0.0000 0.0000 0.0000 49.5237 0.0000
# 6 0.0000 0.0000 0.0000 0.0000 0.0000 35.5842
#
#
#
# Elastic Compliance Matrix: (Units=1/GPa)
#
#
# Indices 1 2 3 4 5 6 
#
# 1 0.009110 -0.005403 -0.001663 0.000000 0.000000 0.000000
# 2 -0.005403 0.016862 -0.003265 0.000000 0.000000 0.000000
# 3 -0.001663 -0.003265 0.007358 0.000000 0.000000 0.000000
# 4 0.000000 0.000000 0.000000 0.167550 0.000000 0.000000
# 5 0.000000 0.000000 0.000000 0.000000 0.020192 0.000000
# 6 0.000000 0.000000 0.000000 0.000000 0.000000 0.028102
#
#
# Mechanical properties :
#
#
# Convention : Reuss Voigt Hill
#
# Bulk Modulus (GPa) = 78.94160 87.46434 83.20297
# Shear Modulus (GPa) = 18.24418 34.34304 26.29361
#
# Velocity S-wave (km/s) = 2.96439 4.06717 3.55876
# Velocity P-wave (km/s) = 7.05268 8.01152 7.54735
#
# Compressibility (1/GPa) = 0.01266759
#
# Stress axis : x y z
#
# Youngs Moduli (GPa) = 109.77196 59.30396 135.90829
#
# Poissons Ratio (x) = 0.32043 0.22599
# Poissons Ratio (y) = 0.59311 0.44377
# Poissons Ratio (z) = 0.18253 0.19364
#
# Static dielectric constant tensor:
#      x y z
#    x 1.760260 0.000000 0.000000 
#    y 0.000000 1.838190 0.000000 
#    z 0.000000 0.000000 1.737900 
# 
# From -- ./inp_files/8939.got.cif
#   From: 2010.05.17/outbox.cif.g08.bks.cpg/sg17_5_cif.got.tgz:8939.got - 2010.06.03 22:34:06.
