data_PCOD9311213
_publ_section_title
;
Structure prediction by ZEFSAII (Michael W. Deem and Ramdas Pophale) SiO2 
 PCOD9311213
Probable space group: P 2 2 21
;
_chemical_formula_sum "Si O2"
_cell_formula_units_Z 24
_cell_length_a 13.776194
_cell_length_b 16.670392
_cell_length_c 5.407563
_cell_angle_alpha 90.000000
_cell_angle_beta 90.000000
_cell_angle_gamma 90.000000
_cell_volume 1241.871470
_symmetry_space_group_name_H-M "P 2 2 21"
_symmetry_group_IT_number 17
_symmetry_cell_setting 'orthorhombic'
loop_
_space_group_symop_operation_xyz
x,y,z
-x,-y,1/2+z
x,-y,-z
-x,y,1/2-z
loop_
_atom_site_type_symbol
_atom_site_label
_atom_site_fract_x
_atom_site_fract_y
_atom_site_fract_z
Si Si1 0.241161 0.198459 0.273026
Si Si2 0.603331 0.675497 0.898987
Si Si3 0.381762 0.913633 0.003690
Si Si4 0.940787 0.838533 0.492508
Si Si5 0.563889 0.500000 0.000000
Si Si6 0.805237 0.077022 0.832737
Si Si7 0.500000 0.783425 0.250000
O O1 0.308217 0.276578 0.280274
O O2 0.153832 0.211259 0.081106
O O3 0.193911 0.161676 0.519983
O O4 0.312671 0.123793 0.205082
O O5 0.500000 0.679187 0.750000
O O6 0.621077 0.582331 0.952682
O O7 0.582624 0.726075 0.146750
O O8 0.302234 0.927010 0.219157
O O9 0.458595 0.844116 0.049095
O O10 0.431620 0.000000 0.000000
O O11 0.886374 0.916379 0.379632
O O12 0.000000 0.851456 0.750000
O O13 0.000000 0.807967 0.250000
O O14 0.500000 0.486846 0.750000
O O15 0.824509 0.000000 0.000000
#
# Coordination Sequence:
#
# PCOD9311213 Si02
#       7
#     4   4   4   4   2   4   2
#     4  11  22  39  61  86 119 171 211 261 318 374
#     4  11  22  39  62  92 131 166 210 250 317 376
#     4  11  23  34  53  82 121 170 223 265 304 352
#     4  11  24  45  61  89 121 157 218 269 328 381
#     4  10  22  40  64  96 134 168 198 252 308 376
#     4  11  22  39  60  80 120 160 211 269 322 371
#     4  12  22  34  56  86 124 174 220 258 306 362
#
# _framework density 19.325672999999998
#
# number of rings (size 3 to 8) (size 9 to 14) (size 15 to 20)
#    0.000    1.000    7.500    0.000    0.000    2.000 
#    3.000    0.000    0.000    0.000    0.000    0.000 
#    5.000    0.000    0.000    0.000    0.000    0.000 
#
# Total GULP energy -133737.455938 kJ/mol
# GULP energy per Si atom -5572.393997 kJ/mol
# Density = 1.928169 g / cm^3
# Si number density = 19.325673 Si / 1000 Ang^3
#
#
#
# Elastic Constant Matrix: (Units=GPa)
#
#
# Indices 1 2 3 4 5 6 
#
# 1 85.1519 48.6874 41.0708 0.0000 0.0000 0.0000
# 2 48.6874 156.5935 36.6021 0.0000 0.0000 0.0000
# 3 41.0708 36.6021 97.1087 0.0000 0.0000 0.0000
# 4 0.0000 0.0000 0.0000 14.4282 0.0000 0.0000
# 5 0.0000 0.0000 0.0000 0.0000 36.5850 0.0000
# 6 0.0000 0.0000 0.0000 0.0000 0.0000 115.5253
#
#
#
# Elastic Compliance Matrix: (Units=1/GPa)
#
#
# Indices 1 2 3 4 5 6 
#
# 1 0.016650 -0.003872 -0.005583 0.000000 0.000000 0.000000
# 2 -0.003872 0.007903 -0.001341 0.000000 0.000000 0.000000
# 3 -0.005583 -0.001341 0.013164 0.000000 0.000000 0.000000
# 4 0.000000 0.000000 0.000000 0.069309 0.000000 0.000000
# 5 0.000000 0.000000 0.000000 0.000000 0.027334 0.000000
# 6 0.000000 0.000000 0.000000 0.000000 0.000000 0.008656
#
#
# Mechanical properties :
#
#
# Convention : Reuss Voigt Hill
#
# Bulk Modulus (GPa) = 62.01076 65.73052 63.87064
# Shear Modulus (GPa) = 29.41465 47.47395 38.44430
#
# Velocity S-wave (km/s) = 3.90558 4.96171 4.46498
# Velocity P-wave (km/s) = 7.24534 8.17989 7.72676
#
# Compressibility (1/GPa) = 0.01612623
#
# Stress axis : x y z
#
# Youngs Moduli (GPa) = 60.05945 126.52890 75.96260
#
# Poissons Ratio (x) = 0.48991 0.42406
# Poissons Ratio (y) = 0.23255 0.10189
# Poissons Ratio (z) = 0.33528 0.16972
#
# Static dielectric constant tensor:
#      x y z
#    x 1.749160 0.000000 0.000000 
#    y 0.000000 1.655010 0.000000 
#    z 0.000000 0.000000 1.841150 
# 
# From -- ./inp_files/2233.got.cif
#   From: 2010.05.17/outbox.cif.g08.bks.cpg/sg17_2_cif.got.tgz:2233.got - 2010.06.03 22:34:06.
