data_PCOD9311383
_publ_section_title
;
Structure prediction by ZEFSAII (Michael W. Deem and Ramdas Pophale) SiO2 
 PCOD9311383
Probable space group: P 2 2 21
;
_chemical_formula_sum "Si O2"
_cell_formula_units_Z 20
_cell_length_a 12.463507
_cell_length_b 5.321801
_cell_length_c 14.462990
_cell_angle_alpha 90.000000
_cell_angle_beta 90.000000
_cell_angle_gamma 90.000000
_cell_volume 959.305598
_symmetry_space_group_name_H-M "P 2 2 21"
_symmetry_group_IT_number 17
_symmetry_cell_setting 'orthorhombic'
loop_
_space_group_symop_operation_xyz
x,y,z
-x,-y,1/2+z
x,-y,-z
-x,y,1/2-z
loop_
_atom_site_type_symbol
_atom_site_label
_atom_site_fract_x
_atom_site_fract_y
_atom_site_fract_z
Si Si1 0.000000 0.851629 0.250000
Si Si2 0.885837 0.759928 0.880344
Si Si3 0.294420 0.000000 0.500000
Si Si4 0.893268 0.472430 0.398466
Si Si5 0.385458 0.040574 0.699474
Si Si6 0.736968 0.466284 0.245907
O O1 0.057872 0.694439 0.167197
O O2 0.087801 0.029069 0.302496
O O3 0.835485 0.525659 0.826373
O O4 0.003181 0.701799 0.916860
O O5 0.794372 0.814457 0.954956
O O6 0.367421 0.916829 0.412102
O O7 0.848472 0.500000 0.500000
O O8 0.793867 0.378831 0.338991
O O9 0.500000 0.051580 0.750000
O O10 0.318528 0.265422 0.746647
O O11 0.340305 0.759826 0.715333
#
# Coordination Sequence:
#
# PCOD9311383 Si02
#       6
#     2   4   2   4   4   4
#     4  12  20  42  58  94 160 174 222 274 328 400
#     4  11  22  38  64 101 139 182 220 280 335 430
#     4  10  24  42  72 104 128 186 240 280 350 432
#     4  12  24  36  64 100 141 188 221 268 344 436
#     4  11  26  49  74  97 134 179 242 308 348 392
#     4  11  23  45  68  97 141 179 223 286 358 403
#
# _framework density 20.848413999999998
#
# number of rings (size 3 to 8) (size 9 to 14) (size 15 to 20)
#    0.000    0.800    4.000    4.200    2.800    2.400 
#    3.600    0.000    0.000    0.000    0.000    0.000 
#    0.000    0.000    0.000    0.000    0.000    0.000 
#
# Total GULP energy -111366.444494 kJ/mol
# GULP energy per Si atom -5568.322225 kJ/mol
# Density = 2.080096 g / cm^3
# Si number density = 20.848414 Si / 1000 Ang^3
#
#
#
# Elastic Constant Matrix: (Units=GPa)
#
#
# Indices 1 2 3 4 5 6 
#
# 1 95.1875 12.2061 44.2722 0.0000 0.0000 0.0000
# 2 12.2061 52.9131 -7.0914 0.0000 0.0000 0.0000
# 3 44.2722 -7.0914 131.9105 0.0000 0.0000 0.0000
# 4 0.0000 0.0000 0.0000 17.9076 0.0000 0.0000
# 5 0.0000 0.0000 0.0000 0.0000 39.1041 0.0000
# 6 0.0000 0.0000 0.0000 0.0000 0.0000 31.4966
#
#
#
# Elastic Compliance Matrix: (Units=1/GPa)
#
#
# Indices 1 2 3 4 5 6 
#
# 1 0.013110 -0.003640 -0.004596 0.000000 0.000000 0.000000
# 2 -0.003640 0.020047 0.002299 0.000000 0.000000 0.000000
# 3 -0.004596 0.002299 0.009247 0.000000 0.000000 0.000000
# 4 0.000000 0.000000 0.000000 0.055842 0.000000 0.000000
# 5 0.000000 0.000000 0.000000 0.000000 0.025573 0.000000
# 6 0.000000 0.000000 0.000000 0.000000 0.000000 0.031749
#
#
# Mechanical properties :
#
#
# Convention : Reuss Voigt Hill
#
# Bulk Modulus (GPa) = 32.75380 42.08721 37.42050
# Shear Modulus (GPa) = 28.15039 33.07662 30.61350
#
# Velocity S-wave (km/s) = 3.67855 3.98745 3.83611
# Velocity P-wave (km/s) = 5.81265 6.43667 6.13260
#
# Compressibility (1/GPa) = 0.03053081
#
# Stress axis : x y z
#
# Youngs Moduli (GPa) = 76.27871 49.88335 108.14423
#
# Poissons Ratio (x) = 0.18158 0.49699
# Poissons Ratio (y) = 0.27766 -0.24867
# Poissons Ratio (z) = 0.35055 -0.11470
#
# Static dielectric constant tensor:
#      x y z
#    x 1.757670 0.000000 0.000000 
#    y 0.000000 1.890880 0.000000 
#    z 0.000000 0.000000 1.942820 
# 
# From -- ./inp_files/8364.got.cif
#   From: 2010.05.17/outbox.cif.g08.bks.cpg/sg17_5_cif.got.tgz:8364.got - 2010.06.03 22:34:06.
