data_PCOD9311734
_publ_section_title
;
Structure prediction by ZEFSAII (Michael W. Deem and Ramdas Pophale) SiO2 
 PCOD9311734
Probable space group: P 21 21 2
;
_chemical_formula_sum "Si O2"
_cell_formula_units_Z 20
_cell_length_a 9.119216
_cell_length_b 10.928578
_cell_length_c 7.689884
_cell_angle_alpha 90.000000
_cell_angle_beta 90.000000
_cell_angle_gamma 90.000000
_cell_volume 766.374327
_symmetry_space_group_name_H-M "P 21 21 2"
_symmetry_group_IT_number 18
_symmetry_cell_setting 'orthorhombic'
loop_
_space_group_symop_operation_xyz
x,y,z
-x,-y,z
1/2+x,1/2-y,-z
1/2-x,1/2+y,-z
loop_
_atom_site_type_symbol
_atom_site_label
_atom_site_fract_x
_atom_site_fract_y
_atom_site_fract_z
Si Si1 0.752373 0.169785 0.987324
Si Si2 0.500000 0.500000 0.879655
Si Si3 0.323804 0.875262 0.632229
Si Si4 0.500000 0.000000 0.136035
Si Si5 0.658750 0.845668 0.699956
Si Si6 0.238409 0.072141 0.370525
O O1 0.598503 0.103182 0.039112
O O2 0.787698 0.273725 0.131362
O O3 0.751490 0.203129 0.784259
O O4 0.888345 0.078621 0.011043
O O5 0.599513 0.422072 0.750837
O O6 0.493070 0.832065 0.627355
O O7 0.330790 0.009429 0.731961
O O8 0.246038 0.933118 0.460661
O O9 0.385476 0.068137 0.259630
O O10 0.761363 0.831098 0.528693
#
# Coordination Sequence:
#
# PCOD9311734 Si02
#       6
#     4   2   4   2   4   4
#     4  11  23  37  64  96 127 163 222 264 319 380
#     4  10  24  38  56  98 132 158 212 272 314 370
#     4   9  19  41  62  85 125 164 208 261 310 378
#     4  10  18  36  64  88 128 170 198 274 322 374
#     4   9  19  39  66  88 116 169 218 247 321 379
#     4   9  18  41  62  82 128 170 198 262 329 370
#
# _framework density 26.096905
#
# number of rings (size 3 to 8) (size 9 to 14) (size 15 to 20)
#    1.200    1.200    2.000    1.200    0.000    4.000 
#    3.600    0.000    0.000    0.000    0.000    0.000 
#    0.000    0.000    0.000    0.000    0.000    0.000 
#
# Total GULP energy -111682.170460 kJ/mol
# GULP energy per Si atom -5584.108523 kJ/mol
# Density = 2.603751 g / cm^3
# Si number density = 26.096905 Si / 1000 Ang^3
#
#
#
# Elastic Constant Matrix: (Units=GPa)
#
#
# Indices 1 2 3 4 5 6 
#
# 1 122.2732 17.3035 28.7429 0.0000 0.0000 0.0000
# 2 17.3035 45.1331 -29.9075 0.0000 0.0000 0.0000
# 3 28.7429 -29.9075 106.9482 0.0000 0.0000 0.0000
# 4 0.0000 0.0000 0.0000 24.2256 0.0000 0.0000
# 5 0.0000 0.0000 0.0000 0.0000 22.0852 0.0000
# 6 0.0000 0.0000 0.0000 0.0000 0.0000 22.4180
#
#
#
# Elastic Compliance Matrix: (Units=1/GPa)
#
#
# Indices 1 2 3 4 5 6 
#
# 1 0.010300 -0.007099 -0.004753 0.000000 0.000000 0.000000
# 2 -0.007099 0.032089 0.010881 0.000000 0.000000 0.000000
# 3 -0.004753 0.010881 0.013671 0.000000 0.000000 0.000000
# 4 0.000000 0.000000 0.000000 0.041279 0.000000 0.000000
# 5 0.000000 0.000000 0.000000 0.000000 0.045279 0.000000
# 6 0.000000 0.000000 0.000000 0.000000 0.000000 0.044607
#
#
# Mechanical properties :
#
#
# Convention : Reuss Voigt Hill
#
# Bulk Modulus (GPa) = 18.47817 34.07024 26.27420
# Shear Modulus (GPa) = 24.13054 30.96013 27.54534
#
# Velocity S-wave (km/s) = 3.04411 3.44808 3.25237
# Velocity P-wave (km/s) = 4.41038 5.37922 4.91871
#
# Compressibility (1/GPa) = 0.05411792
#
# Stress axis : x y z
#
# Youngs Moduli (GPa) = 97.08350 31.16347 73.14887
#
# Poissons Ratio (x) = 0.22123 0.34771
# Poissons Ratio (y) = 0.68919 -0.79596
# Poissons Ratio (z) = 0.46148 -0.33910
#
# Static dielectric constant tensor:
#      x y z
#    x 1.742200 0.000000 0.000000 
#    y 0.000000 2.529640 0.000000 
#    z 0.000000 0.000000 2.118490 
# 
# From -- ./inp_files/3044.got.cif
#   From: 2010.05.17/outbox.cif.g08.bks.cpg/sg18_2_cif.got.tgz:3044.got - 2010.06.03 22:40:56.
