data_PCOD9311616
_publ_section_title
;
Structure prediction by ZEFSAII (Michael W. Deem and Ramdas Pophale) SiO2 
 PCOD9311616
Probable space group: P 21 21 2
;
_chemical_formula_sum "Si O2"
_cell_formula_units_Z 20
_cell_length_a 6.922525
_cell_length_b 20.816076
_cell_length_c 5.448997
_cell_angle_alpha 90.000000
_cell_angle_beta 90.000000
_cell_angle_gamma 90.000000
_cell_volume 785.199413
_symmetry_space_group_name_H-M "P 21 21 2"
_symmetry_group_IT_number 18
_symmetry_cell_setting 'orthorhombic'
loop_
_space_group_symop_operation_xyz
x,y,z
-x,-y,z
1/2+x,1/2-y,-z
1/2-x,1/2+y,-z
loop_
_atom_site_type_symbol
_atom_site_label
_atom_site_fract_x
_atom_site_fract_y
_atom_site_fract_z
Si Si1 0.072960 0.875758 0.343400
Si Si2 0.733435 0.994927 0.546955
Si Si3 0.173199 0.554560 0.948656
Si Si4 0.583189 0.177998 0.048349
Si Si5 0.963438 0.178490 0.833993
O O1 0.156262 0.941707 0.458680
O O2 0.276527 0.839309 0.274653
O O3 0.963363 0.839526 0.564877
O O4 0.984681 0.867377 0.066198
O O5 0.500000 0.000000 0.566281
O O6 0.789392 0.970495 0.815555
O O7 0.769620 0.947277 0.319742
O O8 0.000000 0.500000 0.925373
O O9 0.072450 0.622706 0.988370
O O10 0.507911 0.249296 0.084979
O O11 0.731217 0.173780 0.822686
#
# Coordination Sequence:
#
# PCOD9311616 Si02
#       5
#     4   4   4   4   4
#     4  10  20  33  51  78 111 138 179 213 274 321
#     4  10  15  28  46  75 101 128 162 228 270 299
#     4  10  17  27  51  77 104 125 171 232 273 292
#     4  10  22  35  54  82 113 140 182 218 273 324
#     4  10  22  33  54  74 113 148 175 220 262 328
#
# _framework density 25.471236999999999
#
# number of rings (size 3 to 8) (size 9 to 14) (size 15 to 20)
#    1.200    0.800    4.000    3.600    2.800    0.000 
#    0.000    0.000    0.000    0.000    0.000   15.400 
#    0.000    0.000    0.000    0.000    0.000    0.000 
#
# Total GULP energy -111699.941241 kJ/mol
# GULP energy per Si atom -5584.997062 kJ/mol
# Density = 2.541326 g / cm^3
# Si number density = 25.471237 Si / 1000 Ang^3
#
#
#
# Elastic Constant Matrix: (Units=GPa)
#
#
# Indices 1 2 3 4 5 6 
#
# 1 60.6833 -2.2123 11.0110 0.0000 0.0000 0.0000
# 2 -2.2123 114.6329 45.6786 0.0000 0.0000 0.0000
# 3 11.0110 45.6786 210.4297 0.0000 0.0000 0.0000
# 4 0.0000 0.0000 0.0000 33.9340 0.0000 0.0000
# 5 0.0000 0.0000 0.0000 0.0000 -1.5913 0.0000
# 6 0.0000 0.0000 0.0000 0.0000 0.0000 36.3732
#
#
#
# Elastic Compliance Matrix: (Units=1/GPa)
#
#
# Indices 1 2 3 4 5 6 
#
# 1 0.016693 0.000734 -0.001033 0.000000 0.000000 0.000000
# 2 0.000734 0.009582 -0.002118 0.000000 0.000000 0.000000
# 3 -0.001033 -0.002118 0.005266 0.000000 0.000000 0.000000
# 4 0.000000 0.000000 0.000000 0.029469 0.000000 0.000000
# 5 0.000000 0.000000 0.000000 0.000000 -0.628402 0.000000
# 6 0.000000 0.000000 0.000000 0.000000 0.000000 0.027493
#
#
# Mechanical properties :
#
#
# Convention : Reuss Voigt Hill
#
# Bulk Modulus (GPa) = 37.44457 54.96674 46.20566
# Shear Modulus (GPa) = -9.50277 35.82775 13.16249
#
# Velocity S-wave (km/s) = -1.93362 3.75453 2.27570
# Velocity P-wave (km/s) = 3.12209 6.35784 5.00847
#
# Compressibility (1/GPa) = 0.02670614
#
# Stress axis : x y z
#
# Youngs Moduli (GPa) = 59.90489 104.36490 189.89547
#
# Poissons Ratio (x) = -0.07657 0.19612
# Poissons Ratio (y) = -0.04395 0.40226
# Poissons Ratio (z) = 0.06187 0.22108
#
# Static dielectric constant tensor:
#      x y z
#    x 1.899530 0.000000 0.000000 
#    y 0.000000 2.930580 0.000000 
#    z 0.000000 0.000000 1.988270 
# 
# From -- ./inp_files/975.got.cif
#   From: 2010.05.17/outbox.cif.g08.bks.cpg/sg18_1_cif.got.tgz:975.got - 2010.06.03 22:40:56.
