data_PCOD9311694
_publ_section_title
;
Structure prediction by ZEFSAII (Michael W. Deem and Ramdas Pophale) SiO2 
 PCOD9311694
Probable space group: P 21 21 2
;
_chemical_formula_sum "Si O2"
_cell_formula_units_Z 26
_cell_length_a 17.202168
_cell_length_b 9.129359
_cell_length_c 7.179015
_cell_angle_alpha 90.000000
_cell_angle_beta 90.000000
_cell_angle_gamma 90.000000
_cell_volume 1127.426740
_symmetry_space_group_name_H-M "P 21 21 2"
_symmetry_group_IT_number 18
_symmetry_cell_setting 'orthorhombic'
loop_
_space_group_symop_operation_xyz
x,y,z
-x,-y,z
1/2+x,1/2-y,-z
1/2-x,1/2+y,-z
loop_
_atom_site_type_symbol
_atom_site_label
_atom_site_fract_x
_atom_site_fract_y
_atom_site_fract_z
Si Si1 0.385350 0.023095 0.268283
Si Si2 0.160723 0.050086 0.936514
Si Si3 0.697798 0.774328 0.002856
Si Si4 0.504085 0.233036 0.366475
Si Si5 0.350653 0.631565 0.492839
Si Si6 0.231437 0.848158 0.389817
Si Si7 0.500000 0.500000 0.092377
O O1 0.426572 0.138759 0.410415
O O2 0.444027 0.886679 0.253980
O O3 0.304561 0.949864 0.327838
O O4 0.367163 0.118198 0.084715
O O5 0.075916 0.036953 0.023950
O O6 0.219891 0.150523 0.044946
O O7 0.149428 0.116590 0.732727
O O8 0.193854 0.887766 0.915539
O O9 0.697823 0.746922 0.781085
O O10 0.564142 0.295537 0.522356
O O11 0.480872 0.365502 0.230610
O O12 0.276327 0.737675 0.530339
O O13 0.333527 0.466620 0.555949
#
# Coordination Sequence:
#
# PCOD9311694 Si02
#       7
#     4   4   4   4   4   4   2
#     4  10  19  35  57  90 122 161 205 259 305 365
#     4  10  21  34  56  86 121 156 208 250 305 365
#     4  11  20  35  57  92 123 158 206 260 303 364
#     4   9  19  34  57  89 118 157 208 249 299 377
#     4   9  21  36  55  90 119 160 205 249 306 372
#     4  10  21  35  58  89 124 155 206 256 309 359
#     4  10  18  32  54  86 114 158 206 246 296 368
#
# _framework density 23.061367000000001
#
# number of rings (size 3 to 8) (size 9 to 14) (size 15 to 20)
#    0.000    2.154    3.077    0.923    2.154    0.000 
#    0.000    0.000    0.000    7.385    0.000   25.846 
#    0.000    0.000    0.000    0.000    0.000    0.000 
#
# Total GULP energy -144929.133631 kJ/mol
# GULP energy per Si atom -5574.197447 kJ/mol
# Density = 2.300888 g / cm^3
# Si number density = 23.061367 Si / 1000 Ang^3
#
#
#
# Elastic Constant Matrix: (Units=GPa)
#
#
# Indices 1 2 3 4 5 6 
#
# 1 94.6212 34.7318 14.7088 0.0000 0.0000 0.0000
# 2 34.7318 127.7934 20.4191 0.0000 0.0000 0.0000
# 3 14.7088 20.4191 34.6587 0.0000 0.0000 0.0000
# 4 0.0000 0.0000 0.0000 39.6862 0.0000 0.0000
# 5 0.0000 0.0000 0.0000 0.0000 8.1142 0.0000
# 6 0.0000 0.0000 0.0000 0.0000 0.0000 50.1371
#
#
#
# Elastic Compliance Matrix: (Units=1/GPa)
#
#
# Indices 1 2 3 4 5 6 
#
# 1 0.012120 -0.002729 -0.003536 0.000000 0.000000 0.000000
# 2 -0.002729 0.009253 -0.004293 0.000000 0.000000 0.000000
# 3 -0.003536 -0.004293 0.032883 0.000000 0.000000 0.000000
# 4 0.000000 0.000000 0.000000 0.025198 0.000000 0.000000
# 5 0.000000 0.000000 0.000000 0.000000 0.123240 0.000000
# 6 0.000000 0.000000 0.000000 0.000000 0.000000 0.019945
#
#
# Mechanical properties :
#
#
# Convention : Reuss Voigt Hill
#
# Bulk Modulus (GPa) = 30.17548 44.08806 37.13177
# Shear Modulus (GPa) = 19.62320 32.06844 25.84582
#
# Velocity S-wave (km/s) = 2.92020 3.73308 3.35138
# Velocity P-wave (km/s) = 4.94807 6.14332 5.57780
#
# Compressibility (1/GPa) = 0.03313949
#
# Stress axis : x y z
#
# Youngs Moduli (GPa) = 82.50971 108.07573 30.41128
#
# Poissons Ratio (x) = 0.29494 0.10753
# Poissons Ratio (y) = 0.22517 0.13056
# Poissons Ratio (z) = 0.29173 0.46398
#
# Static dielectric constant tensor:
#      x y z
#    x 1.988100 0.000000 0.000000 
#    y 0.000000 1.882110 0.000000 
#    z 0.000000 0.000000 1.868840 
# 
# From -- ./inp_files/4487.got.cif
#   From: 2010.05.17/outbox.cif.g08.bks.cpg/sg18_3_cif.got.tgz:4487.got - 2010.06.03 22:40:56.
