data_PCOD9311148
_publ_section_title
;
Structure prediction by ZEFSAII (Michael W. Deem and Ramdas Pophale) SiO2 
 PCOD9311148
Probable space group: P 2 2 21
;
_chemical_formula_sum "Si O2"
_cell_formula_units_Z 18
_cell_length_a 20.000433
_cell_length_b 8.052986
_cell_length_c 5.443918
_cell_angle_alpha 90.000000
_cell_angle_beta 90.000000
_cell_angle_gamma 90.000000
_cell_volume 876.814891
_symmetry_space_group_name_H-M "P 2 2 21"
_symmetry_group_IT_number 17
_symmetry_cell_setting 'orthorhombic'
loop_
_space_group_symop_operation_xyz
x,y,z
-x,-y,1/2+z
x,-y,-z
-x,y,1/2-z
loop_
_atom_site_type_symbol
_atom_site_label
_atom_site_fract_x
_atom_site_fract_y
_atom_site_fract_z
Si Si1 0.677194 0.000000 0.500000
Si Si2 0.455998 0.500000 0.500000
Si Si3 0.853785 0.797210 0.242927
Si Si4 0.200894 0.167593 0.242874
Si Si5 0.422574 0.839955 0.334348
Si Si6 0.000000 0.112065 0.750000
O O1 0.725795 0.090657 0.304731
O O2 0.628892 0.137803 0.614328
O O3 0.500000 0.516134 0.750000
O O4 0.414124 0.667204 0.472101
O O5 0.821453 0.737160 0.497513
O O6 0.933029 0.777638 0.233278
O O7 0.843483 0.998641 0.249041
O O8 0.814220 0.743182 0.998630
O O9 0.500000 0.845073 0.250000
O O10 0.411963 0.000000 0.500000
O O11 0.996755 0.000000 0.500000
#
# Coordination Sequence:
#
# PCOD9311148 Si02
#       6
#     2   2   4   4   4   2
#     4  10  22  32  52  78 106 144 190 242 286 354
#     4  10  24  42  62  86 122 150 182 250 316 356
#     4   9  15  24  34  54  84 122 172 220 263 317
#     4   9  17  27  37  57  90 127 164 227 265 322
#     4  11  22  38  60  87 113 150 195 249 299 359
#     4  12  14  20  34  54  78 122 174 226 262 314
#
# _framework density 20.528849999999998
#
# number of rings (size 3 to 8) (size 9 to 14) (size 15 to 20)
#    0.000    2.222    5.556    0.667    9.333    0.000 
#    0.000    0.000    0.000    0.000    0.000    0.000 
#    0.000    0.000    0.000    0.000    0.000   17.778 
#
# Total GULP energy -100309.676191 kJ/mol
# GULP energy per Si atom -5572.759788 kJ/mol
# Density = 2.048213 g / cm^3
# Si number density = 20.528850 Si / 1000 Ang^3
#
#
#
# Elastic Constant Matrix: (Units=GPa)
#
#
# Indices 1 2 3 4 5 6 
#
# 1 138.9063 16.2437 44.9446 0.0000 0.0000 0.0000
# 2 16.2437 77.5413 21.7396 0.0000 0.0000 0.0000
# 3 44.9446 21.7396 182.0167 0.0000 0.0000 0.0000
# 4 0.0000 0.0000 0.0000 11.2010 0.0000 0.0000
# 5 0.0000 0.0000 0.0000 0.0000 13.4162 0.0000
# 6 0.0000 0.0000 0.0000 0.0000 0.0000 -4.1700
#
#
#
# Elastic Compliance Matrix: (Units=1/GPa)
#
#
# Indices 1 2 3 4 5 6 
#
# 1 0.007922 -0.001150 -0.001819 0.000000 0.000000 0.000000
# 2 -0.001150 0.013510 -0.001330 0.000000 0.000000 0.000000
# 3 -0.001819 -0.001330 0.006102 0.000000 0.000000 0.000000
# 4 0.000000 0.000000 0.000000 0.089277 0.000000 0.000000
# 5 0.000000 0.000000 0.000000 0.000000 0.074537 0.000000
# 6 0.000000 0.000000 0.000000 0.000000 0.000000 -0.239810
#
#
# Mechanical properties :
#
#
# Convention : Reuss Voigt Hill
#
# Bulk Modulus (GPa) = 52.80502 62.70222 57.75362
# Shear Modulus (GPa) = -149.01909 25.12522 -61.94693
#
# Velocity S-wave (km/s) = -8.52922 3.50222 -5.49919
# Velocity P-wave (km/s) = 8.43912 6.85302 3.48245
#
# Compressibility (1/GPa) = 0.01893759
#
# Stress axis : x y z
#
# Youngs Moduli (GPa) = 126.23014 74.01931 163.88224
#
# Poissons Ratio (x) = 0.08509 0.29808
# Poissons Ratio (y) = 0.14512 0.21792
# Poissons Ratio (z) = 0.22959 0.09843
#
# Static dielectric constant tensor:
#      x y z
#    x 1.773200 0.000000 0.000000 
#    y 0.000000 1.705630 0.000000 
#    z 0.000000 0.000000 1.876490 
# 
# From -- ./inp_files/2507.got.cif
#   From: 2010.05.17/outbox.cif.g08.bks.cpg/sg17_2_cif.got.tgz:2507.got - 2010.06.03 22:34:06.
