data_PCOD9311949
_publ_section_title
;
Structure prediction by ZEFSAII (Michael W. Deem and Ramdas Pophale) SiO2 
 PCOD9311949
Probable space group: P 21 21 2
;
_chemical_formula_sum "Si O2"
_cell_formula_units_Z 30
_cell_length_a 11.778600
_cell_length_b 8.523008
_cell_length_c 13.934926
_cell_angle_alpha 90.000000
_cell_angle_beta 90.000000
_cell_angle_gamma 90.000000
_cell_volume 1398.914708
_symmetry_space_group_name_H-M "P 21 21 2"
_symmetry_group_IT_number 18
_symmetry_cell_setting 'orthorhombic'
loop_
_space_group_symop_operation_xyz
x,y,z
-x,-y,z
1/2+x,1/2-y,-z
1/2-x,1/2+y,-z
loop_
_atom_site_type_symbol
_atom_site_label
_atom_site_fract_x
_atom_site_fract_y
_atom_site_fract_z
Si Si1 0.500000 0.500000 0.278892
Si Si2 0.685984 0.644815 0.418679
Si Si3 0.419930 0.380620 0.928716
Si Si4 0.012576 0.254988 0.888945
Si Si5 0.832578 0.881093 0.290550
Si Si6 0.618327 0.914136 0.553490
Si Si7 0.414822 0.273389 0.729615
Si Si8 0.697665 0.983292 0.104747
O O1 0.604459 0.543430 0.349225
O O2 0.506736 0.353639 0.204599
O O3 0.753617 0.777796 0.358819
O O4 0.619128 0.751375 0.495083
O O5 0.776666 0.528812 0.467878
O O6 0.500000 0.500000 0.868623
O O7 0.389622 0.258777 0.843720
O O8 0.300143 0.454141 0.962560
O O9 0.509137 0.337753 0.011207
O O10 0.899957 0.357169 0.914259
O O11 0.121074 0.364550 0.874410
O O12 0.950266 0.787236 0.284642
O O13 0.861116 0.064136 0.311437
O O14 0.765799 0.903540 0.191171
O O15 0.628442 0.868887 0.665627
O O16 0.500000 0.000000 0.534874
#
# Coordination Sequence:
#
# PCOD9311949 Si02
#       8
#     2   4   4   4   4   4   4   4
#     4  12  28  44  72 102 148 178 240 282 362 442
#     4  12  28  47  72 105 140 188 229 303 361 436
#     4  11  22  40  70 100 136 185 233 287 346 412
#     4  11  25  44  66 104 143 188 228 288 353 427
#     4  10  19  42  72  95 134 181 230 284 351 418
#     4  12  28  48  73 104 141 180 244 297 362 426
#     4  10  21  43  73 101 136 181 239 297 349 414
#     4  10  23  43  65  97 141 186 232 283 352 415
#
# _framework density 21.445195999999999
#
# number of rings (size 3 to 8) (size 9 to 14) (size 15 to 20)
#    0.000    1.067    6.000    0.800    7.467    2.133 
#    2.400    0.000    0.000    0.000    0.000    0.000 
#    0.000    0.000    0.000    0.000    0.000    0.000 
#
# Total GULP energy -167105.216216 kJ/mol
# GULP energy per Si atom -5570.173874 kJ/mol
# Density = 2.139639 g / cm^3
# Si number density = 21.445196 Si / 1000 Ang^3
#
#
#
# Elastic Constant Matrix: (Units=GPa)
#
#
# Indices 1 2 3 4 5 6 
#
# 1 89.0094 20.7006 14.6923 0.0000 0.0000 0.0000
# 2 20.7006 60.7759 15.1547 0.0000 0.0000 0.0000
# 3 14.6923 15.1547 64.7773 0.0000 0.0000 0.0000
# 4 0.0000 0.0000 0.0000 22.7911 0.0000 0.0000
# 5 0.0000 0.0000 0.0000 0.0000 18.8726 0.0000
# 6 0.0000 0.0000 0.0000 0.0000 0.0000 31.8659
#
#
#
# Elastic Compliance Matrix: (Units=1/GPa)
#
#
# Indices 1 2 3 4 5 6 
#
# 1 0.012427 -0.003749 -0.001942 0.000000 0.000000 0.000000
# 2 -0.003749 0.018604 -0.003502 0.000000 0.000000 0.000000
# 3 -0.001942 -0.003502 0.016697 0.000000 0.000000 0.000000
# 4 0.000000 0.000000 0.000000 0.043877 0.000000 0.000000
# 5 0.000000 0.000000 0.000000 0.000000 0.052987 0.000000
# 6 0.000000 0.000000 0.000000 0.000000 0.000000 0.031382
#
#
# Mechanical properties :
#
#
# Convention : Reuss Voigt Hill
#
# Bulk Modulus (GPa) = 34.07914 35.07309 34.57612
# Shear Modulus (GPa) = 24.49308 25.64026 25.06667
#
# Velocity S-wave (km/s) = 3.38320 3.46152 3.42258
# Velocity P-wave (km/s) = 5.58455 5.68915 5.63709
#
# Compressibility (1/GPa) = 0.02934346
#
# Stress axis : x y z
#
# Youngs Moduli (GPa) = 80.46958 53.75195 59.89020
#
# Poissons Ratio (x) = 0.20149 0.11628
# Poissons Ratio (y) = 0.30165 0.20975
# Poissons Ratio (z) = 0.15624 0.18825
#
# Static dielectric constant tensor:
#      x y z
#    x 1.822710 0.000000 0.000000 
#    y 0.000000 2.190580 0.000000 
#    z 0.000000 0.000000 1.854360 
# 
# From -- ./inp_files/6902.got.cif
#   From: 2010.05.17/outbox.cif.g08.bks.cpg/sg18_4_cif.got.tgz:6902.got - 2010.06.03 22:40:56.
