data_PCOD9311582
_publ_section_title
;
Structure prediction by ZEFSAII (Michael W. Deem and Ramdas Pophale) SiO2 
 PCOD9311582
Probable space group: P 2 2 21
;
_chemical_formula_sum "Si O2"
_cell_formula_units_Z 16
_cell_length_a 9.200092
_cell_length_b 8.444589
_cell_length_c 8.697495
_cell_angle_alpha 90.000000
_cell_angle_beta 90.000000
_cell_angle_gamma 90.000000
_cell_volume 675.717047
_symmetry_space_group_name_H-M "P 2 2 21"
_symmetry_group_IT_number 17
_symmetry_cell_setting 'orthorhombic'
loop_
_space_group_symop_operation_xyz
x,y,z
-x,-y,1/2+z
x,-y,-z
-x,y,1/2-z
loop_
_atom_site_type_symbol
_atom_site_label
_atom_site_fract_x
_atom_site_fract_y
_atom_site_fract_z
Si Si1 0.676956 0.278769 0.738236
Si Si2 0.247114 0.947124 0.672009
Si Si3 0.171169 0.500000 0.000000
Si Si4 0.000000 0.710583 0.750000
Si Si5 0.629877 0.500000 0.000000
Si Si6 0.500000 0.727141 0.750000
O O1 0.500000 0.255236 0.750000
O O2 0.728738 0.378458 0.593951
O O3 0.761237 0.113688 0.741615
O O4 0.716952 0.385266 0.886903
O O5 0.364512 0.842788 0.762376
O O6 0.110062 0.831993 0.665990
O O7 0.295568 0.000000 0.500000
O O8 0.077898 0.599579 0.876012
O O9 0.537187 0.386575 0.109340
#
# Coordination Sequence:
#
# PCOD9311582 Si02
#       6
#     4   4   2   2   2   2
#     4  12  27  50  85 123 163 213 280 352 408 487
#     4  12  29  50  80 119 165 218 272 341 420 493
#     4  12  33  57  84 122 169 229 280 338 425 505
#     4  12  34  54  84 118 172 226 270 338 422 522
#     4  12  25  43  80 122 161 207 268 352 411 475
#     4  12  26  50  78 120 162 216 286 344 408 480
#
# _framework density 23.678552
#
# number of rings (size 3 to 8) (size 9 to 14) (size 15 to 20)
#    0.000    0.000    5.000    2.250   10.500    1.000 
#    0.000    0.000    0.000    0.000    0.000    0.000 
#    0.000    0.000    0.000    0.000    0.000    0.000 
#
# Total GULP energy -89638.932737 kJ/mol
# GULP energy per Si atom -5602.433296 kJ/mol
# Density = 2.362466 g / cm^3
# Si number density = 23.678552 Si / 1000 Ang^3
#
#
#
# Elastic Constant Matrix: (Units=GPa)
#
#
# Indices 1 2 3 4 5 6 
#
# 1 71.7541 47.7497 25.0935 0.0000 0.0000 0.0000
# 2 47.7497 208.4911 78.4918 0.0000 0.0000 0.0000
# 3 25.0935 78.4918 129.4391 0.0000 0.0000 0.0000
# 4 0.0000 0.0000 0.0000 36.4760 0.0000 0.0000
# 5 0.0000 0.0000 0.0000 0.0000 34.4440 0.0000
# 6 0.0000 0.0000 0.0000 0.0000 0.0000 27.6739
#
#
#
# Elastic Compliance Matrix: (Units=1/GPa)
#
#
# Indices 1 2 3 4 5 6 
#
# 1 0.016581 -0.003353 -0.001181 0.000000 0.000000 0.000000
# 2 -0.003353 0.006893 -0.003530 0.000000 0.000000 0.000000
# 3 -0.001181 -0.003530 0.010095 0.000000 0.000000 0.000000
# 4 0.000000 0.000000 0.000000 0.027415 0.000000 0.000000
# 5 0.000000 0.000000 0.000000 0.000000 0.029033 0.000000
# 6 0.000000 0.000000 0.000000 0.000000 0.000000 0.036135
#
#
# Mechanical properties :
#
#
# Convention : Reuss Voigt Hill
#
# Bulk Modulus (GPa) = 57.33604 79.15048 68.24326
# Shear Modulus (GPa) = 33.76233 36.94207 35.35220
#
# Velocity S-wave (km/s) = 3.78015 3.95416 3.86813
# Velocity P-wave (km/s) = 6.58177 7.37203 6.98808
#
# Compressibility (1/GPa) = 0.01744104
#
# Stress axis : x y z
#
# Youngs Moduli (GPa) = 60.31118 145.07071 99.05605
#
# Poissons Ratio (x) = 0.48637 0.11702
# Poissons Ratio (y) = 0.20220 0.34967
# Poissons Ratio (z) = 0.07125 0.51211
#
# Static dielectric constant tensor:
#      x y z
#    x 1.875960 0.000000 0.000000 
#    y 0.000000 1.880810 0.000000 
#    z 0.000000 0.000000 1.910330 
# 
# From -- ./inp_files/3791.got.cif
#   From: 2010.05.17/outbox.cif.g08.bks.cpg/sg17_2_cif.got.tgz:3791.got - 2010.06.03 22:34:06.
