data_PCOD9311952
_publ_section_title
;
Structure prediction by ZEFSAII (Michael W. Deem and Ramdas Pophale) SiO2 
 PCOD9311952
Probable space group: P 21 21 2
;
_chemical_formula_sum "Si O2"
_cell_formula_units_Z 24
_cell_length_a 10.092689
_cell_length_b 7.918836
_cell_length_c 13.136526
_cell_angle_alpha 90.000000
_cell_angle_beta 90.000000
_cell_angle_gamma 90.000000
_cell_volume 1049.902015
_symmetry_space_group_name_H-M "P 21 21 2"
_symmetry_group_IT_number 18
_symmetry_cell_setting 'orthorhombic'
loop_
_space_group_symop_operation_xyz
x,y,z
-x,-y,z
1/2+x,1/2-y,-z
1/2-x,1/2+y,-z
loop_
_atom_site_type_symbol
_atom_site_label
_atom_site_fract_x
_atom_site_fract_y
_atom_site_fract_z
Si Si1 0.500000 0.000000 0.671672
Si Si2 0.000000 0.000000 0.657759
Si Si3 0.500000 0.500000 0.808147
Si Si4 0.500000 0.000000 0.021628
Si Si5 0.134086 0.680030 0.147531
Si Si6 0.235167 0.625680 0.448061
Si Si7 0.922887 0.716858 0.794754
Si Si8 0.742743 0.510198 0.658074
O O1 0.543768 0.860311 0.753642
O O2 0.625343 0.001418 0.597550
O O3 0.122809 0.058204 0.589144
O O4 0.980989 0.161278 0.732078
O O5 0.570111 0.639803 0.879358
O O6 0.622018 0.457572 0.731110
O O7 0.526636 0.153202 0.097480
O O8 0.384180 0.049475 0.943557
O O9 0.284457 0.684978 0.183891
O O10 0.227785 0.621558 0.569492
O O11 0.212249 0.812977 0.402268
O O12 0.866844 0.559444 0.728689
#
# Coordination Sequence:
#
# PCOD9311952 Si02
#       8
#     2   2   2   2   4   4   4   4
#     4  11  20  43  64  96 132 175 218 277 308 410
#     4  10  21  43  66  92 136 178 207 273 324 398
#     4  10  19  43  64  88 134 170 219 267 332 394
#     4  11  26  41  68  94 126 165 226 283 346 394
#     4  10  23  44  67  94 125 172 223 277 339 398
#     4  11  23  38  65  98 136 176 228 252 332 393
#     4  10  23  46  59  99 132 165 224 279 328 398
#     4  10  23  39  62  98 133 175 216 272 321 397
#
# _framework density 22.859276000000001
#
# number of rings (size 3 to 8) (size 9 to 14) (size 15 to 20)
#    0.000    1.667    5.000    0.500    2.333    9.333 
#    3.000    0.000    0.000    0.000    0.000    0.000 
#    0.000    0.000    0.000    0.000    0.000    0.000 
#
# Total GULP energy -133923.417291 kJ/mol
# GULP energy per Si atom -5580.142387 kJ/mol
# Density = 2.280725 g / cm^3
# Si number density = 22.859276 Si / 1000 Ang^3
#
#
#
# Elastic Constant Matrix: (Units=GPa)
#
#
# Indices 1 2 3 4 5 6 
#
# 1 57.9289 4.7430 7.1084 0.0000 0.0000 0.0000
# 2 4.7430 29.8400 7.9326 0.0000 0.0000 0.0000
# 3 7.1084 7.9326 105.5120 0.0000 0.0000 0.0000
# 4 0.0000 0.0000 0.0000 29.9445 0.0000 0.0000
# 5 0.0000 0.0000 0.0000 0.0000 15.0742 0.0000
# 6 0.0000 0.0000 0.0000 0.0000 0.0000 26.6553
#
#
#
# Elastic Compliance Matrix: (Units=1/GPa)
#
#
# Indices 1 2 3 4 5 6 
#
# 1 0.017592 -0.002532 -0.000995 0.000000 0.000000 0.000000
# 2 -0.002532 0.034560 -0.002428 0.000000 0.000000 0.000000
# 3 -0.000995 -0.002428 0.009727 0.000000 0.000000 0.000000
# 4 0.000000 0.000000 0.000000 0.033395 0.000000 0.000000
# 5 0.000000 0.000000 0.000000 0.000000 0.066338 0.000000
# 6 0.000000 0.000000 0.000000 0.000000 0.000000 0.037516
#
#
# Mechanical properties :
#
#
# Convention : Reuss Voigt Hill
#
# Bulk Modulus (GPa) = 20.01187 25.87209 22.94198
# Shear Modulus (GPa) = 21.95931 25.90126 23.93029
#
# Velocity S-wave (km/s) = 3.10277 3.36977 3.23902
# Velocity P-wave (km/s) = 4.64861 5.14616 4.90370
#
# Compressibility (1/GPa) = 0.04997034
#
# Stress axis : x y z
#
# Youngs Moduli (GPa) = 56.84436 28.93529 102.80514
#
# Poissons Ratio (x) = 0.07326 0.10227
# Poissons Ratio (y) = 0.14392 0.24958
# Poissons Ratio (z) = 0.05655 0.07025
#
# Static dielectric constant tensor:
#      x y z
#    x 1.819700 0.000000 0.000000 
#    y 0.000000 1.993600 0.000000 
#    z 0.000000 0.000000 1.825180 
# 
# From -- ./inp_files/6702.got.cif
#   From: 2010.05.17/outbox.cif.g08.bks.cpg/sg18_4_cif.got.tgz:6702.got - 2010.06.03 22:40:56.
