data_PCOD9311134
_publ_section_title
;
Structure prediction by ZEFSAII (Michael W. Deem and Ramdas Pophale) SiO2 
 PCOD9311134
Probable space group: P 2 2 21
;
_chemical_formula_sum "Si O2"
_cell_formula_units_Z 22
_cell_length_a 9.599108
_cell_length_b 5.383935
_cell_length_c 20.066137
_cell_angle_alpha 90.000000
_cell_angle_beta 90.000000
_cell_angle_gamma 90.000000
_cell_volume 1037.037495
_symmetry_space_group_name_H-M "P 2 2 21"
_symmetry_group_IT_number 17
_symmetry_cell_setting 'orthorhombic'
loop_
_space_group_symop_operation_xyz
x,y,z
-x,-y,1/2+z
x,-y,-z
-x,y,1/2-z
loop_
_atom_site_type_symbol
_atom_site_label
_atom_site_fract_x
_atom_site_fract_y
_atom_site_fract_z
Si Si1 0.334692 0.731104 0.176722
Si Si2 0.552686 0.118684 0.933528
Si Si3 0.766030 0.500000 0.000000
Si Si4 0.953302 0.907516 0.323803
Si Si5 0.193769 0.821411 0.617645
Si Si6 0.739132 0.235145 0.264291
O O1 0.442456 0.780811 0.118507
O O2 0.350175 0.461533 0.208558
O O3 0.174344 0.743786 0.150776
O O4 0.335744 0.964141 0.228963
O O5 0.651777 0.915072 0.899699
O O6 0.662693 0.322345 0.958642
O O7 0.486233 0.000000 0.000000
O O8 0.849684 0.345133 0.055128
O O9 0.876116 0.172207 0.308622
O O10 0.000000 0.818477 0.250000
O O11 0.084740 0.955777 0.369943
O O12 0.209844 0.701172 0.690331
#
# Coordination Sequence:
#
# PCOD9311134 Si02
#       6
#     4   4   2   4   4   4
#     4  10  22  42  66  96 126 170 213 268 329 377
#     4  10  24  43  62  89 131 175 222 262 324 386
#     4  10  24  38  66  86 134 182 212 268 318 394
#     4   8  19  39  62  92 129 163 203 269 323 378
#     4  10  21  43  61  97 129 173 215 269 325 395
#     4   9  22  39  66  99 126 163 211 271 328 375
#
# _framework density 21.214275000000001
#
# number of rings (size 3 to 8) (size 9 to 14) (size 15 to 20)
#    1.091    1.455    0.000    0.000    7.636    4.364 
#    0.000    4.545    0.000    1.091    0.000    0.000 
#    0.000    0.000    0.000    0.000    0.000    0.000 
#
# Total GULP energy -122592.259405 kJ/mol
# GULP energy per Si atom -5572.375427 kJ/mol
# Density = 2.116599 g / cm^3
# Si number density = 21.214275 Si / 1000 Ang^3
#
#
#
# Elastic Constant Matrix: (Units=GPa)
#
#
# Indices 1 2 3 4 5 6 
#
# 1 50.2691 -8.8294 12.6320 0.0000 0.0000 0.0000
# 2 -8.8294 66.0439 6.5435 0.0000 0.0000 0.0000
# 3 12.6320 6.5435 53.0731 0.0000 0.0000 0.0000
# 4 0.0000 0.0000 0.0000 17.8227 0.0000 0.0000
# 5 0.0000 0.0000 0.0000 0.0000 6.1103 0.0000
# 6 0.0000 0.0000 0.0000 0.0000 0.0000 -16.7618
#
#
#
# Elastic Compliance Matrix: (Units=1/GPa)
#
#
# Indices 1 2 3 4 5 6 
#
# 1 0.021926 0.003491 -0.005649 0.000000 0.000000 0.000000
# 2 0.003491 0.015885 -0.002789 0.000000 0.000000 0.000000
# 3 -0.005649 -0.002789 0.020530 0.000000 0.000000 0.000000
# 4 0.000000 0.000000 0.000000 0.056108 0.000000 0.000000
# 5 0.000000 0.000000 0.000000 0.000000 0.163657 0.000000
# 6 0.000000 0.000000 0.000000 0.000000 0.000000 -0.059659
#
#
# Mechanical properties :
#
#
# Convention : Reuss Voigt Hill
#
# Bulk Modulus (GPa) = 20.64164 21.11981 20.88073
# Shear Modulus (GPa) = 20.45079 12.03691 16.24385
#
# Velocity S-wave (km/s) = 3.10822 2.38459 2.77014
# Velocity P-wave (km/s) = 4.75737 4.19032 4.48282
#
# Compressibility (1/GPa) = 0.04844577
#
# Stress axis : x y z
#
# Youngs Moduli (GPa) = 45.60881 62.95443 48.70841
#
# Poissons Ratio (x) = -0.21977 0.27515
# Poissons Ratio (y) = -0.15922 0.13586
# Poissons Ratio (z) = 0.25764 0.17560
#
# Static dielectric constant tensor:
#      x y z
#    x 1.783480 0.000000 0.000000 
#    y 0.000000 1.857150 0.000000 
#    z 0.000000 0.000000 1.765600 
# 
# From -- ./inp_files/10159.got.cif
#   From: 2010.05.17/outbox.cif.g08.bks.cpg/sg17_6_cif.got.tgz:10159.got - 2010.06.03 22:34:06.
