data_PCOD9311196
_publ_section_title
;
Structure prediction by ZEFSAII (Michael W. Deem and Ramdas Pophale) SiO2 
 PCOD9311196
Probable space group: P 2 2 21
;
_chemical_formula_sum "Si O2"
_cell_formula_units_Z 20
_cell_length_a 5.474070
_cell_length_b 18.964009
_cell_length_c 9.081786
_cell_angle_alpha 90.000000
_cell_angle_beta 90.000000
_cell_angle_gamma 90.000000
_cell_volume 942.783045
_symmetry_space_group_name_H-M "P 2 2 21"
_symmetry_group_IT_number 17
_symmetry_cell_setting 'orthorhombic'
loop_
_space_group_symop_operation_xyz
x,y,z
-x,-y,1/2+z
x,-y,-z
-x,y,1/2-z
loop_
_atom_site_type_symbol
_atom_site_label
_atom_site_fract_x
_atom_site_fract_y
_atom_site_fract_z
Si Si1 0.500000 0.840353 0.250000
Si Si2 0.172752 0.796498 0.504154
Si Si3 0.017064 0.343878 0.927303
Si Si4 0.500000 0.840305 0.750000
Si Si5 0.485761 0.423198 0.571777
Si Si6 0.804734 0.083282 0.502720
O O1 0.346081 0.792701 0.361856
O O2 0.670222 0.889441 0.350538
O O3 0.975971 0.735473 0.488874
O O4 0.322475 0.792541 0.653215
O O5 0.056903 0.874198 0.502375
O O6 0.760501 0.380686 0.971651
O O7 0.000000 0.340570 0.750000
O O8 0.261302 0.384929 0.972072
O O9 0.351346 0.888955 0.864012
O O10 0.474861 0.500000 0.500000
O O11 0.500000 0.428869 0.750000
O O12 0.834155 0.000000 0.500000
#
# Coordination Sequence:
#
# PCOD9311196 Si02
#       6
#     2   4   4   2   4   4
#     4  10  23  38  64  90 119 162 230 266 329 396
#     4  11  24  41  64  92 126 169 221 273 330 393
#     4  10  22  39  70  96 132 174 222 270 323 392
#     4  10  25  42  60  88 133 164 218 272 343 390
#     4  10  22  42  67  99 133 172 215 266 326 394
#     4  11  23  41  62  89 126 168 217 273 334 395
#
# _framework density 21.213789999999999
#
# number of rings (size 3 to 8) (size 9 to 14) (size 15 to 20)
#    0.000    1.600    0.000    3.600    9.800    6.400 
#    1.800    0.000    0.000    0.000    0.000    0.000 
#    0.000    0.000    0.000    0.000    0.000    0.000 
#
# Total GULP energy -111900.428668 kJ/mol
# GULP energy per Si atom -5595.021433 kJ/mol
# Density = 2.116551 g / cm^3
# Si number density = 21.213790 Si / 1000 Ang^3
#
#
#
# Elastic Constant Matrix: (Units=GPa)
#
#
# Indices 1 2 3 4 5 6 
#
# 1 106.4555 28.6053 25.6823 0.0000 0.0000 0.0000
# 2 28.6053 100.8047 10.7562 0.0000 0.0000 0.0000
# 3 25.6823 10.7562 77.7318 0.0000 0.0000 0.0000
# 4 0.0000 0.0000 0.0000 8.1125 0.0000 0.0000
# 5 0.0000 0.0000 0.0000 0.0000 1.0160 0.0000
# 6 0.0000 0.0000 0.0000 0.0000 0.0000 34.1316
#
#
#
# Elastic Compliance Matrix: (Units=1/GPa)
#
#
# Indices 1 2 3 4 5 6 
#
# 1 0.010911 -0.002752 -0.003224 0.000000 0.000000 0.000000
# 2 -0.002752 0.010763 -0.000580 0.000000 0.000000 0.000000
# 3 -0.003224 -0.000580 0.014010 0.000000 0.000000 0.000000
# 4 0.000000 0.000000 0.000000 0.123266 0.000000 0.000000
# 5 0.000000 0.000000 0.000000 0.000000 0.984287 0.000000
# 6 0.000000 0.000000 0.000000 0.000000 0.000000 0.029298
#
#
# Mechanical properties :
#
#
# Convention : Reuss Voigt Hill
#
# Bulk Modulus (GPa) = 44.30345 46.11996 45.21171
# Shear Modulus (GPa) = 4.19051 23.31523 13.75287
#
# Velocity S-wave (km/s) = 1.40700 3.31880 2.54893
# Velocity P-wave (km/s) = 4.85481 6.03935 5.47918
#
# Compressibility (1/GPa) = 0.02257160
#
# Stress axis : x y z
#
# Youngs Moduli (GPa) = 91.65118 92.91046 71.37636
#
# Poissons Ratio (x) = 0.25571 0.23012
# Poissons Ratio (y) = 0.25224 0.04140
# Poissons Ratio (z) = 0.29549 0.05389
#
# Static dielectric constant tensor:
#      x y z
#    x 1.815450 0.000000 0.000000 
#    y 0.000000 1.712710 0.000000 
#    z 0.000000 0.000000 1.747410 
# 
# From -- ./inp_files/3490.got.cif
#   From: 2010.05.17/outbox.cif.g08.bks.cpg/sg17_2_cif.got.tgz:3490.got - 2010.06.03 22:34:06.
