data_PCOD9311559
_publ_section_title
;
Structure prediction by ZEFSAII (Michael W. Deem and Ramdas Pophale) SiO2 
 PCOD9311559
Probable space group: P 2 2 21
;
_chemical_formula_sum "Si O2"
_cell_formula_units_Z 20
_cell_length_a 5.526605
_cell_length_b 10.797814
_cell_length_c 13.488495
_cell_angle_alpha 90.000000
_cell_angle_beta 90.000000
_cell_angle_gamma 90.000000
_cell_volume 804.929350
_symmetry_space_group_name_H-M "P 2 2 21"
_symmetry_group_IT_number 17
_symmetry_cell_setting 'orthorhombic'
loop_
_space_group_symop_operation_xyz
x,y,z
-x,-y,1/2+z
x,-y,-z
-x,y,1/2-z
loop_
_atom_site_type_symbol
_atom_site_label
_atom_site_fract_x
_atom_site_fract_y
_atom_site_fract_z
Si Si1 0.459210 0.876624 0.143210
Si Si2 0.032394 0.500000 0.000000
Si Si3 0.637113 0.587548 0.666164
Si Si4 0.267501 0.262681 0.466634
Si Si5 0.000000 0.782924 0.750000
Si Si6 0.058415 0.979241 0.622614
O O1 0.500000 0.810695 0.250000
O O2 0.187403 0.928689 0.130652
O O3 0.659291 0.985121 0.148325
O O4 0.563524 0.801866 0.048352
O O5 0.895993 0.629754 0.012226
O O6 0.187653 0.511421 0.901385
O O7 0.500000 0.512044 0.750000
O O8 0.449751 0.657066 0.597879
O O9 0.782304 0.697092 0.720208
O O10 0.094257 0.183343 0.387601
O O11 0.000000 0.930061 0.750000
O O12 0.074147 0.000000 0.500000
#
# Coordination Sequence:
#
# PCOD9311559 Si02
#       6
#     4   2   4   4   2   4
#     4  12  28  50  80 121 171 214 268 342 429 501
#     4  12  28  52  80 120 166 212 292 344 424 498
#     4  12  25  49  83 116 161 213 284 354 406 497
#     4  12  29  49  81 124 160 222 281 347 418 509
#     4  12  22  42  82 114 158 204 282 326 416 488
#     4  12  25  47  82 121 162 213 272 341 413 500
#
# _framework density 24.846903000000001
#
# number of rings (size 3 to 8) (size 9 to 14) (size 15 to 20)
#    0.000    0.000    6.000    2.400    2.800    3.200 
#    0.000   10.000    0.000    0.000    0.000    0.000 
#    0.000    0.000    0.000    0.000    0.000    0.000 
#
# Total GULP energy -111449.002717 kJ/mol
# GULP energy per Si atom -5572.450136 kJ/mol
# Density = 2.479035 g / cm^3
# Si number density = 24.846903 Si / 1000 Ang^3
#
#
#
# Elastic Constant Matrix: (Units=GPa)
#
#
# Indices 1 2 3 4 5 6 
#
# 1 119.6422 47.1091 52.8752 0.0000 0.0000 0.0000
# 2 47.1091 102.8373 57.4613 0.0000 0.0000 0.0000
# 3 52.8752 57.4613 168.2422 0.0000 0.0000 0.0000
# 4 0.0000 0.0000 0.0000 88.7122 0.0000 0.0000
# 5 0.0000 0.0000 0.0000 0.0000 64.8907 0.0000
# 6 0.0000 0.0000 0.0000 0.0000 0.0000 49.7674
#
#
#
# Elastic Compliance Matrix: (Units=1/GPa)
#
#
# Indices 1 2 3 4 5 6 
#
# 1 0.010766 -0.003759 -0.002100 0.000000 0.000000 0.000000
# 2 -0.003759 0.013330 -0.003371 0.000000 0.000000 0.000000
# 3 -0.002100 -0.003371 0.007755 0.000000 0.000000 0.000000
# 4 0.000000 0.000000 0.000000 0.011272 0.000000 0.000000
# 5 0.000000 0.000000 0.000000 0.000000 0.015411 0.000000
# 6 0.000000 0.000000 0.000000 0.000000 0.000000 0.020093
#
#
# Mechanical properties :
#
#
# Convention : Reuss Voigt Hill
#
# Bulk Modulus (GPa) = 74.67475 78.40144 76.53810
# Shear Modulus (GPa) = 49.23632 56.22580 52.73106
#
# Velocity S-wave (km/s) = 4.45633 4.76214 4.61177
# Velocity P-wave (km/s) = 7.52315 7.86509 7.69602
#
# Compressibility (1/GPa) = 0.01339141
#
# Stress axis : x y z
#
# Youngs Moduli (GPa) = 92.88289 75.02071 128.94537
#
# Poissons Ratio (x) = 0.28197 0.27077
# Poissons Ratio (y) = 0.34911 0.43472
# Poissons Ratio (z) = 0.19505 0.25292
#
# Static dielectric constant tensor:
#      x y z
#    x 0.833660 0.000000 0.000000 
#    y 0.000000 2.108850 0.000000 
#    z 0.000000 0.000000 0.870610 
# 
# From -- ./inp_files/5954.got.cif
#   From: 2010.05.17/outbox.cif.g08.bks.cpg/sg17_3_cif.got.tgz:5954.got - 2010.06.03 22:34:06.
