data_PCOD9311018
_publ_section_title
;
Structure prediction by ZEFSAII (Michael W. Deem and Ramdas Pophale) SiO2 
 PCOD9311018
Probable space group: P 2 2 21
;
_chemical_formula_sum "Si O2"
_cell_formula_units_Z 32
_cell_length_a 15.818608
_cell_length_b 7.532562
_cell_length_c 12.144935
_cell_angle_alpha 90.000000
_cell_angle_beta 90.000000
_cell_angle_gamma 90.000000
_cell_volume 1447.125425
_symmetry_space_group_name_H-M "P 2 2 21"
_symmetry_group_IT_number 17
_symmetry_cell_setting 'orthorhombic'
loop_
_space_group_symop_operation_xyz
x,y,z
-x,-y,1/2+z
x,-y,-z
-x,y,1/2-z
loop_
_atom_site_type_symbol
_atom_site_label
_atom_site_fract_x
_atom_site_fract_y
_atom_site_fract_z
Si Si1 0.911807 0.270789 0.705089
Si Si2 0.750000 0.357327 0.848549
Si Si3 0.901912 0.848175 0.750249
Si Si4 0.750000 0.235076 0.086791
Si Si5 0.598088 0.151825 0.249751
Si Si6 0.411807 0.729211 0.205089
Si Si7 0.844717 0.785450 0.516410
Si Si8 0.344717 0.214550 0.016410
O O1 0.832379 0.337559 0.773475
O O2 0.904531 0.299591 0.574527
O O3 0.000000 0.340122 0.750000
O O4 0.907732 0.058144 0.725056
O O5 0.750000 0.555717 0.891985
O O6 0.667621 0.337559 0.773475
O O7 0.750000 0.220841 0.953254
O O8 0.836656 0.829795 0.852528
O O9 0.861692 0.753171 0.643866
O O10 0.000000 0.787750 0.750000
O O11 0.663344 0.170205 0.147471
O O12 0.500000 0.212250 0.250000
O O13 0.638308 0.246829 0.356134
O O14 0.592268 0.941856 0.274944
O O15 0.500000 0.659878 0.250000
O O16 0.404531 0.700409 0.074527
O O17 0.750000 0.731301 0.487587
O O18 0.849635 0.000000 0.500000
O O19 0.349635 0.000000 0.000000
#
# Coordination Sequence:
#
# PCOD9311018 Si02
#       8
#     4   4   4   4   4   4   4   4
#     4  10  21  37  62  90 115 148 193 245 295 344
#     4  11  25  42  57  80 122 165 198 237 286 347
#     4  10  21  37  62  90 115 148 193 245 295 344
#     4  11  25  42  57  80 122 165 198 237 286 347
#     4  10  21  37  62  90 115 148 193 245 295 344
#     4  10  21  37  62  90 115 148 193 245 295 344
#     4   9  16  32  56  85 116 139 177 242 296 336
#     4   9  16  32  56  85 116 139 177 242 296 336
#
# _framework density 22.112804000000001
#
# number of rings (size 3 to 8) (size 9 to 14) (size 15 to 20)
#    0.000    2.000    2.500    0.750    3.500    3.000 
#    0.000    2.500    0.000    0.000    0.000    0.000 
#    0.000    0.000    0.000    0.000    0.000    0.000 
#
# Total GULP energy -178630.736080 kJ/mol
# GULP energy per Si atom -5582.210502 kJ/mol
# Density = 2.206247 g / cm^3
# Si number density = 22.112804 Si / 1000 Ang^3
#
#
#
# Elastic Constant Matrix: (Units=GPa)
#
#
# Indices 1 2 3 4 5 6 
#
# 1 139.8097 3.1647 27.7527 0.0000 0.0000 0.0000
# 2 3.1647 35.3470 3.7985 0.0000 0.0000 0.0000
# 3 27.7527 3.7985 82.5470 0.0000 0.0000 0.0000
# 4 0.0000 0.0000 0.0000 21.4594 0.0000 0.0000
# 5 0.0000 0.0000 0.0000 0.0000 38.6841 0.0000
# 6 0.0000 0.0000 0.0000 0.0000 0.0000 27.9697
#
#
#
# Elastic Compliance Matrix: (Units=1/GPa)
#
#
# Indices 1 2 3 4 5 6 
#
# 1 0.007670 -0.000412 -0.002560 0.000000 0.000000 0.000000
# 2 -0.000412 0.028454 -0.001171 0.000000 0.000000 0.000000
# 3 -0.002560 -0.001171 0.013029 0.000000 0.000000 0.000000
# 4 0.000000 0.000000 0.000000 0.046600 0.000000 0.000000
# 5 0.000000 0.000000 0.000000 0.000000 0.025850 0.000000
# 6 0.000000 0.000000 0.000000 0.000000 0.000000 0.035753
#
#
# Mechanical properties :
#
#
# Convention : Reuss Voigt Hill
#
# Bulk Modulus (GPa) = 24.46914 36.34838 30.40876
# Shear Modulus (GPa) = 27.89203 32.48849 30.19026
#
# Velocity S-wave (km/s) = 3.55540 3.83719 3.69898
# Velocity P-wave (km/s) = 5.28622 6.00878 5.65905
#
# Compressibility (1/GPa) = 0.04086780
#
# Stress axis : x y z
#
# Youngs Moduli (GPa) = 130.37773 35.14491 76.75303
#
# Poissons Ratio (x) = 0.01447 0.19647
# Poissons Ratio (y) = 0.05367 0.08987
# Poissons Ratio (z) = 0.33374 0.04115
#
# Static dielectric constant tensor:
#      x y z
#    x 1.822210 0.000000 0.000000 
#    y 0.000000 1.862910 0.000000 
#    z 0.000000 0.000000 1.821150 
# 
# From -- ./inp_files/7309.got.cif
#   From: 2010.05.17/outbox.cif.g08.bks.cpg/sg17_4_cif.got.tgz:7309.got - 2010.06.03 22:34:06.
