data_PCOD9311181
_publ_section_title
;
Structure prediction by ZEFSAII (Michael W. Deem and Ramdas Pophale) SiO2 
 PCOD9311181
Probable space group: P 2 2 21
;
_chemical_formula_sum "Si O2"
_cell_formula_units_Z 18
_cell_length_a 5.210943
_cell_length_b 13.364522
_cell_length_c 11.422910
_cell_angle_alpha 90.000000
_cell_angle_beta 90.000000
_cell_angle_gamma 90.000000
_cell_volume 795.511584
_symmetry_space_group_name_H-M "P 2 2 21"
_symmetry_group_IT_number 17
_symmetry_cell_setting 'orthorhombic'
loop_
_space_group_symop_operation_xyz
x,y,z
-x,-y,1/2+z
x,-y,-z
-x,y,1/2-z
loop_
_atom_site_type_symbol
_atom_site_label
_atom_site_fract_x
_atom_site_fract_y
_atom_site_fract_z
Si Si1 0.000000 0.557079 0.750000
Si Si2 0.841695 0.162000 0.561668
Si Si3 0.631034 0.275520 0.994890
Si Si4 0.817180 0.500000 0.000000
Si Si5 0.500000 0.307624 0.250000
Si Si6 0.237111 0.043831 0.178783
O O1 0.749915 0.624866 0.727733
O O2 0.038302 0.501412 0.625805
O O3 0.614841 0.241660 0.578739
O O4 0.825667 0.072626 0.653735
O O5 0.113658 0.217640 0.546950
O O6 0.770670 0.102572 0.442775
O O7 0.666096 0.395176 0.995649
O O8 0.572445 0.250904 0.131334
O O9 0.500000 0.048164 0.250000
O O10 0.000000 0.088124 0.250000
#
# Coordination Sequence:
#
# PCOD9311181 Si02
#       6
#     2   4   4   2   2   4
#     4  10  22  42  66  92 136 186 236 276 340 386
#     4  11  25  42  67 103 129 173 229 277 337 415
#     4  11  23  41  68  98 137 174 226 278 338 405
#     4  10  24  46  66 102 142 188 224 286 332 408
#     4  10  22  38  66  96 128 170 232 288 322 396
#     4  11  24  45  69  95 134 172 218 285 350 405
#
# _framework density 22.626950999999998
#
# number of rings (size 3 to 8) (size 9 to 14) (size 15 to 20)
#    0.000    1.333    0.000    5.333    4.667   11.556 
#    6.000    0.000    0.000    0.000    0.000    0.000 
#    0.000    0.000    0.000    0.000    0.000    0.000 
#
# Total GULP energy -100584.953200 kJ/mol
# GULP energy per Si atom -5588.052956 kJ/mol
# Density = 2.257545 g / cm^3
# Si number density = 22.626951 Si / 1000 Ang^3
#
#
#
# Elastic Constant Matrix: (Units=GPa)
#
#
# Indices 1 2 3 4 5 6 
#
# 1 173.1330 38.8164 37.2710 0.0000 0.0000 0.0000
# 2 38.8164 112.0104 16.5603 0.0000 0.0000 0.0000
# 3 37.2710 16.5603 85.3523 0.0000 0.0000 0.0000
# 4 0.0000 0.0000 0.0000 12.3283 0.0000 0.0000
# 5 0.0000 0.0000 0.0000 0.0000 20.8470 0.0000
# 6 0.0000 0.0000 0.0000 0.0000 0.0000 27.3429
#
#
#
# Elastic Compliance Matrix: (Units=1/GPa)
#
#
# Indices 1 2 3 4 5 6 
#
# 1 0.006771 -0.001966 -0.002575 0.000000 0.000000 0.000000
# 2 -0.001966 0.009762 -0.001036 0.000000 0.000000 0.000000
# 3 -0.002575 -0.001036 0.013042 0.000000 0.000000 0.000000
# 4 0.000000 0.000000 0.000000 0.081114 0.000000 0.000000
# 5 0.000000 0.000000 0.000000 0.000000 0.047969 0.000000
# 6 0.000000 0.000000 0.000000 0.000000 0.000000 0.036573
#
#
# Mechanical properties :
#
#
# Convention : Reuss Voigt Hill
#
# Bulk Modulus (GPa) = 54.28497 61.75459 58.01978
# Shear Modulus (GPa) = 23.52678 30.62683 27.07681
#
# Velocity S-wave (km/s) = 3.22804 3.68306 3.46303
# Velocity P-wave (km/s) = 6.15931 6.74080 6.45660
#
# Compressibility (1/GPa) = 0.01842131
#
# Stress axis : x y z
#
# Youngs Moduli (GPa) = 147.68832 102.43733 76.67726
#
# Poissons Ratio (x) = 0.20136 0.19747
# Poissons Ratio (y) = 0.29031 0.07941
# Poissons Ratio (z) = 0.38035 0.10609
#
# Static dielectric constant tensor:
#      x y z
#    x 1.813200 0.000000 0.000000 
#    y 0.000000 1.853890 0.000000 
#    z 0.000000 0.000000 1.633870 
# 
# From -- ./inp_files/5864.got.cif
#   From: 2010.05.17/outbox.cif.g08.bks.cpg/sg17_3_cif.got.tgz:5864.got - 2010.06.03 22:34:06.
