data_PCOD9311950
_publ_section_title
;
Structure prediction by ZEFSAII (Michael W. Deem and Ramdas Pophale) SiO2 
 PCOD9311950
Probable space group: P 21 21 2
;
_chemical_formula_sum "Si O2"
_cell_formula_units_Z 20
_cell_length_a 13.623201
_cell_length_b 7.400672
_cell_length_c 9.332149
_cell_angle_alpha 90.000000
_cell_angle_beta 90.000000
_cell_angle_gamma 90.000000
_cell_volume 940.875122
_symmetry_space_group_name_H-M "P 21 21 2"
_symmetry_group_IT_number 18
_symmetry_cell_setting 'orthorhombic'
loop_
_space_group_symop_operation_xyz
x,y,z
-x,-y,z
1/2+x,1/2-y,-z
1/2-x,1/2+y,-z
loop_
_atom_site_type_symbol
_atom_site_label
_atom_site_fract_x
_atom_site_fract_y
_atom_site_fract_z
Si Si1 0.000000 0.500000 0.496670
Si Si2 0.500000 0.500000 0.232152
Si Si3 0.845527 0.652410 0.029951
Si Si4 0.144793 0.296587 0.704411
Si Si5 0.871607 0.331897 0.260195
Si Si6 0.121072 0.924315 0.018557
O O1 0.909529 0.577098 0.590383
O O2 0.943293 0.361385 0.392640
O O3 0.581888 0.387401 0.310633
O O4 0.557315 0.624996 0.119274
O O5 0.872160 0.511109 0.155870
O O6 0.873768 0.862007 0.048445
O O7 0.872947 0.616444 0.862840
O O8 0.728303 0.643196 0.021902
O O9 0.259932 0.234677 0.698501
O O10 0.912901 0.177169 0.158236
#
# Coordination Sequence:
#
# PCOD9311950 Si02
#       6
#     2   2   4   4   4   4
#     4  12  30  46  68 106 154 208 230 276 374 466
#     4  10  20  38  68 104 132 172 240 296 370 396
#     4  10  19  42  73  98 134 176 248 309 356 394
#     4  10  25  46  67 105 142 192 238 303 357 429
#     4  11  25  48  67 105 141 188 242 297 360 422
#     4  10  20  37  70 107 129 172 233 315 353 404
#
# _framework density 21.256803999999999
#
# number of rings (size 3 to 8) (size 9 to 14) (size 15 to 20)
#    0.000    1.600    6.000    0.000    8.400    1.600 
#   10.800    0.000    0.000    0.000    0.000    0.000 
#    0.000    0.000    0.000    0.000    0.000    0.000 
#
# Total GULP energy -111415.470938 kJ/mol
# GULP energy per Si atom -5570.773547 kJ/mol
# Density = 2.120842 g / cm^3
# Si number density = 21.256804 Si / 1000 Ang^3
#
#
#
# Elastic Constant Matrix: (Units=GPa)
#
#
# Indices 1 2 3 4 5 6 
#
# 1 98.6782 56.4790 82.5092 0.0000 0.0000 0.0000
# 2 56.4790 131.6464 139.4650 0.0000 0.0000 0.0000
# 3 82.5092 139.4650 299.9284 0.0000 0.0000 0.0000
# 4 0.0000 0.0000 0.0000 43.2518 0.0000 0.0000
# 5 0.0000 0.0000 0.0000 0.0000 -14.7489 0.0000
# 6 0.0000 0.0000 0.0000 0.0000 0.0000 27.0124
#
#
#
# Elastic Compliance Matrix: (Units=1/GPa)
#
#
# Indices 1 2 3 4 5 6 
#
# 1 0.014071 -0.003816 -0.002097 0.000000 0.000000 0.000000
# 2 -0.003816 0.016006 -0.006393 0.000000 0.000000 0.000000
# 3 -0.002097 -0.006393 0.006884 0.000000 0.000000 0.000000
# 4 0.000000 0.000000 0.000000 0.023120 0.000000 0.000000
# 5 0.000000 0.000000 0.000000 0.000000 -0.067802 0.000000
# 6 0.000000 0.000000 0.000000 0.000000 0.000000 0.037020
#
#
# Mechanical properties :
#
#
# Convention : Reuss Voigt Hill
#
# Bulk Modulus (GPa) = 80.97202 120.79547 100.88374
# Shear Modulus (GPa) = 86.16870 27.88972 57.02921
#
# Velocity S-wave (km/s) = 6.37377 3.62613 5.18526
# Velocity P-wave (km/s) = 9.60946 8.63029 9.13300
#
# Compressibility (1/GPa) = 0.01234995
#
# Stress axis : x y z
#
# Youngs Moduli (GPa) = 71.06877 62.47816 145.27369
#
# Poissons Ratio (x) = 0.23839 0.30459
# Poissons Ratio (y) = 0.27116 0.92872
# Poissons Ratio (z) = 0.14901 0.39941
#
# Static dielectric constant tensor:
#      x y z
#    x 1.823190 0.000000 0.000000 
#    y 0.000000 1.830240 0.000000 
#    z 0.000000 0.000000 1.811820 
# 
# From -- ./inp_files/3040.got.cif
#   From: 2010.05.17/outbox.cif.g08.bks.cpg/sg18_2_cif.got.tgz:3040.got - 2010.06.03 22:40:56.
