data_PCOD9311859
_publ_section_title
;
Structure prediction by ZEFSAII (Michael W. Deem and Ramdas Pophale) SiO2 
 PCOD9311859
Probable space group: P 21 21 2
;
_chemical_formula_sum "Si O2"
_cell_formula_units_Z 32
_cell_length_a 8.654454
_cell_length_b 14.287772
_cell_length_c 13.378523
_cell_angle_alpha 90.000000
_cell_angle_beta 90.000000
_cell_angle_gamma 90.000000
_cell_volume 1654.292706
_symmetry_space_group_name_H-M "P 21 21 2"
_symmetry_group_IT_number 18
_symmetry_cell_setting 'orthorhombic'
loop_
_space_group_symop_operation_xyz
x,y,z
-x,-y,z
1/2+x,1/2-y,-z
1/2-x,1/2+y,-z
loop_
_atom_site_type_symbol
_atom_site_label
_atom_site_fract_x
_atom_site_fract_y
_atom_site_fract_z
Si Si1 0.051361 0.242052 0.171148
Si Si2 0.080752 0.742900 0.861294
Si Si3 0.942174 0.895892 0.991384
Si Si4 0.005055 0.771675 0.405585
Si Si5 0.189033 0.369388 0.522006
Si Si6 0.456385 0.095967 0.296881
Si Si7 0.075659 0.602265 0.038539
Si Si8 0.655045 0.452125 0.583288
O O1 0.235165 0.252227 0.152551
O O2 0.008996 0.219399 0.285488
O O3 0.970511 0.337904 0.135916
O O4 0.009126 0.160701 0.091615
O O5 0.027655 0.692078 0.761447
O O6 0.012794 0.840335 0.897439
O O7 0.027019 0.668854 0.946233
O O8 0.759030 0.900897 0.976012
O O9 0.000000 0.000000 0.998667
O O10 0.919811 0.676168 0.437940
O O11 0.904900 0.854093 0.458152
O O12 0.178147 0.795869 0.442861
O O13 0.274836 0.469956 0.508278
O O14 0.071892 0.394136 0.611056
O O15 0.283815 0.076923 0.336253
O O16 0.500000 0.000000 0.239063
O O17 0.000000 0.500000 0.037491
O O18 0.500000 0.500000 0.628120
#
# Coordination Sequence:
#
# PCOD9311859 Si02
#       8
#     4   4   4   4   4   4   4   4
#     4  10  22  38  62  89 121 163 208 255 311 374
#     4  10  20  37  61  88 121 163 204 259 303 372
#     4  10  22  39  63  88 124 166 207 257 312 371
#     4  11  21  40  61  91 123 161 206 262 311 372
#     4  10  23  36  62  86 122 166 197 265 311 371
#     4  10  19  36  58  91 120 158 205 256 305 367
#     4  10  21  39  57  89 126 163 203 256 310 370
#     4   9  19  37  60  88 121 155 205 253 309 366
#
# _framework density 19.343616000000001
#
# number of rings (size 3 to 8) (size 9 to 14) (size 15 to 20)
#    0.000    2.000    1.250    1.875    1.750    2.500 
#    2.250    3.125    2.750    0.000    0.000    0.000 
#    0.000    0.000    0.000    0.000    0.000    0.000 
#
# Total GULP energy -178250.413076 kJ/mol
# GULP energy per Si atom -5570.325409 kJ/mol
# Density = 1.929959 g / cm^3
# Si number density = 19.343616 Si / 1000 Ang^3
#
#
#
# Elastic Constant Matrix: (Units=GPa)
#
#
# Indices 1 2 3 4 5 6 
#
# 1 59.4449 25.3030 21.3719 0.0000 0.0000 0.0000
# 2 25.3030 111.5524 34.5957 0.0000 0.0000 0.0000
# 3 21.3719 34.5957 47.2098 0.0000 0.0000 0.0000
# 4 0.0000 0.0000 0.0000 19.6795 0.0000 0.0000
# 5 0.0000 0.0000 0.0000 0.0000 17.0269 0.0000
# 6 0.0000 0.0000 0.0000 0.0000 0.0000 34.5150
#
#
#
# Elastic Compliance Matrix: (Units=1/GPa)
#
#
# Indices 1 2 3 4 5 6 
#
# 1 0.020538 -0.002297 -0.007614 0.000000 0.000000 0.000000
# 2 -0.002297 0.011858 -0.007650 0.000000 0.000000 0.000000
# 3 -0.007614 -0.007650 0.030235 0.000000 0.000000 0.000000
# 4 0.000000 0.000000 0.000000 0.050814 0.000000 0.000000
# 5 0.000000 0.000000 0.000000 0.000000 0.058730 0.000000
# 6 0.000000 0.000000 0.000000 0.000000 0.000000 0.028973
#
#
# Mechanical properties :
#
#
# Convention : Reuss Voigt Hill
#
# Bulk Modulus (GPa) = 36.35242 42.30536 39.32889
# Shear Modulus (GPa) = 20.37169 23.37337 21.87253
#
# Velocity S-wave (km/s) = 3.24875 3.47987 3.36629
# Velocity P-wave (km/s) = 5.73640 6.16960 5.95693
#
# Compressibility (1/GPa) = 0.02750849
#
# Stress axis : x y z
#
# Youngs Moduli (GPa) = 48.69138 84.33276 33.07471
#
# Poissons Ratio (x) = 0.19372 0.25183
# Poissons Ratio (y) = 0.11185 0.25301
# Poissons Ratio (z) = 0.37074 0.64511
#
# Static dielectric constant tensor:
#      x y z
#    x 1.711990 0.000000 0.000000 
#    y 0.000000 1.720030 0.000000 
#    z 0.000000 0.000000 1.672570 
# 
# From -- ./inp_files/5673.got.cif
#   From: 2010.05.17/outbox.cif.g08.bks.cpg/sg18_3_cif.got.tgz:5673.got - 2010.06.03 22:40:56.
