data_PCOD9311158
_publ_section_title
;
Structure prediction by ZEFSAII (Michael W. Deem and Ramdas Pophale) SiO2 
 PCOD9311158
Probable space group: P 2 2 21
;
_chemical_formula_sum "Si O2"
_cell_formula_units_Z 18
_cell_length_a 10.070486
_cell_length_b 7.762626
_cell_length_c 9.162311
_cell_angle_alpha 90.000000
_cell_angle_beta 90.000000
_cell_angle_gamma 90.000000
_cell_volume 716.249154
_symmetry_space_group_name_H-M "P 2 2 21"
_symmetry_group_IT_number 17
_symmetry_cell_setting 'orthorhombic'
loop_
_space_group_symop_operation_xyz
x,y,z
-x,-y,1/2+z
x,-y,-z
-x,y,1/2-z
loop_
_atom_site_type_symbol
_atom_site_label
_atom_site_fract_x
_atom_site_fract_y
_atom_site_fract_z
Si Si1 0.204407 0.140638 0.110461
Si Si2 0.000000 0.456063 0.750000
Si Si3 0.322690 0.500000 0.000000
Si Si4 0.500000 0.444608 0.250000
Si Si5 0.060434 0.735942 0.528235
Si Si6 0.664239 0.158166 0.082146
O O1 0.265564 0.102733 0.267166
O O2 0.044522 0.136884 0.101793
O O3 0.245532 0.334364 0.062048
O O4 0.257648 0.000000 0.000000
O O5 0.912257 0.591157 0.845334
O O6 0.979102 0.330369 0.613481
O O7 0.405674 0.446923 0.855701
O O8 0.573837 0.317059 0.134334
O O9 0.207355 0.791962 0.484241
O O10 0.594761 0.000000 0.000000
#
# Coordination Sequence:
#
# PCOD9311158 Si02
#       6
#     4   2   2   2   4   4
#     4  11  24  43  72 105 145 186 230 299 380 443
#     4  10  22  36  66 104 154 190 226 290 368 442
#     4  10  24  48  70 102 142 188 248 302 362 434
#     4  10  26  46  72 102 136 198 256 302 360 436
#     4  11  22  41  67 108 148 188 236 299 376 454
#     4  11  25  45  69 104 144 189 251 306 360 441
#
# _framework density 25.130922000000002
#
# number of rings (size 3 to 8) (size 9 to 14) (size 15 to 20)
#    0.000    1.333    2.222    2.000    6.222    7.111 
#    0.000    1.111    0.000    0.000    0.000    0.000 
#    0.000    0.000    0.000    0.000    0.000    0.000 
#
# Total GULP energy -100333.647525 kJ/mol
# GULP energy per Si atom -5574.091529 kJ/mol
# Density = 2.507372 g / cm^3
# Si number density = 25.130922 Si / 1000 Ang^3
#
#
#
# Elastic Constant Matrix: (Units=GPa)
#
#
# Indices 1 2 3 4 5 6 
#
# 1 59.9462 -0.1364 24.6209 0.0000 0.0000 0.0000
# 2 -0.1364 63.8270 54.5500 0.0000 0.0000 0.0000
# 3 24.6209 54.5500 154.8169 0.0000 0.0000 0.0000
# 4 0.0000 0.0000 0.0000 56.4532 0.0000 0.0000
# 5 0.0000 0.0000 0.0000 0.0000 29.3662 0.0000
# 6 0.0000 0.0000 0.0000 0.0000 0.0000 3.8607
#
#
#
# Elastic Compliance Matrix: (Units=1/GPa)
#
#
# Indices 1 2 3 4 5 6 
#
# 1 0.018420 0.003639 -0.004211 0.000000 0.000000 0.000000
# 2 0.003639 0.023137 -0.008731 0.000000 0.000000 0.000000
# 3 -0.004211 -0.008731 0.010205 0.000000 0.000000 0.000000
# 4 0.000000 0.000000 0.000000 0.017714 0.000000 0.000000
# 5 0.000000 0.000000 0.000000 0.000000 0.034053 0.000000
# 6 0.000000 0.000000 0.000000 0.000000 0.000000 0.259023
#
#
# Mechanical properties :
#
#
# Convention : Reuss Voigt Hill
#
# Bulk Modulus (GPa) = 30.16179 48.51769 39.33974
# Shear Modulus (GPa) = 12.74825 31.23971 21.99398
#
# Velocity S-wave (km/s) = 2.25472 3.52956 2.96155
# Velocity P-wave (km/s) = 4.33662 5.99652 5.23281
#
# Compressibility (1/GPa) = 0.03315453
#
# Stress axis : x y z
#
# Youngs Moduli (GPa) = 54.29002 43.22042 97.98717
#
# Poissons Ratio (x) = -0.15726 0.41266
# Poissons Ratio (y) = -0.19754 0.85554
# Poissons Ratio (z) = 0.22864 0.37736
#
# Static dielectric constant tensor:
#      x y z
#    x 2.050090 0.000000 0.000000 
#    y 0.000000 2.120760 0.000000 
#    z 0.000000 0.000000 1.973040 
# 
# From -- ./inp_files/4591.got.cif
#   From: 2010.05.17/outbox.cif.g08.bks.cpg/sg17_3_cif.got.tgz:4591.got - 2010.06.03 22:34:06.
