data_PCOD9311170
_publ_section_title
;
Structure prediction by ZEFSAII (Michael W. Deem and Ramdas Pophale) SiO2 
 PCOD9311170
Probable space group: P 2 2 21
;
_chemical_formula_sum "Si O2"
_cell_formula_units_Z 18
_cell_length_a 17.319165
_cell_length_b 6.277256
_cell_length_c 9.362597
_cell_angle_alpha 90.000000
_cell_angle_beta 90.000000
_cell_angle_gamma 90.000000
_cell_volume 1017.871889
_symmetry_space_group_name_H-M "P 2 2 21"
_symmetry_group_IT_number 17
_symmetry_cell_setting 'orthorhombic'
loop_
_space_group_symop_operation_xyz
x,y,z
-x,-y,1/2+z
x,-y,-z
-x,y,1/2-z
loop_
_atom_site_type_symbol
_atom_site_label
_atom_site_fract_x
_atom_site_fract_y
_atom_site_fract_z
Si Si1 0.367903 0.620420 0.145019
Si Si2 0.072869 0.616996 0.650678
Si Si3 0.538819 0.000000 0.500000
Si Si4 0.862220 0.000000 0.000000
Si Si5 0.500000 0.696367 0.750000
Si Si6 0.773484 0.620381 0.144696
O O1 0.428122 0.460630 0.222260
O O2 0.295091 0.653416 0.245966
O O3 0.344116 0.500000 0.000000
O O4 0.409805 0.838855 0.096363
O O5 0.059196 0.500000 0.500000
O O6 0.087297 0.861194 0.608680
O O7 0.154222 0.518295 0.704779
O O8 0.000000 0.585559 0.750000
O O9 0.492837 0.848172 0.610472
O O10 0.809689 0.159938 0.909868
O O11 0.746649 0.500000 0.000000
#
# Coordination Sequence:
#
# PCOD9311170 Si02
#       6
#     4   4   2   2   2   4
#     4  10  22  39  56  81 114 144 181 227 274 326
#     4   9  19  36  55  78 108 141 177 219 267 319
#     4  10  22  38  59  83 110 146 186 226 276 329
#     4   8  18  34  55  81 106 138 182 220 262 321
#     4  10  22  40  58  82 112 144 184 230 274 328
#     4   9  20  37  56  78 107 143 180 221 268 320
#
# _framework density 17.683955000000001
#
# number of rings (size 3 to 8) (size 9 to 14) (size 15 to 20)
#    0.000    3.111    0.000    0.667    0.000   16.000 
#    0.000    2.222    0.000    0.000    0.000    0.000 
#    0.000    0.000    0.000    0.000    0.000    0.000 
#
# Total GULP energy -100319.932931 kJ/mol
# GULP energy per Si atom -5573.329607 kJ/mol
# Density = 1.764371 g / cm^3
# Si number density = 17.683955 Si / 1000 Ang^3
#
#
#
# Elastic Constant Matrix: (Units=GPa)
#
#
# Indices 1 2 3 4 5 6 
#
# 1 78.8203 28.5067 68.1852 0.0000 0.0000 0.0000
# 2 28.5067 102.1644 35.2516 0.0000 0.0000 0.0000
# 3 68.1852 35.2516 84.2802 0.0000 0.0000 0.0000
# 4 0.0000 0.0000 0.0000 22.3549 0.0000 0.0000
# 5 0.0000 0.0000 0.0000 0.0000 46.5468 0.0000
# 6 0.0000 0.0000 0.0000 0.0000 0.0000 2.1894
#
#
#
# Elastic Compliance Matrix: (Units=1/GPa)
#
#
# Indices 1 2 3 4 5 6 
#
# 1 0.042272 0.000006 -0.034202 0.000000 0.000000 0.000000
# 2 0.000006 0.011439 -0.004790 0.000000 0.000000 0.000000
# 3 -0.034202 -0.004790 0.041539 0.000000 0.000000 0.000000
# 4 0.000000 0.000000 0.000000 0.044733 0.000000 0.000000
# 5 0.000000 0.000000 0.000000 0.000000 0.021484 0.000000
# 6 0.000000 0.000000 0.000000 0.000000 0.000000 0.456745
#
#
# Mechanical properties :
#
#
# Convention : Reuss Voigt Hill
#
# Bulk Modulus (GPa) = 57.87261 58.79466 58.33364
# Shear Modulus (GPa) = 7.12310 23.10631 15.11470
#
# Velocity S-wave (km/s) = 2.00917 3.61865 2.92672
# Velocity P-wave (km/s) = 6.17895 7.12595 6.66928
#
# Compressibility (1/GPa) = 0.01727933
#
# Stress axis : x y z
#
# Youngs Moduli (GPa) = 23.65641 87.41977 24.07385
#
# Poissons Ratio (x) = -0.00054 0.82337
# Poissons Ratio (y) = -0.00015 0.11530
# Poissons Ratio (z) = 0.80909 0.41871
#
# Static dielectric constant tensor:
#      x y z
#    x 1.585680 0.000000 0.000000 
#    y 0.000000 1.634320 0.000000 
#    z 0.000000 0.000000 1.594090 
# 
# From -- ./inp_files/3499.got.cif
#   From: 2010.05.17/outbox.cif.g08.bks.cpg/sg17_2_cif.got.tgz:3499.got - 2010.06.03 22:34:06.
