data_PCOD9311244
_publ_section_title
;
Structure prediction by ZEFSAII (Michael W. Deem and Ramdas Pophale) SiO2 
 PCOD9311244
Probable space group: P 2 2 21
;
_chemical_formula_sum "Si O2"
_cell_formula_units_Z 24
_cell_length_a 12.529012
_cell_length_b 5.642269
_cell_length_c 15.778081
_cell_angle_alpha 90.000000
_cell_angle_beta 90.000000
_cell_angle_gamma 90.000000
_cell_volume 1115.384986
_symmetry_space_group_name_H-M "P 2 2 21"
_symmetry_group_IT_number 17
_symmetry_cell_setting 'orthorhombic'
loop_
_space_group_symop_operation_xyz
x,y,z
-x,-y,1/2+z
x,-y,-z
-x,y,1/2-z
loop_
_atom_site_type_symbol
_atom_site_label
_atom_site_fract_x
_atom_site_fract_y
_atom_site_fract_z
Si Si1 0.295162 0.838328 0.192603
Si Si2 0.692901 0.389343 0.878976
Si Si3 0.072816 0.612585 0.177806
Si Si4 0.810051 0.781337 0.787868
Si Si5 0.904045 0.850205 0.080367
Si Si6 0.536106 0.741545 0.452481
O O1 0.312937 0.715683 0.283537
O O2 0.181884 0.746453 0.156721
O O3 0.388736 0.789147 0.128181
O O4 0.271652 0.105493 0.220445
O O5 0.736780 0.649450 0.857451
O O6 0.788247 0.266863 0.930442
O O7 0.581755 0.336953 0.922763
O O8 0.114513 0.383075 0.229460
O O9 0.000000 0.731957 0.250000
O O10 0.989485 0.642543 0.101476
O O11 0.879701 0.964870 0.842658
O O12 0.939314 0.000000 0.000000
O O13 0.576932 0.500000 0.500000
O O14 0.532370 0.000000 0.500000
#
# Coordination Sequence:
#
# PCOD9311244 Si02
#       6
#     4   4   4   4   4   4
#     4  10  24  46  73 101 139 197 254 291 366 455
#     4  10  23  44  72 104 140 192 248 300 371 457
#     4  11  21  42  68 103 136 193 238 291 362 444
#     4  10  22  41  78  98 146 190 251 299 360 465
#     4  11  24  40  68 111 147 182 240 316 385 431
#     4  12  30  49  73 107 154 194 244 319 383 438
#
# _framework density 21.517233000000001
#
# number of rings (size 3 to 8) (size 9 to 14) (size 15 to 20)
#    0.000    1.333    5.000    1.000   14.000    0.667 
#    0.000    1.667    0.000    0.000    0.000    0.000 
#    0.000    0.000    0.000    0.000    0.000    0.000 
#
# Total GULP energy -133675.943782 kJ/mol
# GULP energy per Si atom -5569.830991 kJ/mol
# Density = 2.146826 g / cm^3
# Si number density = 21.517233 Si / 1000 Ang^3
#
#
#
# Elastic Constant Matrix: (Units=GPa)
#
#
# Indices 1 2 3 4 5 6 
#
# 1 90.1746 28.8584 35.7384 0.0000 0.0000 0.0000
# 2 28.8584 96.0505 32.8750 0.0000 0.0000 0.0000
# 3 35.7384 32.8750 82.5699 0.0000 0.0000 0.0000
# 4 0.0000 0.0000 0.0000 20.9273 0.0000 0.0000
# 5 0.0000 0.0000 0.0000 0.0000 1.5378 0.0000
# 6 0.0000 0.0000 0.0000 0.0000 0.0000 19.4983
#
#
#
# Elastic Compliance Matrix: (Units=1/GPa)
#
#
# Indices 1 2 3 4 5 6 
#
# 1 0.013865 -0.002445 -0.005028 0.000000 0.000000 0.000000
# 2 -0.002445 0.012485 -0.003913 0.000000 0.000000 0.000000
# 3 -0.005028 -0.003913 0.015845 0.000000 0.000000 0.000000
# 4 0.000000 0.000000 0.000000 0.047785 0.000000 0.000000
# 5 0.000000 0.000000 0.000000 0.000000 0.650278 0.000000
# 6 0.000000 0.000000 0.000000 0.000000 0.000000 0.051287
#
#
# Mechanical properties :
#
#
# Convention : Reuss Voigt Hill
#
# Bulk Modulus (GPa) = 51.48208 51.52651 51.50429
# Shear Modulus (GPa) = 6.09170 19.81423 12.95296
#
# Velocity S-wave (km/s) = 1.68441 3.03785 2.45619
# Velocity P-wave (km/s) = 5.26886 6.02522 5.65969
#
# Compressibility (1/GPa) = 0.01942423
#
# Stress axis : x y z
#
# Youngs Moduli (GPa) = 72.12646 80.09664 63.11220
#
# Poissons Ratio (x) = 0.19582 0.31730
# Poissons Ratio (y) = 0.17634 0.24694
# Poissons Ratio (z) = 0.36262 0.31339
#
# Static dielectric constant tensor:
#      x y z
#    x 1.754140 0.000000 0.000000 
#    y 0.000000 1.923730 0.000000 
#    z 0.000000 0.000000 1.810970 
# 
# From -- ./inp_files/9571.got.cif
#   From: 2010.05.17/outbox.cif.g08.bks.cpg/sg17_5_cif.got.tgz:9571.got - 2010.06.03 22:34:06.
