data_PCOD9311517
_publ_section_title
;
Structure prediction by ZEFSAII (Michael W. Deem and Ramdas Pophale) SiO2 
 PCOD9311517
Probable space group: P 2 2 21
;
_chemical_formula_sum "Si O2"
_cell_formula_units_Z 18
_cell_length_a 5.366622
_cell_length_b 7.017928
_cell_length_c 18.961736
_cell_angle_alpha 90.000000
_cell_angle_beta 90.000000
_cell_angle_gamma 90.000000
_cell_volume 714.147649
_symmetry_space_group_name_H-M "P 2 2 21"
_symmetry_group_IT_number 17
_symmetry_cell_setting 'orthorhombic'
loop_
_space_group_symop_operation_xyz
x,y,z
-x,-y,1/2+z
x,-y,-z
-x,y,1/2-z
loop_
_atom_site_type_symbol
_atom_site_label
_atom_site_fract_x
_atom_site_fract_y
_atom_site_fract_z
Si Si1 0.344380 0.798317 0.556952
Si Si2 0.721503 0.505691 0.709113
Si Si3 0.862225 0.872554 0.635112
Si Si4 0.528272 0.601410 0.436095
Si Si5 0.000000 0.820846 0.250000
O O1 0.585600 0.864943 0.601696
O O2 0.329463 0.569233 0.573693
O O3 0.079833 0.880827 0.577263
O O4 0.417066 0.213010 0.526168
O O5 0.500000 0.610814 0.750000
O O6 0.890453 0.676325 0.679709
O O7 0.663286 0.389645 0.637385
O O8 0.791880 0.339976 0.765086
O O9 0.913284 0.044184 0.687925
O O10 0.688933 0.500000 0.500000
#
# Coordination Sequence:
#
# PCOD9311517 Si02
#       5
#     4   4   4   4   2
#     4   8  20  40  71  99 128 185 236 291 350 424
#     4  11  26  46  71 107 146 195 240 304 371 440
#     4  11  24  44  71  99 141 190 233 292 365 423
#     4   7  18  40  74 100 132 184 250 291 356 435
#     4  12  30  38  72 104 154 186 246 294 370 448
#
# _framework density 25.204868999999999
#
# number of rings (size 3 to 8) (size 9 to 14) (size 15 to 20)
#    1.333    0.889    0.000    0.667   15.556    7.111 
#    0.000    1.111    0.000    0.000    0.000    0.000 
#    0.000    0.000    0.000    0.000    0.000    0.000 
#
# Total GULP energy -100230.089164 kJ/mol
# GULP energy per Si atom -5568.338287 kJ/mol
# Density = 2.514750 g / cm^3
# Si number density = 25.204869 Si / 1000 Ang^3
#
#
#
# Elastic Constant Matrix: (Units=GPa)
#
#
# Indices 1 2 3 4 5 6 
#
# 1 95.5043 34.6993 42.2609 0.0000 0.0000 0.0000
# 2 34.6993 124.1609 61.2365 0.0000 0.0000 0.0000
# 3 42.2609 61.2365 95.9547 0.0000 0.0000 0.0000
# 4 0.0000 0.0000 0.0000 49.9372 0.0000 0.0000
# 5 0.0000 0.0000 0.0000 0.0000 33.7769 0.0000
# 6 0.0000 0.0000 0.0000 0.0000 0.0000 8.6175
#
#
#
# Elastic Compliance Matrix: (Units=1/GPa)
#
#
# Indices 1 2 3 4 5 6 
#
# 1 0.013125 -0.001192 -0.005020 0.000000 0.000000 0.000000
# 2 -0.001192 0.011862 -0.007045 0.000000 0.000000 0.000000
# 3 -0.005020 -0.007045 0.017128 0.000000 0.000000 0.000000
# 4 0.000000 0.000000 0.000000 0.020025 0.000000 0.000000
# 5 0.000000 0.000000 0.000000 0.000000 0.029606 0.000000
# 6 0.000000 0.000000 0.000000 0.000000 0.000000 0.116043
#
#
# Mechanical properties :
#
#
# Convention : Reuss Voigt Hill
#
# Bulk Modulus (GPa) = 64.09666 65.77926 64.93796
# Shear Modulus (GPa) = 20.87645 30.29451 25.58548
#
# Velocity S-wave (km/s) = 2.88109 3.47065 3.18952
# Velocity P-wave (km/s) = 6.04591 6.49731 6.27567
#
# Compressibility (1/GPa) = 0.01560144
#
# Stress axis : x y z
#
# Youngs Moduli (GPa) = 76.18936 84.30387 58.38291
#
# Poissons Ratio (x) = 0.10052 0.29307
# Poissons Ratio (y) = 0.09085 0.41130
# Poissons Ratio (z) = 0.38245 0.59391
#
# Static dielectric constant tensor:
#      x y z
#    x 2.430730 0.000000 0.000000 
#    y 0.000000 2.001210 0.000000 
#    z 0.000000 0.000000 2.100360 
# 
# From -- ./inp_files/10347.got.cif
#   From: 2010.05.17/outbox.cif.g08.bks.cpg/sg17_6_cif.got.tgz:10347.got - 2010.06.03 22:34:06.
