data_PCOD9311078
_publ_section_title
;
Structure prediction by ZEFSAII (Michael W. Deem and Ramdas Pophale) SiO2 
 PCOD9311078
Probable space group: P 2 2 21
;
_chemical_formula_sum "Si O2"
_cell_formula_units_Z 28
_cell_length_a 19.894358
_cell_length_b 12.912798
_cell_length_c 5.531972
_cell_angle_alpha 90.000000
_cell_angle_beta 90.000000
_cell_angle_gamma 90.000000
_cell_volume 1421.118390
_symmetry_space_group_name_H-M "P 2 2 21"
_symmetry_group_IT_number 17
_symmetry_cell_setting 'orthorhombic'
loop_
_space_group_symop_operation_xyz
x,y,z
-x,-y,1/2+z
x,-y,-z
-x,y,1/2-z
loop_
_atom_site_type_symbol
_atom_site_label
_atom_site_fract_x
_atom_site_fract_y
_atom_site_fract_z
Si Si1 0.704771 0.376393 0.495654
Si Si2 0.166224 0.733807 0.099395
Si Si3 0.209922 0.118216 0.520076
Si Si4 0.669231 0.729968 0.981333
Si Si5 0.071247 0.182721 0.272092
Si Si6 0.541719 0.120883 0.999262
Si Si7 0.067446 0.384292 0.592394
O O1 0.705553 0.500000 0.500000
O O2 0.779709 0.330313 0.449987
O O3 0.663011 0.340118 0.259760
O O4 0.683293 0.330213 0.761947
O O5 0.201025 0.834479 0.213269
O O6 0.136902 0.650124 0.283989
O O7 0.099992 0.780989 0.981784
O O8 0.268156 0.193013 0.424487
O O9 0.135997 0.130228 0.398104
O O10 0.230183 0.000000 0.500000
O O11 0.603966 0.801224 0.008143
O O12 0.057451 0.290372 0.408078
O O13 0.000000 0.124941 0.250000
O O14 0.500000 0.136799 0.250000
O O15 0.500000 0.135495 0.750000
O O16 0.563654 0.000000 0.000000
O O17 0.075768 0.500000 0.500000
O O18 0.000000 0.386724 0.750000
#
# Coordination Sequence:
#
# PCOD9311078 Si02
#       7
#     4   4   4   4   4   4   4
#     4  11  24  40  66  92 130 172 224 266 319 382
#     4  10  23  39  56  83 113 156 205 265 321 381
#     4  10  23  41  60  88 117 159 211 260 320 385
#     4  11  22  43  67  99 133 172 212 269 318 379
#     4  11  21  40  56  78 119 153 203 264 320 389
#     4  10  21  39  68 106 141 175 213 260 324 385
#     4  11  23  33  54  80 109 147 198 258 334 394
#
# _framework density 19.702791000000001
#
# number of rings (size 3 to 8) (size 9 to 14) (size 15 to 20)
#    0.000    1.429    2.857    2.143    2.000    0.571 
#    2.571    1.429    0.000    8.571    0.000    0.000 
#    0.000    0.000    0.000    0.000    0.000    0.000 
#
# Total GULP energy -155990.729892 kJ/mol
# GULP energy per Si atom -5571.097496 kJ/mol
# Density = 1.965795 g / cm^3
# Si number density = 19.702791 Si / 1000 Ang^3
#
#
#
# Elastic Constant Matrix: (Units=GPa)
#
#
# Indices 1 2 3 4 5 6 
#
# 1 90.0170 46.3167 29.9270 0.0000 0.0000 0.0000
# 2 46.3167 131.8153 52.2266 0.0000 0.0000 0.0000
# 3 29.9270 52.2266 77.2749 0.0000 0.0000 0.0000
# 4 0.0000 0.0000 0.0000 38.6561 0.0000 0.0000
# 5 0.0000 0.0000 0.0000 0.0000 28.2953 0.0000
# 6 0.0000 0.0000 0.0000 0.0000 0.0000 85.7638
#
#
#
# Elastic Compliance Matrix: (Units=1/GPa)
#
#
# Indices 1 2 3 4 5 6 
#
# 1 0.014011 -0.003787 -0.002866 0.000000 0.000000 0.000000
# 2 -0.003787 0.011385 -0.006228 0.000000 0.000000 0.000000
# 3 -0.002866 -0.006228 0.018260 0.000000 0.000000 0.000000
# 4 0.000000 0.000000 0.000000 0.025869 0.000000 0.000000
# 5 0.000000 0.000000 0.000000 0.000000 0.035342 0.000000
# 6 0.000000 0.000000 0.000000 0.000000 0.000000 0.011660
#
#
# Mechanical properties :
#
#
# Convention : Reuss Voigt Hill
#
# Bulk Modulus (GPa) = 55.88915 61.78309 58.83612
# Shear Modulus (GPa) = 33.72628 41.91885 37.82257
#
# Velocity S-wave (km/s) = 4.14182 4.61755 4.38614
# Velocity P-wave (km/s) = 7.16244 7.73658 7.45504
#
# Compressibility (1/GPa) = 0.01789256
#
# Stress axis : x y z
#
# Youngs Moduli (GPa) = 71.37424 87.83818 54.76506
#
# Poissons Ratio (x) = 0.33267 0.15698
# Poissons Ratio (y) = 0.27032 0.34105
# Poissons Ratio (z) = 0.20458 0.54702
#
# Static dielectric constant tensor:
#      x y z
#    x 1.651960 0.000000 0.000000 
#    y 0.000000 1.642230 0.000000 
#    z 0.000000 0.000000 1.772370 
# 
# From -- ./inp_files/1803.got.cif
#   From: 2010.05.17/outbox.cif.g08.bks.cpg/sg17_1_cif.got.tgz:1803.got - 2010.06.03 22:34:06.
