data_PCOD9311876
_publ_section_title
;
Structure prediction by ZEFSAII (Michael W. Deem and Ramdas Pophale) SiO2 
 PCOD9311876
Probable space group: P 21 21 2
;
_chemical_formula_sum "Si O2"
_cell_formula_units_Z 32
_cell_length_a 8.841994
_cell_length_b 11.374238
_cell_length_c 15.414077
_cell_angle_alpha 90.000000
_cell_angle_beta 90.000000
_cell_angle_gamma 90.000000
_cell_volume 1550.208277
_symmetry_space_group_name_H-M "P 21 21 2"
_symmetry_group_IT_number 18
_symmetry_cell_setting 'orthorhombic'
loop_
_space_group_symop_operation_xyz
x,y,z
-x,-y,z
1/2+x,1/2-y,-z
1/2-x,1/2+y,-z
loop_
_atom_site_type_symbol
_atom_site_label
_atom_site_fract_x
_atom_site_fract_y
_atom_site_fract_z
Si Si1 0.336711 0.464131 0.527575
Si Si2 0.764534 0.055130 0.174921
Si Si3 0.299349 0.685218 0.904138
Si Si4 0.031399 0.367518 0.974025
Si Si5 0.760974 0.705996 0.281560
Si Si6 0.396746 0.277583 0.675799
Si Si7 0.177949 0.521204 0.352531
Si Si8 0.135988 0.577162 0.659923
O O1 0.500000 0.500000 0.493488
O O2 0.355774 0.349715 0.588371
O O3 0.224062 0.473717 0.447406
O O4 0.276891 0.557142 0.597460
O O5 0.857086 0.146156 0.236987
O O6 0.846647 0.948424 0.122726
O O7 0.670823 0.982827 0.247780
O O8 0.649373 0.115015 0.106556
O O9 0.404554 0.765587 0.964190
O O10 0.277554 0.756759 0.816496
O O11 0.133648 0.671952 0.944369
O O12 0.000000 0.500000 0.011372
O O13 0.736764 0.568520 0.290204
O O14 0.628697 0.784213 0.325136
O O15 0.925622 0.743342 0.321066
O O16 0.300801 0.157617 0.668461
O O17 0.000000 0.500000 0.341144
O O18 0.000000 0.500000 0.622252
#
# Coordination Sequence:
#
# PCOD9311876 Si02
#       8
#     4   4   4   4   4   4   4   4
#     4  11  22  39  60  93 129 162 219 284 325 394
#     4   9  20  40  66  93 128 165 223 270 331 403
#     4  10  22  40  69  95 132 173 216 278 332 402
#     4  10  22  43  64 102 137 169 222 280 337 398
#     4  10  21  41  64  91 133 171 228 269 334 411
#     4  10  22  40  68  95 126 176 225 278 339 406
#     4  10  24  42  61  92 129 178 219 275 344 402
#     4  10  19  36  65  91 117 171 217 269 328 390
#
# _framework density 20.642386999999999
#
# number of rings (size 3 to 8) (size 9 to 14) (size 15 to 20)
#    0.000    2.000    1.250    2.250    3.500    1.500 
#   11.250    0.000    0.000    0.000    0.000    0.000 
#    0.000    0.000    0.000    0.000    0.000    0.000 
#
# Total GULP energy -178275.267721 kJ/mol
# GULP energy per Si atom -5571.102116 kJ/mol
# Density = 2.059540 g / cm^3
# Si number density = 20.642387 Si / 1000 Ang^3
#
#
#
# Elastic Constant Matrix: (Units=GPa)
#
#
# Indices 1 2 3 4 5 6 
#
# 1 23.8227 43.6944 10.8359 0.0000 0.0000 0.0000
# 2 43.6944 150.1137 46.4754 0.0000 0.0000 0.0000
# 3 10.8359 46.4754 50.8550 0.0000 0.0000 0.0000
# 4 0.0000 0.0000 0.0000 9.7296 0.0000 0.0000
# 5 0.0000 0.0000 0.0000 0.0000 2.6251 0.0000
# 6 0.0000 0.0000 0.0000 0.0000 0.0000 32.7111
#
#
#
# Elastic Compliance Matrix: (Units=1/GPa)
#
#
# Indices 1 2 3 4 5 6 
#
# 1 0.091695 -0.028786 0.006769 0.000000 0.000000 0.000000
# 2 -0.028786 0.018327 -0.010615 0.000000 0.000000 0.000000
# 3 0.006769 -0.010615 0.027922 0.000000 0.000000 0.000000
# 4 0.000000 0.000000 0.000000 0.102779 0.000000 0.000000
# 5 0.000000 0.000000 0.000000 0.000000 0.380935 0.000000
# 6 0.000000 0.000000 0.000000 0.000000 0.000000 0.030571
#
#
# Mechanical properties :
#
#
# Convention : Reuss Voigt Hill
#
# Bulk Modulus (GPa) = 13.75885 47.42252 30.59069
# Shear Modulus (GPa) = 6.74108 17.26554 12.00331
#
# Velocity S-wave (km/s) = 1.80907 2.89522 2.41402
# Velocity P-wave (km/s) = 3.32317 5.84804 4.75621
#
# Compressibility (1/GPa) = 0.07268048
#
# Stress axis : x y z
#
# Youngs Moduli (GPa) = 10.90567 54.56462 35.81359
#
# Poissons Ratio (x) = 1.57069 -0.24242
# Poissons Ratio (y) = 0.31393 0.38016
# Poissons Ratio (z) = -0.07382 0.57920
#
# Static dielectric constant tensor:
#      x y z
#    x 1.742860 0.000000 0.000000 
#    y 0.000000 1.793300 0.000000 
#    z 0.000000 0.000000 1.756100 
# 
# From -- ./inp_files/6789.got.cif
#   From: 2010.05.17/outbox.cif.g08.bks.cpg/sg18_4_cif.got.tgz:6789.got - 2010.06.03 22:40:56.
