data_PCOD9311295
_publ_section_title
;
Structure prediction by ZEFSAII (Michael W. Deem and Ramdas Pophale) SiO2 
 PCOD9311295
Probable space group: P 2 2 21
;
_chemical_formula_sum "Si O2"
_cell_formula_units_Z 20
_cell_length_a 9.932812
_cell_length_b 8.351640
_cell_length_c 10.593186
_cell_angle_alpha 90.000000
_cell_angle_beta 90.000000
_cell_angle_gamma 90.000000
_cell_volume 878.760605
_symmetry_space_group_name_H-M "P 2 2 21"
_symmetry_group_IT_number 17
_symmetry_cell_setting 'orthorhombic'
loop_
_space_group_symop_operation_xyz
x,y,z
-x,-y,1/2+z
x,-y,-z
-x,y,1/2-z
loop_
_atom_site_type_symbol
_atom_site_label
_atom_site_fract_x
_atom_site_fract_y
_atom_site_fract_z
Si Si1 0.709376 0.181461 0.453699
Si Si2 0.361460 0.902505 0.695075
Si Si3 0.447441 0.681653 0.460636
Si Si4 0.790229 0.223299 0.806575
Si Si5 0.046021 0.321929 0.944024
O O1 0.669611 0.217185 0.309574
O O2 0.606537 0.282740 0.539399
O O3 0.866444 0.215614 0.462271
O O4 0.686359 0.000000 0.500000
O O5 0.500000 0.980271 0.750000
O O6 0.390760 0.811770 0.564522
O O7 0.244023 0.034263 0.696799
O O8 0.428021 0.500000 0.500000
O O9 0.354462 0.703756 0.339211
O O10 0.865806 0.294271 0.684194
O O11 0.896068 0.263128 0.917307
O O12 0.045766 0.500000 0.000000
#
# Coordination Sequence:
#
# PCOD9311295 Si02
#       5
#     4   4   4   4   4
#     4  11  22  44  69 102 139 185 242 297 361 442
#     4  10  22  44  71 104 140 184 244 303 355 437
#     4  11  24  41  69 104 139 181 236 303 367 420
#     4  11  24  46  70  97 141 190 237 298 359 444
#     4  11  26  45  68 100 143 185 239 299 370 431
#
# _framework density 22.759328
#
# number of rings (size 3 to 8) (size 9 to 14) (size 15 to 20)
#    0.000    1.200    2.000    4.200    2.800    1.600 
#    3.600    0.000    0.000    0.000    0.000    0.000 
#    0.000    0.000    0.000    0.000    0.000    0.000 
#
# Total GULP energy -111620.596008 kJ/mol
# GULP energy per Si atom -5581.029800 kJ/mol
# Density = 2.270753 g / cm^3
# Si number density = 22.759328 Si / 1000 Ang^3
#
#
#
# Elastic Constant Matrix: (Units=GPa)
#
#
# Indices 1 2 3 4 5 6 
#
# 1 100.7557 33.0943 20.7173 0.0000 0.0000 0.0000
# 2 33.0943 97.9407 18.4202 0.0000 0.0000 0.0000
# 3 20.7173 18.4202 49.5061 0.0000 0.0000 0.0000
# 4 0.0000 0.0000 0.0000 22.7344 0.0000 0.0000
# 5 0.0000 0.0000 0.0000 0.0000 42.9718 0.0000
# 6 0.0000 0.0000 0.0000 0.0000 0.0000 28.7613
#
#
#
# Elastic Compliance Matrix: (Units=1/GPa)
#
#
# Indices 1 2 3 4 5 6 
#
# 1 0.011763 -0.003278 -0.003703 0.000000 0.000000 0.000000
# 2 -0.003278 0.011892 -0.003053 0.000000 0.000000 0.000000
# 3 -0.003703 -0.003053 0.022885 0.000000 0.000000 0.000000
# 4 0.000000 0.000000 0.000000 0.043986 0.000000 0.000000
# 5 0.000000 0.000000 0.000000 0.000000 0.023271 0.000000
# 6 0.000000 0.000000 0.000000 0.000000 0.000000 0.034769
#
#
# Mechanical properties :
#
#
# Convention : Reuss Voigt Hill
#
# Bulk Modulus (GPa) = 37.77555 43.62956 40.70256
# Shear Modulus (GPa) = 28.17554 30.62488 29.40021
#
# Velocity S-wave (km/s) = 3.52231 3.67222 3.59804
# Velocity P-wave (km/s) = 5.75987 6.09851 5.93161
#
# Compressibility (1/GPa) = 0.02647215
#
# Stress axis : x y z
#
# Youngs Moduli (GPa) = 85.01092 84.08874 43.69675
#
# Poissons Ratio (x) = 0.27568 0.16180
# Poissons Ratio (y) = 0.27870 0.13340
# Poissons Ratio (z) = 0.31478 0.25671
#
# Static dielectric constant tensor:
#      x y z
#    x 1.839140 0.000000 0.000000 
#    y 0.000000 1.855130 0.000000 
#    z 0.000000 0.000000 1.848400 
# 
# From -- ./inp_files/6404.got.cif
#   From: 2010.05.17/outbox.cif.g08.bks.cpg/sg17_4_cif.got.tgz:6404.got - 2010.06.03 22:34:06.
