data_PCOD9311251
_publ_section_title
;
Structure prediction by ZEFSAII (Michael W. Deem and Ramdas Pophale) SiO2 
 PCOD9311251
Probable space group: P 2 2 21
;
_chemical_formula_sum "Si O2"
_cell_formula_units_Z 16
_cell_length_a 8.554569
_cell_length_b 9.801740
_cell_length_c 8.738409
_cell_angle_alpha 90.000000
_cell_angle_beta 90.000000
_cell_angle_gamma 90.000000
_cell_volume 732.712634
_symmetry_space_group_name_H-M "P 2 2 21"
_symmetry_group_IT_number 17
_symmetry_cell_setting 'orthorhombic'
loop_
_space_group_symop_operation_xyz
x,y,z
-x,-y,1/2+z
x,-y,-z
-x,y,1/2-z
loop_
_atom_site_type_symbol
_atom_site_label
_atom_site_fract_x
_atom_site_fract_y
_atom_site_fract_z
Si Si1 0.783828 0.133475 0.813479
Si Si2 0.000000 0.108235 0.250000
Si Si3 0.726219 0.206118 0.457131
Si Si4 0.779738 0.500000 0.500000
Si Si5 0.482282 0.000000 0.500000
Si Si6 0.000000 0.366984 0.750000
O O1 0.888863 0.266069 0.851068
O O2 0.885564 0.997410 0.834550
O O3 0.755809 0.158666 0.632240
O O4 0.625644 0.103073 0.902996
O O5 0.115016 0.190189 0.139533
O O6 0.682877 0.364852 0.458672
O O7 0.594468 0.100841 0.403115
O O8 0.890618 0.455224 0.640339
#
# Coordination Sequence:
#
# PCOD9311251 Si02
#       6
#     4   2   4   2   2   2
#     4  10  23  39  66 101 132 174 224 293 341 383
#     4  11  21  38  70  98 124 172 232 286 324 400
#     4  11  23  42  66 100 137 177 231 281 341 409
#     4  10  22  42  64  96 136 182 228 278 336 412
#     4  12  24  40  68 100 138 180 220 286 352 398
#     4   9  21  42  68  98 132 178 234 282 332 406
#
# _framework density 21.836663000000001
#
# number of rings (size 3 to 8) (size 9 to 14) (size 15 to 20)
#    0.000    1.500    2.500    1.500   10.500    0.000 
#    0.000    1.250   16.500    0.000    0.000    0.000 
#    0.000    0.000    0.000    0.000    0.000    0.000 
#
# Total GULP energy -89354.169154 kJ/mol
# GULP energy per Si atom -5584.635572 kJ/mol
# Density = 2.178696 g / cm^3
# Si number density = 21.836663 Si / 1000 Ang^3
#
#
#
# Elastic Constant Matrix: (Units=GPa)
#
#
# Indices 1 2 3 4 5 6 
#
# 1 104.7604 46.4239 27.4385 0.0000 0.0000 0.0000
# 2 46.4239 166.8450 21.3254 0.0000 0.0000 0.0000
# 3 27.4385 21.3254 72.6384 0.0000 0.0000 0.0000
# 4 0.0000 0.0000 0.0000 16.8850 0.0000 0.0000
# 5 0.0000 0.0000 0.0000 0.0000 41.6550 0.0000
# 6 0.0000 0.0000 0.0000 0.0000 0.0000 11.3713
#
#
#
# Elastic Compliance Matrix: (Units=1/GPa)
#
#
# Indices 1 2 3 4 5 6 
#
# 1 0.011733 -0.002803 -0.003609 0.000000 0.000000 0.000000
# 2 -0.002803 0.006897 -0.000966 0.000000 0.000000 0.000000
# 3 -0.003609 -0.000966 0.015414 0.000000 0.000000 0.000000
# 4 0.000000 0.000000 0.000000 0.059224 0.000000 0.000000
# 5 0.000000 0.000000 0.000000 0.000000 0.024007 0.000000
# 6 0.000000 0.000000 0.000000 0.000000 0.000000 0.087941
#
#
# Mechanical properties :
#
#
# Convention : Reuss Voigt Hill
#
# Bulk Modulus (GPa) = 51.84790 59.40217 55.62504
# Shear Modulus (GPa) = 22.08468 30.58600 26.33534
#
# Velocity S-wave (km/s) = 3.18364 3.74662 3.47654
# Velocity P-wave (km/s) = 6.10812 6.78072 6.45319
#
# Compressibility (1/GPa) = 0.01928718
#
# Stress axis : x y z
#
# Youngs Moduli (GPa) = 85.22840 144.98892 64.87737
#
# Poissons Ratio (x) = 0.40646 0.23415
# Poissons Ratio (y) = 0.23893 0.06267
# Poissons Ratio (z) = 0.30760 0.14005
#
# Static dielectric constant tensor:
#      x y z
#    x 1.886840 0.000000 0.000000 
#    y 0.000000 1.794470 0.000000 
#    z 0.000000 0.000000 1.951700 
# 
# From -- ./inp_files/6191.got.cif
#   From: 2010.05.17/outbox.cif.g08.bks.cpg/sg17_4_cif.got.tgz:6191.got - 2010.06.03 22:34:06.
