data_PCOD9311339
_publ_section_title
;
Structure prediction by ZEFSAII (Michael W. Deem and Ramdas Pophale) SiO2 
 PCOD9311339
Probable space group: P 2 2 21
;
_chemical_formula_sum "Si O2"
_cell_formula_units_Z 20
_cell_length_a 5.150304
_cell_length_b 6.540824
_cell_length_c 24.358212
_cell_angle_alpha 90.000000
_cell_angle_beta 90.000000
_cell_angle_gamma 90.000000
_cell_volume 820.560739
_symmetry_space_group_name_H-M "P 2 2 21"
_symmetry_group_IT_number 17
_symmetry_cell_setting 'orthorhombic'
loop_
_space_group_symop_operation_xyz
x,y,z
-x,-y,1/2+z
x,-y,-z
-x,y,1/2-z
loop_
_atom_site_type_symbol
_atom_site_label
_atom_site_fract_x
_atom_site_fract_y
_atom_site_fract_z
Si Si1 0.419261 0.629964 0.914789
Si Si2 0.299272 0.262769 0.204150
Si Si3 0.590166 0.299325 0.671546
Si Si4 0.095700 0.026467 0.666745
Si Si5 0.907972 0.161718 0.048123
O O1 0.439378 0.403281 0.889204
O O2 0.422882 0.762880 0.857483
O O3 0.651416 0.699979 0.953222
O O4 0.150837 0.687608 0.943349
O O5 0.500000 0.180979 0.250000
O O6 0.002716 0.183918 0.196325
O O7 0.316820 0.507819 0.207744
O O8 0.329271 0.174562 0.684934
O O9 0.830301 0.149991 0.674193
O O10 0.121186 0.972080 0.603235
O O11 0.940838 0.000000 0.000000
#
# Coordination Sequence:
#
# PCOD9311339 Si02
#       5
#     4   4   4   4   4
#     4   9  21  40  63  88 135 167 208 279 335 380
#     4   9  22  43  69  92 138 176 219 283 345 399
#     4  10  23  41  66  93 134 168 221 271 336 390
#     4  11  22  42  67  94 129 175 218 276 327 408
#     4  11  21  40  66  95 129 177 219 273 341 403
#
# _framework density 24.373578999999999
#
# number of rings (size 3 to 8) (size 9 to 14) (size 15 to 20)
#    1.200    0.800    0.000    4.200    0.000    0.800 
#    0.000   26.000    0.000    0.000    0.000    0.000 
#    0.000    0.000    0.000    0.000    0.000    0.000 
#
# Total GULP energy -111622.295264 kJ/mol
# GULP energy per Si atom -5581.114763 kJ/mol
# Density = 2.431810 g / cm^3
# Si number density = 24.373579 Si / 1000 Ang^3
#
#
#
# Elastic Constant Matrix: (Units=GPa)
#
#
# Indices 1 2 3 4 5 6 
#
# 1 205.7244 56.9460 -7.9864 0.0000 0.0000 0.0000
# 2 56.9460 106.7922 1.0072 0.0000 0.0000 0.0000
# 3 -7.9864 1.0072 51.0083 0.0000 0.0000 0.0000
# 4 0.0000 0.0000 0.0000 28.0909 0.0000 0.0000
# 5 0.0000 0.0000 0.0000 0.0000 3.9011 0.0000
# 6 0.0000 0.0000 0.0000 0.0000 0.0000 2.8217
#
#
#
# Elastic Compliance Matrix: (Units=1/GPa)
#
#
# Indices 1 2 3 4 5 6 
#
# 1 0.005749 -0.003075 0.000961 0.000000 0.000000 0.000000
# 2 -0.003075 0.011010 -0.000699 0.000000 0.000000 0.000000
# 3 0.000961 -0.000699 0.019769 0.000000 0.000000 0.000000
# 4 0.000000 0.000000 0.000000 0.035599 0.000000 0.000000
# 5 0.000000 0.000000 0.000000 0.000000 0.256340 0.000000
# 6 0.000000 0.000000 0.000000 0.000000 0.000000 0.354391
#
#
# Mechanical properties :
#
#
# Convention : Reuss Voigt Hill
#
# Bulk Modulus (GPa) = 32.35946 51.49539 41.92742
# Shear Modulus (GPa) = 7.15527 27.86661 17.51094
#
# Velocity S-wave (km/s) = 1.71524 3.38496 2.68328
# Velocity P-wave (km/s) = 4.15066 6.03744 5.18067
#
# Compressibility (1/GPa) = 0.03090287
#
# Stress axis : x y z
#
# Youngs Moduli (GPa) = 173.93381 90.82484 50.58446
#
# Poissons Ratio (x) = 0.27927 -0.04861
# Poissons Ratio (y) = 0.53482 0.03535
# Poissons Ratio (z) = -0.16713 0.06347
#
# Static dielectric constant tensor:
#      x y z
#    x 2.023710 0.000000 0.000000 
#    y 0.000000 1.988290 0.000000 
#    z 0.000000 0.000000 2.021410 
# 
# From -- ./inp_files/11039.got.cif
#   From: 2010.05.17/outbox.cif.g08.bks.cpg/sg17_6_cif.got.tgz:11039.got - 2010.06.03 22:34:06.
