data_PCOD9311098
_publ_section_title
;
Structure prediction by ZEFSAII (Michael W. Deem and Ramdas Pophale) SiO2 
 PCOD9311098
Probable space group: P 2 2 21
;
_chemical_formula_sum "Si O2"
_cell_formula_units_Z 30
_cell_length_a 6.598967
_cell_length_b 12.243774
_cell_length_c 19.226441
_cell_angle_alpha 90.000000
_cell_angle_beta 90.000000
_cell_angle_gamma 90.000000
_cell_volume 1553.424537
_symmetry_space_group_name_H-M "P 2 2 21"
_symmetry_group_IT_number 17
_symmetry_cell_setting 'orthorhombic'
loop_
_space_group_symop_operation_xyz
x,y,z
-x,-y,1/2+z
x,-y,-z
-x,y,1/2-z
loop_
_atom_site_type_symbol
_atom_site_label
_atom_site_fract_x
_atom_site_fract_y
_atom_site_fract_z
Si Si1 0.203166 0.500000 0.500000
Si Si2 0.378407 0.281161 0.322217
Si Si3 0.978101 0.365732 0.380208
Si Si4 0.473743 0.324451 0.577079
Si Si5 0.799330 0.811293 0.511100
Si Si6 0.431546 0.090235 0.422140
Si Si7 0.400413 0.484711 0.173901
Si Si8 0.212035 0.137964 0.558256
O O1 0.069764 0.449697 0.437352
O O2 0.344614 0.404056 0.528288
O O3 0.500000 0.281561 0.250000
O O4 0.143036 0.309665 0.329689
O O5 0.419451 0.164313 0.355060
O O6 0.475588 0.385094 0.362300
O O7 0.882860 0.268453 0.427815
O O8 0.823996 0.436176 0.333167
O O9 0.650772 0.261537 0.536481
O O10 0.571119 0.402420 0.634493
O O11 0.308169 0.235460 0.602827
O O12 0.660778 0.903578 0.548699
O O13 0.974934 0.857261 0.459960
O O14 0.304313 0.153715 0.480992
O O15 0.316834 0.974785 0.417108
O O16 0.500000 0.498022 0.250000
#
# Coordination Sequence:
#
# PCOD9311098 Si02
#       8
#     2   4   4   4   4   4   4   4
#     4  12  20  36  64  96 138 164 206 274 324 392
#     4  11  23  41  62  92 129 170 216 265 314 391
#     4  12  21  39  64  95 129 170 217 262 330 397
#     4  11  22  38  58  96 132 167 212 267 322 386
#     4  11  20  38  65  95 126 170 207 271 341 384
#     4  10  21  41  59  94 133 158 211 276 324 386
#     4  11  25  41  61  90 134 176 217 262 316 389
#     4  10  22  37  64  92 128 164 210 272 333 385
#
# _framework density 19.312169999999998
#
# number of rings (size 3 to 8) (size 9 to 14) (size 15 to 20)
#    0.000    1.067    5.333    2.400    0.000    6.400 
#    0.000    0.667    0.000    0.000    0.000    0.000 
#    0.000    0.000    0.000    0.000    0.000    0.000 
#
# Total GULP energy -167153.460408 kJ/mol
# GULP energy per Si atom -5571.782014 kJ/mol
# Density = 1.926822 g / cm^3
# Si number density = 19.312170 Si / 1000 Ang^3
#
#
#
# Elastic Constant Matrix: (Units=GPa)
#
#
# Indices 1 2 3 4 5 6 
#
# 1 150.6636 75.1494 49.6783 0.0000 0.0000 0.0000
# 2 75.1494 141.1385 45.8139 0.0000 0.0000 0.0000
# 3 49.6783 45.8139 80.5614 0.0000 0.0000 0.0000
# 4 0.0000 0.0000 0.0000 21.3190 0.0000 0.0000
# 5 0.0000 0.0000 0.0000 0.0000 23.3331 0.0000
# 6 0.0000 0.0000 0.0000 0.0000 0.0000 38.8049
#
#
#
# Elastic Compliance Matrix: (Units=1/GPa)
#
#
# Indices 1 2 3 4 5 6 
#
# 1 0.009909 -0.004038 -0.003814 0.000000 0.000000 0.000000
# 2 -0.004038 0.010335 -0.003387 0.000000 0.000000 0.000000
# 3 -0.003814 -0.003387 0.016691 0.000000 0.000000 0.000000
# 4 0.000000 0.000000 0.000000 0.046907 0.000000 0.000000
# 5 0.000000 0.000000 0.000000 0.000000 0.042858 0.000000
# 6 0.000000 0.000000 0.000000 0.000000 0.000000 0.025770
#
#
# Mechanical properties :
#
#
# Convention : Reuss Voigt Hill
#
# Bulk Modulus (GPa) = 69.17362 79.29408 74.23385
# Shear Modulus (GPa) = 27.81390 30.13952 28.97671
#
# Velocity S-wave (km/s) = 3.79915 3.95479 3.87775
# Velocity P-wave (km/s) = 7.42571 7.87414 7.65321
#
# Compressibility (1/GPa) = 0.01445638
#
# Stress axis : x y z
#
# Youngs Moduli (GPa) = 100.91795 96.76073 59.91229
#
# Poissons Ratio (x) = 0.39072 0.22851
# Poissons Ratio (y) = 0.40751 0.20293
# Poissons Ratio (z) = 0.38491 0.32774
#
# Static dielectric constant tensor:
#      x y z
#    x 1.775180 0.000000 0.000000 
#    y 0.000000 1.733240 0.000000 
#    z 0.000000 0.000000 1.664820 
# 
# From -- ./inp_files/9954.got.cif
#   From: 2010.05.17/outbox.cif.g08.bks.cpg/sg17_5_cif.got.tgz:9954.got - 2010.06.03 22:34:06.
