data_PCOD9311055
_publ_section_title
;
Structure prediction by ZEFSAII (Michael W. Deem and Ramdas Pophale) SiO2 
 PCOD9311055
Probable space group: P 2 2 21
;
_chemical_formula_sum "Si O2"
_cell_formula_units_Z 18
_cell_length_a 17.578561
_cell_length_b 8.699194
_cell_length_c 5.595815
_cell_angle_alpha 90.000000
_cell_angle_beta 90.000000
_cell_angle_gamma 90.000000
_cell_volume 855.708182
_symmetry_space_group_name_H-M "P 2 2 21"
_symmetry_group_IT_number 17
_symmetry_cell_setting 'orthorhombic'
loop_
_space_group_symop_operation_xyz
x,y,z
-x,-y,1/2+z
x,-y,-z
-x,y,1/2-z
loop_
_atom_site_type_symbol
_atom_site_label
_atom_site_fract_x
_atom_site_fract_y
_atom_site_fract_z
Si Si1 0.956068 0.000000 0.500000
Si Si2 0.736295 0.000000 0.000000
Si Si3 0.303519 0.256715 0.175255
Si Si4 0.776757 0.500000 0.000000
Si Si5 0.832570 0.766661 0.312049
Si Si6 0.533972 0.683338 0.498622
O O1 0.906033 0.148877 0.579595
O O2 0.000000 0.962523 0.750000
O O3 0.793024 0.883625 0.129308
O O4 0.686627 0.097851 0.183271
O O5 0.281596 0.391017 0.357604
O O6 0.375758 0.292950 0.014548
O O7 0.227611 0.244202 0.023068
O O8 0.829964 0.603497 0.173953
O O9 0.518216 0.500000 0.500000
O O10 0.500000 0.744310 0.750000
O O11 0.500000 0.745277 0.250000
#
# Coordination Sequence:
#
# PCOD9311055 Si02
#       6
#     2   2   4   2   4   4
#     4  12  27  46  78 105 140 192 240 284 361 452
#     4  10  21  38  72  97 136 172 242 284 351 410
#     4  11  22  40  70 101 134 187 237 299 349 432
#     4  10  24  36  76 106 140 174 254 294 362 402
#     4  11  22  44  70 104 135 184 235 296 345 431
#     4  10  23  38  61  95 137 180 231 293 360 416
#
# _framework density 21.035208999999998
#
# number of rings (size 3 to 8) (size 9 to 14) (size 15 to 20)
#    0.000    1.333    2.222    2.667   14.000    0.000 
#    0.000    0.000    9.778    0.000    0.000    0.000 
#    0.000    0.000    0.000    0.000    0.000    0.000 
#
# Total GULP energy -100473.521103 kJ/mol
# GULP energy per Si atom -5581.862284 kJ/mol
# Density = 2.098733 g / cm^3
# Si number density = 21.035209 Si / 1000 Ang^3
#
#
#
# Elastic Constant Matrix: (Units=GPa)
#
#
# Indices 1 2 3 4 5 6 
#
# 1 90.3807 19.5338 54.5787 0.0000 0.0000 0.0000
# 2 19.5338 81.0122 46.4952 0.0000 0.0000 0.0000
# 3 54.5787 46.4952 138.8774 0.0000 0.0000 0.0000
# 4 0.0000 0.0000 0.0000 15.9900 0.0000 0.0000
# 5 0.0000 0.0000 0.0000 0.0000 41.4364 0.0000
# 6 0.0000 0.0000 0.0000 0.0000 0.0000 28.0688
#
#
#
# Elastic Compliance Matrix: (Units=1/GPa)
#
#
# Indices 1 2 3 4 5 6 
#
# 1 0.014512 -0.000280 -0.005610 0.000000 0.000000 0.000000
# 2 -0.000280 0.015285 -0.005007 0.000000 0.000000 0.000000
# 3 -0.005610 -0.005007 0.011082 0.000000 0.000000 0.000000
# 4 0.000000 0.000000 0.000000 0.062539 0.000000 0.000000
# 5 0.000000 0.000000 0.000000 0.000000 0.024133 0.000000
# 6 0.000000 0.000000 0.000000 0.000000 0.000000 0.035627
#
#
# Mechanical properties :
#
#
# Convention : Reuss Voigt Hill
#
# Bulk Modulus (GPa) = 52.39579 61.27620 56.83600
# Shear Modulus (GPa) = 26.13232 29.74321 27.93776
#
# Velocity S-wave (km/s) = 3.52847 3.76436 3.64832
# Velocity P-wave (km/s) = 6.44692 6.93451 6.69516
#
# Compressibility (1/GPa) = 0.01908550
#
# Stress axis : x y z
#
# Youngs Moduli (GPa) = 68.90704 65.42280 90.23914
#
# Poissons Ratio (x) = 0.01830 0.50621
# Poissons Ratio (y) = 0.01927 0.45187
# Poissons Ratio (z) = 0.38655 0.32760
#
# Static dielectric constant tensor:
#      x y z
#    x 1.731970 0.000000 0.000000 
#    y 0.000000 1.721160 0.000000 
#    z 0.000000 0.000000 1.776730 
# 
# From -- ./inp_files/889.got.cif
#   From: 2010.05.17/outbox.cif.g08.bks.cpg/sg17_1_cif.got.tgz:889.got - 2010.06.03 22:34:06.
