data_PCOD9311512
_publ_section_title
;
Structure prediction by ZEFSAII (Michael W. Deem and Ramdas Pophale) SiO2 
 PCOD9311512
Probable space group: P 2 2 21
;
_chemical_formula_sum "Si O2"
_cell_formula_units_Z 16
_cell_length_a 22.863778
_cell_length_b 5.357832
_cell_length_c 5.398385
_cell_angle_alpha 90.000000
_cell_angle_beta 90.000000
_cell_angle_gamma 90.000000
_cell_volume 661.303682
_symmetry_space_group_name_H-M "P 2 2 21"
_symmetry_group_IT_number 17
_symmetry_cell_setting 'orthorhombic'
loop_
_space_group_symop_operation_xyz
x,y,z
-x,-y,1/2+z
x,-y,-z
-x,y,1/2-z
loop_
_atom_site_type_symbol
_atom_site_label
_atom_site_fract_x
_atom_site_fract_y
_atom_site_fract_z
Si Si1 0.810865 0.358515 0.758514
Si Si2 0.688639 0.850749 0.259910
Si Si3 0.963013 0.500000 0.500000
Si Si4 0.886486 0.000000 0.500000
Si Si5 0.434581 0.255683 0.653828
O O1 0.820592 0.500000 0.500000
O O2 0.740831 0.340161 0.781913
O O3 0.842835 0.093106 0.718533
O O4 0.834075 0.500000 0.000000
O O5 0.622474 0.766981 0.325452
O O6 0.709037 0.000000 0.500000
O O7 0.684474 0.000000 0.000000
O O8 0.926613 0.756800 0.544863
O O9 0.000000 0.541622 0.250000
O O10 0.420047 0.500000 0.500000
O O11 0.500000 0.295167 0.750000
O O12 0.438571 0.000000 0.500000
#
# Coordination Sequence:
#
# PCOD9311512 Si02
#       5
#     4   4   2   2   4
#     4  12  27  46  77 117 159 208 261 325 397 468
#     4  11  24  45  72 107 152 199 255 321 392 465
#     4  12  30  54  84 118 162 210 262 322 388 466
#     4  12  28  54  82 122 160 212 264 326 390 474
#     4  11  24  43  68 102 140 196 254 320 387 465
#
# _framework density 24.194635000000002
#
# number of rings (size 3 to 8) (size 9 to 14) (size 15 to 20)
#    0.000    0.500    2.500    4.500    1.750    7.000 
#    0.000    0.000    0.000    0.000    0.000    0.000 
#    0.000    0.000    0.000    0.000    0.000    0.000 
#
# Total GULP energy -89412.573003 kJ/mol
# GULP energy per Si atom -5588.285813 kJ/mol
# Density = 2.413957 g / cm^3
# Si number density = 24.194635 Si / 1000 Ang^3
#
#
#
# Elastic Constant Matrix: (Units=GPa)
#
#
# Indices 1 2 3 4 5 6 
#
# 1 145.4508 39.6343 36.6607 0.0000 0.0000 0.0000
# 2 39.6343 133.1234 53.2915 0.0000 0.0000 0.0000
# 3 36.6607 53.2915 155.3400 0.0000 0.0000 0.0000
# 4 0.0000 0.0000 0.0000 59.5589 0.0000 0.0000
# 5 0.0000 0.0000 0.0000 0.0000 -20.4029 0.0000
# 6 0.0000 0.0000 0.0000 0.0000 0.0000 53.1105
#
#
#
# Elastic Compliance Matrix: (Units=1/GPa)
#
#
# Indices 1 2 3 4 5 6 
#
# 1 0.007667 -0.001806 -0.001190 0.000000 0.000000 0.000000
# 2 -0.001806 0.009133 -0.002707 0.000000 0.000000 0.000000
# 3 -0.001190 -0.002707 0.007647 0.000000 0.000000 0.000000
# 4 0.000000 0.000000 0.000000 0.016790 0.000000 0.000000
# 5 0.000000 0.000000 0.000000 0.000000 -0.049013 0.000000
# 6 0.000000 0.000000 0.000000 0.000000 0.000000 0.018829
#
#
# Mechanical properties :
#
#
# Convention : Reuss Voigt Hill
#
# Bulk Modulus (GPa) = 76.68050 77.00970 76.84510
# Shear Modulus (GPa) = 186.51697 38.74181 112.62939
#
# Velocity S-wave (km/s) = 8.78963 4.00591 6.83026
# Velocity P-wave (km/s) = 11.60914 7.30033 9.69708
#
# Compressibility (1/GPa) = 0.01304113
#
# Stress axis : x y z
#
# Youngs Moduli (GPa) = 130.42389 109.48942 130.77122
#
# Poissons Ratio (x) = 0.19779 0.15559
# Poissons Ratio (y) = 0.23561 0.35399
# Poissons Ratio (z) = 0.15517 0.29638
#
# Static dielectric constant tensor:
#      x y z
#    x 1.989950 0.000000 0.000000 
#    y 0.000000 1.919380 0.000000 
#    z 0.000000 0.000000 1.879340 
# 
# From -- ./inp_files/2818.got.cif
#   From: 2010.05.17/outbox.cif.g08.bks.cpg/sg17_2_cif.got.tgz:2818.got - 2010.06.03 22:34:06.
