data_PCOD9311222
_publ_section_title
;
Structure prediction by ZEFSAII (Michael W. Deem and Ramdas Pophale) SiO2 
 PCOD9311222
Probable space group: P 2 2 21
;
_chemical_formula_sum "Si O2"
_cell_formula_units_Z 30
_cell_length_a 5.110478
_cell_length_b 11.061999
_cell_length_c 22.857803
_cell_angle_alpha 90.000000
_cell_angle_beta 90.000000
_cell_angle_gamma 90.000000
_cell_volume 1292.199663
_symmetry_space_group_name_H-M "P 2 2 21"
_symmetry_group_IT_number 17
_symmetry_cell_setting 'orthorhombic'
loop_
_space_group_symop_operation_xyz
x,y,z
-x,-y,1/2+z
x,-y,-z
-x,y,1/2-z
loop_
_atom_site_type_symbol
_atom_site_label
_atom_site_fract_x
_atom_site_fract_y
_atom_site_fract_z
Si Si1 0.826811 0.933220 0.356040
Si Si2 0.435523 0.269834 0.062849
Si Si3 0.443389 0.105252 0.542551
Si Si4 0.393587 0.510139 0.624920
Si Si5 0.938805 0.818033 0.868378
Si Si6 0.794216 0.245800 0.853855
Si Si7 0.500000 0.878627 0.250000
Si Si8 0.895858 0.405304 0.310848
O O1 0.680578 0.944634 0.418055
O O2 0.653312 0.956182 0.298286
O O3 0.900263 0.789814 0.347962
O O4 0.035565 0.041272 0.354930
O O5 0.493215 0.413251 0.070233
O O6 0.148668 0.226208 0.082475
O O7 0.649567 0.213115 0.108202
O O8 0.483175 0.215581 0.999511
O O9 0.255791 0.155542 0.592004
O O10 0.341516 0.000000 0.500000
O O11 0.346942 0.367751 0.626647
O O12 0.603432 0.553493 0.674211
O O13 0.098431 0.550963 0.639624
O O14 0.046588 0.737470 0.814668
O O15 0.681050 0.203282 0.791851
O O16 0.000000 0.456082 0.250000
#
# Coordination Sequence:
#
# PCOD9311222 Si02
#       8
#     4   4   4   4   4   4   2   4
#     4  11  24  43  68 103 138 185 230 291 354 427
#     4  10  22  44  68 100 137 181 223 286 346 413
#     4  11  23  41  70 101 133 179 230 283 354 421
#     4  10  24  43  67  96 141 176 233 287 345 412
#     4  10  22  42  67 100 141 173 230 289 348 415
#     4  11  26  42  68  98 134 183 231 285 348 412
#     4  10  26  44  60 100 132 184 224 278 352 406
#     4  10  22  40  67 102 129 187 232 283 347 412
#
# _framework density 23.216227
#
# number of rings (size 3 to 8) (size 9 to 14) (size 15 to 20)
#    0.000    1.600    1.333    1.600    9.333    2.133 
#    4.800    0.000    0.000    0.000    0.000    0.000 
#    0.000    0.000    0.000    0.000    0.000    0.000 
#
# Total GULP energy -167182.893515 kJ/mol
# GULP energy per Si atom -5572.763117 kJ/mol
# Density = 2.316339 g / cm^3
# Si number density = 23.216227 Si / 1000 Ang^3
#
#
#
# Elastic Constant Matrix: (Units=GPa)
#
#
# Indices 1 2 3 4 5 6 
#
# 1 68.9975 22.6846 3.4215 0.0000 0.0000 0.0000
# 2 22.6846 112.8689 42.4905 0.0000 0.0000 0.0000
# 3 3.4215 42.4905 102.5866 0.0000 0.0000 0.0000
# 4 0.0000 0.0000 0.0000 4.2867 0.0000 0.0000
# 5 0.0000 0.0000 0.0000 0.0000 5.4276 0.0000
# 6 0.0000 0.0000 0.0000 0.0000 0.0000 27.4220
#
#
#
# Elastic Compliance Matrix: (Units=1/GPa)
#
#
# Indices 1 2 3 4 5 6 
#
# 1 0.015592 -0.003481 0.000922 0.000000 0.000000 0.000000
# 2 -0.003481 0.011274 -0.004553 0.000000 0.000000 0.000000
# 3 0.000922 -0.004553 0.011603 0.000000 0.000000 0.000000
# 4 0.000000 0.000000 0.000000 0.233277 0.000000 0.000000
# 5 0.000000 0.000000 0.000000 0.000000 0.184245 0.000000
# 6 0.000000 0.000000 0.000000 0.000000 0.000000 0.036467
#
#
# Mechanical properties :
#
#
# Convention : Reuss Voigt Hill
#
# Bulk Modulus (GPa) = 41.24759 46.84959 44.04859
# Shear Modulus (GPa) = 9.71321 21.81770 15.76545
#
# Velocity S-wave (km/s) = 2.04765 3.06888 2.60873
# Velocity P-wave (km/s) = 4.83692 5.72545 5.29984
#
# Compressibility (1/GPa) = 0.02424384
#
# Stress axis : x y z
#
# Youngs Moduli (GPa) = 64.13582 88.70352 86.18415
#
# Poissons Ratio (x) = 0.30874 -0.07943
# Poissons Ratio (y) = 0.22323 0.39242
# Poissons Ratio (z) = -0.05911 0.40389
#
# Static dielectric constant tensor:
#      x y z
#    x 2.059590 0.000000 0.000000 
#    y 0.000000 2.033240 0.000000 
#    z 0.000000 0.000000 1.865940 
# 
# From -- ./inp_files/9947.got.cif
#   From: 2010.05.17/outbox.cif.g08.bks.cpg/sg17_5_cif.got.tgz:9947.got - 2010.06.03 22:34:06.
