data_PCOD9311738
_publ_section_title
;
Structure prediction by ZEFSAII (Michael W. Deem and Ramdas Pophale) SiO2 
 PCOD9311738
Probable space group: P 21 21 2
;
_chemical_formula_sum "Si O2"
_cell_formula_units_Z 30
_cell_length_a 11.832049
_cell_length_b 14.535439
_cell_length_c 7.889124
_cell_angle_alpha 90.000000
_cell_angle_beta 90.000000
_cell_angle_gamma 90.000000
_cell_volume 1356.803311
_symmetry_space_group_name_H-M "P 21 21 2"
_symmetry_group_IT_number 18
_symmetry_cell_setting 'orthorhombic'
loop_
_space_group_symop_operation_xyz
x,y,z
-x,-y,z
1/2+x,1/2-y,-z
1/2-x,1/2+y,-z
loop_
_atom_site_type_symbol
_atom_site_label
_atom_site_fract_x
_atom_site_fract_y
_atom_site_fract_z
Si Si1 0.736508 0.426221 0.135453
Si Si2 0.685727 0.627172 0.284633
Si Si3 0.731575 0.527059 0.631485
Si Si4 0.117226 0.471266 0.909585
Si Si5 0.086777 0.585282 0.429536
Si Si6 0.511156 0.329995 0.052741
Si Si7 0.427599 0.826622 0.798442
Si Si8 0.500000 0.500000 0.806807
O O1 0.805635 0.442638 0.963636
O O2 0.635088 0.356024 0.120574
O O3 0.691015 0.527503 0.189123
O O4 0.828862 0.401301 0.272755
O O5 0.698316 0.595310 0.478735
O O6 0.575366 0.675383 0.209050
O O7 0.795784 0.687772 0.242648
O O8 0.801352 0.580407 0.778561
O O9 0.821126 0.448124 0.569825
O O10 0.613429 0.486713 0.698080
O O11 0.081997 0.418340 0.081727
O O12 0.000000 0.500000 0.826724
O O13 0.000000 0.500000 0.420262
O O14 0.996225 0.665138 0.378920
O O15 0.479159 0.413807 0.928468
O O16 0.518146 0.244099 0.928488
#
# Coordination Sequence:
#
# PCOD9311738 Si02
#       8
#     4   4   4   4   4   4   4   2
#     4  10  18  37  66  90 118 168 226 261 308 396
#     4  10  22  41  64  92 126 169 214 267 337 386
#     4  11  24  38  70  91 133 167 216 275 334 400
#     4  11  19  38  67  98 125 163 226 275 323 387
#     4  11  19  41  65  96 125 172 217 266 332 394
#     4  12  24  42  67  93 135 173 230 272 320 398
#     4  11  23  40  66  99 128 170 224 279 318 388
#     4  12  24  44  62 100 122 182 230 264 328 408
#
# _framework density 22.110793999999999
#
# number of rings (size 3 to 8) (size 9 to 14) (size 15 to 20)
#    0.000    1.067    8.000    1.200    5.600    0.000 
#    0.000    2.667    0.000    0.000    0.000    0.000 
#    0.000    0.000    0.000    0.000    0.000    0.000 
#
# Total GULP energy -167091.582273 kJ/mol
# GULP energy per Si atom -5569.719409 kJ/mol
# Density = 2.206047 g / cm^3
# Si number density = 22.110794 Si / 1000 Ang^3
#
#
#
# Elastic Constant Matrix: (Units=GPa)
#
#
# Indices 1 2 3 4 5 6 
#
# 1 161.1874 4.6024 47.5969 0.0000 0.0000 0.0000
# 2 4.6024 12.2026 -11.5110 0.0000 0.0000 0.0000
# 3 47.5969 -11.5110 85.8121 0.0000 0.0000 0.0000
# 4 0.0000 0.0000 0.0000 23.6120 0.0000 0.0000
# 5 0.0000 0.0000 0.0000 0.0000 15.2948 0.0000
# 6 0.0000 0.0000 0.0000 0.0000 0.0000 15.5446
#
#
#
# Elastic Compliance Matrix: (Units=1/GPa)
#
#
# Indices 1 2 3 4 5 6 
#
# 1 0.008100 -0.008349 -0.005613 0.000000 0.000000 0.000000
# 2 -0.008349 0.102428 0.018371 0.000000 0.000000 0.000000
# 3 -0.005613 0.018371 0.017231 0.000000 0.000000 0.000000
# 4 0.000000 0.000000 0.000000 0.042351 0.000000 0.000000
# 5 0.000000 0.000000 0.000000 0.000000 0.065382 0.000000
# 6 0.000000 0.000000 0.000000 0.000000 0.000000 0.064331
#
#
# Mechanical properties :
#
#
# Convention : Reuss Voigt Hill
#
# Bulk Modulus (GPa) = 7.32187 37.84207 22.58197
# Shear Modulus (GPa) = 14.85749 25.45788 20.15769
#
# Velocity S-wave (km/s) = 2.59502 3.39688 3.02266
# Velocity P-wave (km/s) = 3.50678 5.70412 4.73468
#
# Compressibility (1/GPa) = 0.13657704
#
# Stress axis : x y z
#
# Youngs Moduli (GPa) = 123.46129 9.76291 58.03560
#
# Poissons Ratio (x) = 0.08151 0.32573
# Poissons Ratio (y) = 1.03083 -1.06617
# Poissons Ratio (z) = 0.69294 -0.17935
#
# Static dielectric constant tensor:
#      x y z
#    x 1.829180 0.000000 0.000000 
#    y 0.000000 1.972790 0.000000 
#    z 0.000000 0.000000 1.876560 
# 
# From -- ./inp_files/3916.got.cif
#   From: 2010.05.17/outbox.cif.g08.bks.cpg/sg18_2_cif.got.tgz:3916.got - 2010.06.03 22:40:56.
