data_PCOD9311026
_publ_section_title
;
Structure prediction by ZEFSAII (Michael W. Deem and Ramdas Pophale) SiO2 
 PCOD9311026
Probable space group: P 2 2 21
;
_chemical_formula_sum "Si O2"
_cell_formula_units_Z 32
_cell_length_a 11.396638
_cell_length_b 13.760599
_cell_length_c 8.968625
_cell_angle_alpha 90.000000
_cell_angle_beta 90.000000
_cell_angle_gamma 90.000000
_cell_volume 1406.500718
_symmetry_space_group_name_H-M "P 2 2 21"
_symmetry_group_IT_number 17
_symmetry_cell_setting 'orthorhombic'
loop_
_space_group_symop_operation_xyz
x,y,z
-x,-y,1/2+z
x,-y,-z
-x,y,1/2-z
loop_
_atom_site_type_symbol
_atom_site_label
_atom_site_fract_x
_atom_site_fract_y
_atom_site_fract_z
Si Si1 0.648376 0.401887 0.959367
Si Si2 0.274553 0.381142 0.995134
Si Si3 0.621026 0.241996 0.764385
Si Si4 0.015780 0.902093 0.069462
Si Si5 0.636307 0.738485 0.772611
Si Si6 0.091190 0.415858 0.614362
Si Si7 0.746135 0.112011 0.010104
Si Si8 0.039116 0.713291 0.922719
O O1 0.571191 0.326991 0.871754
O O2 0.768156 0.427045 0.869121
O O3 0.584852 0.500000 0.000000
O O4 0.673384 0.344055 0.108500
O O5 0.335878 0.319594 0.123922
O O6 0.137796 0.366521 0.040262
O O7 0.297670 0.500000 0.000000
O O8 0.308724 0.307792 0.856377
O O9 0.500000 0.181599 0.750000
O O10 0.705301 0.175243 0.866152
O O11 0.886600 0.893513 0.996296
O O12 0.000000 0.901609 0.250000
O O13 0.084768 0.812385 0.996611
O O14 0.068433 0.000000 0.000000
O O15 0.500000 0.763638 0.750000
O O16 0.702166 0.832676 0.840488
O O17 0.061202 0.500000 0.500000
O O18 0.000000 0.419194 0.750000
O O19 0.070494 0.316538 0.525955
O O20 0.703686 0.000000 0.000000
O O21 0.000000 0.717608 0.750000
#
# Coordination Sequence:
#
# PCOD9311026 Si02
#       8
#     4   4   4   4   4   4   4   4
#     4  10  21  38  59  85 122 172 223 271 331 405
#     4  12  25  40  62  97 134 171 220 274 325 388
#     4  11  23  40  63  93 128 167 220 281 336 394
#     4  11  23  42  69  98 130 172 217 271 342 416
#     4  11  24  43  65  91 128 173 221 275 335 398
#     4  11  22  37  58  86 124 171 218 272 343 416
#     4  10  23  46  71  96 129 172 219 272 337 405
#     4  12  23  38  60  90 131 172 218 272 326 400
#
# _framework density 22.751498999999999
#
# number of rings (size 3 to 8) (size 9 to 14) (size 15 to 20)
#    0.000    1.000    0.000    8.250    0.000    7.500 
#    0.000    2.500    0.000    0.000    0.000    0.000 
#    0.000    0.000    0.000    0.000    0.000    0.000 
#
# Total GULP energy -178180.884355 kJ/mol
# GULP energy per Si atom -5568.152636 kJ/mol
# Density = 2.269972 g / cm^3
# Si number density = 22.751499 Si / 1000 Ang^3
#
#
#
# Elastic Constant Matrix: (Units=GPa)
#
#
# Indices 1 2 3 4 5 6 
#
# 1 72.1388 6.7256 9.8112 0.0000 0.0000 0.0000
# 2 6.7256 161.2284 44.9460 0.0000 0.0000 0.0000
# 3 9.8112 44.9460 137.2319 0.0000 0.0000 0.0000
# 4 0.0000 0.0000 0.0000 10.1149 0.0000 0.0000
# 5 0.0000 0.0000 0.0000 0.0000 35.0700 0.0000
# 6 0.0000 0.0000 0.0000 0.0000 0.0000 38.5759
#
#
#
# Elastic Compliance Matrix: (Units=1/GPa)
#
#
# Indices 1 2 3 4 5 6 
#
# 1 0.014015 -0.000336 -0.000892 0.000000 0.000000 0.000000
# 2 -0.000336 0.006834 -0.002214 0.000000 0.000000 0.000000
# 3 -0.000892 -0.002214 0.008076 0.000000 0.000000 0.000000
# 4 0.000000 0.000000 0.000000 0.098864 0.000000 0.000000
# 5 0.000000 0.000000 0.000000 0.000000 0.028514 0.000000
# 6 0.000000 0.000000 0.000000 0.000000 0.000000 0.025923
#
#
# Mechanical properties :
#
#
# Convention : Reuss Voigt Hill
#
# Bulk Modulus (GPa) = 45.37157 54.84053 50.10605
# Shear Modulus (GPa) = 25.45094 37.35992 31.40543
#
# Velocity S-wave (km/s) = 3.34825 4.05666 3.71936
# Velocity P-wave (km/s) = 5.91043 6.78959 6.36521
#
# Compressibility (1/GPa) = 0.02204023
#
# Stress axis : x y z
#
# Youngs Moduli (GPa) = 71.35319 146.33501 123.82570
#
# Poissons Ratio (x) = 0.04916 0.11044
# Poissons Ratio (y) = 0.02397 0.27417
# Poissons Ratio (z) = 0.06364 0.32400
#
# Static dielectric constant tensor:
#      x y z
#    x 2.400260 0.000000 0.000000 
#    y 0.000000 2.061160 0.000000 
#    z 0.000000 0.000000 2.349060 
# 
# From -- ./inp_files/4926.got.cif
#   From: 2010.05.17/outbox.cif.g08.bks.cpg/sg17_3_cif.got.tgz:4926.got - 2010.06.03 22:34:06.
