data_PCOD9311047
_publ_section_title
;
Structure prediction by ZEFSAII (Michael W. Deem and Ramdas Pophale) SiO2 
 PCOD9311047
Probable space group: P 2 2 21
;
_chemical_formula_sum "Si O2"
_cell_formula_units_Z 26
_cell_length_a 8.400583
_cell_length_b 15.124757
_cell_length_c 9.221719
_cell_angle_alpha 90.000000
_cell_angle_beta 90.000000
_cell_angle_gamma 90.000000
_cell_volume 1171.681890
_symmetry_space_group_name_H-M "P 2 2 21"
_symmetry_group_IT_number 17
_symmetry_cell_setting 'orthorhombic'
loop_
_space_group_symop_operation_xyz
x,y,z
-x,-y,1/2+z
x,-y,-z
-x,y,1/2-z
loop_
_atom_site_type_symbol
_atom_site_label
_atom_site_fract_x
_atom_site_fract_y
_atom_site_fract_z
Si Si1 0.648983 0.186029 0.030910
Si Si2 0.500000 0.435400 0.250000
Si Si3 0.000000 0.908834 0.250000
Si Si4 0.835600 0.269627 0.261648
Si Si5 0.628646 0.690766 0.491674
Si Si6 0.802475 0.000000 0.000000
Si Si7 0.156605 0.532240 0.662942
Si Si8 0.825622 0.261525 0.756619
O O1 0.692498 0.217605 0.191302
O O2 0.476491 0.220996 0.991422
O O3 0.764785 0.237548 0.917251
O O4 0.689934 0.083978 0.025288
O O5 0.463984 0.378370 0.100040
O O6 0.665400 0.486669 0.224170
O O7 0.867905 0.837187 0.307906
O O8 0.916388 0.969147 0.130817
O O9 0.793228 0.295269 0.423227
O O10 0.850343 0.360991 0.173860
O O11 0.000000 0.218656 0.250000
O O12 0.692068 0.682767 0.327861
O O13 0.147232 0.500000 0.500000
O O14 0.000000 0.502281 0.750000
O O15 0.000000 0.305211 0.750000
#
# Coordination Sequence:
#
# PCOD9311047 Si02
#       8
#     4   2   2   4   4   2   4   4
#     4  11  20  37  58  90 126 166 213 269 324 384
#     4  10  22  44  72 102 136 172 230 266 334 402
#     4   8  20  38  52  88 114 168 222 272 324 390
#     4  10  21  38  66  92 118 165 219 264 310 397
#     4  11  19  39  62  91 125 162 214 271 320 389
#     4  10  22  36  56  84 132 164 224 264 332 396
#     4  10  22  44  71 101 140 172 218 274 328 405
#     4   9  20  36  57  84 122 165 212 269 327 376
#
# _framework density 22.190325000000001
#
# number of rings (size 3 to 8) (size 9 to 14) (size 15 to 20)
#    0.462    1.538    3.077    1.385    1.077    0.615 
#    0.000   13.846    0.000    0.000    0.000    0.000 
#    0.000    0.000    0.000    0.000    0.000    0.000 
#
# Total GULP energy -144838.395206 kJ/mol
# GULP energy per Si atom -5570.707508 kJ/mol
# Density = 2.213982 g / cm^3
# Si number density = 22.190325 Si / 1000 Ang^3
#
#
#
# Elastic Constant Matrix: (Units=GPa)
#
#
# Indices 1 2 3 4 5 6 
#
# 1 141.9846 30.0868 26.3334 0.0000 0.0000 0.0000
# 2 30.0868 104.4839 49.3019 0.0000 0.0000 0.0000
# 3 26.3334 49.3019 68.5383 0.0000 0.0000 0.0000
# 4 0.0000 0.0000 0.0000 15.0688 0.0000 0.0000
# 5 0.0000 0.0000 0.0000 0.0000 30.9476 0.0000
# 6 0.0000 0.0000 0.0000 0.0000 0.0000 13.6047
#
#
#
# Elastic Compliance Matrix: (Units=1/GPa)
#
#
# Indices 1 2 3 4 5 6 
#
# 1 0.007688 -0.001241 -0.002061 0.000000 0.000000 0.000000
# 2 -0.001241 0.014689 -0.010089 0.000000 0.000000 0.000000
# 3 -0.002061 -0.010089 0.022640 0.000000 0.000000 0.000000
# 4 0.000000 0.000000 0.000000 0.066362 0.000000 0.000000
# 5 0.000000 0.000000 0.000000 0.000000 0.032313 0.000000
# 6 0.000000 0.000000 0.000000 0.000000 0.000000 0.073504
#
#
# Mechanical properties :
#
#
# Convention : Reuss Voigt Hill
#
# Bulk Modulus (GPa) = 54.84337 58.49456 56.66896
# Shear Modulus (GPa) = 19.99538 25.87653 22.93595
#
# Velocity S-wave (km/s) = 3.00506 3.41855 3.21846
# Velocity P-wave (km/s) = 6.06706 6.48071 6.27729
#
# Compressibility (1/GPa) = 0.01823375
#
# Stress axis : x y z
#
# Youngs Moduli (GPa) = 130.06755 68.07751 44.16978
#
# Poissons Ratio (x) = 0.08451 0.09103
# Poissons Ratio (y) = 0.16147 0.44565
# Poissons Ratio (z) = 0.26807 0.68686
#
# Static dielectric constant tensor:
#      x y z
#    x 1.876960 0.000000 0.000000 
#    y 0.000000 1.811170 0.000000 
#    z 0.000000 0.000000 1.880630 
# 
# From -- ./inp_files/4413.got.cif
#   From: 2010.05.17/outbox.cif.g08.bks.cpg/sg17_3_cif.got.tgz:4413.got - 2010.06.03 22:34:06.
