data_PCOD9311257
_publ_section_title
;
Structure prediction by ZEFSAII (Michael W. Deem and Ramdas Pophale) SiO2 
 PCOD9311257
Probable space group: P 2 2 21
;
_chemical_formula_sum "Si O2"
_cell_formula_units_Z 20
_cell_length_a 7.501722
_cell_length_b 8.081991
_cell_length_c 14.651856
_cell_angle_alpha 90.000000
_cell_angle_beta 90.000000
_cell_angle_gamma 90.000000
_cell_volume 888.325175
_symmetry_space_group_name_H-M "P 2 2 21"
_symmetry_group_IT_number 17
_symmetry_cell_setting 'orthorhombic'
loop_
_space_group_symop_operation_xyz
x,y,z
-x,-y,1/2+z
x,-y,-z
-x,y,1/2-z
loop_
_atom_site_type_symbol
_atom_site_label
_atom_site_fract_x
_atom_site_fract_y
_atom_site_fract_z
Si Si1 0.592512 0.348769 0.563125
Si Si2 0.067131 0.965114 0.400321
Si Si3 0.000000 0.200856 0.250000
Si Si4 0.824356 0.599070 0.087601
Si Si5 0.296322 0.440303 0.228698
Si Si6 0.274081 0.000000 0.000000
O O1 0.654529 0.500000 0.500000
O O2 0.379258 0.354287 0.565494
O O3 0.671960 0.402406 0.661744
O O4 0.631828 0.171636 0.520032
O O5 0.117336 0.082600 0.317173
O O6 0.862025 0.013404 0.415958
O O7 0.155019 0.000000 0.500000
O O8 0.078117 0.769131 0.388007
O O9 0.851859 0.310108 0.304405
O O10 0.797838 0.490416 0.176859
O O11 0.898085 0.500000 0.000000
O O12 0.500000 0.379440 0.250000
#
# Coordination Sequence:
#
# PCOD9311257 Si02
#       6
#     4   4   2   4   4   2
#     4  10  22  43  67  96 130 176 222 274 340 399
#     4  10  25  40  56 101 127 165 226 266 338 395
#     4  12  24  42  70  94 138 182 216 286 340 398
#     4  10  22  42  68  90 131 175 222 278 336 403
#     4  10  24  44  67  98 128 177 229 269 336 406
#     4  10  24  38  64  94 134 166 220 280 330 402
#
# _framework density 22.514278000000001
#
# number of rings (size 3 to 8) (size 9 to 14) (size 15 to 20)
#    0.600    1.200    0.000    2.400    7.000    0.800 
#    3.600    0.000    0.000    0.000    0.000    0.000 
#    0.000    0.000    0.000    0.000    0.000    0.000 
#
# Total GULP energy -111438.741352 kJ/mol
# GULP energy per Si atom -5571.937068 kJ/mol
# Density = 2.246303 g / cm^3
# Si number density = 22.514278 Si / 1000 Ang^3
#
#
#
# Elastic Constant Matrix: (Units=GPa)
#
#
# Indices 1 2 3 4 5 6 
#
# 1 76.9773 59.2445 28.6991 0.0000 0.0000 0.0000
# 2 59.2445 149.7507 38.8869 0.0000 0.0000 0.0000
# 3 28.6991 38.8869 71.8890 0.0000 0.0000 0.0000
# 4 0.0000 0.0000 0.0000 43.0302 0.0000 0.0000
# 5 0.0000 0.0000 0.0000 0.0000 13.5201 0.0000
# 6 0.0000 0.0000 0.0000 0.0000 0.0000 -64.4031
#
#
#
# Elastic Compliance Matrix: (Units=1/GPa)
#
#
# Indices 1 2 3 4 5 6 
#
# 1 0.019736 -0.006704 -0.004253 0.000000 0.000000 0.000000
# 2 -0.006704 0.010046 -0.002758 0.000000 0.000000 0.000000
# 3 -0.004253 -0.002758 0.017100 0.000000 0.000000 0.000000
# 4 0.000000 0.000000 0.000000 0.023239 0.000000 0.000000
# 5 0.000000 0.000000 0.000000 0.000000 0.073964 0.000000
# 6 0.000000 0.000000 0.000000 0.000000 0.000000 -0.015527
#
#
# Mechanical properties :
#
#
# Convention : Reuss Voigt Hill
#
# Bulk Modulus (GPa) = 51.40538 61.36424 56.38481
# Shear Modulus (GPa) = 30.77484 9.88189 20.32836
#
# Velocity S-wave (km/s) = 3.70118 2.09731 3.00811
# Velocity P-wave (km/s) = 6.41458 5.76019 6.09617
#
# Compressibility (1/GPa) = 0.01945322
#
# Stress axis : x y z
#
# Youngs Moduli (GPa) = 50.66989 99.54193 58.47976
#
# Poissons Ratio (x) = 0.66728 0.24869
# Poissons Ratio (y) = 0.33967 0.16129
# Poissons Ratio (z) = 0.21548 0.27454
#
# Static dielectric constant tensor:
#      x y z
#    x 1.854410 0.000000 0.000000 
#    y 0.000000 1.927910 0.000000 
#    z 0.000000 0.000000 1.975720 
# 
# From -- ./inp_files/9278.got.cif
#   From: 2010.05.17/outbox.cif.g08.bks.cpg/sg17_5_cif.got.tgz:9278.got - 2010.06.03 22:34:06.
