data_PCOD9311220
_publ_section_title
;
Structure prediction by ZEFSAII (Michael W. Deem and Ramdas Pophale) SiO2 
 PCOD9311220
Probable space group: P 2 2 21
;
_chemical_formula_sum "Si O2"
_cell_formula_units_Z 20
_cell_length_a 5.167668
_cell_length_b 9.325367
_cell_length_c 17.239867
_cell_angle_alpha 90.000000
_cell_angle_beta 90.000000
_cell_angle_gamma 90.000000
_cell_volume 830.796098
_symmetry_space_group_name_H-M "P 2 2 21"
_symmetry_group_IT_number 17
_symmetry_cell_setting 'orthorhombic'
loop_
_space_group_symop_operation_xyz
x,y,z
-x,-y,1/2+z
x,-y,-z
-x,y,1/2-z
loop_
_atom_site_type_symbol
_atom_site_label
_atom_site_fract_x
_atom_site_fract_y
_atom_site_fract_z
Si Si1 0.648652 0.746255 0.916316
Si Si2 0.000000 0.941464 0.750000
Si Si3 0.759031 0.219252 0.800054
Si Si4 0.012958 0.745461 0.047900
Si Si5 0.663591 0.500000 0.500000
Si Si6 0.651111 0.000000 0.500000
Si Si7 0.500000 0.212084 0.250000
O O1 0.503806 0.612369 0.953199
O O2 0.639268 0.723696 0.824994
O O3 0.923653 0.746842 0.958627
O O4 0.519890 0.893979 0.947107
O O5 0.240532 0.859828 0.788068
O O6 0.165662 0.050352 0.696862
O O7 0.500000 0.238748 0.750000
O O8 0.780845 0.262104 0.889726
O O9 0.000000 0.282279 0.750000
O O10 0.180943 0.890722 0.053392
O O11 0.169833 0.599494 0.057201
#
# Coordination Sequence:
#
# PCOD9311220 Si02
#       7
#     4   2   4   4   2   2   2
#     4  11  26  45  74 103 145 191 244 299 365 441
#     4  10  22  40  66 106 154 178 220 302 366 434
#     4  10  23  39  67 104 144 183 227 298 358 431
#     4  11  24  44  70 100 140 189 238 295 366 432
#     4  10  26  50  68  94 142 192 240 304 356 432
#     4  10  24  38  72 110 138 186 232 292 364 428
#     4  12  26  42  72 108 146 190 242 302 368 430
#
# _framework density 24.073295999999999
#
# number of rings (size 3 to 8) (size 9 to 14) (size 15 to 20)
#    0.600    0.800    1.000    2.400   16.800    0.000 
#    0.000    4.000    0.000    0.000    0.000    0.000 
#    0.000    0.000    0.000    0.000    0.000    0.000 
#
# Total GULP energy -111546.330688 kJ/mol
# GULP energy per Si atom -5577.316534 kJ/mol
# Density = 2.401850 g / cm^3
# Si number density = 24.073296 Si / 1000 Ang^3
#
#
#
# Elastic Constant Matrix: (Units=GPa)
#
#
# Indices 1 2 3 4 5 6 
#
# 1 100.2013 29.9871 3.5779 0.0000 0.0000 0.0000
# 2 29.9871 109.3197 23.0461 0.0000 0.0000 0.0000
# 3 3.5779 23.0461 121.9366 0.0000 0.0000 0.0000
# 4 0.0000 0.0000 0.0000 2.1862 0.0000 0.0000
# 5 0.0000 0.0000 0.0000 0.0000 35.0222 0.0000
# 6 0.0000 0.0000 0.0000 0.0000 0.0000 8.5997
#
#
#
# Elastic Compliance Matrix: (Units=1/GPa)
#
#
# Indices 1 2 3 4 5 6 
#
# 1 0.010880 -0.003038 0.000255 0.000000 0.000000 0.000000
# 2 -0.003038 0.010375 -0.001872 0.000000 0.000000 0.000000
# 3 0.000255 -0.001872 0.008547 0.000000 0.000000 0.000000
# 4 0.000000 0.000000 0.000000 0.457417 0.000000 0.000000
# 5 0.000000 0.000000 0.000000 0.000000 0.028553 0.000000
# 6 0.000000 0.000000 0.000000 0.000000 0.000000 0.116283
#
#
# Mechanical properties :
#
#
# Convention : Reuss Voigt Hill
#
# Bulk Modulus (GPa) = 48.79792 49.40888 49.10340
# Shear Modulus (GPa) = 7.71370 27.48473 17.59922
#
# Velocity S-wave (km/s) = 1.79199 3.38259 2.70676
# Velocity P-wave (km/s) = 4.95945 5.98538 5.49641
#
# Compressibility (1/GPa) = 0.02049268
#
# Stress axis : x y z
#
# Youngs Moduli (GPa) = 91.91132 96.38091 116.99635
#
# Poissons Ratio (x) = 0.29283 -0.02983
# Poissons Ratio (y) = 0.27925 0.21900
# Poissons Ratio (z) = -0.02344 0.18041
#
# Static dielectric constant tensor:
#      x y z
#    x 1.973710 0.000000 0.000000 
#    y 0.000000 1.957620 0.000000 
#    z 0.000000 0.000000 2.007040 
# 
# From -- ./inp_files/8984.got.cif
#   From: 2010.05.17/outbox.cif.g08.bks.cpg/sg17_5_cif.got.tgz:8984.got - 2010.06.03 22:34:06.
