data_PCOD9311184
_publ_section_title
;
Structure prediction by ZEFSAII (Michael W. Deem and Ramdas Pophale) SiO2 
 PCOD9311184
Probable space group: P 2 2 21
;
_chemical_formula_sum "Si O2"
_cell_formula_units_Z 16
_cell_length_a 11.728601
_cell_length_b 11.248992
_cell_length_c 5.887576
_cell_angle_alpha 90.000000
_cell_angle_beta 90.000000
_cell_angle_gamma 90.000000
_cell_volume 776.776979
_symmetry_space_group_name_H-M "P 2 2 21"
_symmetry_group_IT_number 17
_symmetry_cell_setting 'orthorhombic'
loop_
_space_group_symop_operation_xyz
x,y,z
-x,-y,1/2+z
x,-y,-z
-x,y,1/2-z
loop_
_atom_site_type_symbol
_atom_site_label
_atom_site_fract_x
_atom_site_fract_y
_atom_site_fract_z
Si Si1 0.819720 0.860495 0.480560
Si Si2 0.183227 0.329257 0.611853
Si Si3 0.271908 0.500000 0.000000
Si Si4 0.367946 0.723556 0.763363
Si Si5 0.000000 0.704710 0.750000
O O1 0.833465 0.798007 0.235979
O O2 0.699676 0.823579 0.594639
O O3 0.910693 0.788570 0.626247
O O4 0.837173 0.000000 0.500000
O O5 0.199980 0.430699 0.804770
O O6 0.298750 0.307409 0.467323
O O7 0.078036 0.357395 0.442652
O O8 0.350523 0.601741 0.899194
O O9 0.500000 0.753063 0.750000
#
# Coordination Sequence:
#
# PCOD9311184 Si02
#       5
#     4   4   2   4   2
#     4  10  23  41  66  98 131 171 215 270 327 396
#     4  10  22  42  66 100 132 170 222 268 330 392
#     4  10  22  38  70  94 136 170 220 268 328 392
#     4  10  23  41  66  98 131 171 215 270 327 396
#     4  10  22  38  70  94 136 170 220 268 328 392
#
# _framework density 20.597933999999999
#
# number of rings (size 3 to 8) (size 9 to 14) (size 15 to 20)
#    0.000    2.000    0.000    1.500    7.000    6.000 
#    4.500    0.000  198.000    0.000    0.000    0.000 
#    0.000    0.000    0.000    0.000    0.000    0.000 
#
# Total GULP energy -89304.698664 kJ/mol
# GULP energy per Si atom -5581.543666 kJ/mol
# Density = 2.055105 g / cm^3
# Si number density = 20.597934 Si / 1000 Ang^3
#
#
#
# Elastic Constant Matrix: (Units=GPa)
#
#
# Indices 1 2 3 4 5 6 
#
# 1 141.5002 -4.7657 41.3236 0.0000 0.0000 0.0000
# 2 -4.7657 37.0302 1.0505 0.0000 0.0000 0.0000
# 3 41.3236 1.0505 96.1383 0.0000 0.0000 0.0000
# 4 0.0000 0.0000 0.0000 15.6611 0.0000 0.0000
# 5 0.0000 0.0000 0.0000 0.0000 9.1967 0.0000
# 6 0.0000 0.0000 0.0000 0.0000 0.0000 19.4755
#
#
#
# Elastic Compliance Matrix: (Units=1/GPa)
#
#
# Indices 1 2 3 4 5 6 
#
# 1 0.008130 0.001146 -0.003507 0.000000 0.000000 0.000000
# 2 0.001146 0.027175 -0.000789 0.000000 0.000000 0.000000
# 3 -0.003507 -0.000789 0.011918 0.000000 0.000000 0.000000
# 4 0.000000 0.000000 0.000000 0.063852 0.000000 0.000000
# 5 0.000000 0.000000 0.000000 0.000000 0.108735 0.000000
# 6 0.000000 0.000000 0.000000 0.000000 0.000000 0.051346
#
#
# Mechanical properties :
#
#
# Convention : Reuss Voigt Hill
#
# Bulk Modulus (GPa) = 24.43727 38.87618 31.65672
# Shear Modulus (GPa) = 17.17636 24.67069 20.92353
#
# Velocity S-wave (km/s) = 2.89084 3.46457 3.19063
# Velocity P-wave (km/s) = 4.79920 5.90924 5.38291
#
# Compressibility (1/GPa) = 0.04092111
#
# Stress axis : x y z
#
# Youngs Moduli (GPa) = 123.00256 36.79875 83.90835
#
# Poissons Ratio (x) = -0.04216 0.29427
# Poissons Ratio (y) = -0.14094 0.06624
# Poissons Ratio (z) = 0.43138 0.02905
#
# Static dielectric constant tensor:
#      x y z
#    x 1.756640 0.000000 0.000000 
#    y 0.000000 1.700320 0.000000 
#    z 0.000000 0.000000 1.770120 
# 
# From -- ./inp_files/1234.got.cif
#   From: 2010.05.17/outbox.cif.g08.bks.cpg/sg17_1_cif.got.tgz:1234.got - 2010.06.03 22:34:06.
