data_PCOD9311396
_publ_section_title
;
Structure prediction by ZEFSAII (Michael W. Deem and Ramdas Pophale) SiO2 
 PCOD9311396
Probable space group: P 2 2 21
;
_chemical_formula_sum "Si O2"
_cell_formula_units_Z 12
_cell_length_a 6.065080
_cell_length_b 4.912359
_cell_length_c 17.256321
_cell_angle_alpha 90.000000
_cell_angle_beta 90.000000
_cell_angle_gamma 90.000000
_cell_volume 514.132245
_symmetry_space_group_name_H-M "P 2 2 21"
_symmetry_group_IT_number 17
_symmetry_cell_setting 'orthorhombic'
loop_
_space_group_symop_operation_xyz
x,y,z
-x,-y,1/2+z
x,-y,-z
-x,y,1/2-z
loop_
_atom_site_type_symbol
_atom_site_label
_atom_site_fract_x
_atom_site_fract_y
_atom_site_fract_z
Si Si1 0.162453 0.855610 0.897658
Si Si2 0.000000 0.922331 0.250000
Si Si3 0.122434 0.339221 0.597904
Si Si4 0.537006 0.000000 0.000000
O O1 0.157967 0.896013 0.804546
O O2 0.965193 0.642820 0.912862
O O3 0.085947 0.152724 0.926560
O O4 0.393784 0.821035 0.938882
O O5 0.136005 0.738633 0.310896
O O6 0.323112 0.212324 0.551321
#
# Coordination Sequence:
#
# PCOD9311396 Si02
#       4
#     4   2   4   2
#     4  10  24  45  72 104 146 183 238 297 353 422
#     4   8  22  48  70  96 156 182 230 314 342 414
#     4  10  24  45  72 104 146 183 238 297 353 422
#     4  12  26  44  80 108 140 196 238 290 372 426
#
# _framework density 23.340301
#
# number of rings (size 3 to 8) (size 9 to 14) (size 15 to 20)
#    2.000    0.000    0.000    2.000    0.000   12.000 
#    0.000    0.000   14.667    0.000    0.000    0.000 
#    0.000    0.000    0.000    0.000    0.000    0.000 
#
# Total GULP energy -66853.860032 kJ/mol
# GULP energy per Si atom -5571.155003 kJ/mol
# Density = 2.328718 g / cm^3
# Si number density = 23.340301 Si / 1000 Ang^3
#
#
#
# Elastic Constant Matrix: (Units=GPa)
#
#
# Indices 1 2 3 4 5 6 
#
# 1 94.0791 25.7584 80.6582 0.0000 0.0000 0.0000
# 2 25.7584 89.8507 46.6719 0.0000 0.0000 0.0000
# 3 80.6582 46.6719 204.5283 0.0000 0.0000 0.0000
# 4 0.0000 0.0000 0.0000 37.0899 0.0000 0.0000
# 5 0.0000 0.0000 0.0000 0.0000 43.6951 0.0000
# 6 0.0000 0.0000 0.0000 0.0000 0.0000 27.7233
#
#
#
# Elastic Compliance Matrix: (Units=1/GPa)
#
#
# Indices 1 2 3 4 5 6 
#
# 1 0.016237 -0.001507 -0.006059 0.000000 0.000000 0.000000
# 2 -0.001507 0.012766 -0.002319 0.000000 0.000000 0.000000
# 3 -0.006059 -0.002319 0.007808 0.000000 0.000000 0.000000
# 4 0.000000 0.000000 0.000000 0.026961 0.000000 0.000000
# 5 0.000000 0.000000 0.000000 0.000000 0.022886 0.000000
# 6 0.000000 0.000000 0.000000 0.000000 0.000000 0.036071
#
#
# Mechanical properties :
#
#
# Convention : Reuss Voigt Hill
#
# Bulk Modulus (GPa) = 58.68425 77.18170 67.93298
# Shear Modulus (GPa) = 33.74276 37.39296 35.56786
#
# Velocity S-wave (km/s) = 3.80634 4.00694 3.90793
# Velocity P-wave (km/s) = 6.67197 7.38561 7.03784
#
# Compressibility (1/GPa) = 0.01704035
#
# Stress axis : x y z
#
# Youngs Moduli (GPa) = 61.58789 78.33229 128.07455
#
# Poissons Ratio (x) = 0.11808 0.77604
# Poissons Ratio (y) = 0.09284 0.29696
# Poissons Ratio (z) = 0.37318 0.18163
#
# Static dielectric constant tensor:
#      x y z
#    x 1.860400 0.000000 0.000000 
#    y 0.000000 1.866510 0.000000 
#    z 0.000000 0.000000 2.029030 
# 
# From -- ./inp_files/8742.got.cif
#   From: 2010.05.17/outbox.cif.g08.bks.cpg/sg17_5_cif.got.tgz:8742.got - 2010.06.03 22:34:06.
