data_PCOD9311748
_publ_section_title
;
Structure prediction by ZEFSAII (Michael W. Deem and Ramdas Pophale) SiO2 
 PCOD9311748
Probable space group: P 21 21 2
;
_chemical_formula_sum "Si O2"
_cell_formula_units_Z 22
_cell_length_a 11.591425
_cell_length_b 7.751000
_cell_length_c 9.554874
_cell_angle_alpha 90.000000
_cell_angle_beta 90.000000
_cell_angle_gamma 90.000000
_cell_volume 858.458946
_symmetry_space_group_name_H-M "P 21 21 2"
_symmetry_group_IT_number 18
_symmetry_cell_setting 'orthorhombic'
loop_
_space_group_symop_operation_xyz
x,y,z
-x,-y,z
1/2+x,1/2-y,-z
1/2-x,1/2+y,-z
loop_
_atom_site_type_symbol
_atom_site_label
_atom_site_fract_x
_atom_site_fract_y
_atom_site_fract_z
Si Si1 0.971292 0.795294 0.919311
Si Si2 0.673014 0.383237 0.307473
Si Si3 0.144994 0.694482 0.117686
Si Si4 0.000000 0.500000 0.340237
Si Si5 0.273375 0.808933 0.575516
Si Si6 0.129548 0.071917 0.185829
O O1 0.927829 0.772650 0.762595
O O2 0.885700 0.795710 0.054692
O O3 0.000000 0.000000 0.917935
O O4 0.080923 0.684914 0.969760
O O5 0.750480 0.421564 0.169843
O O6 0.737300 0.269333 0.422586
O O7 0.666257 0.569370 0.380973
O O8 0.050746 0.643730 0.235470
O O9 0.185543 0.892112 0.135984
O O10 0.891839 0.578004 0.422376
O O11 0.301856 0.661612 0.689388
O O12 0.000000 0.000000 0.224288
#
# Coordination Sequence:
#
# PCOD9311748 Si02
#       6
#     4   4   4   2   4   4
#     4   9  20  41  62  92 125 169 216 271 341 393
#     4  11  24  39  66  96 134 172 229 275 338 402
#     4   9  19  39  65  91 127 172 213 275 340 399
#     4  10  18  38  66  90 132 174 220 268 350 402
#     4  11  22  40  64  97 130 177 225 277 333 412
#     4   9  17  36  65  88 126 172 211 261 343 385
#
# _framework density 25.627316
#
# number of rings (size 3 to 8) (size 9 to 14) (size 15 to 20)
#    0.000    2.545    3.636    1.091    0.000    3.636 
#    6.545    0.909    4.000    0.000    0.000    0.000 
#    0.000    0.000    0.000    0.000    0.000    0.000 
#
# Total GULP energy -122629.209537 kJ/mol
# GULP energy per Si atom -5574.054979 kJ/mol
# Density = 2.556899 g / cm^3
# Si number density = 25.627316 Si / 1000 Ang^3
#
#
#
# Elastic Constant Matrix: (Units=GPa)
#
#
# Indices 1 2 3 4 5 6 
#
# 1 39.4258 7.3366 40.2058 0.0000 0.0000 0.0000
# 2 7.3366 73.2878 35.4242 0.0000 0.0000 0.0000
# 3 40.2058 35.4242 145.2349 0.0000 0.0000 0.0000
# 4 0.0000 0.0000 0.0000 40.1266 0.0000 0.0000
# 5 0.0000 0.0000 0.0000 0.0000 40.0712 0.0000
# 6 0.0000 0.0000 0.0000 0.0000 0.0000 35.3926
#
#
#
# Elastic Compliance Matrix: (Units=1/GPa)
#
#
# Indices 1 2 3 4 5 6 
#
# 1 0.035460 0.001355 -0.010147 0.000000 0.000000 0.000000
# 2 0.001355 0.015520 -0.004161 0.000000 0.000000 0.000000
# 3 -0.010147 -0.004161 0.010709 0.000000 0.000000 0.000000
# 4 0.000000 0.000000 0.000000 0.024921 0.000000 0.000000
# 5 0.000000 0.000000 0.000000 0.000000 0.024956 0.000000
# 6 0.000000 0.000000 0.000000 0.000000 0.000000 0.028255
#
#
# Mechanical properties :
#
#
# Convention : Reuss Voigt Hill
#
# Bulk Modulus (GPa) = 27.94563 47.09795 37.52179
# Shear Modulus (GPa) = 28.14470 34.78355 31.46412
#
# Velocity S-wave (km/s) = 3.31755 3.68813 3.50774
# Velocity P-wave (km/s) = 5.05996 6.04602 5.57483
#
# Compressibility (1/GPa) = 0.03578378
#
# Stress axis : x y z
#
# Youngs Moduli (GPa) = 28.20113 64.43187 93.37787
#
# Poissons Ratio (x) = -0.08729 0.94749
# Poissons Ratio (y) = -0.03821 0.38851
# Poissons Ratio (z) = 0.28615 0.26807
#
# Static dielectric constant tensor:
#      x y z
#    x 2.244040 0.000000 0.000000 
#    y 0.000000 2.064440 0.000000 
#    z 0.000000 0.000000 2.019110 
# 
# From -- ./inp_files/4143.got.cif
#   From: 2010.05.17/outbox.cif.g08.bks.cpg/sg18_3_cif.got.tgz:4143.got - 2010.06.03 22:40:56.
