data_PCOD9311141
_publ_section_title
;
Structure prediction by ZEFSAII (Michael W. Deem and Ramdas Pophale) SiO2 
 PCOD9311141
Probable space group: P 2 2 21
;
_chemical_formula_sum "Si O2"
_cell_formula_units_Z 24
_cell_length_a 8.925541
_cell_length_b 14.076725
_cell_length_c 9.020948
_cell_angle_alpha 90.000000
_cell_angle_beta 90.000000
_cell_angle_gamma 90.000000
_cell_volume 1133.413432
_symmetry_space_group_name_H-M "P 2 2 21"
_symmetry_group_IT_number 17
_symmetry_cell_setting 'orthorhombic'
loop_
_space_group_symop_operation_xyz
x,y,z
-x,-y,1/2+z
x,-y,-z
-x,y,1/2-z
loop_
_atom_site_type_symbol
_atom_site_label
_atom_site_fract_x
_atom_site_fract_y
_atom_site_fract_z
Si Si1 0.000000 0.633844 0.250000
Si Si2 0.669469 0.069274 0.698950
Si Si3 0.821684 0.700289 0.769236
Si Si4 0.350007 0.865779 0.856245
Si Si5 0.500000 0.652666 0.250000
Si Si6 0.255837 0.239893 0.597353
Si Si7 0.250699 0.492162 0.837456
O O1 0.121967 0.697580 0.331719
O O2 0.092685 0.562497 0.145621
O O3 0.500000 0.056848 0.750000
O O4 0.646862 0.109414 0.531986
O O5 0.748406 0.140681 0.813488
O O6 0.732394 0.961738 0.702829
O O7 0.741829 0.768502 0.651921
O O8 0.767218 0.591714 0.746451
O O9 0.000000 0.700320 0.750000
O O10 0.774997 0.748932 0.924095
O O11 0.500000 0.854388 0.750000
O O12 0.574345 0.721833 0.127871
O O13 0.637562 0.581081 0.263773
O O14 0.316751 0.500000 0.000000
#
# Coordination Sequence:
#
# PCOD9311141 Si02
#       7
#     2   4   4   4   2   4   4
#     4  10  24  42  64  92 128 184 216 262 336 406
#     4  10  21  44  69 101 134 173 223 290 363 413
#     4  12  27  44  66 101 142 184 233 284 346 422
#     4  10  24  42  71 100 133 176 231 289 348 420
#     4  10  26  40  66 100 130 174 224 280 340 404
#     4  11  24  43  71  99 136 178 228 284 351 421
#     4  11  25  42  65  93 137 176 223 279 334 399
#
# _framework density 21.174973000000001
#
# number of rings (size 3 to 8) (size 9 to 14) (size 15 to 20)
#    0.000    1.333    1.667    2.000   10.500    3.333 
#    1.500    0.000    0.000    0.000    0.000    0.000 
#    0.000    0.000    0.000    0.000    0.000    0.000 
#
# Total GULP energy -133644.416307 kJ/mol
# GULP energy per Si atom -5568.517346 kJ/mol
# Density = 2.112678 g / cm^3
# Si number density = 21.174973 Si / 1000 Ang^3
#
#
#
# Elastic Constant Matrix: (Units=GPa)
#
#
# Indices 1 2 3 4 5 6 
#
# 1 70.5365 27.7618 -5.5198 0.0000 0.0000 0.0000
# 2 27.7618 99.1841 -13.3266 0.0000 0.0000 0.0000
# 3 -5.5198 -13.3266 35.8026 0.0000 0.0000 0.0000
# 4 0.0000 0.0000 0.0000 19.1397 0.0000 0.0000
# 5 0.0000 0.0000 0.0000 0.0000 25.3611 0.0000
# 6 0.0000 0.0000 0.0000 0.0000 0.0000 27.1422
#
#
#
# Elastic Compliance Matrix: (Units=1/GPa)
#
#
# Indices 1 2 3 4 5 6 
#
# 1 0.015956 -0.004353 0.000840 0.000000 0.000000 0.000000
# 2 -0.004353 0.011801 0.003721 0.000000 0.000000 0.000000
# 3 0.000840 0.003721 0.029446 0.000000 0.000000 0.000000
# 4 0.000000 0.000000 0.000000 0.052247 0.000000 0.000000
# 5 0.000000 0.000000 0.000000 0.000000 0.039430 0.000000
# 6 0.000000 0.000000 0.000000 0.000000 0.000000 0.036843
#
#
# Mechanical properties :
#
#
# Convention : Reuss Voigt Hill
#
# Bulk Modulus (GPa) = 17.35578 24.81714 21.08646
# Shear Modulus (GPa) = 24.44819 27.43578 25.94199
#
# Velocity S-wave (km/s) = 3.40160 3.60345 3.50398
# Velocity P-wave (km/s) = 4.86230 5.39060 5.13325
#
# Compressibility (1/GPa) = 0.05761769
#
# Stress axis : x y z
#
# Youngs Moduli (GPa) = 62.67176 84.74014 33.96096
#
# Poissons Ratio (x) = 0.36890 -0.02851
# Poissons Ratio (y) = 0.27283 -0.12638
# Poissons Ratio (z) = -0.05262 -0.31535
#
# Static dielectric constant tensor:
#      x y z
#    x 1.618910 0.000000 0.000000 
#    y 0.000000 1.816370 0.000000 
#    z 0.000000 0.000000 1.715560 
# 
# From -- ./inp_files/4298.got.cif
#   From: 2010.05.17/outbox.cif.g08.bks.cpg/sg17_3_cif.got.tgz:4298.got - 2010.06.03 22:34:06.
