data_PCOD9311589
_publ_section_title
;
Structure prediction by ZEFSAII (Michael W. Deem and Ramdas Pophale) SiO2 
 PCOD9311589
Probable space group: P 2 2 21
;
_chemical_formula_sum "Si O2"
_cell_formula_units_Z 22
_cell_length_a 11.580058
_cell_length_b 6.164142
_cell_length_c 13.822351
_cell_angle_alpha 90.000000
_cell_angle_beta 90.000000
_cell_angle_gamma 90.000000
_cell_volume 986.654921
_symmetry_space_group_name_H-M "P 2 2 21"
_symmetry_group_IT_number 17
_symmetry_cell_setting 'orthorhombic'
loop_
_space_group_symop_operation_xyz
x,y,z
-x,-y,1/2+z
x,-y,-z
-x,y,1/2-z
loop_
_atom_site_type_symbol
_atom_site_label
_atom_site_fract_x
_atom_site_fract_y
_atom_site_fract_z
Si Si1 0.879449 0.959931 0.342918
Si Si2 0.617770 0.030552 0.610150
Si Si3 0.500000 0.683463 0.750000
Si Si4 0.000000 0.422890 0.750000
Si Si5 0.894871 0.803475 0.859418
Si Si6 0.562459 0.635680 0.099010
Si Si7 0.283758 0.000000 0.500000
O O1 0.754840 0.959957 0.388158
O O2 0.931758 0.723543 0.326374
O O3 0.865196 0.048369 0.233262
O O4 0.977650 0.111028 0.390905
O O5 0.556572 0.255754 0.636210
O O6 0.579546 0.000000 0.500000
O O7 0.571220 0.839455 0.678038
O O8 0.414102 0.539877 0.682913
O O9 0.086186 0.569092 0.686788
O O10 0.799237 0.840764 0.939199
O O11 0.548578 0.500000 0.000000
O O12 0.645002 0.840596 0.072549
#
# Coordination Sequence:
#
# PCOD9311589 Si02
#       7
#     4   4   2   2   4   4   2
#     4   9  22  42  71 100 139 183 233 300 363 426
#     4  12  26  50  74 108 148 187 250 302 365 448
#     4  12  28  50  74 106 152 200 242 310 376 428
#     4   8  18  48  68 102 132 188 246 272 388 426
#     4   9  22  43  68  98 140 189 231 300 361 428
#     4  12  27  48  72 108 142 199 253 295 375 445
#     4  12  26  46  70 104 148 182 254 308 342 454
#
# _framework density 22.297564999999999
#
# number of rings (size 3 to 8) (size 9 to 14) (size 15 to 20)
#    0.000    1.818    2.727    0.545    8.909    5.818 
#    3.273    0.000    0.000    0.000    0.000    0.000 
#    0.000    0.000    0.000    0.000    0.000    0.000 
#
# Total GULP energy -122894.881284 kJ/mol
# GULP energy per Si atom -5586.130967 kJ/mol
# Density = 2.224682 g / cm^3
# Si number density = 22.297565 Si / 1000 Ang^3
#
#
#
# Elastic Constant Matrix: (Units=GPa)
#
#
# Indices 1 2 3 4 5 6 
#
# 1 111.0550 30.5807 28.6117 0.0000 0.0000 0.0000
# 2 30.5807 106.5914 35.3072 0.0000 0.0000 0.0000
# 3 28.6117 35.3072 101.6308 0.0000 0.0000 0.0000
# 4 0.0000 0.0000 0.0000 41.2729 0.0000 0.0000
# 5 0.0000 0.0000 0.0000 0.0000 34.3097 0.0000
# 6 0.0000 0.0000 0.0000 0.0000 0.0000 -4.6539
#
#
#
# Elastic Compliance Matrix: (Units=1/GPa)
#
#
# Indices 1 2 3 4 5 6 
#
# 1 0.010154 -0.002222 -0.002087 0.000000 0.000000 0.000000
# 2 -0.002222 0.011088 -0.003226 0.000000 0.000000 0.000000
# 3 -0.002087 -0.003226 0.011548 0.000000 0.000000 0.000000
# 4 0.000000 0.000000 0.000000 0.024229 0.000000 0.000000
# 5 0.000000 0.000000 0.000000 0.000000 0.029146 0.000000
# 6 0.000000 0.000000 0.000000 0.000000 0.000000 -0.214872
#
#
# Mechanical properties :
#
#
# Convention : Reuss Voigt Hill
#
# Bulk Modulus (GPa) = 56.43494 56.47516 56.45505
# Shear Modulus (GPa) = -46.41238 29.17090 -8.62074
#
# Velocity S-wave (km/s) = -4.56730 3.62090 -1.96841
# Velocity P-wave (km/s) = 1.56484 6.54708 4.49530
#
# Compressibility (1/GPa) = 0.01771952
#
# Stress axis : x y z
#
# Youngs Moduli (GPa) = 98.48337 90.18910 86.59599
#
# Poissons Ratio (x) = 0.20040 0.18070
# Poissons Ratio (y) = 0.21883 0.27940
# Poissons Ratio (z) = 0.20550 0.29099
#
# Static dielectric constant tensor:
#      x y z
#    x 1.836930 0.000000 0.000000 
#    y 0.000000 1.873480 0.000000 
#    z 0.000000 0.000000 1.914190 
# 
# From -- ./inp_files/8423.got.cif
#   From: 2010.05.17/outbox.cif.g08.bks.cpg/sg17_5_cif.got.tgz:8423.got - 2010.06.03 22:34:06.
