data_PCOD9311601
_publ_section_title
;
Structure prediction by ZEFSAII (Michael W. Deem and Ramdas Pophale) SiO2 
 PCOD9311601
Probable space group: P 2 2 21
;
_chemical_formula_sum "Si O2"
_cell_formula_units_Z 12
_cell_length_a 10.393425
_cell_length_b 9.209947
_cell_length_c 4.768746
_cell_angle_alpha 90.000000
_cell_angle_beta 90.000000
_cell_angle_gamma 90.000000
_cell_volume 456.478165
_symmetry_space_group_name_H-M "P 2 2 21"
_symmetry_group_IT_number 17
_symmetry_cell_setting 'orthorhombic'
loop_
_space_group_symop_operation_xyz
x,y,z
-x,-y,1/2+z
x,-y,-z
-x,y,1/2-z
loop_
_atom_site_type_symbol
_atom_site_label
_atom_site_fract_x
_atom_site_fract_y
_atom_site_fract_z
Si Si1 0.405628 0.000000 0.000000
Si Si2 0.235924 0.757804 0.854293
Si Si3 0.000000 0.412160 0.250000
Si Si4 0.415921 0.500000 0.000000
Si Si5 0.099724 0.000000 0.500000
O O1 0.311460 0.866187 0.057852
O O2 0.500000 0.958702 0.750000
O O3 0.101779 0.681655 0.923300
O O4 0.188503 0.866777 0.607352
O O5 0.331941 0.621487 0.839163
O O6 0.068949 0.500000 0.500000
O O7 0.500000 0.569104 0.250000
O O8 0.000000 0.037532 0.750000
#
# Coordination Sequence:
#
# PCOD9311601 Si02
#       5
#     2   4   2   2   2
#     4  12  28  52  82 120 162 216 274 332 402 482
#     4  12  28  54  84 120 166 211 276 339 412 489
#     4  12  30  48  80 122 162 210 264 342 420 482
#     4  12  30  54  84 120 166 220 280 336 408 490
#     4  12  28  48  84 128 166 208 268 336 424 492
#
# _framework density 26.288222000000001
#
# number of rings (size 3 to 8) (size 9 to 14) (size 15 to 20)
#    0.000    0.000    3.333    4.000    4.667    8.000 
#    0.000    0.000    0.000    0.000    0.000    0.000 
#    0.000    0.000    0.000    0.000    0.000    0.000 
#
# Total GULP energy -67060.306674 kJ/mol
# GULP energy per Si atom -5588.358890 kJ/mol
# Density = 2.622839 g / cm^3
# Si number density = 26.288222 Si / 1000 Ang^3
#
#
#
# Elastic Constant Matrix: (Units=GPa)
#
#
# Indices 1 2 3 4 5 6 
#
# 1 150.7487 56.2712 55.4480 0.0000 0.0000 0.0000
# 2 56.2712 142.4579 40.1257 0.0000 0.0000 0.0000
# 3 55.4480 40.1257 138.5033 0.0000 0.0000 0.0000
# 4 0.0000 0.0000 0.0000 27.8379 0.0000 0.0000
# 5 0.0000 0.0000 0.0000 0.0000 26.8747 0.0000
# 6 0.0000 0.0000 0.0000 0.0000 0.0000 97.6869
#
#
#
# Elastic Compliance Matrix: (Units=1/GPa)
#
#
# Indices 1 2 3 4 5 6 
#
# 1 0.008606 -0.002645 -0.002679 0.000000 0.000000 0.000000
# 2 -0.002645 0.008456 -0.001391 0.000000 0.000000 0.000000
# 3 -0.002679 -0.001391 0.008696 0.000000 0.000000 0.000000
# 4 0.000000 0.000000 0.000000 0.035922 0.000000 0.000000
# 5 0.000000 0.000000 0.000000 0.000000 0.037210 0.000000
# 6 0.000000 0.000000 0.000000 0.000000 0.000000 0.010237
#
#
# Mechanical properties :
#
#
# Convention : Reuss Voigt Hill
#
# Bulk Modulus (GPa) = 81.11634 81.71108 81.41371
# Shear Modulus (GPa) = 39.47383 49.13755 44.30569
#
# Velocity S-wave (km/s) = 3.87922 4.32810 4.10979
# Velocity P-wave (km/s) = 7.14059 7.49178 7.31829
#
# Compressibility (1/GPa) = 0.01232797
#
# Stress axis : x y z
#
# Youngs Moduli (GPa) = 116.19429 118.25728 115.00078
#
# Poissons Ratio (x) = 0.31277 0.30811
# Poissons Ratio (y) = 0.30732 0.15996
# Poissons Ratio (z) = 0.31130 0.16449
#
# Static dielectric constant tensor:
#      x y z
#    x 2.022190 0.000000 0.000000 
#    y 0.000000 2.110080 0.000000 
#    z 0.000000 0.000000 1.519480 
# 
# From -- ./inp_files/1171.got.cif
#   From: 2010.05.17/outbox.cif.g08.bks.cpg/sg17_1_cif.got.tgz:1171.got - 2010.06.03 22:34:06.
