data_PCOD9311487
_publ_section_title
;
Structure prediction by ZEFSAII (Michael W. Deem and Ramdas Pophale) SiO2 
 PCOD9311487
Probable space group: P 2 2 21
;
_chemical_formula_sum "Si O2"
_cell_formula_units_Z 32
_cell_length_a 6.469640
_cell_length_b 8.947548
_cell_length_c 27.605182
_cell_angle_alpha 90.000000
_cell_angle_beta 90.000000
_cell_angle_gamma 90.000000
_cell_volume 1597.992611
_symmetry_space_group_name_H-M "P 2 2 21"
_symmetry_group_IT_number 17
_symmetry_cell_setting 'orthorhombic'
loop_
_space_group_symop_operation_xyz
x,y,z
-x,-y,1/2+z
x,-y,-z
-x,y,1/2-z
loop_
_atom_site_type_symbol
_atom_site_label
_atom_site_fract_x
_atom_site_fract_y
_atom_site_fract_z
Si Si1 0.948741 0.182120 0.564035
Si Si2 0.572511 0.650948 0.474505
Si Si3 0.728747 0.867473 0.981356
Si Si4 0.929642 0.097065 0.198726
Si Si5 0.682125 0.750838 0.882804
Si Si6 0.386600 0.831035 0.301953
Si Si7 0.687056 0.964287 0.631956
Si Si8 0.717899 0.392244 0.883724
O O1 0.781556 0.261197 0.530988
O O2 0.817072 0.060691 0.593420
O O3 0.113749 0.117521 0.526293
O O4 0.078210 0.301843 0.596834
O O5 0.631325 0.500000 0.500000
O O6 0.398709 0.718044 0.509194
O O7 0.464898 0.644801 0.421888
O O8 0.796362 0.842429 0.926255
O O9 0.576413 0.000000 0.000000
O O10 0.770825 0.196653 0.168588
O O11 0.000000 0.158342 0.250000
O O12 0.816073 0.936023 0.204923
O O13 0.138540 0.088085 0.168603
O O14 0.721332 0.573137 0.885215
O O15 0.451087 0.823861 0.886375
O O16 0.500000 0.810950 0.250000
O O17 0.532652 0.924916 0.338937
O O18 0.331837 0.679778 0.331248
#
# Coordination Sequence:
#
# PCOD9311487 Si02
#       8
#     4   4   4   4   4   4   4   4
#     4  11  24  39  72  94 132 179 235 268 325 410
#     4  11  23  40  65  91 129 181 216 263 329 402
#     4  11  24  41  62  97 136 171 227 275 329 399
#     4  11  23  44  69  97 124 170 228 276 338 411
#     4  11  26  42  65  96 145 176 213 292 346 394
#     4  11  22  42  73  96 125 169 224 282 335 407
#     4  11  22  43  69  94 127 173 224 277 333 398
#     4  11  24  45  62 100 138 172 221 282 342 403
#
# _framework density 20.025122
#
# number of rings (size 3 to 8) (size 9 to 14) (size 15 to 20)
#    0.000    1.000    5.000    1.500    5.250    3.500 
#    2.250    0.625    0.000    0.000    0.000    0.000 
#    0.000    0.000    0.000    0.000    0.000    0.000 
#
# Total GULP energy -178332.846146 kJ/mol
# GULP energy per Si atom -5572.901442 kJ/mol
# Density = 1.997954 g / cm^3
# Si number density = 20.025122 Si / 1000 Ang^3
#
#
#
# Elastic Constant Matrix: (Units=GPa)
#
#
# Indices 1 2 3 4 5 6 
#
# 1 58.9136 14.4974 11.4995 0.0000 0.0000 0.0000
# 2 14.4974 80.0685 23.4396 0.0000 0.0000 0.0000
# 3 11.4995 23.4396 87.2499 0.0000 0.0000 0.0000
# 4 0.0000 0.0000 0.0000 26.2388 0.0000 0.0000
# 5 0.0000 0.0000 0.0000 0.0000 -34.7672 0.0000
# 6 0.0000 0.0000 0.0000 0.0000 0.0000 13.5597
#
#
#
# Elastic Compliance Matrix: (Units=1/GPa)
#
#
# Indices 1 2 3 4 5 6 
#
# 1 0.017975 -0.002780 -0.001622 0.000000 0.000000 0.000000
# 2 -0.002780 0.013985 -0.003391 0.000000 0.000000 0.000000
# 3 -0.001622 -0.003391 0.012586 0.000000 0.000000 0.000000
# 4 0.000000 0.000000 0.000000 0.038112 0.000000 0.000000
# 5 0.000000 0.000000 0.000000 0.000000 -0.028763 0.000000
# 6 0.000000 0.000000 0.000000 0.000000 0.000000 0.073748
#
#
# Mechanical properties :
#
#
# Convention : Reuss Voigt Hill
#
# Bulk Modulus (GPa) = 34.52968 36.12277 35.32622
# Shear Modulus (GPa) = 32.70501 12.79261 22.74881
#
# Velocity S-wave (km/s) = 4.04567 2.53025 3.37414
# Velocity P-wave (km/s) = 6.25331 5.15888 5.73228
#
# Compressibility (1/GPa) = 0.02896060
#
# Stress axis : x y z
#
# Youngs Moduli (GPa) = 55.63377 71.50406 79.45286
#
# Poissons Ratio (x) = 0.19875 0.12890
# Poissons Ratio (y) = 0.15464 0.26941
# Poissons Ratio (z) = 0.09026 0.24245
#
# Static dielectric constant tensor:
#      x y z
#    x 1.760450 0.000000 0.000000 
#    y 0.000000 1.879750 0.000000 
#    z 0.000000 0.000000 1.712200 
# 
# From -- ./inp_files/11169.got.cif
#   From: 2010.05.17/outbox.cif.g08.bks.cpg/sg17_6_cif.got.tgz:11169.got - 2010.06.03 22:34:06.
