data_PCOD9311061
_publ_section_title
;
Structure prediction by ZEFSAII (Michael W. Deem and Ramdas Pophale) SiO2 
 PCOD9311061
Probable space group: P 2 2 21
;
_chemical_formula_sum "Si O2"
_cell_formula_units_Z 28
_cell_length_a 12.978921
_cell_length_b 18.586694
_cell_length_c 5.472566
_cell_angle_alpha 90.000000
_cell_angle_beta 90.000000
_cell_angle_gamma 90.000000
_cell_volume 1320.175735
_symmetry_space_group_name_H-M "P 2 2 21"
_symmetry_group_IT_number 17
_symmetry_cell_setting 'orthorhombic'
loop_
_space_group_symop_operation_xyz
x,y,z
-x,-y,1/2+z
x,-y,-z
-x,y,1/2-z
loop_
_atom_site_type_symbol
_atom_site_label
_atom_site_fract_x
_atom_site_fract_y
_atom_site_fract_z
Si Si1 0.092834 0.618067 0.921608
Si Si2 0.656171 0.828423 0.799477
Si Si3 0.389664 0.745555 0.186285
Si Si4 0.813399 0.316645 0.810023
Si Si5 0.500000 0.545263 0.750000
Si Si6 0.500000 0.955331 0.750000
Si Si7 0.887229 0.220198 0.201138
Si Si8 0.720687 0.571420 0.834134
O O1 0.106850 0.704084 0.852948
O O2 0.189683 0.568367 0.861008
O O3 0.000000 0.593993 0.750000
O O4 0.103984 0.627076 0.209894
O O5 0.602640 0.789235 0.566637
O O6 0.600787 0.905548 0.797361
O O7 0.780556 0.822672 0.751135
O O8 0.635330 0.792197 0.066536
O O9 0.500000 0.709421 0.250000
O O10 0.285460 0.700647 0.145243
O O11 0.871949 0.248575 0.922777
O O12 0.754461 0.358505 0.021471
O O13 0.497554 0.500000 0.500000
O O14 0.607035 0.586011 0.737076
O O15 0.516057 0.000000 0.500000
O O16 0.000000 0.185967 0.250000
O O17 0.719826 0.500000 0.000000
#
# Coordination Sequence:
#
# PCOD9311061 Si02
#       8
#     4   4   4   4   2   2   4   4
#     4  10  21  39  61  90 121 154 208 273 335 388
#     4  11  21  40  62  94 131 169 215 249 309 370
#     4  11  20  37  60  94 129 161 204 271 313 377
#     4  10  22  38  61  90 124 162 210 271 341 396
#     4  10  24  44  65  84 111 156 212 268 318 390
#     4  12  24  40  67  96 141 182 210 256 304 364
#     4   9  20  38  61  91 122 165 205 267 324 377
#     4  10  24  42  58  86 117 167 212 266 330 415
#
# _framework density 21.209295000000001
#
# number of rings (size 3 to 8) (size 9 to 14) (size 15 to 20)
#    0.000    1.714    2.857    0.857    4.000    6.286 
#    3.857    0.000    0.000    0.857    0.000    0.000 
#    0.000    0.000    0.000    0.000    0.000    0.000 
#
# Total GULP energy -155899.901004 kJ/mol
# GULP energy per Si atom -5567.853607 kJ/mol
# Density = 2.116102 g / cm^3
# Si number density = 21.209295 Si / 1000 Ang^3
#
#
#
# Elastic Constant Matrix: (Units=GPa)
#
#
# Indices 1 2 3 4 5 6 
#
# 1 222.5976 27.2293 33.7327 0.0000 0.0000 0.0000
# 2 27.2293 38.4522 8.8804 0.0000 0.0000 0.0000
# 3 33.7327 8.8804 87.9243 0.0000 0.0000 0.0000
# 4 0.0000 0.0000 0.0000 30.1725 0.0000 0.0000
# 5 0.0000 0.0000 0.0000 0.0000 24.9457 0.0000
# 6 0.0000 0.0000 0.0000 0.0000 0.0000 30.9443
#
#
#
# Elastic Compliance Matrix: (Units=1/GPa)
#
#
# Indices 1 2 3 4 5 6 
#
# 1 0.005140 -0.003261 -0.001643 0.000000 0.000000 0.000000
# 2 -0.003261 0.028696 -0.001647 0.000000 0.000000 0.000000
# 3 -0.001643 -0.001647 0.012170 0.000000 0.000000 0.000000
# 4 0.000000 0.000000 0.000000 0.033143 0.000000 0.000000
# 5 0.000000 0.000000 0.000000 0.000000 0.040087 0.000000
# 6 0.000000 0.000000 0.000000 0.000000 0.000000 0.032316
#
#
# Mechanical properties :
#
#
# Convention : Reuss Voigt Hill
#
# Bulk Modulus (GPa) = 30.39090 54.29546 42.34318
# Shear Modulus (GPa) = 28.47033 35.82128 32.14580
#
# Velocity S-wave (km/s) = 3.66779 4.11413 3.89735
# Velocity P-wave (km/s) = 5.68305 6.94432 6.34510
#
# Compressibility (1/GPa) = 0.03290459
#
# Stress axis : x y z
#
# Youngs Moduli (GPa) = 194.54470 34.84847 82.16890
#
# Poissons Ratio (x) = 0.11363 0.13498
# Poissons Ratio (y) = 0.63433 0.13536
# Poissons Ratio (z) = 0.31959 0.05741
#
# Static dielectric constant tensor:
#      x y z
#    x 2.035450 0.000000 0.000000 
#    y 0.000000 1.774410 0.000000 
#    z 0.000000 0.000000 1.963520 
# 
# From -- ./inp_files/1822.got.cif
#   From: 2010.05.17/outbox.cif.g08.bks.cpg/sg17_1_cif.got.tgz:1822.got - 2010.06.03 22:34:06.
