data_PCOD9311121
_publ_section_title
;
Structure prediction by ZEFSAII (Michael W. Deem and Ramdas Pophale) SiO2 
 PCOD9311121
Probable space group: P 2 2 21
;
_chemical_formula_sum "Si O2"
_cell_formula_units_Z 18
_cell_length_a 7.818412
_cell_length_b 9.410880
_cell_length_c 11.651111
_cell_angle_alpha 90.000000
_cell_angle_beta 90.000000
_cell_angle_gamma 90.000000
_cell_volume 857.267043
_symmetry_space_group_name_H-M "P 2 2 21"
_symmetry_group_IT_number 17
_symmetry_cell_setting 'orthorhombic'
loop_
_space_group_symop_operation_xyz
x,y,z
-x,-y,1/2+z
x,-y,-z
-x,y,1/2-z
loop_
_atom_site_type_symbol
_atom_site_label
_atom_site_fract_x
_atom_site_fract_y
_atom_site_fract_z
Si Si1 0.825472 0.807033 0.398607
Si Si2 0.500000 0.732297 0.250000
Si Si3 0.683917 0.479335 0.128128
Si Si4 0.000000 0.432357 0.750000
Si Si5 0.852497 0.872447 0.661783
Si Si6 0.500000 0.238697 0.250000
O O1 0.641681 0.805299 0.331623
O O2 0.832391 0.798164 0.536836
O O3 0.932941 0.675888 0.347709
O O4 0.894730 0.962787 0.366417
O O5 0.596735 0.626256 0.164294
O O6 0.557360 0.347997 0.149154
O O7 0.844419 0.470343 0.211405
O O8 0.743028 0.500000 0.000000
O O9 0.666079 0.852255 0.719038
O O10 0.000000 0.825165 0.750000
#
# Coordination Sequence:
#
# PCOD9311121 Si02
#       6
#     4   2   4   2   4   2
#     4  10  21  42  63  96 125 169 216 261 328 380
#     4   9  19  40  66  86 131 169 218 266 308 393
#     4  10  22  38  60  92 123 169 213 258 316 376
#     4  10  22  38  64  90 124 168 212 262 316 380
#     4  11  24  41  65  95 132 164 211 273 318 389
#     4  11  25  40  60  96 125 167 212 254 326 371
#
# _framework density 20.996959
#
# number of rings (size 3 to 8) (size 9 to 14) (size 15 to 20)
#    0.000    1.778    1.111    2.000    4.667    0.000 
#    0.000    4.444    0.000    0.000    0.000    0.000 
#    0.000    0.000    0.000    0.000    0.000    0.000 
#
# Total GULP energy -100392.056483 kJ/mol
# GULP energy per Si atom -5577.336471 kJ/mol
# Density = 2.094917 g / cm^3
# Si number density = 20.996959 Si / 1000 Ang^3
#
#
#
# Elastic Constant Matrix: (Units=GPa)
#
#
# Indices 1 2 3 4 5 6 
#
# 1 109.1339 23.5127 40.0452 0.0000 0.0000 0.0000
# 2 23.5127 58.5382 23.3842 0.0000 0.0000 0.0000
# 3 40.0452 23.3842 118.6532 0.0000 0.0000 0.0000
# 4 0.0000 0.0000 0.0000 1232.9007 0.0000 0.0000
# 5 0.0000 0.0000 0.0000 0.0000 8.9466 0.0000
# 6 0.0000 0.0000 0.0000 0.0000 0.0000 -1.5411
#
#
#
# Elastic Compliance Matrix: (Units=1/GPa)
#
#
# Indices 1 2 3 4 5 6 
#
# 1 0.010978 -0.003180 -0.003078 0.000000 0.000000 0.000000
# 2 -0.003180 0.019464 -0.002763 0.000000 0.000000 0.000000
# 3 -0.003078 -0.002763 0.010011 0.000000 0.000000 0.000000
# 4 0.000000 0.000000 0.000000 0.000811 0.000000 0.000000
# 5 0.000000 0.000000 0.000000 0.000000 0.111775 0.000000
# 6 0.000000 0.000000 0.000000 0.000000 0.000000 -0.648886
#
#
# Mechanical properties :
#
#
# Convention : Reuss Voigt Hill
#
# Bulk Modulus (GPa) = 44.62056 51.13441 47.87749
# Shear Modulus (GPa) = -10.63069 261.35344 125.36138
#
# Velocity S-wave (km/s) = -2.25255 11.16881 7.73525
# Velocity P-wave (km/s) = 3.81206 13.81047 10.13067
#
# Compressibility (1/GPa) = 0.02241119
#
# Stress axis : x y z
#
# Youngs Moduli (GPa) = 91.09426 51.37784 99.88688
#
# Poissons Ratio (x) = 0.16336 0.30748
# Poissons Ratio (y) = 0.28965 0.27597
# Poissons Ratio (z) = 0.28041 0.14195
#
# Static dielectric constant tensor:
#      x y z
#    x 1.664200 0.000000 0.000000 
#    y 0.000000 1.743230 0.000000 
#    z 0.000000 0.000000 1.760660 
# 
# From -- ./inp_files/4585.got.cif
#   From: 2010.05.17/outbox.cif.g08.bks.cpg/sg17_3_cif.got.tgz:4585.got - 2010.06.03 22:34:06.
