data_PCOD9311940
_publ_section_title
;
Structure prediction by ZEFSAII (Michael W. Deem and Ramdas Pophale) SiO2 
 PCOD9311940
Probable space group: P 21 21 2
;
_chemical_formula_sum "Si O2"
_cell_formula_units_Z 22
_cell_length_a 30.132019
_cell_length_b 4.959776
_cell_length_c 5.816152
_cell_angle_alpha 90.000000
_cell_angle_beta 90.000000
_cell_angle_gamma 90.000000
_cell_volume 869.212660
_symmetry_space_group_name_H-M "P 21 21 2"
_symmetry_group_IT_number 18
_symmetry_cell_setting 'orthorhombic'
loop_
_space_group_symop_operation_xyz
x,y,z
-x,-y,z
1/2+x,1/2-y,-z
1/2-x,1/2+y,-z
loop_
_atom_site_type_symbol
_atom_site_label
_atom_site_fract_x
_atom_site_fract_y
_atom_site_fract_z
Si Si1 0.000000 0.500000 0.501930
Si Si2 0.344850 0.391576 0.374861
Si Si3 0.936714 0.645023 0.123256
Si Si4 0.751998 0.243906 0.663267
Si Si5 0.340911 0.889721 0.694210
Si Si6 0.058684 0.855666 0.834553
O O1 0.965215 0.675834 0.351865
O O2 0.970376 0.289369 0.643143
O O3 0.300259 0.318511 0.234504
O O4 0.343025 0.693212 0.471894
O O5 0.344088 0.191257 0.595781
O O6 0.390334 0.346930 0.244717
O O7 0.884245 0.679380 0.160470
O O8 0.945352 0.338274 0.053483
O O9 0.951592 0.845264 0.921838
O O10 0.750098 0.542954 0.559520
O O11 0.707433 0.171712 0.801038
#
# Coordination Sequence:
#
# PCOD9311940 Si02
#       6
#     2   4   4   4   4   4
#     4  12  30  54  72 100 148 190 234 310 364 410
#     4  10  19  40  67  98 139 183 222 283 344 407
#     4  12  28  48  73 105 137 182 240 290 356 428
#     4   8  16  30  62  98 130 180 228 258 338 420
#     4  10  19  40  67  98 139 183 222 283 344 407
#     4  12  28  48  73 105 137 182 240 290 356 428
#
# _framework density 25.310258999999999
#
# number of rings (size 3 to 8) (size 9 to 14) (size 15 to 20)
#    0.000    1.455    1.818    2.727    0.000    4.364 
#    0.000    1.818    0.000    0.000    0.000    0.000 
#    0.000    0.000    0.000    0.000    0.000    0.000 
#
# Total GULP energy -123255.682410 kJ/mol
# GULP energy per Si atom -5602.531019 kJ/mol
# Density = 2.525265 g / cm^3
# Si number density = 25.310259 Si / 1000 Ang^3
#
#
#
# Elastic Constant Matrix: (Units=GPa)
#
#
# Indices 1 2 3 4 5 6 
#
# 1 207.4701 27.5968 48.0403 0.0000 0.0000 0.0000
# 2 27.5968 93.3973 2.6283 0.0000 0.0000 0.0000
# 3 48.0403 2.6283 37.2266 0.0000 0.0000 0.0000
# 4 0.0000 0.0000 0.0000 33.7025 0.0000 0.0000
# 5 0.0000 0.0000 0.0000 0.0000 21.9056 0.0000
# 6 0.0000 0.0000 0.0000 0.0000 0.0000 37.8097
#
#
#
# Elastic Compliance Matrix: (Units=1/GPa)
#
#
# Indices 1 2 3 4 5 6 
#
# 1 0.007184 -0.001866 -0.009140 0.000000 0.000000 0.000000
# 2 -0.001866 0.011213 0.001616 0.000000 0.000000 0.000000
# 3 -0.009140 0.001616 0.038543 0.000000 0.000000 0.000000
# 4 0.000000 0.000000 0.000000 0.029671 0.000000 0.000000
# 5 0.000000 0.000000 0.000000 0.000000 0.045650 0.000000
# 6 0.000000 0.000000 0.000000 0.000000 0.000000 0.026448
#
#
# Mechanical properties :
#
#
# Convention : Reuss Voigt Hill
#
# Bulk Modulus (GPa) = 26.20447 54.95830 40.58139
# Shear Modulus (GPa) = 26.28679 36.00547 31.14613
#
# Velocity S-wave (km/s) = 3.22620 3.77578 3.51176
# Velocity P-wave (km/s) = 4.92479 6.38511 5.70190
#
# Compressibility (1/GPa) = 0.03816143
#
# Stress axis : x y z
#
# Youngs Moduli (GPa) = 139.18929 89.18435 25.94501
#
# Poissons Ratio (x) = 0.16639 0.23713
# Poissons Ratio (y) = 0.25968 -0.04193
# Poissons Ratio (z) = 1.27215 -0.14412
#
# Static dielectric constant tensor:
#      x y z
#    x 2.068310 0.000000 0.000000 
#    y 0.000000 1.908180 0.000000 
#    z 0.000000 0.000000 1.949450 
# 
# From -- ./inp_files/2259.got.cif
#   From: 2010.05.17/outbox.cif.g08.bks.cpg/sg18_2_cif.got.tgz:2259.got - 2010.06.03 22:40:56.
