data_PCOD9311918
_publ_section_title
;
Structure prediction by ZEFSAII (Michael W. Deem and Ramdas Pophale) SiO2 
 PCOD9311918
Probable space group: P 21 21 2
;
_chemical_formula_sum "Si O2"
_cell_formula_units_Z 26
_cell_length_a 11.144432
_cell_length_b 9.987557
_cell_length_c 11.130367
_cell_angle_alpha 90.000000
_cell_angle_beta 90.000000
_cell_angle_gamma 90.000000
_cell_volume 1238.872732
_symmetry_space_group_name_H-M "P 21 21 2"
_symmetry_group_IT_number 18
_symmetry_cell_setting 'orthorhombic'
loop_
_space_group_symop_operation_xyz
x,y,z
-x,-y,z
1/2+x,1/2-y,-z
1/2-x,1/2+y,-z
loop_
_atom_site_type_symbol
_atom_site_label
_atom_site_fract_x
_atom_site_fract_y
_atom_site_fract_z
Si Si1 0.712152 0.175007 0.133035
Si Si2 0.957708 0.139274 0.258663
Si Si3 0.065904 0.359879 0.432826
Si Si4 0.702029 0.554551 0.315817
Si Si5 0.500000 0.500000 0.971023
Si Si6 0.041278 0.207590 0.679989
Si Si7 0.742529 0.968651 0.934042
O O1 0.815792 0.139492 0.230677
O O2 0.595024 0.218927 0.204382
O O3 0.764468 0.307758 0.065648
O O4 0.687050 0.053668 0.042096
O O5 0.009660 0.259967 0.333859
O O6 0.000000 0.000000 0.319268
O O7 0.010910 0.123387 0.122988
O O8 0.207056 0.385899 0.412518
O O9 0.042379 0.298766 0.563098
O O10 0.000000 0.500000 0.421553
O O11 0.633424 0.415868 0.344835
O O12 0.592243 0.655445 0.295554
O O13 0.783903 0.523515 0.198516
O O14 0.383352 0.497088 0.049756
#
# Coordination Sequence:
#
# PCOD9311918 Si02
#       7
#     4   4   4   4   2   4   4
#     4  10  21  40  69  97 133 172 231 273 339 413
#     4   9  22  41  63  94 129 178 221 272 342 411
#     4  12  26  42  69 100 136 172 236 287 331 401
#     4  10  24  42  70  95 131 189 221 269 354 403
#     4   8  18  36  64  90 126 172 222 264 344 412
#     4  10  24  45  66  94 136 177 224 282 338 410
#     4  10  19  38  66  93 132 171 219 280 332 408
#
# _framework density 20.986820000000002
#
# number of rings (size 3 to 8) (size 9 to 14) (size 15 to 20)
#    0.462    1.538    0.000    3.692    8.615    0.000 
#    2.769    0.000    0.000    0.000    0.000    0.000 
#    0.000    0.000    0.000    0.000    0.000    0.000 
#
# Total GULP energy -145097.846067 kJ/mol
# GULP energy per Si atom -5580.686387 kJ/mol
# Density = 2.093905 g / cm^3
# Si number density = 20.986820 Si / 1000 Ang^3
#
#
#
# Elastic Constant Matrix: (Units=GPa)
#
#
# Indices 1 2 3 4 5 6 
#
# 1 65.2092 30.8982 8.4663 0.0000 0.0000 0.0000
# 2 30.8982 117.1408 49.9268 0.0000 0.0000 0.0000
# 3 8.4663 49.9268 60.6102 0.0000 0.0000 0.0000
# 4 0.0000 0.0000 0.0000 19.1158 0.0000 0.0000
# 5 0.0000 0.0000 0.0000 0.0000 15.0602 0.0000
# 6 0.0000 0.0000 0.0000 0.0000 0.0000 20.5683
#
#
#
# Elastic Compliance Matrix: (Units=1/GPa)
#
#
# Indices 1 2 3 4 5 6 
#
# 1 0.017700 -0.005571 0.002116 0.000000 0.000000 0.000000
# 2 -0.005571 0.014909 -0.011503 0.000000 0.000000 0.000000
# 3 0.002116 -0.011503 0.025678 0.000000 0.000000 0.000000
# 4 0.000000 0.000000 0.000000 0.052313 0.000000 0.000000
# 5 0.000000 0.000000 0.000000 0.000000 0.066400 0.000000
# 6 0.000000 0.000000 0.000000 0.000000 0.000000 0.048618
#
#
# Mechanical properties :
#
#
# Convention : Reuss Voigt Hill
#
# Bulk Modulus (GPa) = 35.24459 46.83808 41.04133
# Shear Modulus (GPa) = 18.86861 21.19346 20.03103
#
# Velocity S-wave (km/s) = 3.00170 3.18126 3.09278
# Velocity P-wave (km/s) = 5.37064 5.98833 5.68788
#
# Compressibility (1/GPa) = 0.02837315
#
# Stress axis : x y z
#
# Youngs Moduli (GPa) = 56.49686 67.07473 38.94312
#
# Poissons Ratio (x) = 0.37366 -0.08242
# Poissons Ratio (y) = 0.31473 0.44795
# Poissons Ratio (z) = -0.11957 0.77154
#
# Static dielectric constant tensor:
#      x y z
#    x 1.749730 0.000000 0.000000 
#    y 0.000000 1.770370 0.000000 
#    z 0.000000 0.000000 1.758040 
# 
# From -- ./inp_files/5870.got.cif
#   From: 2010.05.17/outbox.cif.g08.bks.cpg/sg18_3_cif.got.tgz:5870.got - 2010.06.03 22:40:56.
