data_PCOD9311788
_publ_section_title
;
Structure prediction by ZEFSAII (Michael W. Deem and Ramdas Pophale) SiO2 
 PCOD9311788
Probable space group: P 21 21 2
;
_chemical_formula_sum "Si O2"
_cell_formula_units_Z 30
_cell_length_a 17.998263
_cell_length_b 12.599918
_cell_length_c 5.284663
_cell_angle_alpha 90.000000
_cell_angle_beta 90.000000
_cell_angle_gamma 90.000000
_cell_volume 1198.438108
_symmetry_space_group_name_H-M "P 21 21 2"
_symmetry_group_IT_number 18
_symmetry_cell_setting 'orthorhombic'
loop_
_space_group_symop_operation_xyz
x,y,z
-x,-y,z
1/2+x,1/2-y,-z
1/2-x,1/2+y,-z
loop_
_atom_site_type_symbol
_atom_site_label
_atom_site_fract_x
_atom_site_fract_y
_atom_site_fract_z
Si Si1 0.243924 0.226884 0.232337
Si Si2 0.500000 0.500000 0.791843
Si Si3 0.556081 0.700697 0.042097
Si Si4 0.083303 0.447389 0.200749
Si Si5 0.164340 0.666375 0.268252
Si Si6 0.537123 0.117537 0.299508
Si Si7 0.159238 0.041063 0.377799
Si Si8 0.799397 0.064999 0.868288
O O1 0.298380 0.198452 0.468110
O O2 0.170782 0.160766 0.290117
O O3 0.236189 0.352375 0.206753
O O4 0.281318 0.187759 0.970198
O O5 0.501086 0.607107 0.958237
O O6 0.574744 0.496081 0.631599
O O7 0.592252 0.761908 0.801830
O O8 0.519833 0.790461 0.217906
O O9 0.625639 0.636267 0.156099
O O10 0.136804 0.545420 0.262117
O O11 0.075073 0.366911 0.431855
O O12 0.000000 0.500000 0.171258
O O13 0.094886 0.394234 0.929335
O O14 0.500000 0.000000 0.325001
O O15 0.192517 0.022904 0.653939
O O16 0.201356 0.974586 0.156358
#
# Coordination Sequence:
#
# PCOD9311788 Si02
#       8
#     4   2   4   4   4   4   4   4
#     4  11  23  40  69  94 127 170 222 283 323 400
#     4  10  24  44  70  96 132 188 224 286 322 394
#     4  10  21  40  65  98 132 176 231 260 337 402
#     4  10  19  31  54  89 131 165 208 261 341 384
#     4  11  21  38  64  99 129 177 220 271 339 403
#     4  10  19  32  55  89 133 164 208 281 324 392
#     4  11  24  47  68  99 133 172 235 272 335 401
#     4  10  23  41  71  95 125 173 221 273 328 406
#
# _framework density 25.032584
#
# number of rings (size 3 to 8) (size 9 to 14) (size 15 to 20)
#    0.000    1.600    2.667    4.000    5.600    4.267 
#    0.000    4.000    0.000    1.600    0.000    0.000 
#    0.000    0.000    0.000    0.000    0.000    0.000 
#
# Total GULP energy -167923.763623 kJ/mol
# GULP energy per Si atom -5597.458787 kJ/mol
# Density = 2.497561 g / cm^3
# Si number density = 25.032584 Si / 1000 Ang^3
#
#
#
# Elastic Constant Matrix: (Units=GPa)
#
#
# Indices 1 2 3 4 5 6 
#
# 1 43.4907 21.0595 14.3224 0.0000 0.0000 0.0000
# 2 21.0595 110.8985 10.5277 0.0000 0.0000 0.0000
# 3 14.3224 10.5277 139.0013 0.0000 0.0000 0.0000
# 4 0.0000 0.0000 0.0000 18.9765 0.0000 0.0000
# 5 0.0000 0.0000 0.0000 0.0000 29.5097 0.0000
# 6 0.0000 0.0000 0.0000 0.0000 0.0000 45.9122
#
#
#
# Elastic Compliance Matrix: (Units=1/GPa)
#
#
# Indices 1 2 3 4 5 6 
#
# 1 0.026048 -0.004726 -0.002326 0.000000 0.000000 0.000000
# 2 -0.004726 0.009940 -0.000266 0.000000 0.000000 0.000000
# 3 -0.002326 -0.000266 0.007454 0.000000 0.000000 0.000000
# 4 0.000000 0.000000 0.000000 0.052697 0.000000 0.000000
# 5 0.000000 0.000000 0.000000 0.000000 0.033887 0.000000
# 6 0.000000 0.000000 0.000000 0.000000 0.000000 0.021781
#
#
# Mechanical properties :
#
#
# Convention : Reuss Voigt Hill
#
# Bulk Modulus (GPa) = 34.71436 42.80108 38.75772
# Shear Modulus (GPa) = 28.40210 35.37841 31.89025
#
# Velocity S-wave (km/s) = 3.37204 3.76346 3.57312
# Velocity P-wave (km/s) = 5.39061 6.00167 5.70433
#
# Compressibility (1/GPa) = 0.02880652
#
# Stress axis : x y z
#
# Youngs Moduli (GPa) = 38.39110 100.60468 134.15649
#
# Poissons Ratio (x) = 0.47542 0.31205
# Poissons Ratio (y) = 0.18142 0.03567
# Poissons Ratio (z) = 0.08930 0.02675
#
# Static dielectric constant tensor:
#      x y z
#    x 2.063130 0.000000 0.000000 
#    y 0.000000 2.108040 0.000000 
#    z 0.000000 0.000000 1.961330 
# 
# From -- ./inp_files/2002.got.cif
#   From: 2010.05.17/outbox.cif.g08.bks.cpg/sg18_2_cif.got.tgz:2002.got - 2010.06.03 22:40:56.
