data_PCOD9311701
_publ_section_title
;
Structure prediction by ZEFSAII (Michael W. Deem and Ramdas Pophale) SiO2 
 PCOD9311701
Probable space group: P 21 21 2
;
_chemical_formula_sum "Si O2"
_cell_formula_units_Z 32
_cell_length_a 11.425866
_cell_length_b 8.584606
_cell_length_c 15.996517
_cell_angle_alpha 90.000000
_cell_angle_beta 90.000000
_cell_angle_gamma 90.000000
_cell_volume 1569.043290
_symmetry_space_group_name_H-M "P 21 21 2"
_symmetry_group_IT_number 18
_symmetry_cell_setting 'orthorhombic'
loop_
_space_group_symop_operation_xyz
x,y,z
-x,-y,z
1/2+x,1/2-y,-z
1/2-x,1/2+y,-z
loop_
_atom_site_type_symbol
_atom_site_label
_atom_site_fract_x
_atom_site_fract_y
_atom_site_fract_z
Si Si1 0.557184 0.830545 0.395624
Si Si2 0.776400 0.253041 0.457380
Si Si3 0.760564 0.932172 0.276827
Si Si4 0.460682 0.667892 0.125380
Si Si5 0.626425 0.069852 0.995642
Si Si6 0.159934 0.220240 0.703856
Si Si7 0.879326 0.931985 0.431898
Si Si8 0.714962 0.791681 0.108818
O O1 0.611675 0.795073 0.486328
O O2 0.664816 0.835626 0.330307
O O3 0.457536 0.726011 0.352672
O O4 0.500000 0.000000 0.398516
O O5 0.756091 0.332215 0.366398
O O6 0.665609 0.289486 0.515188
O O7 0.783926 0.068645 0.444569
O O8 0.876094 0.913031 0.332964
O O9 0.781294 0.867848 0.185824
O O10 0.706603 0.106582 0.271494
O O11 0.500000 0.500000 0.089489
O O12 0.400957 0.790332 0.061904
O O13 0.380303 0.645208 0.208288
O O14 0.586532 0.746601 0.144176
O O15 0.500000 0.000000 0.967020
O O16 0.690971 0.925282 0.040125
O O17 0.711763 0.148141 0.928022
O O18 0.000000 0.000000 0.461610
#
# Coordination Sequence:
#
# PCOD9311701 Si02
#       8
#     4   4   4   4   4   4   4   4
#     4   9  17  31  56  86 115 159 207 253 305 367
#     4  10  21  34  56  86 120 158 207 259 309 361
#     4   9  18  34  61  83 111 162 209 245 308 379
#     4  11  22  36  61  97 124 160 209 264 319 375
#     4  10  23  39  66  98 132 162 210 264 329 388
#     4  10  18  33  56  90 120 156 208 260 306 369
#     4  10  21  38  57  84 121 161 209 254 310 371
#     4  11  20  41  66  90 126 164 208 261 319 388
#
# _framework density 20.394593
#
# number of rings (size 3 to 8) (size 9 to 14) (size 15 to 20)
#    0.000    2.000    2.500    2.250    0.000    1.500 
#    0.000    3.125    2.750    0.000    0.000    0.000 
#    0.000    0.000    0.000    0.000    0.000    0.000 
#
# Total GULP energy -178240.659156 kJ/mol
# GULP energy per Si atom -5570.020599 kJ/mol
# Density = 2.034817 g / cm^3
# Si number density = 20.394593 Si / 1000 Ang^3
#
#
#
# Elastic Constant Matrix: (Units=GPa)
#
#
# Indices 1 2 3 4 5 6 
#
# 1 46.5497 10.5997 27.7795 0.0000 0.0000 0.0000
# 2 10.5997 41.9233 12.7562 0.0000 0.0000 0.0000
# 3 27.7795 12.7562 76.5268 0.0000 0.0000 0.0000
# 4 0.0000 0.0000 0.0000 27.3395 0.0000 0.0000
# 5 0.0000 0.0000 0.0000 0.0000 26.9429 0.0000
# 6 0.0000 0.0000 0.0000 0.0000 0.0000 31.3012
#
#
#
# Elastic Compliance Matrix: (Units=1/GPa)
#
#
# Indices 1 2 3 4 5 6 
#
# 1 0.028113 -0.004217 -0.009502 0.000000 0.000000 0.000000
# 2 -0.004217 0.025760 -0.002763 0.000000 0.000000 0.000000
# 3 -0.009502 -0.002763 0.016977 0.000000 0.000000 0.000000
# 4 0.000000 0.000000 0.000000 0.036577 0.000000 0.000000
# 5 0.000000 0.000000 0.000000 0.000000 0.037116 0.000000
# 6 0.000000 0.000000 0.000000 0.000000 0.000000 0.031948
#
#
# Mechanical properties :
#
#
# Convention : Reuss Voigt Hill
#
# Bulk Modulus (GPa) = 26.39497 29.69674 28.04586
# Shear Modulus (GPa) = 22.51398 24.70769 23.61084
#
# Velocity S-wave (km/s) = 3.32613 3.48441 3.40619
# Velocity P-wave (km/s) = 5.26508 5.54805 5.40842
#
# Compressibility (1/GPa) = 0.03788601
#
# Stress axis : x y z
#
# Youngs Moduli (GPa) = 35.57033 38.81985 58.90209
#
# Poissons Ratio (x) = 0.16369 0.55971
# Poissons Ratio (y) = 0.14999 0.16276
# Poissons Ratio (z) = 0.33800 0.10727
#
# Static dielectric constant tensor:
#      x y z
#    x 1.786300 0.000000 0.000000 
#    y 0.000000 1.751610 0.000000 
#    z 0.000000 0.000000 1.761990 
# 
# From -- ./inp_files/6923.got.cif
#   From: 2010.05.17/outbox.cif.g08.bks.cpg/sg18_4_cif.got.tgz:6923.got - 2010.06.03 22:40:56.
