data_PCOD9311518
_publ_section_title
;
Structure prediction by ZEFSAII (Michael W. Deem and Ramdas Pophale) SiO2 
 PCOD9311518
Probable space group: P 2 2 21
;
_chemical_formula_sum "Si O2"
_cell_formula_units_Z 22
_cell_length_a 5.176135
_cell_length_b 5.794364
_cell_length_c 29.198287
_cell_angle_alpha 90.000000
_cell_angle_beta 90.000000
_cell_angle_gamma 90.000000
_cell_volume 875.727004
_symmetry_space_group_name_H-M "P 2 2 21"
_symmetry_group_IT_number 17
_symmetry_cell_setting 'orthorhombic'
loop_
_space_group_symop_operation_xyz
x,y,z
-x,-y,1/2+z
x,-y,-z
-x,y,1/2-z
loop_
_atom_site_type_symbol
_atom_site_label
_atom_site_fract_x
_atom_site_fract_y
_atom_site_fract_z
Si Si1 0.856950 0.272017 0.798309
Si Si2 0.550803 0.092167 0.424496
Si Si3 0.481413 0.655324 0.831782
Si Si4 0.500000 0.914943 0.750000
Si Si5 0.935608 0.356644 0.046219
Si Si6 0.871297 0.700007 0.385402
O O1 0.729362 0.512395 0.814474
O O2 0.000000 0.308684 0.750000
O O3 0.997638 0.166329 0.843235
O O4 0.653062 0.080650 0.783410
O O5 0.487347 0.160264 0.372028
O O6 0.284848 0.160205 0.449709
O O7 0.780913 0.246226 0.446374
O O8 0.688290 0.843890 0.419602
O O9 0.350829 0.755789 0.786048
O O10 0.303834 0.470928 0.856466
O O11 0.921215 0.550626 0.086229
O O12 0.913201 0.500000 0.000000
#
# Coordination Sequence:
#
# PCOD9311518 Si02
#       6
#     4   4   4   2   4   4
#     4  12  24  42  67 105 145 200 265 319 392 479
#     4  11  25  46  81 110 153 203 255 319 399 465
#     4  11  24  45  65 102 147 200 253 325 382 465
#     4  12  26  40  68 100 148 202 260 322 396 462
#     4  11  26  50  79 118 156 202 259 330 400 479
#     4  11  26  47  76 107 152 205 262 321 396 481
#
# _framework density 25.121986
#
# number of rings (size 3 to 8) (size 9 to 14) (size 15 to 20)
#    0.000    0.727    1.818    5.455    5.091    2.909 
#    0.000    3.636    0.000    0.000    0.000    0.000 
#    0.000    0.000    0.000    0.000    0.000    0.000 
#
# Total GULP energy -123027.207283 kJ/mol
# GULP energy per Si atom -5592.145786 kJ/mol
# Density = 2.506481 g / cm^3
# Si number density = 25.121986 Si / 1000 Ang^3
#
#
#
# Elastic Constant Matrix: (Units=GPa)
#
#
# Indices 1 2 3 4 5 6 
#
# 1 102.9820 10.9483 24.0360 0.0000 0.0000 0.0000
# 2 10.9483 51.3517 -0.9667 0.0000 0.0000 0.0000
# 3 24.0360 -0.9667 98.3050 0.0000 0.0000 0.0000
# 4 0.0000 0.0000 0.0000 4.6877 0.0000 0.0000
# 5 0.0000 0.0000 0.0000 0.0000 26.1831 0.0000
# 6 0.0000 0.0000 0.0000 0.0000 0.0000 -115.4170
#
#
#
# Elastic Compliance Matrix: (Units=1/GPa)
#
#
# Indices 1 2 3 4 5 6 
#
# 1 0.010563 -0.002301 -0.002605 0.000000 0.000000 0.000000
# 2 -0.002301 0.019978 0.000759 0.000000 0.000000 0.000000
# 3 -0.002605 0.000759 0.010817 0.000000 0.000000 0.000000
# 4 0.000000 0.000000 0.000000 0.213322 0.000000 0.000000
# 5 0.000000 0.000000 0.000000 0.000000 0.038193 0.000000
# 6 0.000000 0.000000 0.000000 0.000000 0.000000 -0.008664
#
#
# Mechanical properties :
#
#
# Convention : Reuss Voigt Hill
#
# Bulk Modulus (GPa) = 30.24464 35.63044 32.93754
# Shear Modulus (GPa) = 16.47311 -2.33448 7.06931
#
# Velocity S-wave (km/s) = 2.56349 -0.96503 1.67932
# Velocity P-wave (km/s) = 4.56369 3.60167 4.11092
#
# Compressibility (1/GPa) = 0.03306371
#
# Stress axis : x y z
#
# Youngs Moduli (GPa) = 94.66856 50.05397 92.44782
#
# Poissons Ratio (x) = 0.11518 0.24086
# Poissons Ratio (y) = 0.21785 -0.07018
# Poissons Ratio (z) = 0.24665 -0.03800
#
# Static dielectric constant tensor:
#      x y z
#    x 2.048770 0.000000 0.000000 
#    y 0.000000 2.070620 0.000000 
#    z 0.000000 0.000000 2.077970 
# 
# From -- ./inp_files/11087.got.cif
#   From: 2010.05.17/outbox.cif.g08.bks.cpg/sg17_6_cif.got.tgz:11087.got - 2010.06.03 22:34:06.
