data_PCOD9311490
_publ_section_title
;
Structure prediction by ZEFSAII (Michael W. Deem and Ramdas Pophale) SiO2 
 PCOD9311490
Probable space group: P 2 2 21
;
_chemical_formula_sum "Si O2"
_cell_formula_units_Z 16
_cell_length_a 5.154082
_cell_length_b 5.150505
_cell_length_c 26.359785
_cell_angle_alpha 90.000000
_cell_angle_beta 90.000000
_cell_angle_gamma 90.000000
_cell_volume 699.750151
_symmetry_space_group_name_H-M "P 2 2 21"
_symmetry_group_IT_number 17
_symmetry_cell_setting 'orthorhombic'
loop_
_space_group_symop_operation_xyz
x,y,z
-x,-y,1/2+z
x,-y,-z
-x,y,1/2-z
loop_
_atom_site_type_symbol
_atom_site_label
_atom_site_fract_x
_atom_site_fract_y
_atom_site_fract_z
Si Si1 0.668289 0.080811 0.390584
Si Si2 0.525421 0.713241 0.307361
Si Si3 0.199905 0.422152 0.942869
Si Si4 0.956910 0.559736 0.847466
O O1 0.496424 0.944809 0.347935
O O2 0.698578 0.866407 0.434189
O O3 0.614218 0.355780 0.417655
O O4 0.934012 0.153305 0.359804
O O5 0.500000 0.805098 0.250000
O O6 0.804597 0.582438 0.318403
O O7 0.304056 0.500263 0.318439
O O8 0.956373 0.440055 0.904463
O O9 0.146043 0.500000 0.000000
#
# Coordination Sequence:
#
# PCOD9311490 Si02
#       4
#     4   4   4   4
#     4   9  21  40  67 101 141 172 238 285 343 429
#     4  11  22  44  68 100 140 191 232 297 355 418
#     4   9  18  40  71 100 138 183 227 292 358 416
#     4   9  23  39  67 100 139 175 239 285 346 428
#
# _framework density 22.865300999999999
#
# number of rings (size 3 to 8) (size 9 to 14) (size 15 to 20)
#    1.500    1.000    0.000    1.500    0.000    5.000 
#    0.000   10.000    0.000    0.000    0.000    0.000 
#    0.000    0.000    0.000    0.000    0.000    0.000 
#
# Total GULP energy -89086.542035 kJ/mol
# GULP energy per Si atom -5567.908877 kJ/mol
# Density = 2.281326 g / cm^3
# Si number density = 22.865301 Si / 1000 Ang^3
#
#
#
# Elastic Constant Matrix: (Units=GPa)
#
#
# Indices 1 2 3 4 5 6 
#
# 1 100.6542 19.2951 9.2807 0.0000 0.0000 0.0000
# 2 19.2951 113.2492 -20.8533 0.0000 0.0000 0.0000
# 3 9.2807 -20.8533 92.4837 0.0000 0.0000 0.0000
# 4 0.0000 0.0000 0.0000 10.4384 0.0000 0.0000
# 5 0.0000 0.0000 0.0000 0.0000 9.9011 0.0000
# 6 0.0000 0.0000 0.0000 0.0000 0.0000 21.0988
#
#
#
# Elastic Compliance Matrix: (Units=1/GPa)
#
#
# Indices 1 2 3 4 5 6 
#
# 1 0.010470 -0.002063 -0.001516 0.000000 0.000000 0.000000
# 2 -0.002063 0.009619 0.002376 0.000000 0.000000 0.000000
# 3 -0.001516 0.002376 0.011501 0.000000 0.000000 0.000000
# 4 0.000000 0.000000 0.000000 0.095800 0.000000 0.000000
# 5 0.000000 0.000000 0.000000 0.000000 0.100999 0.000000
# 6 0.000000 0.000000 0.000000 0.000000 0.000000 0.047396
#
#
# Mechanical properties :
#
#
# Convention : Reuss Voigt Hill
#
# Bulk Modulus (GPa) = 34.26535 35.75914 35.01224
# Shear Modulus (GPa) = 17.36601 28.19864 22.78232
#
# Velocity S-wave (km/s) = 2.75888 3.51558 3.15996
# Velocity P-wave (km/s) = 5.01665 5.67028 5.35345
#
# Compressibility (1/GPa) = 0.02918400
#
# Stress axis : x y z
#
# Youngs Moduli (GPa) = 95.50873 103.96019 86.95228
#
# Poissons Ratio (x) = 0.21447 0.13181
# Poissons Ratio (y) = 0.19704 -0.20659
# Poissons Ratio (z) = 0.14478 -0.24700
#
# Static dielectric constant tensor:
#      x y z
#    x 1.909180 0.000000 0.000000 
#    y 0.000000 1.911910 0.000000 
#    z 0.000000 0.000000 1.837560 
# 
# From -- ./inp_files/10314.got.cif
#   From: 2010.05.17/outbox.cif.g08.bks.cpg/sg17_6_cif.got.tgz:10314.got - 2010.06.03 22:34:06.
