data_PCOD9311535
_publ_section_title
;
Structure prediction by ZEFSAII (Michael W. Deem and Ramdas Pophale) SiO2 
 PCOD9311535
Probable space group: P 2 2 21
;
_chemical_formula_sum "Si O2"
_cell_formula_units_Z 20
_cell_length_a 8.279644
_cell_length_b 5.246417
_cell_length_c 16.927061
_cell_angle_alpha 90.000000
_cell_angle_beta 90.000000
_cell_angle_gamma 90.000000
_cell_volume 735.285547
_symmetry_space_group_name_H-M "P 2 2 21"
_symmetry_group_IT_number 17
_symmetry_cell_setting 'orthorhombic'
loop_
_space_group_symop_operation_xyz
x,y,z
-x,-y,1/2+z
x,-y,-z
-x,y,1/2-z
loop_
_atom_site_type_symbol
_atom_site_label
_atom_site_fract_x
_atom_site_fract_y
_atom_site_fract_z
Si Si1 0.229665 0.262219 0.811975
Si Si2 0.430267 0.689614 0.904792
Si Si3 0.866702 0.715240 0.140088
Si Si4 0.017034 0.500000 0.500000
Si Si5 0.500000 0.117940 0.250000
Si Si6 0.192806 0.000000 0.000000
Si Si7 0.670139 0.000000 0.000000
O O1 0.317734 0.449128 0.876901
O O2 0.196422 0.382834 0.724509
O O3 0.352448 0.050568 0.779343
O O4 0.048531 0.183526 0.839090
O O5 0.303890 0.915695 0.926753
O O6 0.554672 0.759559 0.975771
O O7 0.535371 0.720936 0.826876
O O8 0.887414 0.478384 0.080852
O O9 0.766497 0.902858 0.079312
O O10 0.913647 0.248292 0.507418
#
# Coordination Sequence:
#
# PCOD9311535 Si02
#       7
#     4   4   4   2   2   2   2
#     4  11  25  51  81 121 170 228 287 370 454 541
#     4  11  25  48  82 118 168 228 296 362 450 548
#     4  11  25  49  83 122 174 223 295 374 455 535
#     4  12  24  48  80 122 172 220 300 360 450 524
#     4  12  24  46  78 118 164 226 282 362 430 560
#     4  11  25  48  80 120 164 238 282 371 423 556
#     4  11  25  54  86 126 166 238 300 377 445 558
#
# _framework density 27.200315
#
# number of rings (size 3 to 8) (size 9 to 14) (size 15 to 20)
#    0.000    0.800    4.000    2.400    0.000    3.200 
#    3.600    2.000    4.400    0.000    0.000    0.000 
#    0.000    0.000    0.000    0.000    0.000    0.000 
#
# Total GULP energy -111389.878137 kJ/mol
# GULP energy per Si atom -5569.493907 kJ/mol
# Density = 2.713841 g / cm^3
# Si number density = 27.200315 Si / 1000 Ang^3
#
#
#
# Elastic Constant Matrix: (Units=GPa)
#
#
# Indices 1 2 3 4 5 6 
#
# 1 132.8964 41.6714 20.3961 0.0000 0.0000 0.0000
# 2 41.6714 115.9599 4.1368 0.0000 0.0000 0.0000
# 3 20.3961 4.1368 144.7597 0.0000 0.0000 0.0000
# 4 0.0000 0.0000 0.0000 29.6812 0.0000 0.0000
# 5 0.0000 0.0000 0.0000 0.0000 53.9756 0.0000
# 6 0.0000 0.0000 0.0000 0.0000 0.0000 13.4478
#
#
#
# Elastic Compliance Matrix: (Units=1/GPa)
#
#
# Indices 1 2 3 4 5 6 
#
# 1 0.008662 -0.003072 -0.001133 0.000000 0.000000 0.000000
# 2 -0.003072 0.009722 0.000155 0.000000 0.000000 0.000000
# 3 -0.001133 0.000155 0.007063 0.000000 0.000000 0.000000
# 4 0.000000 0.000000 0.000000 0.033691 0.000000 0.000000
# 5 0.000000 0.000000 0.000000 0.000000 0.018527 0.000000
# 6 0.000000 0.000000 0.000000 0.000000 0.000000 0.074361
#
#
# Mechanical properties :
#
#
# Convention : Reuss Voigt Hill
#
# Bulk Modulus (GPa) = 57.64550 58.44720 58.04635
# Shear Modulus (GPa) = 30.13699 41.24838 35.69268
#
# Velocity S-wave (km/s) = 3.33222 3.89841 3.62638
# Velocity P-wave (km/s) = 6.00366 6.46512 6.23866
#
# Compressibility (1/GPa) = 0.01734741
#
# Stress axis : x y z
#
# Youngs Moduli (GPa) = 115.44873 102.85730 141.57987
#
# Poissons Ratio (x) = 0.31601 0.16036
# Poissons Ratio (y) = 0.35470 -0.02195
# Poissons Ratio (z) = 0.13076 -0.01595
#
# Static dielectric constant tensor:
#      x y z
#    x 2.275220 0.000000 0.000000 
#    y 0.000000 2.060570 0.000000 
#    z 0.000000 0.000000 2.527320 
# 
# From -- ./inp_files/9306.got.cif
#   From: 2010.05.17/outbox.cif.g08.bks.cpg/sg17_5_cif.got.tgz:9306.got - 2010.06.03 22:34:06.
