data_PCOD9311291
_publ_section_title
;
Structure prediction by ZEFSAII (Michael W. Deem and Ramdas Pophale) SiO2 
 PCOD9311291
Probable space group: P 2 2 21
;
_chemical_formula_sum "Si O2"
_cell_formula_units_Z 30
_cell_length_a 5.584429
_cell_length_b 19.025852
_cell_length_c 11.379433
_cell_angle_alpha 90.000000
_cell_angle_beta 90.000000
_cell_angle_gamma 90.000000
_cell_volume 1209.047911
_symmetry_space_group_name_H-M "P 2 2 21"
_symmetry_group_IT_number 17
_symmetry_cell_setting 'orthorhombic'
loop_
_space_group_symop_operation_xyz
x,y,z
-x,-y,1/2+z
x,-y,-z
-x,y,1/2-z
loop_
_atom_site_type_symbol
_atom_site_label
_atom_site_fract_x
_atom_site_fract_y
_atom_site_fract_z
Si Si1 0.246473 0.454799 0.183219
Si Si2 0.216806 0.318767 0.453919
Si Si3 0.862990 0.198870 0.416942
Si Si4 0.571802 0.743262 0.376450
Si Si5 0.571373 0.043608 0.624361
Si Si6 0.842228 0.601204 0.435684
Si Si7 0.078924 0.078526 0.550038
Si Si8 0.500000 0.748171 0.750000
O O1 0.500000 0.453165 0.250000
O O2 0.288757 0.416089 0.058588
O O3 0.000000 0.428118 0.250000
O O4 0.186391 0.535202 0.148313
O O5 0.325244 0.277975 0.563348
O O6 0.401333 0.303842 0.349882
O O7 0.992782 0.273719 0.409529
O O8 0.112201 0.388610 0.513301
O O9 0.702685 0.205915 0.533525
O O10 0.029587 0.133314 0.444522
O O11 0.697975 0.200121 0.303728
O O12 0.500000 0.769320 0.250000
O O13 0.734395 0.671430 0.376483
O O14 0.500000 0.007389 0.750000
O O15 0.840381 0.074774 0.630957
O O16 0.338241 0.093307 0.605962
O O17 0.584705 0.000000 0.500000
O O18 0.099350 0.000000 0.500000
#
# Coordination Sequence:
#
# PCOD9311291 Si02
#       8
#     4   4   4   4   4   4   4   2
#     4  11  27  45  71 104 144 191 235 295 356 426
#     4  10  23  43  68 102 137 185 242 301 373 428
#     4  10  23  43  66 102 139 190 234 312 370 444
#     4  10  23  42  69 100 135 185 242 297 366 433
#     4  10  22  44  69 102 141 187 243 300 364 441
#     4  10  25  43  68 101 141 185 242 292 360 433
#     4  10  23  44  70 104 144 191 244 301 374 449
#     4  10  22  44  70 102 144 180 248 310 372 442
#
# _framework density 24.812912000000001
#
# number of rings (size 3 to 8) (size 9 to 14) (size 15 to 20)
#    0.000    1.867    0.000    1.200    9.333    6.400 
#   12.000    2.667    0.000    0.000    0.000    0.000 
#    0.000    0.000    0.000    0.000    0.000    0.000 
#
# Total GULP energy -167430.187188 kJ/mol
# GULP energy per Si atom -5581.006240 kJ/mol
# Density = 2.475644 g / cm^3
# Si number density = 24.812912 Si / 1000 Ang^3
#
#
#
# Elastic Constant Matrix: (Units=GPa)
#
#
# Indices 1 2 3 4 5 6 
#
# 1 133.7177 0.3454 31.9912 0.0000 0.0000 0.0000
# 2 0.3454 74.2184 5.3920 0.0000 0.0000 0.0000
# 3 31.9912 5.3920 115.8388 0.0000 0.0000 0.0000
# 4 0.0000 0.0000 0.0000 8.2661 0.0000 0.0000
# 5 0.0000 0.0000 0.0000 0.0000 31.3953 0.0000
# 6 0.0000 0.0000 0.0000 0.0000 0.0000 27.7438
#
#
#
# Elastic Compliance Matrix: (Units=1/GPa)
#
#
# Indices 1 2 3 4 5 6 
#
# 1 0.008009 0.000124 -0.002218 0.000000 0.000000 0.000000
# 2 0.000124 0.013521 -0.000664 0.000000 0.000000 0.000000
# 3 -0.002218 -0.000664 0.009276 0.000000 0.000000 0.000000
# 4 0.000000 0.000000 0.000000 0.120976 0.000000 0.000000
# 5 0.000000 0.000000 0.000000 0.000000 0.031852 0.000000
# 6 0.000000 0.000000 0.000000 0.000000 0.000000 0.036044
#
#
# Mechanical properties :
#
#
# Convention : Reuss Voigt Hill
#
# Bulk Modulus (GPa) = 39.53900 44.35912 41.94906
# Shear Modulus (GPa) = 21.40200 32.55078 26.97639
#
# Velocity S-wave (km/s) = 2.94008 3.62587 3.30084
# Velocity P-wave (km/s) = 5.24356 5.95361 5.60983
#
# Compressibility (1/GPa) = 0.02529149
#
# Stress axis : x y z
#
# Youngs Moduli (GPa) = 124.86504 73.95689 107.80529
#
# Poissons Ratio (x) = -0.00916 0.23906
# Poissons Ratio (y) = -0.01546 0.07154
# Poissons Ratio (z) = 0.27689 0.04908
#
# Static dielectric constant tensor:
#      x y z
#    x 2.234690 0.000000 0.000000 
#    y 0.000000 2.028990 0.000000 
#    z 0.000000 0.000000 2.010850 
# 
# From -- ./inp_files/6088.got.cif
#   From: 2010.05.17/outbox.cif.g08.bks.cpg/sg17_4_cif.got.tgz:6088.got - 2010.06.03 22:34:06.
