data_PCOD9311280
_publ_section_title
;
Structure prediction by ZEFSAII (Michael W. Deem and Ramdas Pophale) SiO2 
 PCOD9311280
Probable space group: P 2 2 21
;
_chemical_formula_sum "Si O2"
_cell_formula_units_Z 28
_cell_length_a 10.010045
_cell_length_b 8.997041
_cell_length_c 14.136406
_cell_angle_alpha 90.000000
_cell_angle_beta 90.000000
_cell_angle_gamma 90.000000
_cell_volume 1273.135825
_symmetry_space_group_name_H-M "P 2 2 21"
_symmetry_group_IT_number 17
_symmetry_cell_setting 'orthorhombic'
loop_
_space_group_symop_operation_xyz
x,y,z
-x,-y,1/2+z
x,-y,-z
-x,y,1/2-z
loop_
_atom_site_type_symbol
_atom_site_label
_atom_site_fract_x
_atom_site_fract_y
_atom_site_fract_z
Si Si1 0.711734 0.635043 0.564746
Si Si2 0.499324 0.825554 0.499935
Si Si3 0.942704 0.832956 0.543560
Si Si4 0.854904 0.970439 0.733152
Si Si5 0.659057 0.481582 0.238606
Si Si6 0.229216 0.755322 0.596430
Si Si7 0.376420 0.192882 0.801288
O O1 0.663997 0.500000 0.500000
O O2 0.592880 0.752211 0.578348
O O3 0.830661 0.718564 0.509059
O O4 0.738622 0.569420 0.667810
O O5 0.560117 0.765294 0.402064
O O6 0.520519 0.000000 0.500000
O O7 0.346760 0.206784 0.476495
O O8 0.087495 0.758055 0.543238
O O9 0.944527 0.000000 0.500000
O O10 0.894219 0.854428 0.651832
O O11 0.748463 0.085401 0.693575
O O12 0.000000 0.045325 0.750000
O O13 0.793727 0.885004 0.823829
O O14 0.500000 0.445184 0.250000
O O15 0.724539 0.393831 0.151122
O O16 0.661131 0.660760 0.241321
O O17 0.500000 0.111863 0.750000
#
# Coordination Sequence:
#
# PCOD9311280 Si02
#       7
#     4   4   4   4   4   4   4
#     4  12  23  41  65  97 134 172 226 279 341 414
#     4  12  24  40  69 102 134 176 228 288 344 417
#     4  11  24  43  67  98 139 176 229 285 350 413
#     4  10  22  43  68  98 135 179 228 284 343 417
#     4  11  23  42  67  97 132 176 227 283 341 420
#     4  11  24  45  69  98 133 183 228 285 350 416
#     4  11  24  42  64 101 139 178 228 283 352 417
#
# _framework density 21.992940999999998
#
# number of rings (size 3 to 8) (size 9 to 14) (size 15 to 20)
#    0.000    0.857    4.286    3.429    0.000    1.714 
#    2.571    3.571    0.000    0.000    0.000    0.000 
#    0.000    0.000    0.000    0.000    0.000    0.000 
#
# Total GULP energy -156360.837878 kJ/mol
# GULP energy per Si atom -5584.315638 kJ/mol
# Density = 2.194288 g / cm^3
# Si number density = 21.992941 Si / 1000 Ang^3
#
#
#
# Elastic Constant Matrix: (Units=GPa)
#
#
# Indices 1 2 3 4 5 6 
#
# 1 160.6131 54.1922 11.8752 0.0000 0.0000 0.0000
# 2 54.1922 83.7875 3.1156 0.0000 0.0000 0.0000
# 3 11.8752 3.1156 36.4311 0.0000 0.0000 0.0000
# 4 0.0000 0.0000 0.0000 9.4588 0.0000 0.0000
# 5 0.0000 0.0000 0.0000 0.0000 28.7075 0.0000
# 6 0.0000 0.0000 0.0000 0.0000 0.0000 20.5300
#
#
#
# Elastic Compliance Matrix: (Units=1/GPa)
#
#
# Indices 1 2 3 4 5 6 
#
# 1 0.008138 -0.005181 -0.002209 0.000000 0.000000 0.000000
# 2 -0.005181 0.015272 0.000383 0.000000 0.000000 0.000000
# 3 -0.002209 0.000383 0.028137 0.000000 0.000000 0.000000
# 4 0.000000 0.000000 0.000000 0.105722 0.000000 0.000000
# 5 0.000000 0.000000 0.000000 0.000000 0.034834 0.000000
# 6 0.000000 0.000000 0.000000 0.000000 0.000000 0.048709
#
#
# Mechanical properties :
#
#
# Convention : Reuss Voigt Hill
#
# Bulk Modulus (GPa) = 26.64510 46.57754 36.61132
# Shear Modulus (GPa) = 18.70297 25.84916 22.27606
#
# Velocity S-wave (km/s) = 2.91934 3.43204 3.18602
# Velocity P-wave (km/s) = 4.84819 6.07697 5.49703
#
# Compressibility (1/GPa) = 0.03753035
#
# Stress axis : x y z
#
# Youngs Moduli (GPa) = 122.88545 65.48028 35.54100
#
# Poissons Ratio (x) = 0.33926 0.07853
# Poissons Ratio (y) = 0.63669 -0.01361
# Poissons Ratio (z) = 0.27151 -0.02507
#
# Static dielectric constant tensor:
#      x y z
#    x 1.845680 0.000000 0.000000 
#    y 0.000000 1.791690 0.000000 
#    z 0.000000 0.000000 1.908400 
# 
# From -- ./inp_files/10074.got.cif
#   From: 2010.05.17/outbox.cif.g08.bks.cpg/sg17_6_cif.got.tgz:10074.got - 2010.06.03 22:34:06.
