data_PCOD9311286
_publ_section_title
;
Structure prediction by ZEFSAII (Michael W. Deem and Ramdas Pophale) SiO2 
 PCOD9311286
Probable space group: P 2 2 21
;
_chemical_formula_sum "Si O2"
_cell_formula_units_Z 14
_cell_length_a 6.642031
_cell_length_b 5.274214
_cell_length_c 20.212439
_cell_angle_alpha 90.000000
_cell_angle_beta 90.000000
_cell_angle_gamma 90.000000
_cell_volume 708.071913
_symmetry_space_group_name_H-M "P 2 2 21"
_symmetry_group_IT_number 17
_symmetry_cell_setting 'orthorhombic'
loop_
_space_group_symop_operation_xyz
x,y,z
-x,-y,1/2+z
x,-y,-z
-x,y,1/2-z
loop_
_atom_site_type_symbol
_atom_site_label
_atom_site_fract_x
_atom_site_fract_y
_atom_site_fract_z
Si Si1 0.395003 0.809395 0.447496
Si Si2 0.278467 0.508844 0.885442
Si Si3 0.582828 0.016702 0.676560
Si Si4 0.962509 0.500000 0.000000
O O1 0.525232 0.560077 0.429937
O O2 0.184043 0.725524 0.477095
O O3 0.497569 0.000000 0.500000
O O4 0.401007 0.950373 0.376828
O O5 0.317581 0.747820 0.839199
O O6 0.100197 0.558176 0.936673
O O7 0.267498 0.248565 0.842883
O O8 0.500000 0.037513 0.750000
#
# Coordination Sequence:
#
# PCOD9311286 Si02
#       4
#     4   4   4   2
#     4  10  23  39  66  96 127 167 209 271 320 373
#     4  10  24  40  66  94 123 171 210 263 320 380
#     4  10  22  44  67  87 130 177 213 258 324 384
#     4  12  22  38  66 102 126 160 214 274 314 380
#
# _framework density 19.772003000000002
#
# number of rings (size 3 to 8) (size 9 to 14) (size 15 to 20)
#    1.714    0.000    0.000    5.143    4.000    0.000 
#    0.000    1.429    0.000    0.000    0.000    0.000 
#    0.000    0.000    0.000    0.000    0.000    0.000 
#
# Total GULP energy -77952.340464 kJ/mol
# GULP energy per Si atom -5568.024319 kJ/mol
# Density = 1.972700 g / cm^3
# Si number density = 19.772003 Si / 1000 Ang^3
#
#
#
# Elastic Constant Matrix: (Units=GPa)
#
#
# Indices 1 2 3 4 5 6 
#
# 1 48.6322 16.7943 7.7316 0.0000 0.0000 0.0000
# 2 16.7943 124.8872 35.5748 0.0000 0.0000 0.0000
# 3 7.7316 35.5748 128.7649 0.0000 0.0000 0.0000
# 4 0.0000 0.0000 0.0000 24.6475 0.0000 0.0000
# 5 0.0000 0.0000 0.0000 0.0000 4.0406 0.0000
# 6 0.0000 0.0000 0.0000 0.0000 0.0000 11.8450
#
#
#
# Elastic Compliance Matrix: (Units=1/GPa)
#
#
# Indices 1 2 3 4 5 6 
#
# 1 0.021598 -0.002752 -0.000537 0.000000 0.000000 0.000000
# 2 -0.002752 0.009042 -0.002333 0.000000 0.000000 0.000000
# 3 -0.000537 -0.002333 0.008443 0.000000 0.000000 0.000000
# 4 0.000000 0.000000 0.000000 0.040572 0.000000 0.000000
# 5 0.000000 0.000000 0.000000 0.000000 0.247488 0.000000
# 6 0.000000 0.000000 0.000000 0.000000 0.000000 0.084424
#
#
# Mechanical properties :
#
#
# Convention : Reuss Voigt Hill
#
# Bulk Modulus (GPa) = 35.91880 46.94286 41.43083
# Shear Modulus (GPa) = 11.57170 24.25220 17.91195
#
# Velocity S-wave (km/s) = 2.42183 3.50607 3.01312
# Velocity P-wave (km/s) = 5.10160 6.33906 5.75369
#
# Compressibility (1/GPa) = 0.02784057
#
# Stress axis : x y z
#
# Youngs Moduli (GPa) = 46.30052 110.59793 118.44393
#
# Poissons Ratio (x) = 0.30432 0.06356
# Poissons Ratio (y) = 0.12740 0.27631
# Poissons Ratio (z) = 0.02485 0.25800
#
# Static dielectric constant tensor:
#      x y z
#    x 1.703390 0.000000 0.000000 
#    y 0.000000 1.740790 0.000000 
#    z 0.000000 0.000000 1.685250 
# 
# From -- ./inp_files/9803.got.cif
#   From: 2010.05.17/outbox.cif.g08.bks.cpg/sg17_5_cif.got.tgz:9803.got - 2010.06.03 22:34:06.
