data_PCOD9311053
_publ_section_title
;
Structure prediction by ZEFSAII (Michael W. Deem and Ramdas Pophale) SiO2 
 PCOD9311053
Probable space group: P 2 2 21
;
_chemical_formula_sum "Si O2"
_cell_formula_units_Z 24
_cell_length_a 10.227507
_cell_length_b 6.310186
_cell_length_c 15.841118
_cell_angle_alpha 90.000000
_cell_angle_beta 90.000000
_cell_angle_gamma 90.000000
_cell_volume 1022.345701
_symmetry_space_group_name_H-M "P 2 2 21"
_symmetry_group_IT_number 17
_symmetry_cell_setting 'orthorhombic'
loop_
_space_group_symop_operation_xyz
x,y,z
-x,-y,1/2+z
x,-y,-z
-x,y,1/2-z
loop_
_atom_site_type_symbol
_atom_site_label
_atom_site_fract_x
_atom_site_fract_y
_atom_site_fract_z
Si Si1 0.753839 0.785766 0.329387
Si Si2 0.500000 0.723565 0.250000
Si Si3 0.732088 0.000000 0.000000
Si Si4 0.000000 0.973837 0.750000
Si Si5 0.778807 0.000000 0.500000
Si Si6 0.617180 0.384986 0.912371
Si Si7 0.866001 0.337210 0.118005
Si Si8 0.854674 0.410935 0.414138
O O1 0.637479 0.840973 0.265145
O O2 0.892271 0.883067 0.298307
O O3 0.711760 0.874301 0.422458
O O4 0.779796 0.532019 0.339948
O O5 0.484353 0.596726 0.336823
O O6 0.820364 0.173283 0.046268
O O7 0.645686 0.859528 0.063893
O O8 0.087417 0.813200 0.693882
O O9 0.856191 0.834476 0.559713
O O10 0.747100 0.499455 0.876476
O O11 0.580701 0.500000 0.000000
O O12 0.994415 0.471168 0.095601
O O13 0.796593 0.500000 0.500000
#
# Coordination Sequence:
#
# PCOD9311053 Si02
#       8
#     4   2   2   2   2   4   4   4
#     4  11  27  45  69 105 148 194 252 312 386 453
#     4  12  28  50  72 106 156 206 250 318 372 466
#     4  10  21  45  72 106 138 190 250 312 382 474
#     4  12  26  42  70 110 154 194 250 318 380 456
#     4  10  21  47  70 110 136 190 248 324 382 460
#     4  10  25  47  74 106 146 205 253 310 382 460
#     4  11  23  39  70 106 143 185 241 311 377 450
#     4  10  21  38  70 102 138 181 235 307 381 444
#
# _framework density 23.475424
#
# number of rings (size 3 to 8) (size 9 to 14) (size 15 to 20)
#    0.000    1.333    1.667    3.000    9.333    2.667 
#    0.000   11.667    0.000    0.000    0.000    0.000 
#    0.000    0.000    0.000    0.000    0.000    0.000 
#
# Total GULP energy -133715.274536 kJ/mol
# GULP energy per Si atom -5571.469772 kJ/mol
# Density = 2.342199 g / cm^3
# Si number density = 23.475424 Si / 1000 Ang^3
#
#
#
# Elastic Constant Matrix: (Units=GPa)
#
#
# Indices 1 2 3 4 5 6 
#
# 1 100.9657 38.7173 47.1468 0.0000 0.0000 0.0000
# 2 38.7173 80.7852 35.3768 0.0000 0.0000 0.0000
# 3 47.1468 35.3768 126.8837 0.0000 0.0000 0.0000
# 4 0.0000 0.0000 0.0000 25.1320 0.0000 0.0000
# 5 0.0000 0.0000 0.0000 0.0000 42.7042 0.0000
# 6 0.0000 0.0000 0.0000 0.0000 0.0000 6.1476
#
#
#
# Elastic Compliance Matrix: (Units=1/GPa)
#
#
# Indices 1 2 3 4 5 6 
#
# 1 0.013472 -0.004858 -0.003652 0.000000 0.000000 0.000000
# 2 -0.004858 0.015852 -0.002615 0.000000 0.000000 0.000000
# 3 -0.003652 -0.002615 0.009967 0.000000 0.000000 0.000000
# 4 0.000000 0.000000 0.000000 0.039790 0.000000 0.000000
# 5 0.000000 0.000000 0.000000 0.000000 0.023417 0.000000
# 6 0.000000 0.000000 0.000000 0.000000 0.000000 0.162665
#
#
# Mechanical properties :
#
#
# Convention : Reuss Voigt Hill
#
# Bulk Modulus (GPa) = 58.67466 61.23517 59.95492
# Shear Modulus (GPa) = 17.05950 27.28968 22.17459
#
# Velocity S-wave (km/s) = 2.69866 3.41321 3.07675
# Velocity P-wave (km/s) = 5.89565 6.45560 6.18197
#
# Compressibility (1/GPa) = 0.01704313
#
# Stress axis : x y z
#
# Youngs Moduli (GPa) = 74.22661 63.08519 100.33057
#
# Poissons Ratio (x) = 0.30645 0.36636
# Poissons Ratio (y) = 0.36057 0.26233
# Poissons Ratio (z) = 0.27104 0.16494
#
# Static dielectric constant tensor:
#      x y z
#    x 1.901260 0.000000 0.000000 
#    y 0.000000 2.018020 0.000000 
#    z 0.000000 0.000000 1.967920 
# 
# From -- ./inp_files/9638.got.cif
#   From: 2010.05.17/outbox.cif.g08.bks.cpg/sg17_5_cif.got.tgz:9638.got - 2010.06.03 22:34:06.
