data_PCOD9311853
_publ_section_title
;
Structure prediction by ZEFSAII (Michael W. Deem and Ramdas Pophale) SiO2 
 PCOD9311853
Probable space group: P 21 21 2
;
_chemical_formula_sum "Si O2"
_cell_formula_units_Z 26
_cell_length_a 14.268521
_cell_length_b 12.701220
_cell_length_c 6.301688
_cell_angle_alpha 90.000000
_cell_angle_beta 90.000000
_cell_angle_gamma 90.000000
_cell_volume 1142.039945
_symmetry_space_group_name_H-M "P 21 21 2"
_symmetry_group_IT_number 18
_symmetry_cell_setting 'orthorhombic'
loop_
_space_group_symop_operation_xyz
x,y,z
-x,-y,z
1/2+x,1/2-y,-z
1/2-x,1/2+y,-z
loop_
_atom_site_type_symbol
_atom_site_label
_atom_site_fract_x
_atom_site_fract_y
_atom_site_fract_z
Si Si1 0.651364 0.931123 0.277294
Si Si2 0.000000 0.500000 0.424334
Si Si3 0.696969 0.359565 0.404713
Si Si4 0.692308 0.202500 0.038315
Si Si5 0.689023 0.522337 0.023200
Si Si6 0.512734 0.830917 0.937518
Si Si7 0.078077 0.131528 0.205656
O O1 0.712297 0.867224 0.448167
O O2 0.726551 0.992114 0.136047
O O3 0.588149 0.008683 0.420192
O O4 0.585871 0.863829 0.117965
O O5 0.977861 0.401820 0.271833
O O6 0.701820 0.252776 0.269801
O O7 0.602158 0.368302 0.545903
O O8 0.696683 0.457609 0.240839
O O9 0.783715 0.143916 0.952146
O O10 0.592830 0.142638 0.017176
O O11 0.666380 0.302277 0.891699
O O12 0.596784 0.481758 0.900362
O O13 0.505877 0.707652 0.869577
#
# Coordination Sequence:
#
# PCOD9311853 Si02
#       7
#     4   2   4   4   4   4   4
#     4  11  22  33  55  86 121 152 189 232 295 353
#     4  12  22  32  58  84 120 160 182 228 314 352
#     4  10  20  36  54  81 118 162 190 230 297 347
#     4   9  19  33  55  78 120 149 195 239 281 339
#     4  10  19  36  52  83 117 149 196 246 277 342
#     4  10  21  34  49  88 120 150 187 241 285 354
#     4   8  21  32  52  79 115 150 193 231 285 341
#
# _framework density 22.766279999999998
#
# number of rings (size 3 to 8) (size 9 to 14) (size 15 to 20)
#    0.923    1.231    0.000    4.154    4.308    1.231 
#    0.000    0.000    0.000    0.000    0.000   25.846 
#    0.000    0.000    0.000    0.000    0.000    0.000 
#
# Total GULP energy -144893.287802 kJ/mol
# GULP energy per Si atom -5572.818762 kJ/mol
# Density = 2.271446 g / cm^3
# Si number density = 22.766280 Si / 1000 Ang^3
#
#
#
# Elastic Constant Matrix: (Units=GPa)
#
#
# Indices 1 2 3 4 5 6 
#
# 1 74.2314 -0.4881 24.8955 0.0000 0.0000 0.0000
# 2 -0.4881 41.7673 3.4987 0.0000 0.0000 0.0000
# 3 24.8955 3.4987 120.4706 0.0000 0.0000 0.0000
# 4 0.0000 0.0000 0.0000 10.0608 0.0000 0.0000
# 5 0.0000 0.0000 0.0000 0.0000 18.7048 0.0000
# 6 0.0000 0.0000 0.0000 0.0000 0.0000 31.1847
#
#
#
# Elastic Compliance Matrix: (Units=1/GPa)
#
#
# Indices 1 2 3 4 5 6 
#
# 1 0.014482 0.000421 -0.003005 0.000000 0.000000 0.000000
# 2 0.000421 0.024013 -0.000784 0.000000 0.000000 0.000000
# 3 -0.003005 -0.000784 0.008945 0.000000 0.000000 0.000000
# 4 0.000000 0.000000 0.000000 0.099396 0.000000 0.000000
# 5 0.000000 0.000000 0.000000 0.000000 0.053462 0.000000
# 6 0.000000 0.000000 0.000000 0.000000 0.000000 0.032067
#
#
# Mechanical properties :
#
#
# Convention : Reuss Voigt Hill
#
# Bulk Modulus (GPa) = 24.56848 32.47573 28.52211
# Shear Modulus (GPa) = 19.78877 25.89426 22.84152
#
# Velocity S-wave (km/s) = 2.95144 3.37619 3.17093
# Velocity P-wave (km/s) = 4.73600 5.43084 5.09528
#
# Compressibility (1/GPa) = 0.04070256
#
# Stress axis : x y z
#
# Youngs Moduli (GPa) = 69.05148 41.64441 111.79999
#
# Poissons Ratio (x) = -0.01753 0.33595
# Poissons Ratio (y) = -0.02907 0.08769
# Poissons Ratio (z) = 0.20750 0.03267
#
# Static dielectric constant tensor:
#      x y z
#    x 1.891230 0.000000 0.000000 
#    y 0.000000 2.007310 0.000000 
#    z 0.000000 0.000000 1.845260 
# 
# From -- ./inp_files/1833.got.cif
#   From: 2010.05.17/outbox.cif.g08.bks.cpg/sg18_1_cif.got.tgz:1833.got - 2010.06.03 22:40:56.
