data_PCOD9311349
_publ_section_title
;
Structure prediction by ZEFSAII (Michael W. Deem and Ramdas Pophale) SiO2 
 PCOD9311349
Probable space group: P 2 2 21
;
_chemical_formula_sum "Si O2"
_cell_formula_units_Z 18
_cell_length_a 5.995986
_cell_length_b 4.958254
_cell_length_c 23.696553
_cell_angle_alpha 90.000000
_cell_angle_beta 90.000000
_cell_angle_gamma 90.000000
_cell_volume 704.489553
_symmetry_space_group_name_H-M "P 2 2 21"
_symmetry_group_IT_number 17
_symmetry_cell_setting 'orthorhombic'
loop_
_space_group_symop_operation_xyz
x,y,z
-x,-y,1/2+z
x,-y,-z
-x,y,1/2-z
loop_
_atom_site_type_symbol
_atom_site_label
_atom_site_fract_x
_atom_site_fract_y
_atom_site_fract_z
Si Si1 0.879750 0.195498 0.809730
Si Si2 0.857298 0.293412 0.336438
Si Si3 0.493165 0.000000 0.500000
Si Si4 0.212783 0.634282 0.060422
Si Si5 0.500000 0.084236 0.250000
Si Si6 0.201331 0.500000 0.500000
O O1 0.629888 0.100120 0.796434
O O2 0.000000 0.146899 0.750000
O O3 0.022789 0.992339 0.849487
O O4 0.937755 0.503462 0.822491
O O5 0.734433 0.450758 0.386698
O O6 0.681913 0.254449 0.285386
O O7 0.649656 0.905548 0.447998
O O8 0.336623 0.757383 0.520081
O O9 0.274022 0.500000 0.000000
O O10 0.947389 0.623052 0.050683
#
# Coordination Sequence:
#
# PCOD9311349 Si02
#       6
#     4   4   2   4   2   2
#     4  10  23  43  70 101 138 177 233 286 350 424
#     4  11  25  44  71 106 140 186 236 296 360 423
#     4  12  22  46  72  96 142 186 236 280 350 422
#     4  10  26  47  69 104 148 182 240 300 347 434
#     4  10  24  50  74 102 144 188 236 300 360 422
#     4  10  24  42  66  94 136 184 228 290 348 416
#
# _framework density 25.550415000000001
#
# number of rings (size 3 to 8) (size 9 to 14) (size 15 to 20)
#    0.667    0.889    1.111    2.667    3.111    9.778 
#    4.000    4.444    0.000    0.000    0.000    0.000 
#    0.000    0.000    0.000    0.000    0.000    0.000 
#
# Total GULP energy -100453.834847 kJ/mol
# GULP energy per Si atom -5580.768603 kJ/mol
# Density = 2.549226 g / cm^3
# Si number density = 25.550415 Si / 1000 Ang^3
#
#
#
# Elastic Constant Matrix: (Units=GPa)
#
#
# Indices 1 2 3 4 5 6 
#
# 1 97.0981 65.0971 22.7160 0.0000 0.0000 0.0000
# 2 65.0971 142.4707 13.1604 0.0000 0.0000 0.0000
# 3 22.7160 13.1604 73.1022 0.0000 0.0000 0.0000
# 4 0.0000 0.0000 0.0000 27.7881 0.0000 0.0000
# 5 0.0000 0.0000 0.0000 0.0000 23.9107 0.0000
# 6 0.0000 0.0000 0.0000 0.0000 0.0000 42.5734
#
#
#
# Elastic Compliance Matrix: (Units=1/GPa)
#
#
# Indices 1 2 3 4 5 6 
#
# 1 0.015755 -0.006860 -0.003661 0.000000 0.000000 0.000000
# 2 -0.006860 0.010125 0.000309 0.000000 0.000000 0.000000
# 3 -0.003661 0.000309 0.014761 0.000000 0.000000 0.000000
# 4 0.000000 0.000000 0.000000 0.035987 0.000000 0.000000
# 5 0.000000 0.000000 0.000000 0.000000 0.041822 0.000000
# 6 0.000000 0.000000 0.000000 0.000000 0.000000 0.023489
#
#
# Mechanical properties :
#
#
# Convention : Reuss Voigt Hill
#
# Bulk Modulus (GPa) = 49.46297 57.17978 53.32138
# Shear Modulus (GPa) = 29.56799 32.96760 31.26780
#
# Velocity S-wave (km/s) = 3.40552 3.59597 3.50204
# Velocity P-wave (km/s) = 5.90461 6.29834 6.10465
#
# Compressibility (1/GPa) = 0.02021714
#
# Stress axis : x y z
#
# Youngs Moduli (GPa) = 63.47329 98.76474 67.74454
#
# Poissons Ratio (x) = 0.67757 0.24798
# Poissons Ratio (y) = 0.43545 -0.02094
# Poissons Ratio (z) = 0.23235 -0.03052
#
# Static dielectric constant tensor:
#      x y z
#    x 2.137630 0.000000 0.000000 
#    y 0.000000 2.130480 0.000000 
#    z 0.000000 0.000000 2.113700 
# 
# From -- ./inp_files/10730.got.cif
#   From: 2010.05.17/outbox.cif.g08.bks.cpg/sg17_6_cif.got.tgz:10730.got - 2010.06.03 22:34:06.
