data_PCOD9311723
_publ_section_title
;
Structure prediction by ZEFSAII (Michael W. Deem and Ramdas Pophale) SiO2 
 PCOD9311723
Probable space group: P 21 21 2
;
_chemical_formula_sum "Si O2"
_cell_formula_units_Z 30
_cell_length_a 11.998375
_cell_length_b 16.091081
_cell_length_c 7.819262
_cell_angle_alpha 90.000000
_cell_angle_beta 90.000000
_cell_angle_gamma 90.000000
_cell_volume 1509.640080
_symmetry_space_group_name_H-M "P 21 21 2"
_symmetry_group_IT_number 18
_symmetry_cell_setting 'orthorhombic'
loop_
_space_group_symop_operation_xyz
x,y,z
-x,-y,z
1/2+x,1/2-y,-z
1/2-x,1/2+y,-z
loop_
_atom_site_type_symbol
_atom_site_label
_atom_site_fract_x
_atom_site_fract_y
_atom_site_fract_z
Si Si1 0.883286 0.544671 0.744470
Si Si2 0.772963 0.389232 0.922345
Si Si3 0.000000 0.000000 0.282256
Si Si4 0.073278 0.182472 0.215162
Si Si5 0.802866 0.068969 0.517682
Si Si6 0.015889 0.804731 0.583293
Si Si7 0.111307 0.050916 0.783374
Si Si8 0.002960 0.306285 0.915723
O O1 0.813081 0.574395 0.580831
O O2 0.000000 0.500000 0.697342
O O3 0.911968 0.619126 0.874250
O O4 0.809282 0.475729 0.839004
O O5 0.685809 0.406021 0.073390
O O6 0.705348 0.333435 0.787016
O O7 0.885593 0.343943 0.976376
O O8 0.892121 0.020669 0.396767
O O9 0.021550 0.089055 0.194121
O O10 0.029894 0.217439 0.395747
O O11 0.042704 0.241435 0.057598
O O12 0.861383 0.156487 0.557114
O O13 0.807434 0.013718 0.687551
O O14 0.938251 0.879653 0.655590
O O15 0.014367 0.736666 0.730873
O O16 0.000000 0.000000 0.840211
#
# Coordination Sequence:
#
# PCOD9311723 Si02
#       8
#     4   4   2   4   4   4   4   4
#     4  10  23  45  64  88 137 187 223 270 337 413
#     4  11  23  42  67  93 136 180 223 282 334 405
#     4  10  18  34  68 100 122 160 228 272 332 390
#     4  11  22  41  68  96 134 175 221 277 344 394
#     4  10  18  39  69  98 123 168 224 279 326 393
#     4  10  21  41  65  97 132 161 224 282 331 401
#     4  10  19  38  68 100 127 161 226 286 328 394
#     4  11  26  45  59  98 143 176 220 281 338 403
#
# _framework density 19.872285999999999
#
# number of rings (size 3 to 8) (size 9 to 14) (size 15 to 20)
#    0.000    1.600    6.000    0.000    0.933    3.200 
#   14.400    0.667    0.000    0.000    0.000    0.000 
#    0.000    0.000    0.000    0.000    0.000    0.000 
#
# Total GULP energy -167393.120831 kJ/mol
# GULP energy per Si atom -5579.770694 kJ/mol
# Density = 1.982706 g / cm^3
# Si number density = 19.872286 Si / 1000 Ang^3
#
#
#
# Elastic Constant Matrix: (Units=GPa)
#
#
# Indices 1 2 3 4 5 6 
#
# 1 75.3789 30.4295 48.1654 0.0000 0.0000 0.0000
# 2 30.4295 78.0440 39.9389 0.0000 0.0000 0.0000
# 3 48.1654 39.9389 102.3105 0.0000 0.0000 0.0000
# 4 0.0000 0.0000 0.0000 25.7471 0.0000 0.0000
# 5 0.0000 0.0000 0.0000 0.0000 23.5389 0.0000
# 6 0.0000 0.0000 0.0000 0.0000 0.0000 27.3292
#
#
#
# Elastic Compliance Matrix: (Units=1/GPa)
#
#
# Indices 1 2 3 4 5 6 
#
# 1 0.019787 -0.003684 -0.007877 0.000000 0.000000 0.000000
# 2 -0.003684 0.016698 -0.004784 0.000000 0.000000 0.000000
# 3 -0.007877 -0.004784 0.015350 0.000000 0.000000 0.000000
# 4 0.000000 0.000000 0.000000 0.038839 0.000000 0.000000
# 5 0.000000 0.000000 0.000000 0.000000 0.042483 0.000000
# 6 0.000000 0.000000 0.000000 0.000000 0.000000 0.036591
#
#
# Mechanical properties :
#
#
# Convention : Reuss Voigt Hill
#
# Bulk Modulus (GPa) = 52.23375 54.75566 53.49470
# Shear Modulus (GPa) = 23.94415 24.46966 24.20690
#
# Velocity S-wave (km/s) = 3.47493 3.51286 3.49395
# Velocity P-wave (km/s) = 6.51475 6.63831 6.57682
#
# Compressibility (1/GPa) = 0.01914471
#
# Stress axis : x y z
#
# Youngs Moduli (GPa) = 50.53908 59.88790 65.14623
#
# Poissons Ratio (x) = 0.22061 0.51316
# Poissons Ratio (y) = 0.18617 0.31167
# Poissons Ratio (z) = 0.39810 0.28651
#
# Static dielectric constant tensor:
#      x y z
#    x 1.696680 0.000000 0.000000 
#    y 0.000000 1.712160 0.000000 
#    z 0.000000 0.000000 1.734440 
# 
# From -- ./inp_files/3898.got.cif
#   From: 2010.05.17/outbox.cif.g08.bks.cpg/sg18_2_cif.got.tgz:3898.got - 2010.06.03 22:40:56.
