data_PCOD9311301
_publ_section_title
;
Structure prediction by ZEFSAII (Michael W. Deem and Ramdas Pophale) SiO2 
 PCOD9311301
Probable space group: P 2 2 21
;
_chemical_formula_sum "Si O2"
_cell_formula_units_Z 24
_cell_length_a 11.636298
_cell_length_b 7.775271
_cell_length_c 11.207165
_cell_angle_alpha 90.000000
_cell_angle_beta 90.000000
_cell_angle_gamma 90.000000
_cell_volume 1013.972404
_symmetry_space_group_name_H-M "P 2 2 21"
_symmetry_group_IT_number 17
_symmetry_cell_setting 'orthorhombic'
loop_
_space_group_symop_operation_xyz
x,y,z
-x,-y,1/2+z
x,-y,-z
-x,y,1/2-z
loop_
_atom_site_type_symbol
_atom_site_label
_atom_site_fract_x
_atom_site_fract_y
_atom_site_fract_z
Si Si1 0.231076 0.244910 0.200793
Si Si2 0.550902 0.705376 0.121207
Si Si3 0.537256 0.679394 0.626561
Si Si4 0.000000 0.446568 0.250000
Si Si5 0.006710 0.327674 0.956225
Si Si6 0.160548 0.000000 0.000000
Si Si7 0.769408 0.198007 0.026641
O O1 0.328239 0.362684 0.141415
O O2 0.271005 0.213560 0.336742
O O3 0.103819 0.325607 0.206536
O O4 0.225975 0.078964 0.114129
O O5 0.500000 0.768254 0.250000
O O6 0.531630 0.499766 0.125630
O O7 0.483410 0.767927 0.001400
O O8 0.681893 0.737084 0.076137
O O9 0.500000 0.772358 0.750000
O O10 0.950296 0.589565 0.160224
O O11 0.894376 0.283402 0.030823
O O12 0.072194 0.500000 0.000000
O O13 0.083830 0.159443 0.951011
O O14 0.788701 0.000000 0.000000
#
# Coordination Sequence:
#
# PCOD9311301 Si02
#       7
#     4   4   4   2   4   2   4
#     4  12  26  50  79 112 165 214 270 343 404 492
#     4  10  24  44  77 111 148 197 268 324 407 483
#     4  10  22  44  76 110 149 198 263 334 396 478
#     4  12  28  44  82 118 164 222 280 324 420 490
#     4  12  26  47  78 115 164 215 269 331 404 483
#     4  12  28  50  76 122 164 208 282 342 402 484
#     4  12  27  48  76 113 160 213 268 332 413 485
#
# _framework density 23.669284000000001
#
# number of rings (size 3 to 8) (size 9 to 14) (size 15 to 20)
#    0.000    0.667    5.833    0.000    9.333    4.000 
#    4.500    0.000    0.000    0.000    0.000    0.000 
#    0.000    0.000    0.000    0.000    0.000    0.000 
#
# Total GULP energy -133648.225915 kJ/mol
# GULP energy per Si atom -5568.676080 kJ/mol
# Density = 2.361541 g / cm^3
# Si number density = 23.669284 Si / 1000 Ang^3
#
#
#
# Elastic Constant Matrix: (Units=GPa)
#
#
# Indices 1 2 3 4 5 6 
#
# 1 85.4732 24.1375 26.5769 0.0000 0.0000 0.0000
# 2 24.1375 118.3204 24.1375 0.0000 0.0000 0.0000
# 3 26.5769 24.1375 173.6881 0.0000 0.0000 0.0000
# 4 0.0000 0.0000 0.0000 28.6432 0.0000 0.0000
# 5 0.0000 0.0000 0.0000 0.0000 64.4699 0.0000
# 6 0.0000 0.0000 0.0000 0.0000 0.0000 -7.8493
#
#
#
# Elastic Compliance Matrix: (Units=1/GPa)
#
#
# Indices 1 2 3 4 5 6 
#
# 1 0.012858 -0.002287 -0.001650 0.000000 0.000000 0.000000
# 2 -0.002287 0.009105 -0.000915 0.000000 0.000000 0.000000
# 3 -0.001650 -0.000915 0.006137 0.000000 0.000000 0.000000
# 4 0.000000 0.000000 0.000000 0.034912 0.000000 0.000000
# 5 0.000000 0.000000 0.000000 0.000000 0.015511 0.000000
# 6 0.000000 0.000000 0.000000 0.000000 0.000000 -0.127400
#
#
# Mechanical properties :
#
#
# Convention : Reuss Voigt Hill
#
# Bulk Modulus (GPa) = 54.35742 58.57618 56.46680
# Shear Modulus (GPa) = -151.32753 37.22808 -57.04972
#
# Velocity S-wave (km/s) = -8.00456 3.97021 -4.91479
# Velocity P-wave (km/s) = 7.90034 6.76892 2.88072
#
# Compressibility (1/GPa) = 0.01839675
#
# Stress axis : x y z
#
# Youngs Moduli (GPa) = 77.77098 109.83177 162.94343
#
# Poissons Ratio (x) = 0.25114 0.26882
# Poissons Ratio (y) = 0.17783 0.14916
# Poissons Ratio (z) = 0.12830 0.10054
#
# Static dielectric constant tensor:
#      x y z
#    x 1.892690 0.000000 0.000000 
#    y 0.000000 1.026020 0.000000 
#    z 0.000000 0.000000 4.849840 
# 
# From -- ./inp_files/6983.got.cif
#   From: 2010.05.17/outbox.cif.g08.bks.cpg/sg17_4_cif.got.tgz:6983.got - 2010.06.03 22:34:06.
