data_PCOD9311392
_publ_section_title
;
Structure prediction by ZEFSAII (Michael W. Deem and Ramdas Pophale) SiO2 
 PCOD9311392
Probable space group: P 2 2 21
;
_chemical_formula_sum "Si O2"
_cell_formula_units_Z 22
_cell_length_a 31.361315
_cell_length_b 5.324371
_cell_length_c 5.290590
_cell_angle_alpha 90.000000
_cell_angle_beta 90.000000
_cell_angle_gamma 90.000000
_cell_volume 883.418888
_symmetry_space_group_name_H-M "P 2 2 21"
_symmetry_group_IT_number 17
_symmetry_cell_setting 'orthorhombic'
loop_
_space_group_symop_operation_xyz
x,y,z
-x,-y,1/2+z
x,-y,-z
-x,y,1/2-z
loop_
_atom_site_type_symbol
_atom_site_label
_atom_site_fract_x
_atom_site_fract_y
_atom_site_fract_z
Si Si1 0.180635 0.252441 0.170413
Si Si2 0.000000 0.630233 0.750000
Si Si3 0.500000 0.671969 0.250000
Si Si4 0.089535 0.144402 0.250426
Si Si5 0.726183 0.748117 0.673282
Si Si6 0.593022 0.326051 0.748070
Si Si7 0.340377 0.000000 0.500000
O O1 0.135633 0.262880 0.320292
O O2 0.226729 0.260767 0.302855
O O3 0.178872 0.500000 0.000000
O O4 0.183643 0.000000 0.000000
O O5 0.044536 0.744410 0.841584
O O6 0.016672 0.500000 0.500000
O O7 0.499786 0.500000 0.500000
O O8 0.454003 0.803195 0.243059
O O9 0.076241 0.000000 0.500000
O O10 0.102174 0.000000 0.000000
O O11 0.721173 0.500000 0.500000
O O12 0.724464 0.000000 0.500000
O O13 0.689766 0.788752 0.878706
O O14 0.598185 0.500000 0.500000
O O15 0.594323 0.500000 0.000000
O O16 0.629471 0.122012 0.788376
#
# Coordination Sequence:
#
# PCOD9311392 Si02
#       7
#     4   2   2   4   4   4   2
#     4   9  20  43  69 101 139 191 245 305 367 444
#     4  12  24  40  64 100 142 188 238 304 372 444
#     4   8  16  40  68  98 142 192 246 310 374 454
#     4  11  23  41  68  98 140 187 243 301 370 444
#     4  10  25  46  72 104 151 199 255 316 385 458
#     4  10  24  44  72 106 148 197 253 314 385 458
#     4  12  28  40  76 110 148 200 258 318 390 468
#
# _framework density 24.90325
#
# number of rings (size 3 to 8) (size 9 to 14) (size 15 to 20)
#    0.000    1.818    0.000    2.182    6.364    1.455 
#    0.000    5.455    0.000    0.000    0.000    0.000 
#    0.000    0.000    0.000    0.000    0.000    0.000 
#
# Total GULP energy -122786.310414 kJ/mol
# GULP energy per Si atom -5581.195928 kJ/mol
# Density = 2.484657 g / cm^3
# Si number density = 24.903250 Si / 1000 Ang^3
#
#
#
# Elastic Constant Matrix: (Units=GPa)
#
#
# Indices 1 2 3 4 5 6 
#
# 1 232.4549 32.1653 -2.4776 0.0000 0.0000 0.0000
# 2 32.1653 105.8744 24.8571 0.0000 0.0000 0.0000
# 3 -2.4776 24.8571 94.9687 0.0000 0.0000 0.0000
# 4 0.0000 0.0000 0.0000 48.2479 0.0000 0.0000
# 5 0.0000 0.0000 0.0000 0.0000 -37.9263 0.0000
# 6 0.0000 0.0000 0.0000 0.0000 0.0000 -57.9581
#
#
#
# Elastic Compliance Matrix: (Units=1/GPa)
#
#
# Indices 1 2 3 4 5 6 
#
# 1 0.004514 -0.001490 0.000508 0.000000 0.000000 0.000000
# 2 -0.001490 0.010556 -0.002802 0.000000 0.000000 0.000000
# 3 0.000508 -0.002802 0.011276 0.000000 0.000000 0.000000
# 4 0.000000 0.000000 0.000000 0.020726 0.000000 0.000000
# 5 0.000000 0.000000 0.000000 0.000000 -0.026367 0.000000
# 6 0.000000 0.000000 0.000000 0.000000 0.000000 -0.017254
#
#
# Mechanical properties :
#
#
# Convention : Reuss Voigt Hill
#
# Bulk Modulus (GPa) = 53.25674 60.26528 56.76101
# Shear Modulus (GPa) = 289.36955 15.72291 152.54623
#
# Velocity S-wave (km/s) = 10.79119 2.51541 7.83508
# Velocity P-wave (km/s) = 13.29279 5.71740 10.23198
#
# Compressibility (1/GPa) = 0.01877697
#
# Stress axis : x y z
#
# Youngs Moduli (GPa) = 221.55433 94.73499 88.68104
#
# Poissons Ratio (x) = 0.14120 -0.04504
# Poissons Ratio (y) = 0.33022 0.24846
# Poissons Ratio (z) = -0.11252 0.26542
#
# Static dielectric constant tensor:
#      x y z
#    x 1.986730 0.000000 0.000000 
#    y 0.000000 2.082970 0.000000 
#    z 0.000000 0.000000 1.953360 
# 
# From -- ./inp_files/3233.got.cif
#   From: 2010.05.17/outbox.cif.g08.bks.cpg/sg17_2_cif.got.tgz:3233.got - 2010.06.03 22:34:06.
