data_PCOD9311103
_publ_section_title
;
Structure prediction by ZEFSAII (Michael W. Deem and Ramdas Pophale) SiO2 
 PCOD9311103
Probable space group: P 2 2 21
;
_chemical_formula_sum "Si O2"
_cell_formula_units_Z 24
_cell_length_a 10.420737
_cell_length_b 5.252460
_cell_length_c 17.590981
_cell_angle_alpha 90.000000
_cell_angle_beta 90.000000
_cell_angle_gamma 90.000000
_cell_volume 962.833625
_symmetry_space_group_name_H-M "P 2 2 21"
_symmetry_group_IT_number 17
_symmetry_cell_setting 'orthorhombic'
loop_
_space_group_symop_operation_xyz
x,y,z
-x,-y,1/2+z
x,-y,-z
-x,y,1/2-z
loop_
_atom_site_type_symbol
_atom_site_label
_atom_site_fract_x
_atom_site_fract_y
_atom_site_fract_z
Si Si1 0.316607 0.679639 0.928529
Si Si2 0.429942 0.340883 0.817587
Si Si3 0.585679 0.971842 0.916501
Si Si4 0.749304 0.963534 0.216818
Si Si5 0.083897 0.925777 0.860825
Si Si6 0.943700 0.574800 0.165340
O O1 0.317417 0.499896 0.854695
O O2 0.458314 0.801460 0.928338
O O3 0.204085 0.877944 0.915645
O O4 0.298381 0.500000 0.000000
O O5 0.500000 0.489942 0.750000
O O6 0.525231 0.232567 0.881397
O O7 0.365191 0.106607 0.773877
O O8 0.686844 0.882564 0.852805
O O9 0.644560 0.000000 0.000000
O O10 0.857543 0.070879 0.273924
O O11 0.804722 0.703107 0.178757
O O12 0.980807 0.697490 0.869479
O O13 0.020711 0.197536 0.875747
O O14 0.000000 0.563403 0.250000
#
# Coordination Sequence:
#
# PCOD9311103 Si02
#       6
#     4   4   4   4   4   4
#     4  12  24  39  62  95 132 181 222 280 339 409
#     4  10  22  38  61  93 128 170 219 276 333 406
#     4  11  23  43  61  95 138 176 222 276 349 407
#     4  10  22  42  69  99 130 177 225 285 341 412
#     4  11  23  40  67  96 130 173 225 276 331 394
#     4  10  21  41  64  99 130 167 220 284 332 386
#
# _framework density 24.926421999999999
#
# number of rings (size 3 to 8) (size 9 to 14) (size 15 to 20)
#    0.000    1.333    3.333    3.500    2.333    0.000 
#    3.000    1.667    0.000    0.000    0.000    0.000 
#    0.000    0.000    0.000    0.000    0.000    0.000 
#
# Total GULP energy -134215.076674 kJ/mol
# GULP energy per Si atom -5592.294861 kJ/mol
# Density = 2.486969 g / cm^3
# Si number density = 24.926422 Si / 1000 Ang^3
#
#
#
# Elastic Constant Matrix: (Units=GPa)
#
#
# Indices 1 2 3 4 5 6 
#
# 1 94.3203 19.5211 17.5269 0.0000 0.0000 0.0000
# 2 19.5211 98.7912 16.9568 0.0000 0.0000 0.0000
# 3 17.5269 16.9568 112.9512 0.0000 0.0000 0.0000
# 4 0.0000 0.0000 0.0000 22.6392 0.0000 0.0000
# 5 0.0000 0.0000 0.0000 0.0000 8.6988 0.0000
# 6 0.0000 0.0000 0.0000 0.0000 0.0000 -10.6421
#
#
#
# Elastic Compliance Matrix: (Units=1/GPa)
#
#
# Indices 1 2 3 4 5 6 
#
# 1 0.011282 -0.001980 -0.001453 0.000000 0.000000 0.000000
# 2 -0.001980 0.010738 -0.001305 0.000000 0.000000 0.000000
# 3 -0.001453 -0.001305 0.009275 0.000000 0.000000 0.000000
# 4 0.000000 0.000000 0.000000 0.044171 0.000000 0.000000
# 5 0.000000 0.000000 0.000000 0.000000 0.114958 0.000000
# 6 0.000000 0.000000 0.000000 0.000000 0.000000 -0.093967
#
#
# Mechanical properties :
#
#
# Convention : Reuss Voigt Hill
#
# Bulk Modulus (GPa) = 45.83316 46.00803 45.92060
# Shear Modulus (GPa) = 44.16741 20.94304 32.55522
#
# Velocity S-wave (km/s) = 4.21397 2.90176 3.61786
# Velocity P-wave (km/s) = 6.48876 5.45202 5.99285
#
# Compressibility (1/GPa) = 0.02181826
#
# Stress axis : x y z
#
# Youngs Moduli (GPa) = 88.63665 93.13126 107.81920
#
# Poissons Ratio (x) = 0.18439 0.15671
# Poissons Ratio (y) = 0.17549 0.14068
# Poissons Ratio (z) = 0.12883 0.12151
#
# Static dielectric constant tensor:
#      x y z
#    x 2.059350 0.000000 0.000000 
#    y 0.000000 2.082050 0.000000 
#    z 0.000000 0.000000 2.029250 
# 
# From -- ./inp_files/9030.got.cif
#   From: 2010.05.17/outbox.cif.g08.bks.cpg/sg17_5_cif.got.tgz:9030.got - 2010.06.03 22:34:06.
