data_PCOD9311356
_publ_section_title
;
Structure prediction by ZEFSAII (Michael W. Deem and Ramdas Pophale) SiO2 
 PCOD9311356
Probable space group: P 2 2 21
;
_chemical_formula_sum "Si O2"
_cell_formula_units_Z 14
_cell_length_a 12.364091
_cell_length_b 10.508229
_cell_length_c 5.132266
_cell_angle_alpha 90.000000
_cell_angle_beta 90.000000
_cell_angle_gamma 90.000000
_cell_volume 666.808118
_symmetry_space_group_name_H-M "P 2 2 21"
_symmetry_group_IT_number 17
_symmetry_cell_setting 'orthorhombic'
loop_
_space_group_symop_operation_xyz
x,y,z
-x,-y,1/2+z
x,-y,-z
-x,y,1/2-z
loop_
_atom_site_type_symbol
_atom_site_label
_atom_site_fract_x
_atom_site_fract_y
_atom_site_fract_z
Si Si1 0.218513 0.642892 0.514487
Si Si2 0.695563 0.239193 0.530284
Si Si3 0.122125 0.885220 0.324264
Si Si4 0.500000 0.923152 0.250000
O O1 0.175923 0.500000 0.500000
O O2 0.292524 0.658157 0.259733
O O3 0.127239 0.751383 0.480716
O O4 0.288486 0.689295 0.759970
O O5 0.798219 0.145622 0.584173
O O6 0.589781 0.159350 0.598578
O O7 0.000000 0.914304 0.250000
O O8 0.165394 0.000000 0.500000
O O9 0.450532 0.000000 0.500000
#
# Coordination Sequence:
#
# PCOD9311356 Si02
#       4
#     4   4   4   2
#     4  10  23  45  66  95 136 182 225 281 339 416
#     4  10  24  41  66  98 132 175 228 280 334 416
#     4  10  25  39  66 100 135 178 222 288 344 403
#     4  12  24  40  70 102 140 180 226 286 356 410
#
# _framework density 20.995546999999998
#
# number of rings (size 3 to 8) (size 9 to 14) (size 15 to 20)
#    1.714    0.000    0.000    3.429    8.000    0.000 
#    5.143    2.857    0.000    0.000    0.000    0.000 
#    0.000    0.000    0.000    0.000    0.000    0.000 
#
# Total GULP energy -77960.129868 kJ/mol
# GULP energy per Si atom -5568.580705 kJ/mol
# Density = 2.094776 g / cm^3
# Si number density = 20.995547 Si / 1000 Ang^3
#
#
#
# Elastic Constant Matrix: (Units=GPa)
#
#
# Indices 1 2 3 4 5 6 
#
# 1 52.6738 -11.4506 -17.7910 0.0000 0.0000 0.0000
# 2 -11.4506 121.7662 4.8222 0.0000 0.0000 0.0000
# 3 -17.7910 4.8222 85.5412 0.0000 0.0000 0.0000
# 4 0.0000 0.0000 0.0000 4.9051 0.0000 0.0000
# 5 0.0000 0.0000 0.0000 0.0000 7.1763 0.0000
# 6 0.0000 0.0000 0.0000 0.0000 0.0000 11.8202
#
#
#
# Elastic Compliance Matrix: (Units=1/GPa)
#
#
# Indices 1 2 3 4 5 6 
#
# 1 0.020801 0.001789 0.004225 0.000000 0.000000 0.000000
# 2 0.001789 0.008385 -0.000101 0.000000 0.000000 0.000000
# 3 0.004225 -0.000101 0.012575 0.000000 0.000000 0.000000
# 4 0.000000 0.000000 0.000000 0.203871 0.000000 0.000000
# 5 0.000000 0.000000 0.000000 0.000000 0.139348 0.000000
# 6 0.000000 0.000000 0.000000 0.000000 0.000000 0.084601
#
#
# Mechanical properties :
#
#
# Convention : Reuss Voigt Hill
#
# Bulk Modulus (GPa) = 18.66128 23.46029 21.06078
# Shear Modulus (GPa) = 10.51270 23.74035 17.12653
#
# Velocity S-wave (km/s) = 2.24008 3.36629 2.85918
# Velocity P-wave (km/s) = 3.94945 5.12907 4.57742
#
# Compressibility (1/GPa) = 0.05358691
#
# Stress axis : x y z
#
# Youngs Moduli (GPa) = 48.07521 119.26557 79.52458
#
# Poissons Ratio (x) = -0.21333 -0.33602
# Poissons Ratio (y) = -0.08599 0.00800
# Poissons Ratio (z) = -0.20313 0.01200
#
# Static dielectric constant tensor:
#      x y z
#    x 1.774770 0.000000 0.000000 
#    y 0.000000 1.796410 0.000000 
#    z 0.000000 0.000000 1.804830 
# 
# From -- ./inp_files/1923.got.cif
#   From: 2010.05.17/outbox.cif.g08.bks.cpg/sg17_1_cif.got.tgz:1923.got - 2010.06.03 22:34:06.
