data_PCOD9311352
_publ_section_title
;
Structure prediction by ZEFSAII (Michael W. Deem and Ramdas Pophale) SiO2 
 PCOD9311352
Probable space group: P 2 2 21
;
_chemical_formula_sum "Si O2"
_cell_formula_units_Z 14
_cell_length_a 9.944395
_cell_length_b 9.383246
_cell_length_c 7.195551
_cell_angle_alpha 90.000000
_cell_angle_beta 90.000000
_cell_angle_gamma 90.000000
_cell_volume 671.421934
_symmetry_space_group_name_H-M "P 2 2 21"
_symmetry_group_IT_number 17
_symmetry_cell_setting 'orthorhombic'
loop_
_space_group_symop_operation_xyz
x,y,z
-x,-y,1/2+z
x,-y,-z
-x,y,1/2-z
loop_
_atom_site_type_symbol
_atom_site_label
_atom_site_fract_x
_atom_site_fract_y
_atom_site_fract_z
Si Si1 0.197588 0.167652 0.485587
Si Si2 0.292026 0.622420 0.223378
Si Si3 0.000000 0.307679 0.750000
Si Si4 0.642247 0.694201 0.690413
O O1 0.299710 0.259077 0.616679
O O2 0.054897 0.213350 0.577335
O O3 0.233697 0.221069 0.280559
O O4 0.214500 0.000000 0.500000
O O5 0.350331 0.468267 0.267118
O O6 0.130731 0.602416 0.197726
O O7 0.348194 0.679952 0.030397
O O8 0.500000 0.758972 0.750000
#
# Coordination Sequence:
#
# PCOD9311352 Si02
#       4
#     4   4   2   4
#     4  10  23  44  63  97 129 169 207 262 325 380
#     4   9  23  40  65  98 121 165 217 257 321 369
#     4   8  22  40  60 100 120 160 204 268 310 380
#     4  11  24  40  67  96 128 172 209 271 309 369
#
# _framework density 20.85127
#
# number of rings (size 3 to 8) (size 9 to 14) (size 15 to 20)
#    1.714    0.571    0.000    0.857    8.000    9.143 
#    5.143    0.000    0.000    0.000    0.000    0.000 
#    0.000    0.000    0.000    0.000    0.000    0.000 
#
# Total GULP energy -77991.199770 kJ/mol
# GULP energy per Si atom -5570.799984 kJ/mol
# Density = 2.080381 g / cm^3
# Si number density = 20.851270 Si / 1000 Ang^3
#
#
#
# Elastic Constant Matrix: (Units=GPa)
#
#
# Indices 1 2 3 4 5 6 
#
# 1 84.5683 -0.6045 2.9404 0.0000 0.0000 0.0000
# 2 -0.6045 70.7905 0.0797 0.0000 0.0000 0.0000
# 3 2.9404 0.0797 43.3519 0.0000 0.0000 0.0000
# 4 0.0000 0.0000 0.0000 10.1269 0.0000 0.0000
# 5 0.0000 0.0000 0.0000 0.0000 34.3110 0.0000
# 6 0.0000 0.0000 0.0000 0.0000 0.0000 1.5588
#
#
#
# Elastic Compliance Matrix: (Units=1/GPa)
#
#
# Indices 1 2 3 4 5 6 
#
# 1 0.011853 0.000102 -0.000804 0.000000 0.000000 0.000000
# 2 0.000102 0.014127 -0.000033 0.000000 0.000000 0.000000
# 3 -0.000804 -0.000033 0.023122 0.000000 0.000000 0.000000
# 4 0.000000 0.000000 0.000000 0.098747 0.000000 0.000000
# 5 0.000000 0.000000 0.000000 0.000000 0.029145 0.000000
# 6 0.000000 0.000000 0.000000 0.000000 0.000000 0.641501
#
#
# Mechanical properties :
#
#
# Convention : Reuss Voigt Hill
#
# Bulk Modulus (GPa) = 20.99415 22.61577 21.80496
# Shear Modulus (GPa) = 5.98199 22.28569 14.13384
#
# Velocity S-wave (km/s) = 1.69562 3.27279 2.60636
# Velocity P-wave (km/s) = 3.73147 5.01511 4.42013
#
# Compressibility (1/GPa) = 0.04763231
#
# Stress axis : x y z
#
# Youngs Moduli (GPa) = 84.36365 70.78598 43.24954
#
# Poissons Ratio (x) = -0.00723 0.03478
# Poissons Ratio (y) = -0.00862 0.00142
# Poissons Ratio (z) = 0.06784 0.00233
#
# Static dielectric constant tensor:
#      x y z
#    x 1.786770 0.000000 0.000000 
#    y 0.000000 1.688980 0.000000 
#    z 0.000000 0.000000 1.768960 
# 
# From -- ./inp_files/4490.got.cif
#   From: 2010.05.17/outbox.cif.g08.bks.cpg/sg17_3_cif.got.tgz:4490.got - 2010.06.03 22:34:06.
