data_PCOD9311825
_publ_section_title
;
Structure prediction by ZEFSAII (Michael W. Deem and Ramdas Pophale) SiO2 
 PCOD9311825
Probable space group: P 21 21 2
;
_chemical_formula_sum "Si O2"
_cell_formula_units_Z 30
_cell_length_a 24.979937
_cell_length_b 8.353250
_cell_length_c 5.691463
_cell_angle_alpha 90.000000
_cell_angle_beta 90.000000
_cell_angle_gamma 90.000000
_cell_volume 1187.601493
_symmetry_space_group_name_H-M "P 21 21 2"
_symmetry_group_IT_number 18
_symmetry_cell_setting 'orthorhombic'
loop_
_space_group_symop_operation_xyz
x,y,z
-x,-y,z
1/2+x,1/2-y,-z
1/2-x,1/2+y,-z
loop_
_atom_site_type_symbol
_atom_site_label
_atom_site_fract_x
_atom_site_fract_y
_atom_site_fract_z
Si Si1 0.546838 0.259515 0.666613
Si Si2 0.500000 0.500000 0.304885
Si Si3 0.577695 0.069703 0.270266
Si Si4 0.968740 0.283957 0.956321
Si Si5 0.308978 0.768306 0.227984
Si Si6 0.232967 0.242533 0.271143
Si Si7 0.638181 0.502726 0.753255
Si Si8 0.340039 0.393567 0.250191
O O1 0.534329 0.384428 0.462268
O O2 0.567376 0.096247 0.547647
O O3 0.595029 0.357140 0.790553
O O4 0.488387 0.229793 0.778083
O O5 0.464124 0.392841 0.139944
O O6 0.526044 0.147976 0.143199
O O7 0.631529 0.161936 0.219173
O O8 0.575695 0.894764 0.158573
O O9 0.284628 0.821129 0.479462
O O10 0.313039 0.573818 0.237759
O O11 0.280744 0.818497 0.984872
O O12 0.196360 0.083261 0.264965
O O13 0.296883 0.251494 0.279220
O O14 0.629658 0.592196 0.503002
O O15 0.638042 0.614436 0.982002
#
# Coordination Sequence:
#
# PCOD9311825 Si02
#       8
#     4   2   4   4   4   4   4   4
#     4  11  21  42  67  94 130 179 222 275 340 399
#     4  10  24  40  62  90 130 174 218 278 322 414
#     4  10  21  38  64  98 123 167 229 264 336 392
#     4  10  22  38  65  92 131 170 217 278 328 399
#     4  10  20  37  59  91 119 169 203 268 315 399
#     4  10  19  34  61  85 127 153 212 261 324 378
#     4  10  21  36  66  90 119 171 215 261 322 407
#     4  10  19  35  59  91 118 159 208 265 323 385
#
# _framework density 25.260997
#
# number of rings (size 3 to 8) (size 9 to 14) (size 15 to 20)
#    0.000    1.867    2.667    2.800    1.867    4.267 
#    0.000    0.000   17.600    0.000    0.000    0.000 
#    0.000    0.000    0.000    0.000    0.000    0.000 
#
# Total GULP energy -167265.607605 kJ/mol
# GULP energy per Si atom -5575.520254 kJ/mol
# Density = 2.520350 g / cm^3
# Si number density = 25.260997 Si / 1000 Ang^3
#
#
#
# Elastic Constant Matrix: (Units=GPa)
#
#
# Indices 1 2 3 4 5 6 
#
# 1 31.9249 -0.9531 29.1487 0.0000 0.0000 0.0000
# 2 -0.9531 71.6361 22.8278 0.0000 0.0000 0.0000
# 3 29.1487 22.8278 192.4923 0.0000 0.0000 0.0000
# 4 0.0000 0.0000 0.0000 30.1865 0.0000 0.0000
# 5 0.0000 0.0000 0.0000 0.0000 28.0288 0.0000
# 6 0.0000 0.0000 0.0000 0.0000 0.0000 22.1235
#
#
#
# Elastic Compliance Matrix: (Units=1/GPa)
#
#
# Indices 1 2 3 4 5 6 
#
# 1 0.036726 0.002350 -0.005840 0.000000 0.000000 0.000000
# 2 0.002350 0.014658 -0.002094 0.000000 0.000000 0.000000
# 3 -0.005840 -0.002094 0.006328 0.000000 0.000000 0.000000
# 4 0.000000 0.000000 0.000000 0.033127 0.000000 0.000000
# 5 0.000000 0.000000 0.000000 0.000000 0.035678 0.000000
# 6 0.000000 0.000000 0.000000 0.000000 0.000000 0.045201
#
#
# Mechanical properties :
#
#
# Convention : Reuss Voigt Hill
#
# Bulk Modulus (GPa) = 21.48570 44.23334 32.85952
# Shear Modulus (GPa) = 25.20157 32.40310 28.80234
#
# Velocity S-wave (km/s) = 3.16198 3.58541 3.38033
# Velocity P-wave (km/s) = 4.67491 5.88972 5.31712
#
# Compressibility (1/GPa) = 0.04654258
#
# Stress axis : x y z
#
# Youngs Moduli (GPa) = 27.22882 68.22210 158.03572
#
# Poissons Ratio (x) = -0.16029 0.92292
# Poissons Ratio (y) = -0.06398 0.33094
# Poissons Ratio (z) = 0.15901 0.14286
#
# Static dielectric constant tensor:
#      x y z
#    x 2.080560 0.000000 0.000000 
#    y 0.000000 2.086210 0.000000 
#    z 0.000000 0.000000 2.181400 
# 
# From -- ./inp_files/2292.got.cif
#   From: 2010.05.17/outbox.cif.g08.bks.cpg/sg18_2_cif.got.tgz:2292.got - 2010.06.03 22:40:56.
