data_PCOD9311968
_publ_section_title
;
Structure prediction by ZEFSAII (Michael W. Deem and Ramdas Pophale) SiO2 
 PCOD9311968
Probable space group: P 21 21 2
;
_chemical_formula_sum "Si O2"
_cell_formula_units_Z 24
_cell_length_a 7.933586
_cell_length_b 19.271385
_cell_length_c 5.584607
_cell_angle_alpha 90.000000
_cell_angle_beta 90.000000
_cell_angle_gamma 90.000000
_cell_volume 853.837211
_symmetry_space_group_name_H-M "P 21 21 2"
_symmetry_group_IT_number 18
_symmetry_cell_setting 'orthorhombic'
loop_
_space_group_symop_operation_xyz
x,y,z
-x,-y,z
1/2+x,1/2-y,-z
1/2-x,1/2+y,-z
loop_
_atom_site_type_symbol
_atom_site_label
_atom_site_fract_x
_atom_site_fract_y
_atom_site_fract_z
Si Si1 0.792378 0.000732 0.020541
Si Si2 0.569764 0.669170 0.367109
Si Si3 0.666249 0.448575 0.486384
Si Si4 0.148482 0.235592 0.963089
Si Si5 0.552892 0.804941 0.669212
Si Si6 0.856851 0.622306 0.670562
O O1 0.696530 0.070190 0.116160
O O2 0.752662 0.954064 0.251732
O O3 0.000000 0.000000 0.006283
O O4 0.742878 0.973442 0.758532
O O5 0.402430 0.629380 0.458778
O O6 0.513096 0.685985 0.095218
O O7 0.597578 0.741800 0.495878
O O8 0.711992 0.618629 0.467103
O O9 0.500000 0.500000 0.500278
O O10 0.314723 0.193232 0.888754
O O11 0.144350 0.301970 0.789026
O O12 0.118028 0.273853 0.211330
O O13 0.518075 0.872100 0.507565
#
# Coordination Sequence:
#
# PCOD9311968 Si02
#       6
#     4   4   4   4   4   4
#     4  10  20  33  56  95 119 161 200 265 318 374
#     4  10  20  37  58  89 124 158 213 267 320 390
#     4  10  20  33  58  93 123 157 208 263 321 369
#     4  10  22  36  59  88 123 171 207 268 325 382
#     4  10  22  36  59  88 126 171 211 267 331 382
#     4  10  20  37  58  89 122 157 211 266 317 391
#
# _framework density 28.108401000000001
#
# number of rings (size 3 to 8) (size 9 to 14) (size 15 to 20)
#    0.000    2.000    3.333    1.000    4.667    2.667 
#    0.000    0.000    0.000    1.000    0.000    0.000 
#    0.000    0.000    0.000    0.000    0.000    0.000 
#
# Total GULP energy -133853.880523 kJ/mol
# GULP energy per Si atom -5577.245022 kJ/mol
# Density = 2.804442 g / cm^3
# Si number density = 28.108401 Si / 1000 Ang^3
#
#
#
# Elastic Constant Matrix: (Units=GPa)
#
#
# Indices 1 2 3 4 5 6 
#
# 1 86.8883 17.1510 44.6982 0.0000 0.0000 0.0000
# 2 17.1510 71.5025 24.0447 0.0000 0.0000 0.0000
# 3 44.6982 24.0447 153.9781 0.0000 0.0000 0.0000
# 4 0.0000 0.0000 0.0000 59.0251 0.0000 0.0000
# 5 0.0000 0.0000 0.0000 0.0000 49.7566 0.0000
# 6 0.0000 0.0000 0.0000 0.0000 0.0000 34.6566
#
#
#
# Elastic Compliance Matrix: (Units=1/GPa)
#
#
# Indices 1 2 3 4 5 6 
#
# 1 0.013815 -0.002074 -0.003686 0.000000 0.000000 0.000000
# 2 -0.002074 0.015072 -0.001752 0.000000 0.000000 0.000000
# 3 -0.003686 -0.001752 0.007838 0.000000 0.000000 0.000000
# 4 0.000000 0.000000 0.000000 0.016942 0.000000 0.000000
# 5 0.000000 0.000000 0.000000 0.000000 0.020098 0.000000
# 6 0.000000 0.000000 0.000000 0.000000 0.000000 0.028855
#
#
# Mechanical properties :
#
#
# Convention : Reuss Voigt Hill
#
# Bulk Modulus (GPa) = 46.08094 53.79519 49.93806
# Shear Modulus (GPa) = 40.03944 43.78599 41.91272
#
# Velocity S-wave (km/s) = 3.77830 3.95112 3.86568
# Velocity P-wave (km/s) = 5.95514 6.32417 6.14243
#
# Compressibility (1/GPa) = 0.02170095
#
# Stress axis : x y z
#
# Youngs Moduli (GPa) = 72.38588 66.34817 127.58232
#
# Poissons Ratio (x) = 0.13761 0.47032
# Poissons Ratio (y) = 0.15013 0.22346
# Poissons Ratio (z) = 0.26685 0.11621
#
# Static dielectric constant tensor:
#      x y z
#    x 2.448840 0.000000 0.000000 
#    y 0.000000 2.201040 0.000000 
#    z 0.000000 0.000000 2.155080 
# 
# From -- ./inp_files/609.got.cif
#   From: 2010.05.17/outbox.cif.g08.bks.cpg/sg18_1_cif.got.tgz:609.got - 2010.06.03 22:40:56.
