data_PCOD9311922
_publ_section_title
;
Structure prediction by ZEFSAII (Michael W. Deem and Ramdas Pophale) SiO2 
 PCOD9311922
Probable space group: P 21 21 2
;
_chemical_formula_sum "Si O2"
_cell_formula_units_Z 32
_cell_length_a 28.374978
_cell_length_b 8.293591
_cell_length_c 6.228227
_cell_angle_alpha 90.000000
_cell_angle_beta 90.000000
_cell_angle_gamma 90.000000
_cell_volume 1465.691538
_symmetry_space_group_name_H-M "P 21 21 2"
_symmetry_group_IT_number 18
_symmetry_cell_setting 'orthorhombic'
loop_
_space_group_symop_operation_xyz
x,y,z
-x,-y,z
1/2+x,1/2-y,-z
1/2-x,1/2+y,-z
loop_
_atom_site_type_symbol
_atom_site_label
_atom_site_fract_x
_atom_site_fract_y
_atom_site_fract_z
Si Si1 0.218812 0.315279 0.706007
Si Si2 0.364794 0.482859 0.682924
Si Si3 0.407614 0.239674 0.012153
Si Si4 0.864025 0.486387 0.627918
Si Si5 0.713132 0.482428 0.990429
Si Si6 0.952366 0.406350 0.365363
Si Si7 0.447761 0.432909 0.392964
Si Si8 0.796525 0.198946 0.621495
O O1 0.163673 0.351178 0.679590
O O2 0.244776 0.300868 0.478231
O O3 0.227185 0.155708 0.844468
O O4 0.245113 0.460900 0.833119
O O5 0.412420 0.530050 0.553951
O O6 0.328157 0.433541 0.499790
O O7 0.378257 0.323027 0.821303
O O8 0.332573 0.576697 0.854942
O O9 0.383258 0.106948 0.162104
O O10 0.424275 0.386719 0.165065
O O11 0.447888 0.144444 0.882900
O O12 0.905873 0.497260 0.455540
O O13 0.822594 0.363756 0.558030
O O14 0.702354 0.641801 0.133591
O O15 0.953126 0.240874 0.496920
O O16 0.000000 0.500000 0.406552
O O17 0.500000 0.500000 0.367693
#
# Coordination Sequence:
#
# PCOD9311922 Si02
#       8
#     4   4   4   4   4   4   4   4
#     4  11  26  38  65  97 131 175 215 272 319 392
#     4  10  19  39  64  91 125 166 208 263 325 381
#     4  10  19  38  68  90 126 168 212 260 330 387
#     4  11  21  42  66  93 129 174 214 265 329 385
#     4  11  23  41  62  97 131 166 226 260 328 388
#     4  10  23  44  66  95 129 171 215 267 330 394
#     4  10  21  40  68  94 124 166 214 266 330 385
#     4  11  20  40  67  89 127 173 218 266 320 384
#
# _framework density 21.832699000000002
#
# number of rings (size 3 to 8) (size 9 to 14) (size 15 to 20)
#    0.000    1.500    5.000    1.500    1.750    6.000 
#    6.750    0.000    0.000    0.000    0.000    0.000 
#    0.000    0.000    0.000    0.000    0.000    0.000 
#
# Total GULP energy -178545.768205 kJ/mol
# GULP energy per Si atom -5579.555256 kJ/mol
# Density = 2.178301 g / cm^3
# Si number density = 21.832699 Si / 1000 Ang^3
#
#
#
# Elastic Constant Matrix: (Units=GPa)
#
#
# Indices 1 2 3 4 5 6 
#
# 1 115.8990 19.7039 48.0118 0.0000 0.0000 0.0000
# 2 19.7039 31.7253 3.5706 0.0000 0.0000 0.0000
# 3 48.0118 3.5706 96.9733 0.0000 0.0000 0.0000
# 4 0.0000 0.0000 0.0000 6.9339 0.0000 0.0000
# 5 0.0000 0.0000 0.0000 0.0000 24.5251 0.0000
# 6 0.0000 0.0000 0.0000 0.0000 0.0000 43.7407
#
#
#
# Elastic Compliance Matrix: (Units=1/GPa)
#
#
# Indices 1 2 3 4 5 6 
#
# 1 0.012203 -0.006928 -0.005787 0.000000 0.000000 0.000000
# 2 -0.006928 0.035585 0.002120 0.000000 0.000000 0.000000
# 3 -0.005787 0.002120 0.013099 0.000000 0.000000 0.000000
# 4 0.000000 0.000000 0.000000 0.144220 0.000000 0.000000
# 5 0.000000 0.000000 0.000000 0.000000 0.040775 0.000000
# 6 0.000000 0.000000 0.000000 0.000000 0.000000 0.022862
#
#
# Mechanical properties :
#
#
# Convention : Reuss Voigt Hill
#
# Bulk Modulus (GPa) = 25.19058 43.01891 34.10475
# Shear Modulus (GPa) = 16.49264 26.59400 21.54332
#
# Velocity S-wave (km/s) = 2.75145 3.49389 3.14466
# Velocity P-wave (km/s) = 4.65371 6.00192 5.37029
#
# Compressibility (1/GPa) = 0.03969738
#
# Stress axis : x y z
#
# Youngs Moduli (GPa) = 81.94568 28.10187 76.34110
#
# Poissons Ratio (x) = 0.19469 0.44177
# Poissons Ratio (y) = 0.56771 -0.16183
# Poissons Ratio (z) = 0.47420 -0.05957
#
# Static dielectric constant tensor:
#      x y z
#    x 1.829360 0.000000 0.000000 
#    y 0.000000 1.853250 0.000000 
#    z 0.000000 0.000000 1.817790 
# 
# From -- ./inp_files/2308.got.cif
#   From: 2010.05.17/outbox.cif.g08.bks.cpg/sg18_2_cif.got.tgz:2308.got - 2010.06.03 22:40:56.
