data_PCOD9311629
_publ_section_title
;
Structure prediction by ZEFSAII (Michael W. Deem and Ramdas Pophale) SiO2 
 PCOD9311629
Probable space group: P 21 21 2
;
_chemical_formula_sum "Si O2"
_cell_formula_units_Z 24
_cell_length_a 9.780936
_cell_length_b 9.932224
_cell_length_c 11.014942
_cell_angle_alpha 90.000000
_cell_angle_beta 90.000000
_cell_angle_gamma 90.000000
_cell_volume 1070.062482
_symmetry_space_group_name_H-M "P 21 21 2"
_symmetry_group_IT_number 18
_symmetry_cell_setting 'orthorhombic'
loop_
_space_group_symop_operation_xyz
x,y,z
-x,-y,z
1/2+x,1/2-y,-z
1/2-x,1/2+y,-z
loop_
_atom_site_type_symbol
_atom_site_label
_atom_site_fract_x
_atom_site_fract_y
_atom_site_fract_z
Si Si1 0.190301 0.418686 0.634505
Si Si2 0.010824 0.242574 0.804721
Si Si3 0.254683 0.127920 0.920203
Si Si4 0.734783 0.326115 0.795749
Si Si5 0.500000 0.000000 0.580138
Si Si6 0.929782 0.238243 0.275224
Si Si7 0.500000 0.000000 0.012158
O O1 0.087113 0.308987 0.690942
O O2 0.200501 0.544988 0.726463
O O3 0.340999 0.356221 0.637411
O O4 0.124843 0.457709 0.507467
O O5 0.110359 0.126305 0.852522
O O6 0.852497 0.213639 0.778085
O O7 0.008620 0.364186 0.906670
O O8 0.342443 0.243636 0.849501
O O9 0.363942 0.007251 0.930308
O O10 0.221675 0.155285 0.060299
O O11 0.583203 0.308409 0.747062
O O12 0.556094 0.881769 0.662836
#
# Coordination Sequence:
#
# PCOD9311629 Si02
#       7
#     4   4   4   4   2   4   2
#     4  11  22  43  70  97 129 190 240 282 350 422
#     4  10  18  35  65  97 125 182 230 271 357 408
#     4  10  21  36  67 101 139 177 219 282 357 431
#     4  11  19  41  68 104 137 174 232 293 352 431
#     4  12  26  48  70  96 146 188 236 306 342 408
#     4  11  27  41  70 109 136 185 237 287 368 416
#     4  10  16  34  58  86 142 174 208 284 334 408
#
# _framework density 22.428597
#
# number of rings (size 3 to 8) (size 9 to 14) (size 15 to 20)
#    0.000    1.333    5.000    3.000    2.333    0.000 
#    0.000    0.000    0.000    6.000    0.000    0.000 
#    0.000    0.000    0.000    0.000    0.000    0.000 
#
# Total GULP energy -134018.337197 kJ/mol
# GULP energy per Si atom -5584.097383 kJ/mol
# Density = 2.237755 g / cm^3
# Si number density = 22.428597 Si / 1000 Ang^3
#
#
#
# Elastic Constant Matrix: (Units=GPa)
#
#
# Indices 1 2 3 4 5 6 
#
# 1 195.9885 26.4229 22.8182 0.0000 0.0000 0.0000
# 2 26.4229 42.6776 18.8628 0.0000 0.0000 0.0000
# 3 22.8182 18.8628 69.0686 0.0000 0.0000 0.0000
# 4 0.0000 0.0000 0.0000 15.4886 0.0000 0.0000
# 5 0.0000 0.0000 0.0000 0.0000 17.1414 0.0000
# 6 0.0000 0.0000 0.0000 0.0000 0.0000 44.0955
#
#
#
# Elastic Compliance Matrix: (Units=1/GPa)
#
#
# Indices 1 2 3 4 5 6 
#
# 1 0.005631 -0.003030 -0.001033 0.000000 0.000000 0.000000
# 2 -0.003030 0.028278 -0.006722 0.000000 0.000000 0.000000
# 3 -0.001033 -0.006722 0.016655 0.000000 0.000000 0.000000
# 4 0.000000 0.000000 0.000000 0.064564 0.000000 0.000000
# 5 0.000000 0.000000 0.000000 0.000000 0.058338 0.000000
# 6 0.000000 0.000000 0.000000 0.000000 0.000000 0.022678
#
#
# Mechanical properties :
#
#
# Convention : Reuss Voigt Hill
#
# Bulk Modulus (GPa) = 34.48811 49.32696 41.90753
# Shear Modulus (GPa) = 21.98969 31.32047 26.65508
#
# Velocity S-wave (km/s) = 3.13458 3.74097 3.45112
# Velocity P-wave (km/s) = 5.33957 6.37969 5.88266
#
# Compressibility (1/GPa) = 0.02899550
#
# Stress axis : x y z
#
# Youngs Moduli (GPa) = 177.58600 35.36272 60.04071
#
# Poissons Ratio (x) = 0.10714 0.06202
# Poissons Ratio (y) = 0.53806 0.40359
# Poissons Ratio (z) = 0.18343 0.23771
#
# Static dielectric constant tensor:
#      x y z
#    x 1.888890 0.000000 0.000000 
#    y 0.000000 1.880360 0.000000 
#    z 0.000000 0.000000 1.806780 
# 
# From -- ./inp_files/5549.got.cif
#   From: 2010.05.17/outbox.cif.g08.bks.cpg/sg18_3_cif.got.tgz:5549.got - 2010.06.03 22:40:56.
