data_PCOD9311510
_publ_section_title
;
Structure prediction by ZEFSAII (Michael W. Deem and Ramdas Pophale) SiO2 
 PCOD9311510
Probable space group: P 2 2 21
;
_chemical_formula_sum "Si O2"
_cell_formula_units_Z 30
_cell_length_a 11.756871
_cell_length_b 5.391859
_cell_length_c 20.150515
_cell_angle_alpha 90.000000
_cell_angle_beta 90.000000
_cell_angle_gamma 90.000000
_cell_volume 1277.369169
_symmetry_space_group_name_H-M "P 2 2 21"
_symmetry_group_IT_number 17
_symmetry_cell_setting 'orthorhombic'
loop_
_space_group_symop_operation_xyz
x,y,z
-x,-y,1/2+z
x,-y,-z
-x,y,1/2-z
loop_
_atom_site_type_symbol
_atom_site_label
_atom_site_fract_x
_atom_site_fract_y
_atom_site_fract_z
Si Si1 0.993046 0.500000 0.500000
Si Si2 0.804971 0.392996 0.583716
Si Si3 0.648282 0.003788 0.140818
Si Si4 0.589625 0.096335 0.575579
Si Si5 0.624416 0.482497 0.776675
Si Si6 0.249865 0.782150 0.831381
Si Si7 0.886952 0.886853 0.925829
Si Si8 0.056133 0.095239 0.813951
O O1 0.898162 0.314826 0.530141
O O2 0.070619 0.393437 0.441332
O O3 0.808881 0.680734 0.601687
O O4 0.674088 0.332069 0.570900
O O5 0.855678 0.265880 0.648141
O O6 0.541363 0.903917 0.097656
O O7 0.618637 0.264621 0.178377
O O8 0.758094 0.071692 0.097227
O O9 0.672578 0.766524 0.188778
O O10 0.651222 0.949809 0.636596
O O11 0.593908 0.000000 0.500000
O O12 0.500000 0.414843 0.750000
O O13 0.692974 0.572948 0.712759
O O14 0.144384 0.885228 0.789222
O O15 0.964920 0.997868 0.867284
O O16 0.899030 0.000000 0.000000
O O17 0.000000 0.213962 0.750000
#
# Coordination Sequence:
#
# PCOD9311510 Si02
#       8
#     2   4   4   4   4   4   4   4
#     4  12  24  48  76 114 152 210 268 320 410 484
#     4  11  24  42  76 106 143 195 255 330 388 460
#     4  12  29  50  77 115 155 212 259 326 398 498
#     4  11  25  46  73 111 146 192 258 327 393 467
#     4  12  26  49  80 111 157 203 263 327 411 475
#     4  11  24  44  71 107 142 194 253 321 393 463
#     4  12  27  49  74 109 159 214 263 324 408 492
#     4  11  25  44  68 107 148 193 261 321 390 465
#
# _framework density 23.485772999999998
#
# number of rings (size 3 to 8) (size 9 to 14) (size 15 to 20)
#    0.000    0.533    4.000    3.200    9.333    0.533 
#    0.000    0.000    0.000    0.000    0.000    0.000 
#    0.000    0.000    0.000    0.000    0.000    0.000 
#
# Total GULP energy -167290.759978 kJ/mol
# GULP energy per Si atom -5576.358666 kJ/mol
# Density = 2.343232 g / cm^3
# Si number density = 23.485773 Si / 1000 Ang^3
#
#
#
# Elastic Constant Matrix: (Units=GPa)
#
#
# Indices 1 2 3 4 5 6 
#
# 1 159.3546 13.6098 35.7861 0.0000 0.0000 0.0000
# 2 13.6098 50.3985 8.1048 0.0000 0.0000 0.0000
# 3 35.7861 8.1048 98.9696 0.0000 0.0000 0.0000
# 4 0.0000 0.0000 0.0000 35.0954 0.0000 0.0000
# 5 0.0000 0.0000 0.0000 0.0000 44.5289 0.0000
# 6 0.0000 0.0000 0.0000 0.0000 0.0000 22.5151
#
#
#
# Elastic Compliance Matrix: (Units=1/GPa)
#
#
# Indices 1 2 3 4 5 6 
#
# 1 0.006939 -0.001490 -0.002387 0.000000 0.000000 0.000000
# 2 -0.001490 0.020427 -0.001134 0.000000 0.000000 0.000000
# 3 -0.002387 -0.001134 0.011060 0.000000 0.000000 0.000000
# 4 0.000000 0.000000 0.000000 0.028494 0.000000 0.000000
# 5 0.000000 0.000000 0.000000 0.000000 0.022457 0.000000
# 6 0.000000 0.000000 0.000000 0.000000 0.000000 0.044415
#
#
# Mechanical properties :
#
#
# Convention : Reuss Voigt Hill
#
# Bulk Modulus (GPa) = 35.20684 47.08046 41.14365
# Shear Modulus (GPa) = 32.61995 37.17601 34.89798
#
# Velocity S-wave (km/s) = 3.73087 3.98290 3.85895
# Velocity P-wave (km/s) = 5.79504 6.42194 6.11652
#
# Compressibility (1/GPa) = 0.02840357
#
# Stress axis : x y z
#
# Youngs Moduli (GPa) = 144.12174 48.95588 90.41546
#
# Poissons Ratio (x) = 0.07294 0.21581
# Poissons Ratio (y) = 0.21472 0.10253
# Poissons Ratio (z) = 0.34400 0.05552
#
# Static dielectric constant tensor:
#      x y z
#    x 1.864080 0.000000 0.000000 
#    y 0.000000 2.252130 0.000000 
#    z 0.000000 0.000000 1.953050 
# 
# From -- ./inp_files/10236.got.cif
#   From: 2010.05.17/outbox.cif.g08.bks.cpg/sg17_6_cif.got.tgz:10236.got - 2010.06.03 22:34:06.
