data_PCOD9311353
_publ_section_title
;
Structure prediction by ZEFSAII (Michael W. Deem and Ramdas Pophale) SiO2 
 PCOD9311353
Probable space group: P 2 2 21
;
_chemical_formula_sum "Si O2"
_cell_formula_units_Z 16
_cell_length_a 10.871869
_cell_length_b 7.484634
_cell_length_c 7.477848
_cell_angle_alpha 90.000000
_cell_angle_beta 90.000000
_cell_angle_gamma 90.000000
_cell_volume 608.487151
_symmetry_space_group_name_H-M "P 2 2 21"
_symmetry_group_IT_number 17
_symmetry_cell_setting 'orthorhombic'
loop_
_space_group_symop_operation_xyz
x,y,z
-x,-y,1/2+z
x,-y,-z
-x,y,1/2-z
loop_
_atom_site_type_symbol
_atom_site_label
_atom_site_fract_x
_atom_site_fract_y
_atom_site_fract_z
Si Si1 0.119031 0.250153 0.148065
Si Si2 0.560502 0.702177 0.443813
Si Si3 0.692005 0.701942 0.940953
Si Si4 0.807906 0.157379 0.701527
O O1 0.240386 0.311214 0.252711
O O2 0.000000 0.318935 0.250000
O O3 0.132062 0.036538 0.186610
O O4 0.112757 0.279949 0.934755
O O5 0.594826 0.500000 0.500000
O O6 0.500000 0.681174 0.250000
O O7 0.446587 0.778460 0.560914
O O8 0.677400 0.824997 0.402529
O O9 0.777170 0.792847 0.094119
O O10 0.674363 0.500000 0.000000
#
# Coordination Sequence:
#
# PCOD9311353 Si02
#       4
#     4   4   4   4
#     4  11  26  45  66  94 132 184 225 275 328 388
#     4   9  20  39  67 100 132 168 208 275 345 397
#     4  10  23  44  70 101 133 171 215 281 340 396
#     4  10  24  42  69  96 128 174 223 268 336 400
#
# _framework density 26.294722
#
# number of rings (size 3 to 8) (size 9 to 14) (size 15 to 20)
#    0.000    2.000    0.000    0.750   17.500    0.000 
#   31.500    0.000    0.000    0.000    0.000    0.000 
#    0.000    0.000    0.000    0.000    0.000    0.000 
#
# Total GULP energy -89430.612836 kJ/mol
# GULP energy per Si atom -5589.413302 kJ/mol
# Density = 2.623487 g / cm^3
# Si number density = 26.294722 Si / 1000 Ang^3
#
#
#
# Elastic Constant Matrix: (Units=GPa)
#
#
# Indices 1 2 3 4 5 6 
#
# 1 92.6327 10.9486 21.8355 0.0000 0.0000 0.0000
# 2 10.9486 42.3433 7.6166 0.0000 0.0000 0.0000
# 3 21.8355 7.6166 143.2314 0.0000 0.0000 0.0000
# 4 0.0000 0.0000 0.0000 36.9737 0.0000 0.0000
# 5 0.0000 0.0000 0.0000 0.0000 43.9527 0.0000
# 6 0.0000 0.0000 0.0000 0.0000 0.0000 17.6244
#
#
#
# Elastic Compliance Matrix: (Units=1/GPa)
#
#
# Indices 1 2 3 4 5 6 
#
# 1 0.011492 -0.002682 -0.001609 0.000000 0.000000 0.000000
# 2 -0.002682 0.024470 -0.000892 0.000000 0.000000 0.000000
# 3 -0.001609 -0.000892 0.007274 0.000000 0.000000 0.000000
# 4 0.000000 0.000000 0.000000 0.027046 0.000000 0.000000
# 5 0.000000 0.000000 0.000000 0.000000 0.022752 0.000000
# 6 0.000000 0.000000 0.000000 0.000000 0.000000 0.056739
#
#
# Mechanical properties :
#
#
# Convention : Reuss Voigt Hill
#
# Bulk Modulus (GPa) = 30.42339 39.88985 35.15662
# Shear Modulus (GPa) = 29.22308 35.56396 32.39352
#
# Velocity S-wave (km/s) = 3.33733 3.68164 3.51371
# Velocity P-wave (km/s) = 5.14253 5.76852 5.46450
#
# Compressibility (1/GPa) = 0.03286945
#
# Stress axis : x y z
#
# Youngs Moduli (GPa) = 87.01978 40.86564 137.46650
#
# Poissons Ratio (x) = 0.10960 0.22122
# Poissons Ratio (y) = 0.23338 0.12268
# Poissons Ratio (z) = 0.14004 0.03647
#
# Static dielectric constant tensor:
#      x y z
#    x 2.184750 0.000000 0.000000 
#    y 0.000000 2.066500 0.000000 
#    z 0.000000 0.000000 2.042600 
# 
# From -- ./inp_files/4556.got.cif
#   From: 2010.05.17/outbox.cif.g08.bks.cpg/sg17_3_cif.got.tgz:4556.got - 2010.06.03 22:34:06.
