data_PCOD9311260
_publ_section_title
;
Structure prediction by ZEFSAII (Michael W. Deem and Ramdas Pophale) SiO2 
 PCOD9311260
Probable space group: P 2 2 21
;
_chemical_formula_sum "Si O2"
_cell_formula_units_Z 22
_cell_length_a 5.517879
_cell_length_b 4.924633
_cell_length_c 29.567585
_cell_angle_alpha 90.000000
_cell_angle_beta 90.000000
_cell_angle_gamma 90.000000
_cell_volume 803.455629
_symmetry_space_group_name_H-M "P 2 2 21"
_symmetry_group_IT_number 17
_symmetry_cell_setting 'orthorhombic'
loop_
_space_group_symop_operation_xyz
x,y,z
-x,-y,1/2+z
x,-y,-z
-x,y,1/2-z
loop_
_atom_site_type_symbol
_atom_site_label
_atom_site_fract_x
_atom_site_fract_y
_atom_site_fract_z
Si Si1 0.916541 0.708240 0.628945
Si Si2 0.823622 0.758271 0.032935
Si Si3 0.204145 0.175122 0.659462
Si Si4 0.673123 0.589552 0.448203
Si Si5 0.604574 0.443854 0.296001
Si Si6 0.000000 0.827177 0.250000
O O1 0.764579 0.651495 0.583778
O O2 0.137882 0.920763 0.627021
O O3 0.720449 0.766539 0.668546
O O4 0.026728 0.415838 0.642668
O O5 0.592998 0.699965 0.065341
O O6 0.095934 0.791190 0.051725
O O7 0.853091 0.500000 0.000000
O O8 0.753649 0.000000 0.000000
O O9 0.436306 0.352729 0.674524
O O10 0.126764 0.034725 0.707561
O O11 0.639771 0.500000 0.500000
O O12 0.500000 0.312975 0.250000
O O13 0.804457 0.633948 0.273123
#
# Coordination Sequence:
#
# PCOD9311260 Si02
#       6
#     4   4   4   4   4   2
#     4  11  25  42  66 103 141 186 248 299 374 452
#     4  10  22  42  69  97 131 179 233 290 360 429
#     4  10  23  41  65  98 138 184 233 299 360 438
#     4  10  24  46  70 105 142 190 241 306 370 451
#     4   9  20  43  70 101 143 191 243 306 378 446
#     4   8  18  40  64  98 132 180 234 288 354 440
#
# _framework density 27.381727000000001
#
# number of rings (size 3 to 8) (size 9 to 14) (size 15 to 20)
#    0.000    2.182    0.000    0.545    2.545   13.091 
#    0.000   11.818    0.000    0.000    0.000    0.000 
#    0.000    0.000    0.000    0.000    0.000    0.000 
#
# Total GULP energy -122884.856598 kJ/mol
# GULP energy per Si atom -5585.675300 kJ/mol
# Density = 2.731940 g / cm^3
# Si number density = 27.381727 Si / 1000 Ang^3
#
#
#
# Elastic Constant Matrix: (Units=GPa)
#
#
# Indices 1 2 3 4 5 6 
#
# 1 157.4389 19.1795 25.8333 0.0000 0.0000 0.0000
# 2 19.1795 116.8733 20.3339 0.0000 0.0000 0.0000
# 3 25.8333 20.3339 102.2445 0.0000 0.0000 0.0000
# 4 0.0000 0.0000 0.0000 15.8848 0.0000 0.0000
# 5 0.0000 0.0000 0.0000 0.0000 44.1095 0.0000
# 6 0.0000 0.0000 0.0000 0.0000 0.0000 11.2668
#
#
#
# Elastic Compliance Matrix: (Units=1/GPa)
#
#
# Indices 1 2 3 4 5 6 
#
# 1 0.006704 -0.000834 -0.001528 0.000000 0.000000 0.000000
# 2 -0.000834 0.008967 -0.001572 0.000000 0.000000 0.000000
# 3 -0.001528 -0.001572 0.010479 0.000000 0.000000 0.000000
# 4 0.000000 0.000000 0.000000 0.062953 0.000000 0.000000
# 5 0.000000 0.000000 0.000000 0.000000 0.022671 0.000000
# 6 0.000000 0.000000 0.000000 0.000000 0.000000 0.088756
#
#
# Mechanical properties :
#
#
# Convention : Reuss Voigt Hill
#
# Bulk Modulus (GPa) = 54.70281 56.36114 55.53197
# Shear Modulus (GPa) = 23.31074 34.99955 29.15514
#
# Velocity S-wave (km/s) = 2.92091 3.57908 3.26662
# Velocity P-wave (km/s) = 5.60329 6.14068 5.87813
#
# Compressibility (1/GPa) = 0.01828060
#
# Stress axis : x y z
#
# Youngs Moduli (GPa) = 149.16430 111.52286 95.42664
#
# Poissons Ratio (x) = 0.09305 0.14580
# Poissons Ratio (y) = 0.12445 0.15006
# Poissons Ratio (z) = 0.22791 0.17537
#
# Static dielectric constant tensor:
#      x y z
#    x 2.250450 0.000000 0.000000 
#    y 0.000000 2.056580 0.000000 
#    z 0.000000 0.000000 2.299370 
# 
# From -- ./inp_files/11075.got.cif
#   From: 2010.05.17/outbox.cif.g08.bks.cpg/sg17_6_cif.got.tgz:11075.got - 2010.06.03 22:34:06.
