data_PCOD9311474
_publ_section_title
;
Structure prediction by ZEFSAII (Michael W. Deem and Ramdas Pophale) SiO2 
 PCOD9311474
Probable space group: P 2 2 21
;
_chemical_formula_sum "Si O2"
_cell_formula_units_Z 18
_cell_length_a 7.392767
_cell_length_b 7.131509
_cell_length_c 11.711271
_cell_angle_alpha 90.000000
_cell_angle_beta 90.000000
_cell_angle_gamma 90.000000
_cell_volume 617.436762
_symmetry_space_group_name_H-M "P 2 2 21"
_symmetry_group_IT_number 17
_symmetry_cell_setting 'orthorhombic'
loop_
_space_group_symop_operation_xyz
x,y,z
-x,-y,1/2+z
x,-y,-z
-x,y,1/2-z
loop_
_atom_site_type_symbol
_atom_site_label
_atom_site_fract_x
_atom_site_fract_y
_atom_site_fract_z
Si Si1 0.809716 0.996201 0.689442
Si Si2 0.500000 0.249999 0.750000
Si Si3 0.285962 0.282496 0.000846
Si Si4 0.809717 0.496202 0.189441
Si Si5 0.714039 0.782497 0.999153
O O1 0.747368 0.808541 0.624631
O O2 0.747370 0.691461 0.875368
O O3 0.655463 0.086464 0.768439
O O4 0.000000 0.979422 0.750000
O O5 0.180730 0.149561 0.913224
O O6 0.344537 0.413534 0.768436
O O7 0.240748 0.500000 0.000000
O O8 0.500001 0.250000 0.968054
O O9 0.000000 0.479424 0.250000
O O10 0.819272 0.649561 0.086774
O O11 0.759254 0.000000 0.000000
#
# Coordination Sequence:
#
# PCOD9311474 Si02
#       5
#     4   2   4   4   4
#     4  11  25  46  87 136 180 233 313 382 446 554
#     4  12  22  52  86 122 190 234 298 362 480 534
#     4  11  21  49  88 130 184 247 301 370 462 550
#     4  11  25  46  87 136 180 233 313 382 446 554
#     4  11  21  49  88 130 184 247 301 370 462 550
#
# _framework density 29.152781999999998
#
# number of rings (size 3 to 8) (size 9 to 14) (size 15 to 20)
#    0.000    0.889    6.667    0.667    0.000    1.778 
#    0.000   18.889   29.333    2.667   23.111    0.000 
#    0.000    0.000    0.000    0.000    0.000    0.000 
#
# Total GULP energy -100905.401071 kJ/mol
# GULP energy per Si atom -5605.855615 kJ/mol
# Density = 2.908643 g / cm^3
# Si number density = 29.152782 Si / 1000 Ang^3
#
#
#
# Elastic Constant Matrix: (Units=GPa)
#
#
# Indices 1 2 3 4 5 6 
#
# 1 222.4164 89.6575 38.3216 0.0000 0.0000 0.0000
# 2 89.6575 320.6935 77.7075 0.0000 0.0000 0.0000
# 3 38.3216 77.7075 119.3629 0.0000 0.0000 0.0000
# 4 0.0000 0.0000 0.0000 63.6711 0.0000 0.0000
# 5 0.0000 0.0000 0.0000 0.0000 78.4658 0.0000
# 6 0.0000 0.0000 0.0000 0.0000 0.0000 56.9072
#
#
#
# Elastic Compliance Matrix: (Units=1/GPa)
#
#
# Indices 1 2 3 4 5 6 
#
# 1 0.005138 -0.001231 -0.000848 0.000000 0.000000 0.000000
# 2 -0.001231 0.003997 -0.002207 0.000000 0.000000 0.000000
# 3 -0.000848 -0.002207 0.010087 0.000000 0.000000 0.000000
# 4 0.000000 0.000000 0.000000 0.015706 0.000000 0.000000
# 5 0.000000 0.000000 0.000000 0.000000 0.012744 0.000000
# 6 0.000000 0.000000 0.000000 0.000000 0.000000 0.017572
#
#
# Mechanical properties :
#
#
# Convention : Reuss Voigt Hill
#
# Bulk Modulus (GPa) = 93.89720 119.31624 106.60672
# Shear Modulus (GPa) = 64.62631 70.26123 67.44377
#
# Velocity S-wave (km/s) = 4.71341 4.91461 4.81506
# Velocity P-wave (km/s) = 7.86767 8.55694 8.21954
#
# Compressibility (1/GPa) = 0.01064994
#
# Stress axis : x y z
#
# Youngs Moduli (GPa) = 194.61067 250.17565 99.13784
#
# Poissons Ratio (x) = 0.30797 0.08410
# Poissons Ratio (y) = 0.23957 0.21880
# Poissons Ratio (z) = 0.16509 0.55214
#
# Static dielectric constant tensor:
#      x y z
#    x 2.124890 0.000000 0.000000 
#    y 0.000000 2.233080 0.000000 
#    z 0.000000 0.000000 2.235660 
# 
# From -- ./inp_files/6382.got.cif
#   From: 2010.05.17/outbox.cif.g08.bks.cpg/sg17_4_cif.got.tgz:6382.got - 2010.06.03 22:34:06.
