data_PCOD9311145
_publ_section_title
;
Structure prediction by ZEFSAII (Michael W. Deem and Ramdas Pophale) SiO2 
 PCOD9311145
Probable space group: P 2 2 21
;
_chemical_formula_sum "Si O2"
_cell_formula_units_Z 26
_cell_length_a 6.662591
_cell_length_b 9.736237
_cell_length_c 20.041311
_cell_angle_alpha 90.000000
_cell_angle_beta 90.000000
_cell_angle_gamma 90.000000
_cell_volume 1300.051085
_symmetry_space_group_name_H-M "P 2 2 21"
_symmetry_group_IT_number 17
_symmetry_cell_setting 'orthorhombic'
loop_
_space_group_symop_operation_xyz
x,y,z
-x,-y,1/2+z
x,-y,-z
-x,y,1/2-z
loop_
_atom_site_type_symbol
_atom_site_label
_atom_site_fract_x
_atom_site_fract_y
_atom_site_fract_z
Si Si1 0.767500 0.347359 0.926085
Si Si2 0.090467 0.972351 0.175563
Si Si3 0.598299 0.534991 0.614981
Si Si4 0.073158 0.500000 0.000000
Si Si5 0.281827 0.038146 0.577909
Si Si6 0.879928 0.666614 0.317813
Si Si7 0.548297 0.162445 0.329425
O O1 0.596644 0.460426 0.915286
O O2 0.662334 0.199572 0.922600
O O3 0.939397 0.355013 0.869965
O O4 0.913664 0.375816 0.988958
O O5 0.197586 0.823243 0.175335
O O6 0.000000 0.983680 0.250000
O O7 0.929054 0.966767 0.116770
O O8 0.230532 0.100980 0.164131
O O9 0.774583 0.539165 0.559373
O O10 0.699598 0.438468 0.671252
O O11 0.541208 0.682801 0.643777
O O12 0.273162 0.000000 0.500000
O O13 0.417026 0.937322 0.623025
O O14 0.000000 0.650975 0.250000
O O15 0.500000 0.154623 0.250000
#
# Coordination Sequence:
#
# PCOD9311145 Si02
#       7
#     4   4   4   2   4   4   4
#     4  10  23  43  66  92 129 172 223 273 334 404
#     4  10  21  46  69  93 137 180 227 284 337 411
#     4  11  25  41  68  98 135 175 218 281 342 410
#     4  10  24  44  68  92 130 176 220 276 336 408
#     4  11  26  43  71 101 131 182 231 285 341 410
#     4   9  21  40  66  95 123 173 225 270 327 399
#     4  12  27  43  67 105 139 179 227 287 355 410
#
# _framework density 19.999213999999998
#
# number of rings (size 3 to 8) (size 9 to 14) (size 15 to 20)
#    0.000    1.538    1.538    1.385    8.615    2.462 
#    0.000    0.000    0.000    0.000    0.000    0.000 
#    0.000    0.000    0.000    0.000    0.000    0.000 
#
# Total GULP energy -144968.390578 kJ/mol
# GULP energy per Si atom -5575.707330 kJ/mol
# Density = 1.995369 g / cm^3
# Si number density = 19.999214 Si / 1000 Ang^3
#
#
#
# Elastic Constant Matrix: (Units=GPa)
#
#
# Indices 1 2 3 4 5 6 
#
# 1 59.3566 51.2896 24.0092 0.0000 0.0000 0.0000
# 2 51.2896 141.6458 41.9104 0.0000 0.0000 0.0000
# 3 24.0092 41.9104 106.8666 0.0000 0.0000 0.0000
# 4 0.0000 0.0000 0.0000 15.7206 0.0000 0.0000
# 5 0.0000 0.0000 0.0000 0.0000 20.9650 0.0000
# 6 0.0000 0.0000 0.0000 0.0000 0.0000 34.8780
#
#
#
# Elastic Compliance Matrix: (Units=1/GPa)
#
#
# Indices 1 2 3 4 5 6 
#
# 1 0.025026 -0.008369 -0.002340 0.000000 0.000000 0.000000
# 2 -0.008369 0.010786 -0.002350 0.000000 0.000000 0.000000
# 3 -0.002340 -0.002350 0.010805 0.000000 0.000000 0.000000
# 4 0.000000 0.000000 0.000000 0.063611 0.000000 0.000000
# 5 0.000000 0.000000 0.000000 0.000000 0.047699 0.000000
# 6 0.000000 0.000000 0.000000 0.000000 0.000000 0.028671
#
#
# Mechanical properties :
#
#
# Convention : Reuss Voigt Hill
#
# Bulk Modulus (GPa) = 48.78553 60.25417 54.51985
# Shear Modulus (GPa) = 22.77412 27.02338 24.89875
#
# Velocity S-wave (km/s) = 3.37820 3.67988 3.53226
# Velocity P-wave (km/s) = 6.29786 6.94616 6.62993
#
# Compressibility (1/GPa) = 0.02049788
#
# Stress axis : x y z
#
# Youngs Moduli (GPa) = 39.95875 92.71641 92.55281
#
# Poissons Ratio (x) = 0.77598 0.21659
# Poissons Ratio (y) = 0.33443 0.21746
# Poissons Ratio (z) = 0.09351 0.21784
#
# Static dielectric constant tensor:
#      x y z
#    x 1.824400 0.000000 0.000000 
#    y 0.000000 1.730790 0.000000 
#    z 0.000000 0.000000 1.755210 
# 
# From -- ./inp_files/10454.got.cif
#   From: 2010.05.17/outbox.cif.g08.bks.cpg/sg17_6_cif.got.tgz:10454.got - 2010.06.03 22:34:06.
