data_PCOD9311218
_publ_section_title
;
Structure prediction by ZEFSAII (Michael W. Deem and Ramdas Pophale) SiO2 
 PCOD9311218
Probable space group: P 2 2 21
;
_chemical_formula_sum "Si O2"
_cell_formula_units_Z 20
_cell_length_a 11.652941
_cell_length_b 8.181564
_cell_length_c 9.500157
_cell_angle_alpha 90.000000
_cell_angle_beta 90.000000
_cell_angle_gamma 90.000000
_cell_volume 905.738153
_symmetry_space_group_name_H-M "P 2 2 21"
_symmetry_group_IT_number 17
_symmetry_cell_setting 'orthorhombic'
loop_
_space_group_symop_operation_xyz
x,y,z
-x,-y,1/2+z
x,-y,-z
-x,y,1/2-z
loop_
_atom_site_type_symbol
_atom_site_label
_atom_site_fract_x
_atom_site_fract_y
_atom_site_fract_z
Si Si1 0.254927 0.811203 0.955304
Si Si2 0.871721 0.689252 0.289239
Si Si3 0.254895 0.808888 0.462982
Si Si4 0.124889 0.310417 0.292933
Si Si5 0.495224 0.175815 0.421108
O O1 0.217445 0.791709 0.794616
O O2 0.384489 0.744825 0.967947
O O3 0.162367 0.717306 0.049770
O O4 0.252687 0.000000 0.000000
O O5 0.773138 0.780280 0.199443
O O6 0.866614 0.498757 0.250643
O O7 0.000000 0.748662 0.250000
O O8 0.154476 0.714454 0.545246
O O9 0.377690 0.746276 0.520550
O O10 0.246699 0.000000 0.500000
O O11 0.000000 0.249407 0.250000
O O12 0.500000 0.159641 0.250000
O O13 0.495321 0.000000 0.500000
#
# Coordination Sequence:
#
# PCOD9311218 Si02
#       5
#     4   4   4   4   4
#     4  11  23  40  66  93 125 161 213 263 306 372
#     4  11  25  42  61  92 130 171 208 251 322 379
#     4  11  23  40  66  93 125 161 213 263 306 372
#     4  11  23  42  63  88 130 171 204 259 322 375
#     4  10  22  40  65  95 128 162 204 261 324 370
#
# _framework density 22.081437999999999
#
# number of rings (size 3 to 8) (size 9 to 14) (size 15 to 20)
#    0.000    1.200    2.000    3.600    8.400    8.000 
#    0.000    6.000    0.000    0.000    0.000    0.000 
#    0.000    0.000    0.000    0.000    0.000    0.000 
#
# Total GULP energy -111760.803351 kJ/mol
# GULP energy per Si atom -5588.040168 kJ/mol
# Density = 2.203118 g / cm^3
# Si number density = 22.081438 Si / 1000 Ang^3
#
#
#
# Elastic Constant Matrix: (Units=GPa)
#
#
# Indices 1 2 3 4 5 6 
#
# 1 138.2595 5.3600 8.7884 0.0000 0.0000 0.0000
# 2 5.3600 39.1938 -5.1111 0.0000 0.0000 0.0000
# 3 8.7884 -5.1111 74.7250 0.0000 0.0000 0.0000
# 4 0.0000 0.0000 0.0000 36.6182 0.0000 0.0000
# 5 0.0000 0.0000 0.0000 0.0000 38.4911 0.0000
# 6 0.0000 0.0000 0.0000 0.0000 0.0000 26.5385
#
#
#
# Elastic Compliance Matrix: (Units=1/GPa)
#
#
# Indices 1 2 3 4 5 6 
#
# 1 0.007336 -0.001126 -0.000940 0.000000 0.000000 0.000000
# 2 -0.001126 0.025917 0.001905 0.000000 0.000000 0.000000
# 3 -0.000940 0.001905 0.013623 0.000000 0.000000 0.000000
# 4 0.000000 0.000000 0.000000 0.027309 0.000000 0.000000
# 5 0.000000 0.000000 0.000000 0.000000 0.025980 0.000000
# 6 0.000000 0.000000 0.000000 0.000000 0.000000 0.037681
#
#
# Mechanical properties :
#
#
# Convention : Reuss Voigt Hill
#
# Bulk Modulus (GPa) = 21.48001 30.02810 25.75406
# Shear Modulus (GPa) = 32.53398 36.53895 34.53646
#
# Velocity S-wave (km/s) = 3.84261 4.07226 3.95910
# Velocity P-wave (km/s) = 5.42552 5.97824 5.70857
#
# Compressibility (1/GPa) = 0.04655491
#
# Stress axis : x y z
#
# Youngs Moduli (GPa) = 136.31113 38.58524 73.40404
#
# Poissons Ratio (x) = 0.04344 0.06899
# Poissons Ratio (y) = 0.15346 -0.13984
# Poissons Ratio (z) = 0.12811 -0.07351
#
# Static dielectric constant tensor:
#      x y z
#    x 1.851510 0.000000 0.000000 
#    y 0.000000 1.779030 0.000000 
#    z 0.000000 0.000000 1.739260 
# 
# From -- ./inp_files/4012.got.cif
#   From: 2010.05.17/outbox.cif.g08.bks.cpg/sg17_3_cif.got.tgz:4012.got - 2010.06.03 22:34:06.
