data_PCOD9311572
_publ_section_title
;
Structure prediction by ZEFSAII (Michael W. Deem and Ramdas Pophale) SiO2 
 PCOD9311572
Probable space group: P 2 2 21
;
_chemical_formula_sum "Si O2"
_cell_formula_units_Z 20
_cell_length_a 14.933334
_cell_length_b 10.477109
_cell_length_c 6.019836
_cell_angle_alpha 90.000000
_cell_angle_beta 90.000000
_cell_angle_gamma 90.000000
_cell_volume 941.852513
_symmetry_space_group_name_H-M "P 2 2 21"
_symmetry_group_IT_number 17
_symmetry_cell_setting 'orthorhombic'
loop_
_space_group_symop_operation_xyz
x,y,z
-x,-y,1/2+z
x,-y,-z
-x,y,1/2-z
loop_
_atom_site_type_symbol
_atom_site_label
_atom_site_fract_x
_atom_site_fract_y
_atom_site_fract_z
Si Si1 0.274899 0.360920 0.499321
Si Si2 0.284208 0.000000 0.000000
Si Si3 0.000000 0.934760 0.250000
Si Si4 0.597707 0.869289 0.847297
Si Si5 0.103428 0.618940 0.830261
Si Si6 0.835510 0.797361 0.312456
O O1 0.318992 0.500000 0.500000
O O2 0.347525 0.250028 0.449079
O O3 0.186759 0.379979 0.341408
O O4 0.227269 0.313783 0.723205
O O5 0.344348 0.903777 0.866650
O O6 0.223580 0.077515 0.832589
O O7 0.080574 0.842396 0.328426
O O8 0.977528 0.000000 0.500000
O O9 0.500000 0.837919 0.750000
O O10 0.592933 0.000000 0.000000
O O11 0.000000 0.614896 0.750000
O O12 0.111341 0.500000 0.000000
O O13 0.121808 0.749259 0.960803
#
# Coordination Sequence:
#
# PCOD9311572 Si02
#       6
#     4   2   2   4   4   4
#     4  12  26  47  73 107 148 197 248 310 382 463
#     4  12  24  44  74 104 136 186 242 308 378 454
#     4  12  30  44  64 106 156 200 264 326 388 450
#     4  12  26  47  77 109 144 184 247 310 390 470
#     4  12  26  43  66 101 144 199 254 297 366 447
#     4  12  26  43  69 102 145 199 245 317 378 451
#
# _framework density 21.234746000000001
#
# number of rings (size 3 to 8) (size 9 to 14) (size 15 to 20)
#    0.000    0.000    8.000    1.800    8.400    0.000 
#    0.000    4.000    0.000    0.000    0.000    0.000 
#    0.000    0.000    0.000    0.000    0.000    0.000 
#
# Total GULP energy -111402.329806 kJ/mol
# GULP energy per Si atom -5570.116490 kJ/mol
# Density = 2.118641 g / cm^3
# Si number density = 21.234746 Si / 1000 Ang^3
#
#
#
# Elastic Constant Matrix: (Units=GPa)
#
#
# Indices 1 2 3 4 5 6 
#
# 1 145.7670 53.0297 23.5065 0.0000 0.0000 0.0000
# 2 53.0297 117.3246 14.8223 0.0000 0.0000 0.0000
# 3 23.5065 14.8223 41.4344 0.0000 0.0000 0.0000
# 4 0.0000 0.0000 0.0000 15.4196 0.0000 0.0000
# 5 0.0000 0.0000 0.0000 0.0000 402.4621 0.0000
# 6 0.0000 0.0000 0.0000 0.0000 0.0000 156.7376
#
#
#
# Elastic Compliance Matrix: (Units=1/GPa)
#
#
# Indices 1 2 3 4 5 6 
#
# 1 0.008722 -0.003474 -0.003705 0.000000 0.000000 0.000000
# 2 -0.003474 0.010311 -0.001718 0.000000 0.000000 0.000000
# 3 -0.003705 -0.001718 0.026851 0.000000 0.000000 0.000000
# 4 0.000000 0.000000 0.000000 0.064853 0.000000 0.000000
# 5 0.000000 0.000000 0.000000 0.000000 0.002485 0.000000
# 6 0.000000 0.000000 0.000000 0.000000 0.000000 0.006380
#
#
# Mechanical properties :
#
#
# Convention : Reuss Voigt Hill
#
# Bulk Modulus (GPa) = 35.60023 54.13815 44.86919
# Shear Modulus (GPa) = 34.06991 129.13502 81.60247
#
# Velocity S-wave (km/s) = 4.00989 7.80673 6.20582
# Velocity P-wave (km/s) = 6.18389 10.33492 8.51619
#
# Compressibility (1/GPa) = 0.02808970
#
# Stress axis : x y z
#
# Youngs Moduli (GPa) = 114.65798 96.98795 37.24262
#
# Poissons Ratio (x) = 0.33693 0.13799
# Poissons Ratio (y) = 0.39832 0.06397
# Poissons Ratio (z) = 0.42483 0.16658
#
# Static dielectric constant tensor:
#      x y z
#    x 1.767610 0.000000 0.000000 
#    y 0.000000 1.776220 0.000000 
#    z 0.000000 0.000000 1.822100 
# 
# From -- ./inp_files/2012.got.cif
#   From: 2010.05.17/outbox.cif.g08.bks.cpg/sg17_2_cif.got.tgz:2012.got - 2010.06.03 22:34:06.
