data_PCOD9311317
_publ_section_title
;
Structure prediction by ZEFSAII (Michael W. Deem and Ramdas Pophale) SiO2 
 PCOD9311317
Probable space group: P 2 2 21
;
_chemical_formula_sum "Si O2"
_cell_formula_units_Z 14
_cell_length_a 5.494982
_cell_length_b 5.067950
_cell_length_c 19.196798
_cell_angle_alpha 90.000000
_cell_angle_beta 90.000000
_cell_angle_gamma 90.000000
_cell_volume 534.598075
_symmetry_space_group_name_H-M "P 2 2 21"
_symmetry_group_IT_number 17
_symmetry_cell_setting 'orthorhombic'
loop_
_space_group_symop_operation_xyz
x,y,z
-x,-y,1/2+z
x,-y,-z
-x,y,1/2-z
loop_
_atom_site_type_symbol
_atom_site_label
_atom_site_fract_x
_atom_site_fract_y
_atom_site_fract_z
Si Si1 0.568399 0.000000 0.000000
Si Si2 0.177196 0.757920 0.685349
Si Si3 0.189306 0.391247 0.072389
Si Si4 0.430551 0.754467 0.362526
O O1 0.681208 0.184411 0.939899
O O2 0.403013 0.803909 0.953366
O O3 0.293684 0.469133 0.681209
O O4 0.000000 0.798418 0.750000
O O5 0.006304 0.762547 0.617107
O O6 0.386786 0.975829 0.678440
O O7 0.308585 0.626382 0.118434
O O8 0.090046 0.500000 0.000000
#
# Coordination Sequence:
#
# PCOD9311317 Si02
#       4
#     2   4   4   4
#     4  10  22  48  70 108 134 192 244 314 378 408
#     4  12  28  47  72 111 149 198 244 296 379 452
#     4  10  25  46  74 109 142 190 253 310 367 432
#     4  11  25  47  71 104 147 186 246 305 365 437
#
# _framework density 26.187894
#
# number of rings (size 3 to 8) (size 9 to 14) (size 15 to 20)
#    0.000    1.143    2.857    0.857   12.000    1.143 
#    5.143    0.000    0.000    0.000    0.000    0.000 
#    0.000    0.000    0.000    0.000    0.000    0.000 
#
# Total GULP energy -78375.989668 kJ/mol
# GULP energy per Si atom -5598.284976 kJ/mol
# Density = 2.612829 g / cm^3
# Si number density = 26.187894 Si / 1000 Ang^3
#
#
#
# Elastic Constant Matrix: (Units=GPa)
#
#
# Indices 1 2 3 4 5 6 
#
# 1 64.4350 24.9208 43.9786 0.0000 0.0000 0.0000
# 2 24.9208 150.3184 29.7321 0.0000 0.0000 0.0000
# 3 43.9786 29.7321 110.5571 0.0000 0.0000 0.0000
# 4 0.0000 0.0000 0.0000 20.9730 0.0000 0.0000
# 5 0.0000 0.0000 0.0000 0.0000 55.5608 0.0000
# 6 0.0000 0.0000 0.0000 0.0000 0.0000 258.0108
#
#
#
# Elastic Compliance Matrix: (Units=1/GPa)
#
#
# Indices 1 2 3 4 5 6 
#
# 1 0.021865 -0.002012 -0.008157 0.000000 0.000000 0.000000
# 2 -0.002012 0.007211 -0.001139 0.000000 0.000000 0.000000
# 3 -0.008157 -0.001139 0.012596 0.000000 0.000000 0.000000
# 4 0.000000 0.000000 0.000000 0.047680 0.000000 0.000000
# 5 0.000000 0.000000 0.000000 0.000000 0.017998 0.000000
# 6 0.000000 0.000000 0.000000 0.000000 0.000000 0.003876
#
#
# Mechanical properties :
#
#
# Convention : Reuss Voigt Hill
#
# Bulk Modulus (GPa) = 52.47299 58.06373 55.26836
# Shear Modulus (GPa) = 35.66499 82.02085 58.84292
#
# Velocity S-wave (km/s) = 3.69438 5.60251 4.74534
# Velocity P-wave (km/s) = 6.18697 8.00443 7.15365
#
# Compressibility (1/GPa) = 0.01905743
#
# Stress axis : x y z
#
# Youngs Moduli (GPa) = 45.73612 138.67027 79.38989
#
# Poissons Ratio (x) = 0.27894 0.64755
# Poissons Ratio (y) = 0.09200 0.09044
# Poissons Ratio (z) = 0.37305 0.15797
#
# Static dielectric constant tensor:
#      x y z
#    x 2.064670 0.000000 0.000000 
#    y 0.000000 2.082650 0.000000 
#    z 0.000000 0.000000 1.884190 
# 
# From -- ./inp_files/8770.got.cif
#   From: 2010.05.17/outbox.cif.g08.bks.cpg/sg17_5_cif.got.tgz:8770.got - 2010.06.03 22:34:06.
