data_PCOD9311549
_publ_section_title
;
Structure prediction by ZEFSAII (Michael W. Deem and Ramdas Pophale) SiO2 
 PCOD9311549
Probable space group: P 2 2 21
;
_chemical_formula_sum "Si O2"
_cell_formula_units_Z 22
_cell_length_a 10.829627
_cell_length_b 5.812856
_cell_length_c 14.544072
_cell_angle_alpha 90.000000
_cell_angle_beta 90.000000
_cell_angle_gamma 90.000000
_cell_volume 915.564782
_symmetry_space_group_name_H-M "P 2 2 21"
_symmetry_group_IT_number 17
_symmetry_cell_setting 'orthorhombic'
loop_
_space_group_symop_operation_xyz
x,y,z
-x,-y,1/2+z
x,-y,-z
-x,y,1/2-z
loop_
_atom_site_type_symbol
_atom_site_label
_atom_site_fract_x
_atom_site_fract_y
_atom_site_fract_z
Si Si1 0.308027 0.327955 0.651019
Si Si2 0.262803 0.000000 0.500000
Si Si3 0.517423 0.500000 0.000000
Si Si4 0.901823 0.667298 0.893159
Si Si5 0.382032 0.000000 0.000000
Si Si6 0.866954 0.500000 0.500000
Si Si7 0.762432 0.802698 0.346357
Si Si8 0.000000 0.010892 0.750000
O O1 0.323381 0.091283 0.593380
O O2 0.399966 0.492631 0.593998
O O3 0.170818 0.442728 0.641611
O O4 0.318428 0.276107 0.759102
O O5 0.180883 0.214640 0.470241
O O6 0.453334 0.753342 0.000197
O O7 0.915390 0.846279 0.811353
O O8 0.035667 0.643188 0.938716
O O9 0.300201 0.996855 0.906372
O O10 0.781565 0.614434 0.424595
O O11 0.901577 0.853753 0.311481
#
# Coordination Sequence:
#
# PCOD9311549 Si02
#       8
#     4   2   2   4   2   2   4   2
#     4  12  25  47  79 113 147 201 271 333 385 463
#     4  12  19  43  66 110 156 190 253 337 370 444
#     4  12  28  56  88 112 152 212 266 346 414 440
#     4  12  22  38  69 112 159 197 257 320 376 478
#     4  12  31  57  80 114 160 204 265 335 402 468
#     4  12  22  44  68 108 166 212 244 308 404 468
#     4  12  27  50  75 112 158 206 259 319 390 485
#     4  12  24  40  74 112 154 210 248 298 404 478
#
# _framework density 24.028881999999999
#
# number of rings (size 3 to 8) (size 9 to 14) (size 15 to 20)
#    0.000    0.000    5.455    5.455    0.000    2.182 
#    0.000    5.455    0.000    0.000    0.000    0.000 
#    0.000    0.000    0.000    0.000    0.000    0.000 
#
# Total GULP energy -122852.006775 kJ/mol
# GULP energy per Si atom -5584.182126 kJ/mol
# Density = 2.397419 g / cm^3
# Si number density = 24.028882 Si / 1000 Ang^3
#
#
#
# Elastic Constant Matrix: (Units=GPa)
#
#
# Indices 1 2 3 4 5 6 
#
# 1 95.7315 46.0447 52.1884 0.0000 0.0000 0.0000
# 2 46.0447 100.2081 55.5832 0.0000 0.0000 0.0000
# 3 52.1884 55.5832 195.5934 0.0000 0.0000 0.0000
# 4 0.0000 0.0000 0.0000 57.0138 0.0000 0.0000
# 5 0.0000 0.0000 0.0000 0.0000 28.0709 0.0000
# 6 0.0000 0.0000 0.0000 0.0000 0.0000 55.1649
#
#
#
# Elastic Compliance Matrix: (Units=1/GPa)
#
#
# Indices 1 2 3 4 5 6 
#
# 1 0.014232 -0.005263 -0.002302 0.000000 0.000000 0.000000
# 2 -0.005263 0.013793 -0.002515 0.000000 0.000000 0.000000
# 3 -0.002302 -0.002515 0.006442 0.000000 0.000000 0.000000
# 4 0.000000 0.000000 0.000000 0.017540 0.000000 0.000000
# 5 0.000000 0.000000 0.000000 0.000000 0.035624 0.000000
# 6 0.000000 0.000000 0.000000 0.000000 0.000000 0.018127
#
#
# Mechanical properties :
#
#
# Convention : Reuss Voigt Hill
#
# Bulk Modulus (GPa) = 69.89859 77.68508 73.79183
# Shear Modulus (GPa) = 38.25968 43.89771 41.07870
#
# Velocity S-wave (km/s) = 3.99461 4.27883 4.13916
# Velocity P-wave (km/s) = 7.10130 7.53732 7.32256
#
# Compressibility (1/GPa) = 0.01430644
#
# Stress axis : x y z
#
# Youngs Moduli (GPa) = 70.26438 72.50272 155.24007
#
# Poissons Ratio (x) = 0.38156 0.35734
# Poissons Ratio (y) = 0.36978 0.39048
# Poissons Ratio (z) = 0.16174 0.18237
#
# Static dielectric constant tensor:
#      x y z
#    x 2.037450 0.000000 0.000000 
#    y 0.000000 2.007430 0.000000 
#    z 0.000000 0.000000 1.822710 
# 
# From -- ./inp_files/7704.got.cif
#   From: 2010.05.17/outbox.cif.g08.bks.cpg/sg17_4_cif.got.tgz:7704.got - 2010.06.03 22:34:06.
