data_PCOD9311575
_publ_section_title
;
Structure prediction by ZEFSAII (Michael W. Deem and Ramdas Pophale) SiO2 
 PCOD9311575
Probable space group: P 2 2 21
;
_chemical_formula_sum "Si O2"
_cell_formula_units_Z 18
_cell_length_a 5.080968
_cell_length_b 5.655113
_cell_length_c 23.780605
_cell_angle_alpha 90.000000
_cell_angle_beta 90.000000
_cell_angle_gamma 90.000000
_cell_volume 683.298782
_symmetry_space_group_name_H-M "P 2 2 21"
_symmetry_group_IT_number 17
_symmetry_cell_setting 'orthorhombic'
loop_
_space_group_symop_operation_xyz
x,y,z
-x,-y,1/2+z
x,-y,-z
-x,y,1/2-z
loop_
_atom_site_type_symbol
_atom_site_label
_atom_site_fract_x
_atom_site_fract_y
_atom_site_fract_z
Si Si1 0.325492 0.446119 0.413559
Si Si2 0.000000 0.936671 0.750000
Si Si3 0.006740 0.810710 0.139412
Si Si4 0.391116 0.565515 0.805139
Si Si5 0.818450 0.175415 0.448160
O O1 0.379405 0.364621 0.348710
O O2 0.217194 0.710287 0.402634
O O3 0.591686 0.371262 0.444169
O O4 0.096395 0.307634 0.445385
O O5 0.898389 0.091031 0.802117
O O6 0.225536 0.775337 0.777335
O O7 0.197390 0.597458 0.158193
O O8 0.172795 0.007763 0.106756
O O9 0.500000 0.434391 0.750000
O O10 0.785968 0.000000 0.500000
#
# Coordination Sequence:
#
# PCOD9311575 Si02
#       5
#     4   2   4   4   4
#     4  12  26  54  75 119 158 201 278 327 398 505
#     4  12  24  48  76 120 164 218 262 338 416 496
#     4  12  26  49  81 118 161 218 259 347 415 474
#     4  12  25  46  75 117 165 205 273 327 401 517
#     4  12  29  55  82 115 162 215 274 343 409 479
#
# _framework density 26.342794000000001
#
# number of rings (size 3 to 8) (size 9 to 14) (size 15 to 20)
#    0.000    0.000    4.444    5.333    3.111    3.556 
#    8.000    0.000    0.000    0.000    0.000    0.000 
#    0.000    0.000    0.000    0.000    0.000    0.000 
#
# Total GULP energy -100933.702687 kJ/mol
# GULP energy per Si atom -5607.427927 kJ/mol
# Density = 2.628284 g / cm^3
# Si number density = 26.342794 Si / 1000 Ang^3
#
#
#
# Elastic Constant Matrix: (Units=GPa)
#
#
# Indices 1 2 3 4 5 6 
#
# 1 145.3971 35.6125 22.3053 0.0000 0.0000 0.0000
# 2 35.6125 94.0902 36.6094 0.0000 0.0000 0.0000
# 3 22.3053 36.6094 143.3032 0.0000 0.0000 0.0000
# 4 0.0000 0.0000 0.0000 67.5600 0.0000 0.0000
# 5 0.0000 0.0000 0.0000 0.0000 18.5956 0.0000
# 6 0.0000 0.0000 0.0000 0.0000 0.0000 13.9107
#
#
#
# Elastic Compliance Matrix: (Units=1/GPa)
#
#
# Indices 1 2 3 4 5 6 
#
# 1 0.007612 -0.002687 -0.000498 0.000000 0.000000 0.000000
# 2 -0.002687 0.012750 -0.002839 0.000000 0.000000 0.000000
# 3 -0.000498 -0.002839 0.007781 0.000000 0.000000 0.000000
# 4 0.000000 0.000000 0.000000 0.014802 0.000000 0.000000
# 5 0.000000 0.000000 0.000000 0.000000 0.053776 0.000000
# 6 0.000000 0.000000 0.000000 0.000000 0.000000 0.071887
#
#
# Mechanical properties :
#
#
# Convention : Reuss Voigt Hill
#
# Bulk Modulus (GPa) = 62.13460 63.53831 62.83646
# Shear Modulus (GPa) = 26.87855 39.23082 33.05468
#
# Velocity S-wave (km/s) = 3.19774 3.86326 3.54614
# Velocity P-wave (km/s) = 6.10510 6.63866 6.37746
#
# Compressibility (1/GPa) = 0.01609409
#
# Stress axis : x y z
#
# Youngs Moduli (GPa) = 131.36488 78.43254 128.51777
#
# Poissons Ratio (x) = 0.21077 0.06405
# Poissons Ratio (y) = 0.35302 0.36485
# Poissons Ratio (z) = 0.06547 0.22266
#
# Static dielectric constant tensor:
#      x y z
#    x 2.080540 0.000000 0.000000 
#    y 0.000000 2.068080 0.000000 
#    z 0.000000 0.000000 2.081020 
# 
# From -- ./inp_files/10348.got.cif
#   From: 2010.05.17/outbox.cif.g08.bks.cpg/sg17_6_cif.got.tgz:10348.got - 2010.06.03 22:34:06.
