data_PCOD9311657
_publ_section_title
;
Structure prediction by ZEFSAII (Michael W. Deem and Ramdas Pophale) SiO2 
 PCOD9311657
Probable space group: P 21 21 2
;
_chemical_formula_sum "Si O2"
_cell_formula_units_Z 28
_cell_length_a 11.586676
_cell_length_b 7.702584
_cell_length_c 13.209094
_cell_angle_alpha 90.000000
_cell_angle_beta 90.000000
_cell_angle_gamma 90.000000
_cell_volume 1178.876572
_symmetry_space_group_name_H-M "P 21 21 2"
_symmetry_group_IT_number 18
_symmetry_cell_setting 'orthorhombic'
loop_
_space_group_symop_operation_xyz
x,y,z
-x,-y,z
1/2+x,1/2-y,-z
1/2-x,1/2+y,-z
loop_
_atom_site_type_symbol
_atom_site_label
_atom_site_fract_x
_atom_site_fract_y
_atom_site_fract_z
Si Si1 0.493898 0.257746 0.899070
Si Si2 0.719043 0.506385 0.391180
Si Si3 0.155455 0.868936 0.393331
Si Si4 0.670796 0.046013 0.977929
Si Si5 0.633314 0.461612 0.170986
Si Si6 0.436737 0.814336 0.678767
Si Si7 0.732704 0.586646 0.822796
O O1 0.593951 0.223168 0.981184
O O2 0.566382 0.230939 0.796552
O O3 0.396047 0.398901 0.873013
O O4 0.405868 0.099124 0.923188
O O5 0.776872 0.315790 0.395498
O O6 0.663520 0.540865 0.499216
O O7 0.645838 0.522565 0.288284
O O8 0.818370 0.650688 0.376298
O O9 0.209782 0.962798 0.293764
O O10 0.024043 0.818454 0.370936
O O11 0.784952 0.061276 0.909655
O O12 0.697192 0.984729 0.091875
O O13 0.500000 0.500000 0.142629
O O14 0.695068 0.269722 0.178557
O O15 0.500000 0.000000 0.676445
#
# Coordination Sequence:
#
# PCOD9311657 Si02
#       7
#     4   4   4   4   4   4   4
#     4   9  16  32  56  80  97 148 197 217 269 350
#     4  10  19  37  58  82 111 152 195 237 285 343
#     4   9  20  34  57  81 114 148 193 238 285 336
#     4  10  17  32  57  78 106 144 185 227 281 342
#     4  10  21  35  52  84 114 141 183 239 296 333
#     4   9  14  32  58  78 101 145 203 227 262 348
#     4   9  20  33  53  80 112 146 181 242 282 337
#
# _framework density 23.751425999999999
#
# number of rings (size 3 to 8) (size 9 to 14) (size 15 to 20)
#    0.000    2.571    2.857    1.714    2.000    2.286 
#    0.000    2.857    9.429    0.857    0.000    0.000 
#    0.000    0.000    0.000    0.000    0.000    0.000 
#
# Total GULP energy -156188.926443 kJ/mol
# GULP energy per Si atom -5578.175944 kJ/mol
# Density = 2.369737 g / cm^3
# Si number density = 23.751426 Si / 1000 Ang^3
#
#
#
# Elastic Constant Matrix: (Units=GPa)
#
#
# Indices 1 2 3 4 5 6 
#
# 1 116.0764 10.8450 42.8603 0.0000 0.0000 0.0000
# 2 10.8450 76.4532 19.5946 0.0000 0.0000 0.0000
# 3 42.8603 19.5946 170.7901 0.0000 0.0000 0.0000
# 4 0.0000 0.0000 0.0000 17.9551 0.0000 0.0000
# 5 0.0000 0.0000 0.0000 0.0000 74.9346 0.0000
# 6 0.0000 0.0000 0.0000 0.0000 0.0000 18.6091
#
#
#
# Elastic Compliance Matrix: (Units=1/GPa)
#
#
# Indices 1 2 3 4 5 6 
#
# 1 0.009538 -0.000762 -0.002306 0.000000 0.000000 0.000000
# 2 -0.000762 0.013537 -0.001362 0.000000 0.000000 0.000000
# 3 -0.002306 -0.001362 0.006590 0.000000 0.000000 0.000000
# 4 0.000000 0.000000 0.000000 0.055695 0.000000 0.000000
# 5 0.000000 0.000000 0.000000 0.000000 0.013345 0.000000
# 6 0.000000 0.000000 0.000000 0.000000 0.000000 0.053737
#
#
# Mechanical properties :
#
#
# Convention : Reuss Voigt Hill
#
# Bulk Modulus (GPa) = 48.06523 56.65771 52.36147
# Shear Modulus (GPa) = 29.72014 41.63444 35.67729
#
# Velocity S-wave (km/s) = 3.54121 4.19134 3.87991
# Velocity P-wave (km/s) = 6.08284 6.87963 6.49347
#
# Compressibility (1/GPa) = 0.02080506
#
# Stress axis : x y z
#
# Youngs Moduli (GPa) = 104.84700 73.87157 151.74253
#
# Poissons Ratio (x) = 0.05628 0.34993
# Poissons Ratio (y) = 0.07988 0.20666
# Poissons Ratio (z) = 0.24179 0.10060
#
# Static dielectric constant tensor:
#      x y z
#    x 1.885340 0.000000 0.000000 
#    y 0.000000 2.077110 0.000000 
#    z 0.000000 0.000000 1.859950 
# 
# From -- ./inp_files/5921.got.cif
#   From: 2010.05.17/outbox.cif.g08.bks.cpg/sg18_3_cif.got.tgz:5921.got - 2010.06.03 22:40:56.
