data_PCOD9311829
_publ_section_title
;
Structure prediction by ZEFSAII (Michael W. Deem and Ramdas Pophale) SiO2 
 PCOD9311829
Probable space group: P 21 21 2
;
_chemical_formula_sum "Si O2"
_cell_formula_units_Z 32
_cell_length_a 12.204754
_cell_length_b 14.164534
_cell_length_c 8.867453
_cell_angle_alpha 90.000000
_cell_angle_beta 90.000000
_cell_angle_gamma 90.000000
_cell_volume 1532.957860
_symmetry_space_group_name_H-M "P 21 21 2"
_symmetry_group_IT_number 18
_symmetry_cell_setting 'orthorhombic'
loop_
_space_group_symop_operation_xyz
x,y,z
-x,-y,z
1/2+x,1/2-y,-z
1/2-x,1/2+y,-z
loop_
_atom_site_type_symbol
_atom_site_label
_atom_site_fract_x
_atom_site_fract_y
_atom_site_fract_z
Si Si1 0.544357 0.893312 0.242570
Si Si2 0.663917 0.184273 0.104146
Si Si3 0.237341 0.154019 0.680009
Si Si4 0.246436 0.496021 0.714353
Si Si5 0.872052 0.515961 0.387728
Si Si6 0.915426 0.878423 0.406040
Si Si7 0.896738 0.235103 0.541193
Si Si8 0.204537 0.295441 0.244132
O O1 0.464720 0.844903 0.120532
O O2 0.672908 0.916944 0.216365
O O3 0.535374 0.823663 0.387713
O O4 0.500000 0.000000 0.260887
O O5 0.687641 0.281744 0.190535
O O6 0.727401 0.097763 0.188110
O O7 0.701848 0.198082 0.934507
O O8 0.315319 0.065557 0.713262
O O9 0.142778 0.117114 0.569479
O O10 0.311606 0.221681 0.576286
O O11 0.190763 0.482733 0.548929
O O12 0.370420 0.530606 0.684544
O O13 0.856400 0.614079 0.307836
O O14 0.000000 0.500000 0.407121
O O15 0.861251 0.793044 0.311732
O O16 0.035430 0.844188 0.453858
O O17 0.825913 0.200837 0.683647
#
# Coordination Sequence:
#
# PCOD9311829 Si02
#       8
#     4   4   4   4   4   4   4   4
#     4  10  19  34  68  94 123 164 204 267 326 381
#     4  11  23  40  58  92 138 170 198 263 342 397
#     4  10  21  37  63  90 116 166 215 271 312 378
#     4  10  20  37  68  94 121 166 212 267 322 385
#     4  11  21  38  63  95 118 155 225 277 309 373
#     4  10  20  38  64  91 120 165 222 266 317 382
#     4  11  20  40  64  92 126 167 220 272 319 379
#     4  11  25  38  60  96 135 168 207 270 337 401
#
# _framework density 20.874676000000001
#
# number of rings (size 3 to 8) (size 9 to 14) (size 15 to 20)
#    0.000    1.500    5.000    3.375    1.750    2.500 
#    4.500    5.625    0.000    3.000    0.000    0.000 
#    0.000    0.000    0.000    0.000    0.000    0.000 
#
# Total GULP energy -178546.671550 kJ/mol
# GULP energy per Si atom -5579.583486 kJ/mol
# Density = 2.082716 g / cm^3
# Si number density = 20.874676 Si / 1000 Ang^3
#
#
#
# Elastic Constant Matrix: (Units=GPa)
#
#
# Indices 1 2 3 4 5 6 
#
# 1 35.8258 9.8987 19.4030 0.0000 0.0000 0.0000
# 2 9.8987 87.9366 44.4489 0.0000 0.0000 0.0000
# 3 19.4030 44.4489 70.8541 0.0000 0.0000 0.0000
# 4 0.0000 0.0000 0.0000 20.8662 0.0000 0.0000
# 5 0.0000 0.0000 0.0000 0.0000 17.4485 0.0000
# 6 0.0000 0.0000 0.0000 0.0000 0.0000 22.5909
#
#
#
# Elastic Compliance Matrix: (Units=1/GPa)
#
#
# Indices 1 2 3 4 5 6 
#
# 1 0.032866 0.001244 -0.009781 0.000000 0.000000 0.000000
# 2 0.001244 0.016699 -0.010817 0.000000 0.000000 0.000000
# 3 -0.009781 -0.010817 0.023578 0.000000 0.000000 0.000000
# 4 0.000000 0.000000 0.000000 0.047924 0.000000 0.000000
# 5 0.000000 0.000000 0.000000 0.000000 0.057311 0.000000
# 6 0.000000 0.000000 0.000000 0.000000 0.000000 0.044266
#
#
# Mechanical properties :
#
#
# Convention : Reuss Voigt Hill
#
# Bulk Modulus (GPa) = 29.03886 38.01308 33.52597
# Shear Modulus (GPa) = 18.32644 20.23884 19.28264
#
# Velocity S-wave (km/s) = 2.96620 3.11712 3.04260
# Velocity P-wave (km/s) = 5.06679 5.58614 5.33279
#
# Compressibility (1/GPa) = 0.03443662
#
# Stress axis : x y z
#
# Youngs Moduli (GPa) = 30.42631 59.88300 42.41326
#
# Poissons Ratio (x) = -0.07451 0.41483
# Poissons Ratio (y) = -0.03786 0.45877
# Poissons Ratio (z) = 0.29759 0.64773
#
# Static dielectric constant tensor:
#      x y z
#    x 1.834400 0.000000 0.000000 
#    y 0.000000 1.805360 0.000000 
#    z 0.000000 0.000000 1.716860 
# 
# From -- ./inp_files/3935.got.cif
#   From: 2010.05.17/outbox.cif.g08.bks.cpg/sg18_2_cif.got.tgz:3935.got - 2010.06.03 22:40:56.
