data_PCOD9311447
_publ_section_title
;
Structure prediction by ZEFSAII (Michael W. Deem and Ramdas Pophale) SiO2 
 PCOD9311447
Probable space group: P 2 2 21
;
_chemical_formula_sum "Si O2"
_cell_formula_units_Z 24
_cell_length_a 7.221814
_cell_length_b 5.744061
_cell_length_c 23.822130
_cell_angle_alpha 90.000000
_cell_angle_beta 90.000000
_cell_angle_gamma 90.000000
_cell_volume 988.202464
_symmetry_space_group_name_H-M "P 2 2 21"
_symmetry_group_IT_number 17
_symmetry_cell_setting 'orthorhombic'
loop_
_space_group_symop_operation_xyz
x,y,z
-x,-y,1/2+z
x,-y,-z
-x,y,1/2-z
loop_
_atom_site_type_symbol
_atom_site_label
_atom_site_fract_x
_atom_site_fract_y
_atom_site_fract_z
Si Si1 0.170282 0.430492 0.375849
Si Si2 0.704997 0.996100 0.386143
Si Si3 0.933482 0.000000 0.500000
Si Si4 0.147421 0.500000 0.500000
Si Si5 0.692026 0.669391 0.234008
Si Si6 0.280182 0.501096 0.857043
Si Si7 0.039022 0.939811 0.694844
O O1 0.238170 0.485964 0.438107
O O2 0.288835 0.534605 0.324729
O O3 0.157429 0.163205 0.356519
O O4 0.944477 0.495503 0.372859
O O5 0.808123 0.006302 0.445064
O O6 0.626734 0.257424 0.377682
O O7 0.851995 0.989164 0.335238
O O8 0.626800 0.734193 0.381594
O O9 0.041905 0.248008 0.501354
O O10 0.500000 0.793610 0.250000
O O11 0.713009 0.513483 0.289582
O O12 0.844352 0.859723 0.222709
O O13 0.000000 0.780926 0.750000
#
# Coordination Sequence:
#
# PCOD9311447 Si02
#       7
#     4   4   2   2   4   4   4
#     4  11  22  39  63  95 122 167 204 268 317 381
#     4  11  20  35  63  88 127 153 203 254 316 366
#     4  12  18  36  54 104 124 160 198 268 316 384
#     4  12  22  34  66  94 134 152 214 258 322 376
#     4  12  25  39  59  91 129 170 214 261 321 381
#     4  11  21  39  61  92 121 160 201 260 317 366
#     4  11  19  37  62  90 121 162 206 261 323 369
#
# _framework density 24.286519999999999
#
# number of rings (size 3 to 8) (size 9 to 14) (size 15 to 20)
#    0.000    0.667    8.333    2.500    0.000    0.667 
#    0.000    0.000    0.000    3.000    0.000    0.000 
#    0.000    0.000    0.000    0.000    0.000    0.000 
#
# Total GULP energy -133680.431003 kJ/mol
# GULP energy per Si atom -5570.017958 kJ/mol
# Density = 2.423124 g / cm^3
# Si number density = 24.286520 Si / 1000 Ang^3
#
#
#
# Elastic Constant Matrix: (Units=GPa)
#
#
# Indices 1 2 3 4 5 6 
#
# 1 49.0414 16.3333 2.2500 0.0000 0.0000 0.0000
# 2 16.3333 183.9297 44.0267 0.0000 0.0000 0.0000
# 3 2.2500 44.0267 203.7133 0.0000 0.0000 0.0000
# 4 0.0000 0.0000 0.0000 36.3803 0.0000 0.0000
# 5 0.0000 0.0000 0.0000 0.0000 23.0822 0.0000
# 6 0.0000 0.0000 0.0000 0.0000 0.0000 -38.2660
#
#
#
# Elastic Compliance Matrix: (Units=1/GPa)
#
#
# Indices 1 2 3 4 5 6 
#
# 1 0.021019 -0.001910 0.000181 0.000000 0.000000 0.000000
# 2 -0.001910 0.005907 -0.001256 0.000000 0.000000 0.000000
# 3 0.000181 -0.001256 0.005178 0.000000 0.000000 0.000000
# 4 0.000000 0.000000 0.000000 0.027487 0.000000 0.000000
# 5 0.000000 0.000000 0.000000 0.000000 0.043323 0.000000
# 6 0.000000 0.000000 0.000000 0.000000 0.000000 -0.026133
#
#
# Mechanical properties :
#
#
# Convention : Reuss Voigt Hill
#
# Bulk Modulus (GPa) = 38.26353 62.43383 50.34868
# Shear Modulus (GPa) = 54.66710 29.17759 41.92234
#
# Velocity S-wave (km/s) = 4.74954 3.46987 4.15921
# Velocity P-wave (km/s) = 6.77250 6.46655 6.62129
#
# Compressibility (1/GPa) = 0.02613455
#
# Stress axis : x y z
#
# Youngs Moduli (GPa) = 47.57667 169.29132 193.11692
#
# Poissons Ratio (x) = 0.32330 -0.03487
# Poissons Ratio (y) = 0.09086 0.24246
# Poissons Ratio (z) = -0.00859 0.21255
#
# Static dielectric constant tensor:
#      x y z
#    x 2.038860 0.000000 0.000000 
#    y 0.000000 2.183580 0.000000 
#    z 0.000000 0.000000 2.999860 
# 
# From -- ./inp_files/10578.got.cif
#   From: 2010.05.17/outbox.cif.g08.bks.cpg/sg17_6_cif.got.tgz:10578.got - 2010.06.03 22:34:06.
