data_PCOD9311012
_publ_section_title
;
Structure prediction by ZEFSAII (Michael W. Deem and Ramdas Pophale) SiO2 
 PCOD9311012
Probable space group: P 2 2 21
;
_chemical_formula_sum "Si O2"
_cell_formula_units_Z 32
_cell_length_a 7.305951
_cell_length_b 14.790131
_cell_length_c 12.852596
_cell_angle_alpha 90.000000
_cell_angle_beta 90.000000
_cell_angle_gamma 90.000000
_cell_volume 1388.799758
_symmetry_space_group_name_H-M "P 2 2 21"
_symmetry_group_IT_number 17
_symmetry_cell_setting 'orthorhombic'
loop_
_space_group_symop_operation_xyz
x,y,z
-x,-y,1/2+z
x,-y,-z
-x,y,1/2-z
loop_
_atom_site_type_symbol
_atom_site_label
_atom_site_fract_x
_atom_site_fract_y
_atom_site_fract_z
Si Si1 0.722520 0.399109 0.531718
Si Si2 0.293367 0.735163 0.631965
Si Si3 0.813400 0.949943 0.599287
Si Si4 0.789617 0.093921 0.000420
Si Si5 0.277544 0.312805 0.756631
Si Si6 0.274808 0.400423 0.537111
Si Si7 0.282266 0.744488 0.861271
Si Si8 0.722468 0.891794 0.241848
O O1 0.777261 0.500000 0.500000
O O2 0.781987 0.373985 0.647514
O O3 0.498646 0.398540 0.536756
O O4 0.787778 0.320838 0.452295
O O5 0.293514 0.829241 0.570842
O O6 0.207929 0.665052 0.553343
O O7 0.205689 0.734013 0.745119
O O8 0.506795 0.714792 0.644767
O O9 0.728192 0.851834 0.618663
O O10 0.018640 0.925987 0.559535
O O11 0.727860 0.000000 0.500000
O O12 0.800678 0.021899 0.694288
O O13 0.792013 0.114804 0.877732
O O14 0.682590 0.000000 0.000000
O O15 0.500000 0.310573 0.750000
O O16 0.217995 0.357710 0.647719
O O17 0.226119 0.208568 0.782281
O O18 0.221062 0.500000 0.500000
O O19 0.500000 0.900213 0.250000
#
# Coordination Sequence:
#
# PCOD9311012 Si02
#       8
#     4   4   4   4   4   4   4   4
#     4   9  18  31  52  85 124 164 207 272 338 398
#     4  10  21  37  59  88 127 165 213 275 328 398
#     4  11  26  42  63  90 128 171 217 272 333 401
#     4  11  25  42  62  91 132 169 219 271 334 406
#     4   9  17  32  53  87 126 165 217 273 332 396
#     4   9  17  30  54  86 124 163 209 271 342 391
#     4  10  22  36  57  90 123 165 220 267 333 403
#     4  11  24  40  69  98 130 181 230 283 334 400
#
# _framework density 23.041477
#
# number of rings (size 3 to 8) (size 9 to 14) (size 15 to 20)
#    0.000    2.000    1.250    1.500    8.750    4.500 
#    0.000    0.000    0.000    0.750    0.000    0.000 
#    0.000    0.000    0.000    0.000    0.000    0.000 
#
# Total GULP energy -178583.443007 kJ/mol
# GULP energy per Si atom -5580.732594 kJ/mol
# Density = 2.298903 g / cm^3
# Si number density = 23.041477 Si / 1000 Ang^3
#
#
#
# Elastic Constant Matrix: (Units=GPa)
#
#
# Indices 1 2 3 4 5 6 
#
# 1 103.8548 -0.4449 19.3414 0.0000 0.0000 0.0000
# 2 -0.4449 168.7084 99.9929 0.0000 0.0000 0.0000
# 3 19.3414 99.9929 210.8451 0.0000 0.0000 0.0000
# 4 0.0000 0.0000 0.0000 45.2712 0.0000 0.0000
# 5 0.0000 0.0000 0.0000 0.0000 4.7067 0.0000
# 6 0.0000 0.0000 0.0000 0.0000 0.0000 -79.7784
#
#
#
# Elastic Compliance Matrix: (Units=1/GPa)
#
#
# Indices 1 2 3 4 5 6 
#
# 1 0.009870 0.000783 -0.001277 0.000000 0.000000 0.000000
# 2 0.000783 0.008307 -0.004011 0.000000 0.000000 0.000000
# 3 -0.001277 -0.004011 0.006762 0.000000 0.000000 0.000000
# 4 0.000000 0.000000 0.000000 0.022089 0.000000 0.000000
# 5 0.000000 0.000000 0.000000 0.000000 0.212462 0.000000
# 6 0.000000 0.000000 0.000000 0.000000 0.000000 -0.012535
#
#
# Mechanical properties :
#
#
# Convention : Reuss Voigt Hill
#
# Bulk Modulus (GPa) = 62.78000 80.13190 71.45595
# Shear Modulus (GPa) = 19.13686 18.34117 18.73902
#
# Velocity S-wave (km/s) = 2.88503 2.82442 2.85489
# Velocity P-wave (km/s) = 6.19706 6.74457 6.47660
#
# Compressibility (1/GPa) = 0.01592864
#
# Stress axis : x y z
#
# Youngs Moduli (GPa) = 101.31788 120.38083 147.87869
#
# Poissons Ratio (x) = -0.09422 0.18878
# Poissons Ratio (y) = -0.07930 0.59319
# Poissons Ratio (z) = 0.12934 0.48289
#
# Static dielectric constant tensor:
#      x y z
#    x 1.947950 0.000000 0.000000 
#    y 0.000000 1.828360 0.000000 
#    z 0.000000 0.000000 1.948410 
# 
# From -- ./inp_files/6726.got.cif
#   From: 2010.05.17/outbox.cif.g08.bks.cpg/sg17_4_cif.got.tgz:6726.got - 2010.06.03 22:34:06.
