data_PCOD9311619
_publ_section_title
;
Structure prediction by ZEFSAII (Michael W. Deem and Ramdas Pophale) SiO2 
 PCOD9311619
Probable space group: P 21 21 2
;
_chemical_formula_sum "Si O2"
_cell_formula_units_Z 28
_cell_length_a 19.677403
_cell_length_b 5.415823
_cell_length_c 12.513415
_cell_angle_alpha 90.000000
_cell_angle_beta 90.000000
_cell_angle_gamma 90.000000
_cell_volume 1333.546274
_symmetry_space_group_name_H-M "P 21 21 2"
_symmetry_group_IT_number 18
_symmetry_cell_setting 'orthorhombic'
loop_
_space_group_symop_operation_xyz
x,y,z
-x,-y,z
1/2+x,1/2-y,-z
1/2-x,1/2+y,-z
loop_
_atom_site_type_symbol
_atom_site_label
_atom_site_fract_x
_atom_site_fract_y
_atom_site_fract_z
Si Si1 0.815847 0.679754 0.906908
Si Si2 0.103984 0.240741 0.244854
Si Si3 0.250443 0.818368 0.855064
Si Si4 0.773711 0.836364 0.623819
Si Si5 0.618876 0.762571 0.641444
Si Si6 0.458298 0.746896 0.992056
Si Si7 0.182188 0.660186 0.574322
O O1 0.799838 0.414799 0.856038
O O2 0.783261 0.911398 0.845138
O O3 0.781503 0.674915 0.024447
O O4 0.894199 0.729504 0.930012
O O5 0.184816 0.258902 0.219160
O O6 0.086404 0.495946 0.304783
O O7 0.067753 0.223141 0.130562
O O8 0.091415 0.995609 0.314608
O O9 0.822976 0.603326 0.630301
O O10 0.699646 0.774863 0.670915
O O11 0.752398 0.863467 0.496260
O O12 0.806586 0.101161 0.646276
O O13 0.623773 0.791384 0.513367
O O14 0.500000 0.500000 0.016444
O O15 0.500000 0.000000 0.999000
#
# Coordination Sequence:
#
# PCOD9311619 Si02
#       7
#     4   4   4   4   4   4   4
#     4   9  17  31  48  59  77 104 136 179 212 250
#     4  11  20  28  43  64  88 112 142 179 217 274
#     4   9  17  29  44  64  80 101 137 173 217 255
#     4   8  13  22  35  52  77 112 150 172 181 214
#     4  10  16  25  38  59  85 113 145 167 205 252
#     4  11  22  35  47  62  82 110 150 186 215 249
#     4   8  13  22  35  52  77 112 150 172 181 214
#
# _framework density 20.996645999999998
#
# number of rings (size 3 to 8) (size 9 to 14) (size 15 to 20)
#    0.857    1.714    0.000    4.286    0.000    4.571 
#    0.000    0.000    0.000    0.000    0.000    0.000 
#    0.000    0.000    0.000    0.000    0.000 1440.000 
#
# Total GULP energy -156182.610505 kJ/mol
# GULP energy per Si atom -5577.950375 kJ/mol
# Density = 2.094886 g / cm^3
# Si number density = 20.996646 Si / 1000 Ang^3
#
#
#
# Elastic Constant Matrix: (Units=GPa)
#
#
# Indices 1 2 3 4 5 6 
#
# 1 68.0302 35.4040 0.6157 0.0000 0.0000 0.0000
# 2 35.4040 196.0459 5.3051 0.0000 0.0000 0.0000
# 3 0.6157 5.3051 27.1912 0.0000 0.0000 0.0000
# 4 0.0000 0.0000 0.0000 54.3167 0.0000 0.0000
# 5 0.0000 0.0000 0.0000 0.0000 27.6946 0.0000
# 6 0.0000 0.0000 0.0000 0.0000 0.0000 17.0767
#
#
#
# Elastic Compliance Matrix: (Units=1/GPa)
#
#
# Indices 1 2 3 4 5 6 
#
# 1 0.016225 -0.002936 0.000205 0.000000 0.000000 0.000000
# 2 -0.002936 0.005659 -0.001038 0.000000 0.000000 0.000000
# 3 0.000205 -0.001038 0.036974 0.000000 0.000000 0.000000
# 4 0.000000 0.000000 0.000000 0.018411 0.000000 0.000000
# 5 0.000000 0.000000 0.000000 0.000000 0.036108 0.000000
# 6 0.000000 0.000000 0.000000 0.000000 0.000000 0.058559
#
#
# Mechanical properties :
#
#
# Convention : Reuss Voigt Hill
#
# Bulk Modulus (GPa) = 19.48454 41.54634 30.51544
# Shear Modulus (GPa) = 25.43493 36.48045 30.95769
#
# Velocity S-wave (km/s) = 3.48427 4.17279 3.84397
# Velocity P-wave (km/s) = 5.04844 6.56097 5.85376
#
# Compressibility (1/GPa) = 0.05132274
#
# Stress axis : x y z
#
# Youngs Moduli (GPa) = 61.63227 176.70708 27.04579
#
# Poissons Ratio (x) = 0.51876 -0.00555
# Poissons Ratio (y) = 0.18093 0.02806
# Poissons Ratio (z) = -0.01266 0.18336
#
# Static dielectric constant tensor:
#      x y z
#    x 1.721580 0.000000 0.000000 
#    y 0.000000 1.766620 0.000000 
#    z 0.000000 0.000000 1.906600 
# 
# From -- ./inp_files/7436.got.cif
#   From: 2010.05.17/outbox.cif.g08.bks.cpg/sg18_4_cif.got.tgz:7436.got - 2010.06.03 22:40:56.
