data_PCOD9311787
_publ_section_title
;
Structure prediction by ZEFSAII (Michael W. Deem and Ramdas Pophale) SiO2 
 PCOD9311787
Probable space group: P 21 21 2
;
_chemical_formula_sum "Si O2"
_cell_formula_units_Z 32
_cell_length_a 8.538662
_cell_length_b 14.360178
_cell_length_c 13.311595
_cell_angle_alpha 90.000000
_cell_angle_beta 90.000000
_cell_angle_gamma 90.000000
_cell_volume 1632.223933
_symmetry_space_group_name_H-M "P 21 21 2"
_symmetry_group_IT_number 18
_symmetry_cell_setting 'orthorhombic'
loop_
_space_group_symop_operation_xyz
x,y,z
-x,-y,z
1/2+x,1/2-y,-z
1/2-x,1/2+y,-z
loop_
_atom_site_type_symbol
_atom_site_label
_atom_site_fract_x
_atom_site_fract_y
_atom_site_fract_z
Si Si1 0.961932 0.392688 0.687419
Si Si2 0.970736 0.106692 0.474253
Si Si3 0.655201 0.466380 0.935813
Si Si4 0.604406 0.364915 0.728760
Si Si5 0.353201 0.849659 0.112353
Si Si6 0.124387 0.713905 0.235390
Si Si7 0.193666 0.261843 0.564899
Si Si8 0.431907 0.103073 0.946039
O O1 0.020996 0.372013 0.800610
O O2 0.058676 0.325764 0.614262
O O3 0.000000 0.500000 0.664383
O O4 0.777497 0.375420 0.685246
O O5 0.979786 0.099066 0.352961
O O6 0.108631 0.178094 0.506319
O O7 0.810431 0.165852 0.492867
O O8 0.000000 0.000000 0.512347
O O9 0.500000 0.500000 0.992744
O O10 0.602086 0.417451 0.833730
O O11 0.753742 0.557202 0.905957
O O12 0.765197 0.398681 0.998660
O O13 0.543880 0.261565 0.749070
O O14 0.234178 0.775345 0.160154
O O15 0.449161 0.830950 0.009372
O O16 0.209213 0.715113 0.342891
O O17 0.093105 0.623266 0.170470
O O18 0.500000 0.000000 0.957417
#
# Coordination Sequence:
#
# PCOD9311787 Si02
#       8
#     4   4   4   4   4   4   4   4
#     4  11  18  33  59  91 124 157 192 256 322 364
#     4  11  23  42  66  92 127 163 205 270 324 374
#     4  11  19  33  55  87 117 149 194 253 297 364
#     4  11  20  34  61  90 119 153 196 257 322 361
#     4  10  19  31  54  84 119 147 197 246 299 356
#     4  10  23  37  57  84 121 161 202 254 297 364
#     4  10  24  42  61  96 125 159 216 259 308 396
#     4  10  22  39  54  82 119 162 202 245 294 365
#
# _framework density 19.605153000000001
#
# number of rings (size 3 to 8) (size 9 to 14) (size 15 to 20)
#    0.000    1.500    3.750    2.250    3.500    0.000 
#    0.000    8.125    0.000    0.000    0.000    0.000 
#    0.000    0.000    0.000    0.000    0.000    0.000 
#
# Total GULP energy -178405.886303 kJ/mol
# GULP energy per Si atom -5575.183947 kJ/mol
# Density = 1.956053 g / cm^3
# Si number density = 19.605153 Si / 1000 Ang^3
#
#
#
# Elastic Constant Matrix: (Units=GPa)
#
#
# Indices 1 2 3 4 5 6 
#
# 1 70.6565 23.2913 -4.6596 0.0000 0.0000 0.0000
# 2 23.2913 67.7611 21.4780 0.0000 0.0000 0.0000
# 3 -4.6596 21.4780 36.9115 0.0000 0.0000 0.0000
# 4 0.0000 0.0000 0.0000 22.1939 0.0000 0.0000
# 5 0.0000 0.0000 0.0000 0.0000 13.2400 0.0000
# 6 0.0000 0.0000 0.0000 0.0000 0.0000 21.5375
#
#
#
# Elastic Compliance Matrix: (Units=1/GPa)
#
#
# Indices 1 2 3 4 5 6 
#
# 1 0.017291 -0.008136 0.006917 0.000000 0.000000 0.000000
# 2 -0.008136 0.021923 -0.013784 0.000000 0.000000 0.000000
# 3 0.006917 -0.013784 0.035985 0.000000 0.000000 0.000000
# 4 0.000000 0.000000 0.000000 0.045058 0.000000 0.000000
# 5 0.000000 0.000000 0.000000 0.000000 0.075529 0.000000
# 6 0.000000 0.000000 0.000000 0.000000 0.000000 0.046431
#
#
# Mechanical properties :
#
#
# Convention : Reuss Voigt Hill
#
# Bulk Modulus (GPa) = 22.12667 28.39428 25.26048
# Shear Modulus (GPa) = 17.40422 20.40889 18.90655
#
# Velocity S-wave (km/s) = 2.98272 3.22995 3.10879
# Velocity P-wave (km/s) = 4.81382 5.33147 5.07924
#
# Compressibility (1/GPa) = 0.04519432
#
# Stress axis : x y z
#
# Youngs Moduli (GPa) = 57.83340 45.61371 27.78904
#
# Poissons Ratio (x) = 0.37111 -0.19221
# Poissons Ratio (y) = 0.47052 0.38304
# Poissons Ratio (z) = -0.40002 0.62873
#
# Static dielectric constant tensor:
#      x y z
#    x 1.729520 0.000000 0.000000 
#    y 0.000000 1.704600 0.000000 
#    z 0.000000 0.000000 1.690780 
# 
# From -- ./inp_files/6800.got.cif
#   From: 2010.05.17/outbox.cif.g08.bks.cpg/sg18_4_cif.got.tgz:6800.got - 2010.06.03 22:40:56.
