data_PCOD9311156
_publ_section_title
;
Structure prediction by ZEFSAII (Michael W. Deem and Ramdas Pophale) SiO2 
 PCOD9311156
Probable space group: P 2 2 21
;
_chemical_formula_sum "Si O2"
_cell_formula_units_Z 26
_cell_length_a 8.919265
_cell_length_b 5.383095
_cell_length_c 26.047957
_cell_angle_alpha 90.000000
_cell_angle_beta 90.000000
_cell_angle_gamma 90.000000
_cell_volume 1250.647093
_symmetry_space_group_name_H-M "P 2 2 21"
_symmetry_group_IT_number 17
_symmetry_cell_setting 'orthorhombic'
loop_
_space_group_symop_operation_xyz
x,y,z
-x,-y,1/2+z
x,-y,-z
-x,y,1/2-z
loop_
_atom_site_type_symbol
_atom_site_label
_atom_site_fract_x
_atom_site_fract_y
_atom_site_fract_z
Si Si1 0.500000 0.235650 0.250000
Si Si2 0.651005 0.451991 0.838389
Si Si3 0.901616 0.248160 0.652579
Si Si4 0.404464 0.748089 0.090273
Si Si5 0.205154 0.063589 0.739945
Si Si6 0.270751 0.500000 0.000000
Si Si7 0.921972 0.238846 0.151661
Si Si8 0.720828 0.000000 0.500000
O O1 0.458809 0.402989 0.299151
O O2 0.642413 0.061945 0.260551
O O3 0.553115 0.292283 0.877719
O O4 0.749625 0.267744 0.802799
O O5 0.760855 0.650797 0.865761
O O6 0.739180 0.239409 0.626871
O O7 0.877151 0.189856 0.712645
O O8 0.968967 0.524251 0.646735
O O9 0.002337 0.016515 0.631196
O O10 0.373086 0.524338 0.050246
O O11 0.384430 0.971692 0.049775
O O12 0.119654 0.843340 0.710038
O O13 0.182214 0.753409 0.997843
#
# Coordination Sequence:
#
# PCOD9311156 Si02
#       8
#     2   4   4   4   4   2   4   2
#     4  10  22  36  62  96 136 170 218 270 314 372
#     4  11  23  43  61  99 135 176 217 280 320 399
#     4  12  26  40  68  95 130 188 220 265 323 399
#     4  10  23  42  74  96 130 159 233 271 350 383
#     4  11  24  40  61  94 139 177 226 261 313 394
#     4   8  20  40  64 102 120 156 204 296 328 392
#     4  11  27  41  60  94 141 177 221 259 324 386
#     4   8  20  40  66 100 120 156 204 296 328 390
#
# _framework density 20.789238999999998
#
# number of rings (size 3 to 8) (size 9 to 14) (size 15 to 20)
#    0.923    0.615    1.538    2.769   10.769    2.462 
#    0.000    0.000    0.000    3.692    0.000    0.000 
#    0.000    0.000    0.000    0.000    0.000    0.000 
#
# Total GULP energy -144796.497763 kJ/mol
# GULP energy per Si atom -5569.096068 kJ/mol
# Density = 2.074192 g / cm^3
# Si number density = 20.789239 Si / 1000 Ang^3
#
#
#
# Elastic Constant Matrix: (Units=GPa)
#
#
# Indices 1 2 3 4 5 6 
#
# 1 63.3376 18.4109 16.7910 0.0000 0.0000 0.0000
# 2 18.4109 151.7621 6.9777 0.0000 0.0000 0.0000
# 3 16.7910 6.9777 65.8349 0.0000 0.0000 0.0000
# 4 0.0000 0.0000 0.0000 27.7879 0.0000 0.0000
# 5 0.0000 0.0000 0.0000 0.0000 -3.7509 0.0000
# 6 0.0000 0.0000 0.0000 0.0000 0.0000 42.5312
#
#
#
# Elastic Compliance Matrix: (Units=1/GPa)
#
#
# Indices 1 2 3 4 5 6 
#
# 1 0.017475 -0.001924 -0.004253 0.000000 0.000000 0.000000
# 2 -0.001924 0.006833 -0.000233 0.000000 0.000000 0.000000
# 3 -0.004253 -0.000233 0.016299 0.000000 0.000000 0.000000
# 4 0.000000 0.000000 0.000000 0.035987 0.000000 0.000000
# 5 0.000000 0.000000 0.000000 0.000000 -0.266601 0.000000
# 6 0.000000 0.000000 0.000000 0.000000 0.000000 0.023512
#
#
# Mechanical properties :
#
#
# Convention : Reuss Voigt Hill
#
# Bulk Modulus (GPa) = 35.98956 40.58821 38.28888
# Shear Modulus (GPa) = -34.62345 29.23064 -2.69641
#
# Velocity S-wave (km/s) = -4.08542 3.75380 -1.14010
# Velocity P-wave (km/s) = 2.21472 6.19306 4.08956
#
# Compressibility (1/GPa) = 0.02778584
#
# Stress axis : x y z
#
# Youngs Moduli (GPa) = 57.22360 146.33885 61.35353
#
# Poissons Ratio (x) = 0.28162 0.26094
# Poissons Ratio (y) = 0.11012 0.01432
# Poissons Ratio (z) = 0.24338 0.03416
#
# Static dielectric constant tensor:
#      x y z
#    x 1.792640 0.000000 0.000000 
#    y 0.000000 1.835500 0.000000 
#    z 0.000000 0.000000 1.719030 
# 
# From -- ./inp_files/11216.got.cif
#   From: 2010.05.17/outbox.cif.g08.bks.cpg/sg17_6_cif.got.tgz:11216.got - 2010.06.03 22:34:06.
