data_PCOD9311416
_publ_section_title
;
Structure prediction by ZEFSAII (Michael W. Deem and Ramdas Pophale) SiO2 
 PCOD9311416
Probable space group: P 2 2 21
;
_chemical_formula_sum "Si O2"
_cell_formula_units_Z 20
_cell_length_a 9.204405
_cell_length_b 5.248722
_cell_length_c 16.726409
_cell_angle_alpha 90.000000
_cell_angle_beta 90.000000
_cell_angle_gamma 90.000000
_cell_volume 808.075617
_symmetry_space_group_name_H-M "P 2 2 21"
_symmetry_group_IT_number 17
_symmetry_cell_setting 'orthorhombic'
loop_
_space_group_symop_operation_xyz
x,y,z
-x,-y,1/2+z
x,-y,-z
-x,y,1/2-z
loop_
_atom_site_type_symbol
_atom_site_label
_atom_site_fract_x
_atom_site_fract_y
_atom_site_fract_z
Si Si1 0.359560 0.319776 0.126451
Si Si2 0.238664 0.000000 0.500000
Si Si3 0.562774 0.500000 0.000000
Si Si4 0.204154 0.325601 0.754525
Si Si5 0.183077 0.000000 0.000000
Si Si6 0.500000 0.963998 0.250000
Si Si7 0.983722 0.186682 0.877157
O O1 0.456567 0.518078 0.076723
O O2 0.244834 0.445850 0.186674
O O3 0.278798 0.145779 0.063186
O O4 0.467950 0.145643 0.176122
O O5 0.337121 0.251049 0.496930
O O6 0.138019 0.009059 0.580542
O O7 0.113825 0.384683 0.674097
O O8 0.105887 0.133150 0.808754
O O9 0.357687 0.201795 0.734483
O O10 0.085675 0.787002 0.045358
#
# Coordination Sequence:
#
# PCOD9311416 Si02
#       7
#     4   2   2   4   2   2   4
#     4  12  27  46  84 114 162 213 275 346 426 493
#     4  11  27  48  76 113 160 211 274 335 402 507
#     4  12  28  46  78 118 156 214 272 344 404 494
#     4  11  25  48  76 112 157 209 268 341 418 500
#     4  11  23  52  80 117 154 223 270 351 410 517
#     4  12  26  48  78 116 160 208 272 344 412 506
#     4  10  24  49  76 110 161 203 270 332 413 492
#
# _framework density 24.750159
#
# number of rings (size 3 to 8) (size 9 to 14) (size 15 to 20)
#    0.000    0.800    2.000    3.600    8.400    3.200 
#    7.200    0.000    0.000    0.000    0.000    0.000 
#    0.000    0.000    0.000    0.000    0.000    0.000 
#
# Total GULP energy -111714.657302 kJ/mol
# GULP energy per Si atom -5585.732865 kJ/mol
# Density = 2.469383 g / cm^3
# Si number density = 24.750159 Si / 1000 Ang^3
#
#
#
# Elastic Constant Matrix: (Units=GPa)
#
#
# Indices 1 2 3 4 5 6 
#
# 1 159.3777 58.8730 80.0410 0.0000 0.0000 0.0000
# 2 58.8730 107.6349 62.3291 0.0000 0.0000 0.0000
# 3 80.0410 62.3291 154.2066 0.0000 0.0000 0.0000
# 4 0.0000 0.0000 0.0000 43.4434 0.0000 0.0000
# 5 0.0000 0.0000 0.0000 0.0000 87.0295 0.0000
# 6 0.0000 0.0000 0.0000 0.0000 0.0000 -16.6054
#
#
#
# Elastic Compliance Matrix: (Units=1/GPa)
#
#
# Indices 1 2 3 4 5 6 
#
# 1 0.009149 -0.002943 -0.003559 0.000000 0.000000 0.000000
# 2 -0.002943 0.013077 -0.003758 0.000000 0.000000 0.000000
# 3 -0.003559 -0.003758 0.009851 0.000000 0.000000 0.000000
# 4 0.000000 0.000000 0.000000 0.023018 0.000000 0.000000
# 5 0.000000 0.000000 0.000000 0.000000 0.011490 0.000000
# 6 0.000000 0.000000 0.000000 0.000000 0.000000 -0.060222
#
#
# Mechanical properties :
#
#
# Convention : Reuss Voigt Hill
#
# Bulk Modulus (GPa) = 86.53260 91.52284 89.02772
# Shear Modulus (GPa) = 162.67314 37.43859 100.05587
#
# Velocity S-wave (km/s) = 8.11596 3.89351 6.36507
# Velocity P-wave (km/s) = 11.08438 7.56780 9.49039
#
# Compressibility (1/GPa) = 0.01155634
#
# Stress axis : x y z
#
# Youngs Moduli (GPa) = 109.30072 76.47269 101.51169
#
# Poissons Ratio (x) = 0.22507 0.36130
# Poissons Ratio (y) = 0.32169 0.38146
# Poissons Ratio (z) = 0.38902 0.28737
#
# Static dielectric constant tensor:
#      x y z
#    x 1.985300 0.000000 0.000000 
#    y 0.000000 1.957350 0.000000 
#    z 0.000000 0.000000 1.980370 
# 
# From -- ./inp_files/9303.got.cif
#   From: 2010.05.17/outbox.cif.g08.bks.cpg/sg17_5_cif.got.tgz:9303.got - 2010.06.03 22:34:06.
