data_PCOD9311478
_publ_section_title
;
Structure prediction by ZEFSAII (Michael W. Deem and Ramdas Pophale) SiO2 
 PCOD9311478
Probable space group: P 2 2 21
;
_chemical_formula_sum "Si O2"
_cell_formula_units_Z 32
_cell_length_a 13.844073
_cell_length_b 8.737853
_cell_length_c 11.378760
_cell_angle_alpha 90.000000
_cell_angle_beta 90.000000
_cell_angle_gamma 90.000000
_cell_volume 1376.459864
_symmetry_space_group_name_H-M "P 2 2 21"
_symmetry_group_IT_number 17
_symmetry_cell_setting 'orthorhombic'
loop_
_space_group_symop_operation_xyz
x,y,z
-x,-y,1/2+z
x,-y,-z
-x,y,1/2-z
loop_
_atom_site_type_symbol
_atom_site_label
_atom_site_fract_x
_atom_site_fract_y
_atom_site_fract_z
Si Si1 0.026626 0.783724 0.905726
Si Si2 0.255593 0.854831 0.318402
Si Si3 0.552674 0.828836 0.556747
Si Si4 0.186327 0.327751 0.452850
Si Si5 0.351561 0.177965 0.312689
Si Si6 0.068869 0.123824 0.838374
Si Si7 0.202503 0.375616 0.079976
Si Si8 0.669359 0.661250 0.382508
O O1 0.119232 0.702607 0.845336
O O2 0.921941 0.709418 0.909330
O O3 0.022905 0.957852 0.863524
O O4 0.064013 0.794328 0.038684
O O5 0.212261 0.781745 0.435945
O O6 0.169381 0.893276 0.227576
O O7 0.321698 0.739116 0.242874
O O8 0.313164 0.008605 0.341389
O O9 0.620805 0.818862 0.674066
O O10 0.447222 0.798647 0.610514
O O11 0.572822 0.705259 0.452483
O O12 0.560301 0.000000 0.500000
O O13 0.191482 0.500000 0.500000
O O14 0.267243 0.291458 0.354824
O O15 0.288039 0.488689 0.128289
O O16 0.000000 0.214002 0.750000
O O17 0.257349 0.271250 0.983388
O O18 0.854105 0.500000 0.500000
#
# Coordination Sequence:
#
# PCOD9311478 Si02
#       8
#     4   4   4   4   4   4   4   4
#     4  11  22  41  65 100 147 187 243 303 350 430
#     4  12  22  43  72 100 142 192 237 306 355 441
#     4  11  22  46  78 111 139 177 242 315 370 426
#     4  12  28  47  68  98 155 203 237 291 374 443
#     4  11  27  45  76 109 144 186 245 302 371 447
#     4  11  22  37  65  99 132 187 249 288 354 422
#     4   8  19  37  60  99 139 179 230 290 344 425
#     4   9  21  38  69 104 139 179 235 294 363 414
#
# _framework density 23.248045000000001
#
# number of rings (size 3 to 8) (size 9 to 14) (size 15 to 20)
#    0.750    0.500    3.750    2.250    3.500    2.000 
#    4.500    0.000    0.000    0.000    0.000    0.000 
#    0.000    0.000    0.000    0.000    0.000    0.000 
#
# Total GULP energy -178443.195662 kJ/mol
# GULP energy per Si atom -5576.349864 kJ/mol
# Density = 2.319513 g / cm^3
# Si number density = 23.248045 Si / 1000 Ang^3
#
#
#
# Elastic Constant Matrix: (Units=GPa)
#
#
# Indices 1 2 3 4 5 6 
#
# 1 87.8459 26.2099 43.5561 0.0000 0.0000 0.0000
# 2 26.2099 87.2587 18.8812 0.0000 0.0000 0.0000
# 3 43.5561 18.8812 120.0412 0.0000 0.0000 0.0000
# 4 0.0000 0.0000 0.0000 17.8864 0.0000 0.0000
# 5 0.0000 0.0000 0.0000 0.0000 17.9692 0.0000
# 6 0.0000 0.0000 0.0000 0.0000 0.0000 107.8924
#
#
#
# Elastic Compliance Matrix: (Units=1/GPa)
#
#
# Indices 1 2 3 4 5 6 
#
# 1 0.014794 -0.003398 -0.004833 0.000000 0.000000 0.000000
# 2 -0.003398 0.012644 -0.000756 0.000000 0.000000 0.000000
# 3 -0.004833 -0.000756 0.010203 0.000000 0.000000 0.000000
# 4 0.000000 0.000000 0.000000 0.055908 0.000000 0.000000
# 5 0.000000 0.000000 0.000000 0.000000 0.055651 0.000000
# 6 0.000000 0.000000 0.000000 0.000000 0.000000 0.009268
#
#
# Mechanical properties :
#
#
# Convention : Reuss Voigt Hill
#
# Bulk Modulus (GPa) = 50.84647 52.49337 51.66992
# Shear Modulus (GPa) = 27.32257 42.51618 34.91937
#
# Velocity S-wave (km/s) = 3.43193 4.28109 3.87981
# Velocity P-wave (km/s) = 6.13376 6.86045 6.50725
#
# Compressibility (1/GPa) = 0.01966705
#
# Stress axis : x y z
#
# Youngs Moduli (GPa) = 67.59559 79.08680 98.00887
#
# Poissons Ratio (x) = 0.26872 0.47372
# Poissons Ratio (y) = 0.22967 0.07409
# Poissons Ratio (z) = 0.32672 0.05979
#
# Static dielectric constant tensor:
#      x y z
#    x 1.946780 0.000000 0.000000 
#    y 0.000000 1.877560 0.000000 
#    z 0.000000 0.000000 1.860220 
# 
# From -- ./inp_files/7303.got.cif
#   From: 2010.05.17/outbox.cif.g08.bks.cpg/sg17_4_cif.got.tgz:7303.got - 2010.06.03 22:34:06.
