data_PCOD9311108
_publ_section_title
;
Structure prediction by ZEFSAII (Michael W. Deem and Ramdas Pophale) SiO2 
 PCOD9311108
Probable space group: P 2 2 21
;
_chemical_formula_sum "Si O2"
_cell_formula_units_Z 24
_cell_length_a 8.784876
_cell_length_b 12.230890
_cell_length_c 10.967422
_cell_angle_alpha 90.000000
_cell_angle_beta 90.000000
_cell_angle_gamma 90.000000
_cell_volume 1178.414969
_symmetry_space_group_name_H-M "P 2 2 21"
_symmetry_group_IT_number 17
_symmetry_cell_setting 'orthorhombic'
loop_
_space_group_symop_operation_xyz
x,y,z
-x,-y,1/2+z
x,-y,-z
-x,y,1/2-z
loop_
_atom_site_type_symbol
_atom_site_label
_atom_site_fract_x
_atom_site_fract_y
_atom_site_fract_z
Si Si1 0.124840 0.810396 0.350738
Si Si2 0.776404 0.828673 0.781429
Si Si3 0.624462 0.368834 0.855941
Si Si4 0.942396 0.882428 0.560080
Si Si5 0.381036 0.627350 0.639347
Si Si6 0.592976 0.978020 0.134397
O O1 0.225232 0.702639 0.329310
O O2 0.010448 0.798847 0.463402
O O3 0.255037 0.902306 0.377160
O O4 0.000000 0.842894 0.250000
O O5 0.915809 0.888179 0.848241
O O6 0.758482 0.706381 0.827955
O O7 0.802511 0.838879 0.637888
O O8 0.637069 0.901082 0.822985
O O9 0.500000 0.345961 0.750000
O O10 0.654787 0.498828 0.853730
O O11 0.573725 0.346097 0.997812
O O12 0.912444 0.000000 0.500000
O O13 0.500000 0.649342 0.750000
O O14 0.500000 0.930247 0.250000
O O15 0.523654 0.000000 0.000000
#
# Coordination Sequence:
#
# PCOD9311108 Si02
#       6
#     4   4   4   4   4   4
#     4  12  23  40  61  89 127 166 207 263 324 383
#     4  11  21  38  64  89 121 165 211 257 320 385
#     4  10  22  42  65  92 127 171 216 271 328 381
#     4  11  21  38  62  88 125 168 208 255 320 392
#     4  10  21  41  67  91 126 169 218 271 327 385
#     4  12  24  39  62  91 124 160 208 263 318 387
#
# _framework density 20.366340999999998
#
# number of rings (size 3 to 8) (size 9 to 14) (size 15 to 20)
#    0.000    1.000    5.000    2.000    0.000    3.333 
#    3.000    0.000    0.000    0.000    0.000    0.000 
#    0.000    0.000    0.000    0.000    0.000    0.000 
#
# Total GULP energy -133646.689975 kJ/mol
# GULP energy per Si atom -5568.612082 kJ/mol
# Density = 2.031999 g / cm^3
# Si number density = 20.366341 Si / 1000 Ang^3
#
#
#
# Elastic Constant Matrix: (Units=GPa)
#
#
# Indices 1 2 3 4 5 6 
#
# 1 29.5363 23.1009 54.3688 0.0000 0.0000 0.0000
# 2 23.1009 80.9529 40.3729 0.0000 0.0000 0.0000
# 3 54.3688 40.3729 154.4990 0.0000 0.0000 0.0000
# 4 0.0000 0.0000 0.0000 23.2679 0.0000 0.0000
# 5 0.0000 0.0000 0.0000 0.0000 35.6104 0.0000
# 6 0.0000 0.0000 0.0000 0.0000 0.0000 -0.9080
#
#
#
# Elastic Compliance Matrix: (Units=1/GPa)
#
#
# Indices 1 2 3 4 5 6 
#
# 1 0.107755 -0.013612 -0.034362 0.000000 0.000000 0.000000
# 2 -0.013612 0.015924 0.000629 0.000000 0.000000 0.000000
# 3 -0.034362 0.000629 0.018400 0.000000 0.000000 0.000000
# 4 0.000000 0.000000 0.000000 0.042978 0.000000 0.000000
# 5 0.000000 0.000000 0.000000 0.000000 0.028082 0.000000
# 6 0.000000 0.000000 0.000000 0.000000 0.000000 -1.101319
#
#
# Mechanical properties :
#
#
# Convention : Reuss Voigt Hill
#
# Bulk Modulus (GPa) = 21.10220 55.63036 38.36628
# Shear Modulus (GPa) = -6.42927 21.40376 7.48725
#
# Velocity S-wave (km/s) = -1.77867 3.24533 1.91944
# Velocity P-wave (km/s) = 2.48306 6.43561 4.87764
#
# Compressibility (1/GPa) = 0.04738842
#
# Stress axis : x y z
#
# Youngs Moduli (GPa) = 9.28027 62.80025 54.34659
#
# Poissons Ratio (x) = 0.85484 1.86748
# Poissons Ratio (y) = 0.12632 -0.03419
# Poissons Ratio (z) = 0.31889 -0.03951
#
# Static dielectric constant tensor:
#      x y z
#    x 1.777050 0.000000 0.000000 
#    y 0.000000 1.705260 0.000000 
#    z 0.000000 0.000000 2.043900 
# 
# From -- ./inp_files/6569.got.cif
#   From: 2010.05.17/outbox.cif.g08.bks.cpg/sg17_4_cif.got.tgz:6569.got - 2010.06.03 22:34:06.
