data_PCOD9311289
_publ_section_title
;
Structure prediction by ZEFSAII (Michael W. Deem and Ramdas Pophale) SiO2 
 PCOD9311289
Probable space group: P 2 2 21
;
_chemical_formula_sum "Si O2"
_cell_formula_units_Z 18
_cell_length_a 8.761020
_cell_length_b 5.023669
_cell_length_c 18.701835
_cell_angle_alpha 90.000000
_cell_angle_beta 90.000000
_cell_angle_gamma 90.000000
_cell_volume 823.113851
_symmetry_space_group_name_H-M "P 2 2 21"
_symmetry_group_IT_number 17
_symmetry_cell_setting 'orthorhombic'
loop_
_space_group_symop_operation_xyz
x,y,z
-x,-y,1/2+z
x,-y,-z
-x,y,1/2-z
loop_
_atom_site_type_symbol
_atom_site_label
_atom_site_fract_x
_atom_site_fract_y
_atom_site_fract_z
Si Si1 0.267773 0.806052 0.785591
Si Si2 0.721796 0.000000 0.000000
Si Si3 0.226151 0.865169 0.345511
Si Si4 0.425406 0.320901 0.851927
Si Si5 0.000000 0.506443 0.250000
Si Si6 0.502754 0.500000 0.000000
O O1 0.380828 0.572341 0.805330
O O2 0.101707 0.682795 0.800818
O O3 0.254738 0.873108 0.701941
O O4 0.325958 0.070017 0.825583
O O5 0.812433 0.076811 0.928060
O O6 0.612118 0.250333 0.019679
O O7 0.395104 0.738104 0.346940
O O8 0.106656 0.691644 0.299842
O O9 0.401999 0.402558 0.933962
#
# Coordination Sequence:
#
# PCOD9311289 Si02
#       6
#     4   2   4   4   2   2
#     4  12  26  43  72 109 141 190 240 303 353 432
#     4  10  24  42  76 102 146 188 248 290 368 436
#     4  11  26  46  74 109 143 193 243 307 354 441
#     4  11  25  42  78 106 144 187 248 298 363 418
#     4  12  28  46  70 110 154 188 242 304 366 428
#     4  10  22  44  68 116 146 182 238 318 354 424
#
# _framework density 21.868176999999999
#
# number of rings (size 3 to 8) (size 9 to 14) (size 15 to 20)
#    0.000    0.889    2.222    4.000   12.444    0.000 
#    0.000    0.000    9.778    0.000    0.000    0.000 
#    0.000    0.000    0.000    0.000    0.000    0.000 
#
# Total GULP energy -100641.312029 kJ/mol
# GULP energy per Si atom -5591.184002 kJ/mol
# Density = 2.181840 g / cm^3
# Si number density = 21.868177 Si / 1000 Ang^3
#
#
#
# Elastic Constant Matrix: (Units=GPa)
#
#
# Indices 1 2 3 4 5 6 
#
# 1 94.2648 48.4452 71.0393 0.0000 0.0000 0.0000
# 2 48.4452 159.6949 64.3168 0.0000 0.0000 0.0000
# 3 71.0393 64.3168 169.5182 0.0000 0.0000 0.0000
# 4 0.0000 0.0000 0.0000 29.9463 0.0000 0.0000
# 5 0.0000 0.0000 0.0000 0.0000 16.6179 0.0000
# 6 0.0000 0.0000 0.0000 0.0000 0.0000 39.0917
#
#
#
# Elastic Compliance Matrix: (Units=1/GPa)
#
#
# Indices 1 2 3 4 5 6 
#
# 1 0.016372 -0.002601 -0.005874 0.000000 0.000000 0.000000
# 2 -0.002601 0.007805 -0.001871 0.000000 0.000000 0.000000
# 3 -0.005874 -0.001871 0.009071 0.000000 0.000000 0.000000
# 4 0.000000 0.000000 0.000000 0.033393 0.000000 0.000000
# 5 0.000000 0.000000 0.000000 0.000000 0.060176 0.000000
# 6 0.000000 0.000000 0.000000 0.000000 0.000000 0.025581
#
#
# Mechanical properties :
#
#
# Convention : Reuss Voigt Hill
#
# Bulk Modulus (GPa) = 79.65072 87.89785 83.77428
# Shear Modulus (GPa) = 28.20485 33.10960 30.65723
#
# Velocity S-wave (km/s) = 3.59523 3.89531 3.74827
# Velocity P-wave (km/s) = 7.33051 7.77900 7.55808
#
# Compressibility (1/GPa) = 0.01255481
#
# Stress axis : x y z
#
# Youngs Moduli (GPa) = 61.08047 128.13045 110.24539
#
# Poissons Ratio (x) = 0.33324 0.64759
# Poissons Ratio (y) = 0.15886 0.20629
# Poissons Ratio (z) = 0.35879 0.23976
#
# Static dielectric constant tensor:
#      x y z
#    x 1.844100 0.000000 0.000000 
#    y 0.000000 1.855060 0.000000 
#    z 0.000000 0.000000 1.863930 
# 
# From -- ./inp_files/9232.got.cif
#   From: 2010.05.17/outbox.cif.g08.bks.cpg/sg17_5_cif.got.tgz:9232.got - 2010.06.03 22:34:06.
