data_PCOD9311039
_publ_section_title
;
Structure prediction by ZEFSAII (Michael W. Deem and Ramdas Pophale) SiO2 
 PCOD9311039
Probable space group: P 2 2 21
;
_chemical_formula_sum "Si O2"
_cell_formula_units_Z 28
_cell_length_a 5.003310
_cell_length_b 11.512616
_cell_length_c 18.102813
_cell_angle_alpha 90.000000
_cell_angle_beta 90.000000
_cell_angle_gamma 90.000000
_cell_volume 1042.743512
_symmetry_space_group_name_H-M "P 2 2 21"
_symmetry_group_IT_number 17
_symmetry_cell_setting 'orthorhombic'
loop_
_space_group_symop_operation_xyz
x,y,z
-x,-y,1/2+z
x,-y,-z
-x,y,1/2-z
loop_
_atom_site_type_symbol
_atom_site_label
_atom_site_fract_x
_atom_site_fract_y
_atom_site_fract_z
Si Si1 0.251985 0.060161 0.701723
Si Si2 0.300494 0.213049 0.106772
Si Si3 0.500000 0.501900 0.250000
Si Si4 0.183875 0.647912 0.637692
Si Si5 0.857738 0.034614 0.584830
Si Si6 0.763691 0.708658 0.442442
Si Si7 0.184470 0.668836 0.318383
Si Si8 0.624085 0.500000 0.000000
O O1 0.500000 0.021961 0.750000
O O2 0.156235 0.033998 0.618570
O O3 0.246585 0.199851 0.700936
O O4 0.000000 0.020664 0.750000
O O5 0.102384 0.296003 0.151999
O O6 0.601440 0.253446 0.117837
O O7 0.283214 0.077205 0.119662
O O8 0.187792 0.243001 0.024932
O O9 0.707889 0.416686 0.210130
O O10 0.465483 0.600272 0.314982
O O11 0.207451 0.562427 0.565742
O O12 0.718446 0.161771 0.596451
O O13 0.867973 0.000000 0.500000
O O14 0.562952 0.602416 0.464129
O O15 0.013986 0.664862 0.393618
O O16 0.000000 0.622892 0.250000
#
# Coordination Sequence:
#
# PCOD9311039 Si02
#       8
#     4   4   2   4   4   4   4   2
#     4  10  21  41  63  99 133 172 220 279 346 395
#     4  10  24  48  66  98 133 181 234 280 327 408
#     4  12  26  38  66  96 134 184 216 280 336 420
#     4  11  27  43  69  97 139 178 227 278 345 404
#     4   9  20  45  73 100 134 181 237 283 335 400
#     4   9  20  40  72 102 136 180 220 286 341 404
#     4  10  21  38  62  96 137 172 215 275 337 414
#     4  10  22  42  70 108 138 180 222 286 350 418
#
# _framework density 26.852239999999998
#
# number of rings (size 3 to 8) (size 9 to 14) (size 15 to 20)
#    0.000    2.000    0.714    0.857    8.000    1.714 
#    3.857   20.000    0.000    0.000    0.000    0.000 
#    0.000    0.000    0.000    0.000    0.000    0.000 
#
# Total GULP energy -156145.306059 kJ/mol
# GULP energy per Si atom -5576.618074 kJ/mol
# Density = 2.679112 g / cm^3
# Si number density = 26.852240 Si / 1000 Ang^3
#
#
#
# Elastic Constant Matrix: (Units=GPa)
#
#
# Indices 1 2 3 4 5 6 
#
# 1 92.6108 26.8498 30.2663 0.0000 0.0000 0.0000
# 2 26.8498 174.1812 42.8395 0.0000 0.0000 0.0000
# 3 30.2663 42.8395 128.0196 0.0000 0.0000 0.0000
# 4 0.0000 0.0000 0.0000 23.1718 0.0000 0.0000
# 5 0.0000 0.0000 0.0000 0.0000 39.4746 0.0000
# 6 0.0000 0.0000 0.0000 0.0000 0.0000 3.4736
#
#
#
# Elastic Compliance Matrix: (Units=1/GPa)
#
#
# Indices 1 2 3 4 5 6 
#
# 1 0.011947 -0.001250 -0.002406 0.000000 0.000000 0.000000
# 2 -0.001250 0.006387 -0.001842 0.000000 0.000000 0.000000
# 3 -0.002406 -0.001842 0.008996 0.000000 0.000000 0.000000
# 4 0.000000 0.000000 0.000000 0.043156 0.000000 0.000000
# 5 0.000000 0.000000 0.000000 0.000000 0.025333 0.000000
# 6 0.000000 0.000000 0.000000 0.000000 0.000000 0.287888
#
#
# Mechanical properties :
#
#
# Convention : Reuss Voigt Hill
#
# Bulk Modulus (GPa) = 61.22035 66.08030 63.65032
# Shear Modulus (GPa) = 12.49541 32.88106 22.68824
#
# Velocity S-wave (km/s) = 2.15951 3.50311 2.90992
# Velocity P-wave (km/s) = 5.39133 6.40505 5.91993
#
# Compressibility (1/GPa) = 0.01633444
#
# Stress axis : x y z
#
# Youngs Moduli (GPa) = 83.70593 156.57370 111.15449
#
# Poissons Ratio (x) = 0.19568 0.26746
# Poissons Ratio (y) = 0.10461 0.20472
# Poissons Ratio (z) = 0.20141 0.28837
#
# Static dielectric constant tensor:
#      x y z
#    x 2.170240 0.000000 0.000000 
#    y 0.000000 2.137110 0.000000 
#    z 0.000000 0.000000 2.162830 
# 
# From -- ./inp_files/9916.got.cif
#   From: 2010.05.17/outbox.cif.g08.bks.cpg/sg17_5_cif.got.tgz:9916.got - 2010.06.03 22:34:06.
