data_PCOD9311431
_publ_section_title
;
Structure prediction by ZEFSAII (Michael W. Deem and Ramdas Pophale) SiO2 
 PCOD9311431
Probable space group: P 2 2 21
;
_chemical_formula_sum "Si O2"
_cell_formula_units_Z 14
_cell_length_a 9.310782
_cell_length_b 7.224066
_cell_length_c 8.548210
_cell_angle_alpha 90.000000
_cell_angle_beta 90.000000
_cell_angle_gamma 90.000000
_cell_volume 574.967168
_symmetry_space_group_name_H-M "P 2 2 21"
_symmetry_group_IT_number 17
_symmetry_cell_setting 'orthorhombic'
loop_
_space_group_symop_operation_xyz
x,y,z
-x,-y,1/2+z
x,-y,-z
-x,y,1/2-z
loop_
_atom_site_type_symbol
_atom_site_label
_atom_site_fract_x
_atom_site_fract_y
_atom_site_fract_z
Si Si1 0.195465 0.000000 0.500000
Si Si2 0.000000 0.197040 0.750000
Si Si3 0.753775 0.782848 0.467708
Si Si4 0.500000 0.342353 0.750000
Si Si5 0.349465 0.699538 0.699494
O O1 0.282968 0.826418 0.567091
O O2 0.100034 0.927804 0.358669
O O3 0.112845 0.294159 0.866377
O O4 0.605103 0.761629 0.369558
O O5 0.739093 0.693987 0.638617
O O6 0.779247 0.000000 0.500000
O O7 0.394620 0.489248 0.663997
O O8 0.500000 0.793409 0.750000
#
# Coordination Sequence:
#
# PCOD9311431 Si02
#       5
#     2   2   4   2   4
#     4  12  22  46  72 114 152 218 256 314 384 466
#     4  12  26  42  74 110 158 208 266 306 380 482
#     4  12  25  47  74 114 152 206 259 316 388 467
#     4  10  28  48  78 118 150 196 260 340 386 442
#     4  10  26  43  77 112 155 192 264 326 383 456
#
# _framework density 24.349215000000001
#
# number of rings (size 3 to 8) (size 9 to 14) (size 15 to 20)
#    0.857    0.000    4.286    0.857    8.000    0.000 
#    0.000    7.143    0.000    0.000    0.000    0.000 
#    0.000    0.000    0.000    0.000    0.000    0.000 
#
# Total GULP energy -78287.242119 kJ/mol
# GULP energy per Si atom -5591.945866 kJ/mol
# Density = 2.429379 g / cm^3
# Si number density = 24.349215 Si / 1000 Ang^3
#
#
#
# Elastic Constant Matrix: (Units=GPa)
#
#
# Indices 1 2 3 4 5 6 
#
# 1 126.1731 53.3534 65.2981 0.0000 0.0000 0.0000
# 2 53.3534 75.8980 43.9381 0.0000 0.0000 0.0000
# 3 65.2981 43.9381 155.1988 0.0000 0.0000 0.0000
# 4 0.0000 0.0000 0.0000 28.2341 0.0000 0.0000
# 5 0.0000 0.0000 0.0000 0.0000 56.3633 0.0000
# 6 0.0000 0.0000 0.0000 0.0000 0.0000 18.3586
#
#
#
# Elastic Compliance Matrix: (Units=1/GPa)
#
#
# Indices 1 2 3 4 5 6 
#
# 1 0.012572 -0.006908 -0.003334 0.000000 0.000000 0.000000
# 2 -0.006908 0.019554 -0.002630 0.000000 0.000000 0.000000
# 3 -0.003334 -0.002630 0.008590 0.000000 0.000000 0.000000
# 4 0.000000 0.000000 0.000000 0.035418 0.000000 0.000000
# 5 0.000000 0.000000 0.000000 0.000000 0.017742 0.000000
# 6 0.000000 0.000000 0.000000 0.000000 0.000000 0.054470
#
#
# Mechanical properties :
#
#
# Convention : Reuss Voigt Hill
#
# Bulk Modulus (GPa) = 66.78220 75.82766 71.30493
# Shear Modulus (GPa) = 27.92053 33.56991 30.74522
#
# Velocity S-wave (km/s) = 3.38993 3.71709 3.55727
# Velocity P-wave (km/s) = 6.54282 7.04498 6.79854
#
# Compressibility (1/GPa) = 0.01497405
#
# Stress axis : x y z
#
# Youngs Moduli (GPa) = 79.54238 51.14160 116.40785
#
# Poissons Ratio (x) = 0.35326 0.38809
# Poissons Ratio (y) = 0.54944 0.30610
# Poissons Ratio (z) = 0.26519 0.13448
#
# Static dielectric constant tensor:
#      x y z
#    x 1.973350 0.000000 0.000000 
#    y 0.000000 1.914320 0.000000 
#    z 0.000000 0.000000 2.025140 
# 
# From -- ./inp_files/3707.got.cif
#   From: 2010.05.17/outbox.cif.g08.bks.cpg/sg17_2_cif.got.tgz:3707.got - 2010.06.03 22:34:06.
