data_PCOD9311525
_publ_section_title
;
Structure prediction by ZEFSAII (Michael W. Deem and Ramdas Pophale) SiO2 
 PCOD9311525
Probable space group: P 2 2 21
;
_chemical_formula_sum "Si O2"
_cell_formula_units_Z 14
_cell_length_a 7.894722
_cell_length_b 15.191405
_cell_length_c 5.067846
_cell_angle_alpha 90.000000
_cell_angle_beta 90.000000
_cell_angle_gamma 90.000000
_cell_volume 607.796497
_symmetry_space_group_name_H-M "P 2 2 21"
_symmetry_group_IT_number 17
_symmetry_cell_setting 'orthorhombic'
loop_
_space_group_symop_operation_xyz
x,y,z
-x,-y,1/2+z
x,-y,-z
-x,y,1/2-z
loop_
_atom_site_type_symbol
_atom_site_label
_atom_site_fract_x
_atom_site_fract_y
_atom_site_fract_z
Si Si1 0.705234 0.500000 0.500000
Si Si2 0.662952 0.793062 0.057590
Si Si3 0.500000 0.643476 0.750000
Si Si4 0.000000 0.282327 0.750000
Si Si5 0.500000 0.941576 0.750000
Si Si6 0.000000 0.411173 0.250000
O O1 0.580611 0.582847 0.523474
O O2 0.836875 0.474998 0.269750
O O3 0.500000 0.796671 0.250000
O O4 0.834653 0.778226 0.214983
O O5 0.638400 0.707426 0.875125
O O6 0.644883 0.877635 0.868802
O O7 0.986695 0.346984 0.500102
O O8 0.556277 0.000000 0.500000
#
# Coordination Sequence:
#
# PCOD9311525 Si02
#       6
#     2   4   2   2   2   2
#     4  12  26  44  66 100 152 208 274 336 378 434
#     4  11  25  49  82 110 157 206 255 320 397 468
#     4  11  26  44  69 110 148 218 273 330 386 457
#     4  12  27  48  72 113 144 204 270 309 386 464
#     4  11  24  48  87 124 156 196 245 316 404 489
#     4  12  27  46  68  99 152 202 270 337 374 432
#
# _framework density 23.034025
#
# number of rings (size 3 to 8) (size 9 to 14) (size 15 to 20)
#    0.000    0.571    4.286    2.571   10.000    1.143 
#    0.000    0.000    6.286    0.000    0.000    0.000 
#    0.000    0.000    0.000    0.000    0.000    0.000 
#
# Total GULP energy -78304.506661 kJ/mol
# GULP energy per Si atom -5593.179047 kJ/mol
# Density = 2.298160 g / cm^3
# Si number density = 23.034025 Si / 1000 Ang^3
#
#
#
# Elastic Constant Matrix: (Units=GPa)
#
#
# Indices 1 2 3 4 5 6 
#
# 1 160.6934 64.9092 62.8150 0.0000 0.0000 0.0000
# 2 64.9092 157.4013 82.1749 0.0000 0.0000 0.0000
# 3 62.8150 82.1749 181.5320 0.0000 0.0000 0.0000
# 4 0.0000 0.0000 0.0000 60.7053 0.0000 0.0000
# 5 0.0000 0.0000 0.0000 0.0000 40.8786 0.0000
# 6 0.0000 0.0000 0.0000 0.0000 0.0000 8.6860
#
#
#
# Elastic Compliance Matrix: (Units=1/GPa)
#
#
# Indices 1 2 3 4 5 6 
#
# 1 0.007819 -0.002373 -0.001632 0.000000 0.000000 0.000000
# 2 -0.002373 0.009039 -0.003271 0.000000 0.000000 0.000000
# 3 -0.001632 -0.003271 0.007554 0.000000 0.000000 0.000000
# 4 0.000000 0.000000 0.000000 0.016473 0.000000 0.000000
# 5 0.000000 0.000000 0.000000 0.000000 0.024463 0.000000
# 6 0.000000 0.000000 0.000000 0.000000 0.000000 0.115128
#
#
# Mechanical properties :
#
#
# Convention : Reuss Voigt Hill
#
# Bulk Modulus (GPa) = 101.39813 102.15830 101.77821
# Shear Modulus (GPa) = 25.21265 41.36917 33.29091
#
# Velocity S-wave (km/s) = 3.31204 4.24252 3.80582
# Velocity P-wave (km/s) = 7.66438 8.27321 7.97461
#
# Compressibility (1/GPa) = 0.00986212
#
# Stress axis : x y z
#
# Youngs Moduli (GPa) = 127.88994 110.62880 132.38250
#
# Poissons Ratio (x) = 0.26249 0.21600
# Poissons Ratio (y) = 0.30344 0.43300
# Poissons Ratio (z) = 0.20867 0.36185
#
# Static dielectric constant tensor:
#      x y z
#    x 1.943000 0.000000 0.000000 
#    y 0.000000 1.879520 0.000000 
#    z 0.000000 0.000000 1.915570 
# 
# From -- ./inp_files/685.got.cif
#   From: 2010.05.17/outbox.cif.g08.bks.cpg/sg17_1_cif.got.tgz:685.got - 2010.06.03 22:34:06.
