data_PCOD9311625
_publ_section_title
;
Structure prediction by ZEFSAII (Michael W. Deem and Ramdas Pophale) SiO2 
 PCOD9311625
Probable space group: P 21 21 2
;
_chemical_formula_sum "Si O2"
_cell_formula_units_Z 28
_cell_length_a 7.338314
_cell_length_b 7.948483
_cell_length_c 21.847738
_cell_angle_alpha 90.000000
_cell_angle_beta 90.000000
_cell_angle_gamma 90.000000
_cell_volume 1274.345001
_symmetry_space_group_name_H-M "P 21 21 2"
_symmetry_group_IT_number 18
_symmetry_cell_setting 'orthorhombic'
loop_
_space_group_symop_operation_xyz
x,y,z
-x,-y,z
1/2+x,1/2-y,-z
1/2-x,1/2+y,-z
loop_
_atom_site_type_symbol
_atom_site_label
_atom_site_fract_x
_atom_site_fract_y
_atom_site_fract_z
Si Si1 0.568344 0.242382 0.031521
Si Si2 0.500000 0.000000 0.128395
Si Si3 0.844143 0.649116 0.567592
Si Si4 0.778939 0.552555 0.068329
Si Si5 0.785552 0.683512 0.706712
Si Si6 0.310871 0.159172 0.242780
Si Si7 0.276304 0.508941 0.207298
Si Si8 0.500000 0.500000 0.491259
O O1 0.701866 0.398439 0.029282
O O2 0.386367 0.315280 0.060895
O O3 0.626418 0.106537 0.082657
O O4 0.563168 0.155608 0.965475
O O5 0.617083 0.887587 0.174953
O O6 0.762610 0.691975 0.634616
O O7 0.676054 0.571566 0.528470
O O8 0.000000 0.500000 0.571185
O O9 0.927150 0.828588 0.543386
O O10 0.793731 0.493225 0.137879
O O11 0.714848 0.504782 0.731280
O O12 0.724825 0.833637 0.751021
O O13 0.005695 0.681973 0.717317
O O14 0.213685 0.336355 0.238980
O O15 0.500000 0.500000 0.203382
#
# Coordination Sequence:
#
# PCOD9311625 Si02
#       8
#     4   2   4   4   4   4   4   2
#     4  11  21  33  51  77 107 147 191 257 323 407
#     4  10  16  32  50  78 106 150 200 264 324 402
#     4  12  24  46  70 118 156 202 253 303 366 450
#     4  11  21  35  51  81 113 147 208 263 335 410
#     4   9  19  32  60  95 127 161 225 282 337 400
#     4   9  16  28  53  87 114 155 205 286 325 388
#     4  10  17  33  53  87 114 153 216 286 328 407
#     4  12  28  44  78 110 170 206 244 308 370 428
#
# _framework density 21.972073000000002
#
# number of rings (size 3 to 8) (size 9 to 14) (size 15 to 20)
#    0.000    1.714    5.714    2.571    3.000    0.000 
#    0.000    0.000    0.000    0.000   22.286    0.000 
#    0.000    0.000    0.000    0.000    0.000    0.000 
#
# Total GULP energy -156122.518122 kJ/mol
# GULP energy per Si atom -5575.804219 kJ/mol
# Density = 2.192206 g / cm^3
# Si number density = 21.972073 Si / 1000 Ang^3
#
#
#
# Elastic Constant Matrix: (Units=GPa)
#
#
# Indices 1 2 3 4 5 6 
#
# 1 77.0650 15.0558 19.3269 0.0000 0.0000 0.0000
# 2 15.0558 181.4353 86.2287 0.0000 0.0000 0.0000
# 3 19.3269 86.2287 147.9686 0.0000 0.0000 0.0000
# 4 0.0000 0.0000 0.0000 27.9867 0.0000 0.0000
# 5 0.0000 0.0000 0.0000 0.0000 9.1351 0.0000
# 6 0.0000 0.0000 0.0000 0.0000 0.0000 13.8280
#
#
#
# Elastic Compliance Matrix: (Units=1/GPa)
#
#
# Indices 1 2 3 4 5 6 
#
# 1 0.013435 -0.000388 -0.001528 0.000000 0.000000 0.000000
# 2 -0.000388 0.007634 -0.004398 0.000000 0.000000 0.000000
# 3 -0.001528 -0.004398 0.009521 0.000000 0.000000 0.000000
# 4 0.000000 0.000000 0.000000 0.035731 0.000000 0.000000
# 5 0.000000 0.000000 0.000000 0.000000 0.109468 0.000000
# 6 0.000000 0.000000 0.000000 0.000000 0.000000 0.072317
#
#
# Mechanical properties :
#
#
# Convention : Reuss Voigt Hill
#
# Bulk Modulus (GPa) = 55.67863 71.96573 63.82218
# Shear Modulus (GPa) = 18.74606 29.24713 23.99659
#
# Velocity S-wave (km/s) = 2.92409 3.65239 3.30834
# Velocity P-wave (km/s) = 6.06597 7.11414 6.61086
#
# Compressibility (1/GPa) = 0.01796021
#
# Stress axis : x y z
#
# Youngs Moduli (GPa) = 74.43100 130.99249 105.03366
#
# Poissons Ratio (x) = 0.05089 0.16054
# Poissons Ratio (y) = 0.02891 0.46194
# Poissons Ratio (z) = 0.11377 0.57610
#
# Static dielectric constant tensor:
#      x y z
#    x 1.903730 0.000000 0.000000 
#    y 0.000000 1.884410 0.000000 
#    z 0.000000 0.000000 1.780700 
# 
# From -- ./inp_files/7541.got.cif
#   From: 2010.05.17/outbox.cif.g08.bks.cpg/sg18_4_cif.got.tgz:7541.got - 2010.06.03 22:40:56.
