data_PCOD9311177
_publ_section_title
;
Structure prediction by ZEFSAII (Michael W. Deem and Ramdas Pophale) SiO2 
 PCOD9311177
Probable space group: P 2 2 21
;
_chemical_formula_sum "Si O2"
_cell_formula_units_Z 24
_cell_length_a 6.174688
_cell_length_b 24.505202
_cell_length_c 7.420517
_cell_angle_alpha 90.000000
_cell_angle_beta 90.000000
_cell_angle_gamma 90.000000
_cell_volume 1122.813096
_symmetry_space_group_name_H-M "P 2 2 21"
_symmetry_group_IT_number 17
_symmetry_cell_setting 'orthorhombic'
loop_
_space_group_symop_operation_xyz
x,y,z
-x,-y,1/2+z
x,-y,-z
-x,y,1/2-z
loop_
_atom_site_type_symbol
_atom_site_label
_atom_site_fract_x
_atom_site_fract_y
_atom_site_fract_z
Si Si1 0.628655 0.231710 0.438922
Si Si2 0.000000 0.379257 0.750000
Si Si3 0.365774 0.438348 0.935010
Si Si4 0.500000 0.151946 0.750000
Si Si5 0.158362 0.924077 0.386205
Si Si6 0.647218 0.338740 0.012634
Si Si7 0.000000 0.714032 0.750000
Si Si8 0.000000 0.971117 0.750000
O O1 0.500000 0.215510 0.250000
O O2 0.618890 0.190094 0.604280
O O3 0.508360 0.286921 0.502435
O O4 0.874380 0.247336 0.389621
O O5 0.875483 0.415989 0.602890
O O6 0.806231 0.346020 0.841774
O O7 0.500000 0.440449 0.750000
O O8 0.505041 0.392916 0.041013
O O9 0.357844 0.500000 0.000000
O O10 0.630825 0.111510 0.883471
O O11 0.000000 0.893188 0.250000
O O12 0.031724 0.935534 0.571866
O O13 0.188675 0.983218 0.285173
O O14 0.813243 0.323720 0.169958
#
# Coordination Sequence:
#
# PCOD9311177 Si02
#       8
#     4   2   4   2   4   4   2   2
#     4  10  25  44  62 101 141 183 236 293 351 427
#     4  10  22  38  64  94 122 175 219 282 364 414
#     4  10  23  40  59  93 131 167 226 290 343 421
#     4  12  26  40  74 108 140 186 242 288 350 404
#     4   9  20  42  65 105 133 184 227 281 341 401
#     4  10  22  41  66  93 127 176 231 279 355 429
#     4  10  22  44  70  90 128 185 227 282 356 418
#     4   8  18  46  68  92 148 178 226 282 338 416
#
# _framework density 21.374884999999999
#
# number of rings (size 3 to 8) (size 9 to 14) (size 15 to 20)
#    0.500    1.667    0.000    1.000    5.833   10.000 
#    6.000    2.500    0.000    0.000    0.000    0.000 
#    0.000    0.000    0.000    0.000    0.000    0.000 
#
# Total GULP energy -133629.671080 kJ/mol
# GULP energy per Si atom -5567.902962 kJ/mol
# Density = 2.132624 g / cm^3
# Si number density = 21.374885 Si / 1000 Ang^3
#
#
#
# Elastic Constant Matrix: (Units=GPa)
#
#
# Indices 1 2 3 4 5 6 
#
# 1 103.2218 58.8859 42.4315 0.0000 0.0000 0.0000
# 2 58.8859 113.7609 67.3806 0.0000 0.0000 0.0000
# 3 42.4315 67.3806 123.5657 0.0000 0.0000 0.0000
# 4 0.0000 0.0000 0.0000 5.2063 0.0000 0.0000
# 5 0.0000 0.0000 0.0000 0.0000 27.3372 0.0000
# 6 0.0000 0.0000 0.0000 0.0000 0.0000 1494.9078
#
#
#
# Elastic Compliance Matrix: (Units=1/GPa)
#
#
# Indices 1 2 3 4 5 6 
#
# 1 0.013878 -0.006441 -0.001253 0.000000 0.000000 0.000000
# 2 -0.006441 0.015974 -0.006499 0.000000 0.000000 0.000000
# 3 -0.001253 -0.006499 0.012067 0.000000 0.000000 0.000000
# 4 0.000000 0.000000 0.000000 0.192075 0.000000 0.000000
# 5 0.000000 0.000000 0.000000 0.000000 0.036580 0.000000
# 6 0.000000 0.000000 0.000000 0.000000 0.000000 0.000669
#
#
# Mechanical properties :
#
#
# Convention : Reuss Voigt Hill
#
# Bulk Modulus (GPa) = 73.89714 75.32715 74.61214
# Shear Modulus (GPa) = 16.43987 316.94695 166.69341
#
# Velocity S-wave (km/s) = 2.77631 12.19024 8.84053
# Velocity P-wave (km/s) = 6.70255 15.27918 11.79783
#
# Compressibility (1/GPa) = 0.01353232
#
# Stress axis : x y z
#
# Youngs Moduli (GPa) = 72.05885 62.60305 82.87174
#
# Poissons Ratio (x) = 0.40324 0.10384
# Poissons Ratio (y) = 0.46415 0.53855
# Poissons Ratio (z) = 0.09029 0.40683
#
# Static dielectric constant tensor:
#      x y z
#    x 1.856620 0.000000 0.000000 
#    y 0.000000 1.789970 0.000000 
#    z 0.000000 0.000000 1.226390 
# 
# From -- ./inp_files/3583.got.cif
#   From: 2010.05.17/outbox.cif.g08.bks.cpg/sg17_2_cif.got.tgz:3583.got - 2010.06.03 22:34:06.
