data_PCOD9311677
_publ_section_title
;
Structure prediction by ZEFSAII (Michael W. Deem and Ramdas Pophale) SiO2 
 PCOD9311677
Probable space group: P 21 21 2
;
_chemical_formula_sum "Si O2"
_cell_formula_units_Z 30
_cell_length_a 17.105862
_cell_length_b 5.506912
_cell_length_c 14.596904
_cell_angle_alpha 90.000000
_cell_angle_beta 90.000000
_cell_angle_gamma 90.000000
_cell_volume 1375.035315
_symmetry_space_group_name_H-M "P 21 21 2"
_symmetry_group_IT_number 18
_symmetry_cell_setting 'orthorhombic'
loop_
_space_group_symop_operation_xyz
x,y,z
-x,-y,z
1/2+x,1/2-y,-z
1/2-x,1/2+y,-z
loop_
_atom_site_type_symbol
_atom_site_label
_atom_site_fract_x
_atom_site_fract_y
_atom_site_fract_z
Si Si1 0.741885 0.035255 0.174036
Si Si2 0.000000 0.000000 0.402653
Si Si3 0.124386 0.677643 0.347534
Si Si4 0.741361 0.063878 0.443138
Si Si5 0.088457 0.965503 0.084490
Si Si6 0.420840 0.875588 0.473606
Si Si7 0.732920 0.038415 0.791969
Si Si8 0.148475 0.463044 0.015252
O O1 0.837100 0.039031 0.155157
O O2 0.726022 0.790071 0.229212
O O3 0.719018 0.292143 0.216470
O O4 0.698147 0.017829 0.076891
O O5 0.957128 0.187916 0.336600
O O6 0.058869 0.125557 0.475004
O O7 0.191494 0.873739 0.370544
O O8 0.108499 0.535303 0.440811
O O9 0.156316 0.500990 0.270181
O O10 0.750028 0.288385 0.518196
O O11 0.653393 0.114275 0.408503
O O12 0.104321 0.205120 0.022496
O O13 0.097724 0.706993 0.032217
O O14 0.000000 0.000000 0.120406
O O15 0.500000 0.000000 0.438196
O O16 0.707589 0.044734 0.898201
#
# Coordination Sequence:
#
# PCOD9311677 Si02
#       8
#     4   2   4   4   4   4   4   4
#     4  10  20  36  55  72 103 147 187 226 263 322
#     4  10  18  36  52  72 118 152 180 204 276 338
#     4  10  21  33  52  80 116 147 187 224 275 327
#     4  10  19  34  55  78 107 142 189 233 259 313
#     4  10  18  30  49  77 104 124 168 227 274 313
#     4   9  19  34  54  79 108 151 184 218 269 334
#     4  10  20  32  52  77 103 140 189 220 267 320
#     4  10  19  36  53  72 104 145 186 226 264 325
#
# _framework density 21.817622
#
# number of rings (size 3 to 8) (size 9 to 14) (size 15 to 20)
#    0.000    2.133    1.333    4.400    1.867    0.000 
#    4.800    5.333    0.000    0.000    0.000    5.600 
#    8.000    0.000    0.000    0.000    0.000    0.000 
#
# Total GULP energy -167219.455695 kJ/mol
# GULP energy per Si atom -5573.981856 kJ/mol
# Density = 2.176796 g / cm^3
# Si number density = 21.817622 Si / 1000 Ang^3
#
#
#
# Elastic Constant Matrix: (Units=GPa)
#
#
# Indices 1 2 3 4 5 6 
#
# 1 75.3672 18.5684 6.9463 0.0000 0.0000 0.0000
# 2 18.5684 160.6938 10.7741 0.0000 0.0000 0.0000
# 3 6.9463 10.7741 35.7087 0.0000 0.0000 0.0000
# 4 0.0000 0.0000 0.0000 18.2207 0.0000 0.0000
# 5 0.0000 0.0000 0.0000 0.0000 16.7322 0.0000
# 6 0.0000 0.0000 0.0000 0.0000 0.0000 33.3593
#
#
#
# Elastic Compliance Matrix: (Units=1/GPa)
#
#
# Indices 1 2 3 4 5 6 
#
# 1 0.013833 -0.001447 -0.002254 0.000000 0.000000 0.000000
# 2 -0.001447 0.006503 -0.001681 0.000000 0.000000 0.000000
# 3 -0.002254 -0.001681 0.028950 0.000000 0.000000 0.000000
# 4 0.000000 0.000000 0.000000 0.054883 0.000000 0.000000
# 5 0.000000 0.000000 0.000000 0.000000 0.059765 0.000000
# 6 0.000000 0.000000 0.000000 0.000000 0.000000 0.029977
#
#
# Mechanical properties :
#
#
# Convention : Reuss Voigt Hill
#
# Bulk Modulus (GPa) = 25.95945 38.26080 32.11013
# Shear Modulus (GPa) = 22.98698 29.36116 26.17407
#
# Velocity S-wave (km/s) = 3.24944 3.67243 3.46739
# Velocity P-wave (km/s) = 5.09928 5.96297 5.54796
#
# Compressibility (1/GPa) = 0.03852162
#
# Stress axis : x y z
#
# Youngs Moduli (GPa) = 72.29250 153.77702 34.54239
#
# Poissons Ratio (x) = 0.22255 0.07786
# Poissons Ratio (y) = 0.10463 0.05805
# Poissons Ratio (z) = 0.16296 0.25843
#
# Static dielectric constant tensor:
#      x y z
#    x 1.873180 0.000000 0.000000 
#    y 0.000000 1.926090 0.000000 
#    z 0.000000 0.000000 1.841940 
# 
# From -- ./inp_files/7396.got.cif
#   From: 2010.05.17/outbox.cif.g08.bks.cpg/sg18_4_cif.got.tgz:7396.got - 2010.06.03 22:40:56.
