data_PCOD9311294
_publ_section_title
;
Structure prediction by ZEFSAII (Michael W. Deem and Ramdas Pophale) SiO2 
 PCOD9311294
Probable space group: P 2 2 21
;
_chemical_formula_sum "Si O2"
_cell_formula_units_Z 26
_cell_length_a 5.171980
_cell_length_b 10.217476
_cell_length_c 18.424452
_cell_angle_alpha 90.000000
_cell_angle_beta 90.000000
_cell_angle_gamma 90.000000
_cell_volume 973.632456
_symmetry_space_group_name_H-M "P 2 2 21"
_symmetry_group_IT_number 17
_symmetry_cell_setting 'orthorhombic'
loop_
_space_group_symop_operation_xyz
x,y,z
-x,-y,1/2+z
x,-y,-z
-x,y,1/2-z
loop_
_atom_site_type_symbol
_atom_site_label
_atom_site_fract_x
_atom_site_fract_y
_atom_site_fract_z
Si Si1 0.532991 0.748896 0.404813
Si Si2 0.880439 0.079503 0.317800
Si Si3 0.767949 0.496104 0.882505
Si Si4 0.500000 0.541520 0.750000
Si Si5 0.418239 0.699832 0.890334
Si Si6 0.813640 0.500000 0.500000
Si Si7 0.500000 0.869340 0.250000
Si Si8 0.053102 0.906187 0.434965
O O1 0.470266 0.594046 0.412344
O O2 0.454919 0.781622 0.321005
O O3 0.813411 0.811532 0.416275
O O4 0.316351 0.828176 0.449759
O O5 0.687372 0.159295 0.370306
O O6 0.723683 0.965990 0.277019
O O7 0.087416 0.007541 0.368348
O O8 0.000000 0.158864 0.250000
O O9 0.731903 0.477037 0.796615
O O10 0.717201 0.651944 0.895750
O O11 0.000826 0.455923 0.932579
O O12 0.361841 0.621185 0.814848
O O13 0.299369 0.632877 0.961449
O O14 0.979328 0.000000 0.500000
#
# Coordination Sequence:
#
# PCOD9311294 Si02
#       8
#     4   4   4   2   4   2   2   4
#     4  11  24  45  76  99 148 183 255 300 374 439
#     4  11  23  43  71 104 144 185 251 306 375 452
#     4  10  25  45  69 104 140 196 243 315 373 455
#     4   8  22  46  64 100 138 178 256 292 382 434
#     4  10  25  43  68 105 142 191 239 310 375 456
#     4  12  26  42  70 106 146 190 254 292 406 450
#     4  10  22  44  70 108 132 194 238 312 366 450
#     4  11  26  45  69 110 143 195 241 303 376 452
#
# _framework density 26.704121000000001
#
# number of rings (size 3 to 8) (size 9 to 14) (size 15 to 20)
#    0.923    0.615    1.538    1.846    6.462    1.231 
#    0.000    3.077    0.000    0.000    0.000    0.000 
#    0.000    0.000    0.000    0.000    0.000    0.000 
#
# Total GULP energy -144980.291654 kJ/mol
# GULP energy per Si atom -5576.165064 kJ/mol
# Density = 2.664334 g / cm^3
# Si number density = 26.704121 Si / 1000 Ang^3
#
#
#
# Elastic Constant Matrix: (Units=GPa)
#
#
# Indices 1 2 3 4 5 6 
#
# 1 70.2077 1.0088 -18.9941 0.0000 0.0000 0.0000
# 2 1.0088 83.1769 -11.4392 0.0000 0.0000 0.0000
# 3 -18.9941 -11.4392 116.8253 0.0000 0.0000 0.0000
# 4 0.0000 0.0000 0.0000 21.6606 0.0000 0.0000
# 5 0.0000 0.0000 0.0000 0.0000 39.2805 0.0000
# 6 0.0000 0.0000 0.0000 0.0000 0.0000 64.4709
#
#
#
# Elastic Compliance Matrix: (Units=1/GPa)
#
#
# Indices 1 2 3 4 5 6 
#
# 1 0.014901 0.000155 0.002438 0.000000 0.000000 0.000000
# 2 0.000155 0.012188 0.001219 0.000000 0.000000 0.000000
# 3 0.002438 0.001219 0.009075 0.000000 0.000000 0.000000
# 4 0.000000 0.000000 0.000000 0.046167 0.000000 0.000000
# 5 0.000000 0.000000 0.000000 0.000000 0.025458 0.000000
# 6 0.000000 0.000000 0.000000 0.000000 0.000000 0.015511
#
#
# Mechanical properties :
#
#
# Convention : Reuss Voigt Hill
#
# Bulk Modulus (GPa) = 22.83820 23.48453 23.16136
# Shear Modulus (GPa) = 38.38075 45.05802 41.71938
#
# Velocity S-wave (km/s) = 3.79523 4.11214 3.95686
# Velocity P-wave (km/s) = 5.27029 5.59997 5.43763
#
# Compressibility (1/GPa) = 0.04378629
#
# Stress axis : x y z
#
# Youngs Moduli (GPa) = 67.11073 82.04602 110.18726
#
# Poissons Ratio (x) = -0.01268 -0.26861
# Poissons Ratio (y) = -0.01037 -0.13427
# Poissons Ratio (z) = -0.16360 -0.09998
#
# Static dielectric constant tensor:
#      x y z
#    x 2.185000 0.000000 0.000000 
#    y 0.000000 2.130760 0.000000 
#    z 0.000000 0.000000 1.725250 
# 
# From -- ./inp_files/9079.got.cif
#   From: 2010.05.17/outbox.cif.g08.bks.cpg/sg17_5_cif.got.tgz:9079.got - 2010.06.03 22:34:06.
