data_PCOD9311927
_publ_section_title
;
Structure prediction by ZEFSAII (Michael W. Deem and Ramdas Pophale) SiO2 
 PCOD9311927
Probable space group: P 21 21 2
;
_chemical_formula_sum "Si O2"
_cell_formula_units_Z 32
_cell_length_a 9.178738
_cell_length_b 11.812306
_cell_length_c 13.430419
_cell_angle_alpha 90.000000
_cell_angle_beta 90.000000
_cell_angle_gamma 90.000000
_cell_volume 1456.153721
_symmetry_space_group_name_H-M "P 21 21 2"
_symmetry_group_IT_number 18
_symmetry_cell_setting 'orthorhombic'
loop_
_space_group_symop_operation_xyz
x,y,z
-x,-y,z
1/2+x,1/2-y,-z
1/2-x,1/2+y,-z
loop_
_atom_site_type_symbol
_atom_site_label
_atom_site_fract_x
_atom_site_fract_y
_atom_site_fract_z
Si Si1 0.253472 0.856719 0.151296
Si Si2 0.539257 0.226181 0.829807
Si Si3 0.960283 0.812975 0.388201
Si Si4 0.074807 0.143881 0.846220
Si Si5 0.266872 0.443269 0.234312
Si Si6 0.279681 0.467774 0.630619
Si Si7 0.140460 0.064461 0.068653
Si Si8 0.875874 0.581783 0.439811
O O1 0.391655 0.775874 0.150340
O O2 0.244519 0.914073 0.260908
O O3 0.115802 0.771268 0.124222
O O4 0.257316 0.964603 0.077817
O O5 0.507809 0.248689 0.714293
O O6 0.627596 0.107583 0.826377
O O7 0.654356 0.318787 0.872353
O O8 0.917287 0.712135 0.459953
O O9 0.097861 0.886528 0.418596
O O10 0.839404 0.905533 0.361658
O O11 0.914588 0.115809 0.806037
O O12 0.195719 0.075529 0.781548
O O13 0.099948 0.096397 0.957026
O O14 0.243451 0.418853 0.351368
O O15 0.159815 0.469721 0.546503
O O16 0.000000 0.000000 0.116826
O O17 0.000000 0.500000 0.396125
#
# Coordination Sequence:
#
# PCOD9311927 Si02
#       8
#     4   4   4   4   4   4   4   4
#     4  10  22  39  68  97 124 170 224 281 322 408
#     4   9  19  38  68  84 125 164 218 262 323 390
#     4   9  20  40  61  92 122 173 208 271 330 392
#     4  11  24  39  65  93 136 172 217 271 346 393
#     4  10  24  43  58  92 135 175 209 280 341 397
#     4  10  21  41  66  93 125 167 225 271 335 393
#     4  10  19  39  64  92 128 171 215 266 330 410
#     4  11  26  40  68  97 133 175 233 276 338 409
#
# _framework density 21.975702999999999
#
# number of rings (size 3 to 8) (size 9 to 14) (size 15 to 20)
#    0.000    2.000    2.500    0.000    8.750    3.000 
#    2.250    0.625    2.750    0.000    0.000    0.000 
#    0.000    0.000    0.000    0.000    0.000    0.000 
#
# Total GULP energy -178241.341713 kJ/mol
# GULP energy per Si atom -5570.041929 kJ/mol
# Density = 2.192569 g / cm^3
# Si number density = 21.975703 Si / 1000 Ang^3
#
#
#
# Elastic Constant Matrix: (Units=GPa)
#
#
# Indices 1 2 3 4 5 6 
#
# 1 47.0868 23.1787 29.6871 0.0000 0.0000 0.0000
# 2 23.1787 75.7794 10.6326 0.0000 0.0000 0.0000
# 3 29.6871 10.6326 63.9884 0.0000 0.0000 0.0000
# 4 0.0000 0.0000 0.0000 8.5986 0.0000 0.0000
# 5 0.0000 0.0000 0.0000 0.0000 16.7721 0.0000
# 6 0.0000 0.0000 0.0000 0.0000 0.0000 25.6695
#
#
#
# Elastic Compliance Matrix: (Units=1/GPa)
#
#
# Indices 1 2 3 4 5 6 
#
# 1 0.034703 -0.008555 -0.014679 0.000000 0.000000 0.000000
# 2 -0.008555 0.015620 0.001374 0.000000 0.000000 0.000000
# 3 -0.014679 0.001374 0.022210 0.000000 0.000000 0.000000
# 4 0.000000 0.000000 0.000000 0.116298 0.000000 0.000000
# 5 0.000000 0.000000 0.000000 0.000000 0.059623 0.000000
# 6 0.000000 0.000000 0.000000 0.000000 0.000000 0.038957
#
#
# Mechanical properties :
#
#
# Convention : Reuss Voigt Hill
#
# Bulk Modulus (GPa) = 34.70715 34.87236 34.78976
# Shear Modulus (GPa) = 14.67410 18.43179 16.55294
#
# Velocity S-wave (km/s) = 2.58687 2.89923 2.74750
# Velocity P-wave (km/s) = 4.97496 5.20677 5.09219
#
# Compressibility (1/GPa) = 0.02881251
#
# Stress axis : x y z
#
# Youngs Moduli (GPa) = 28.81556 64.01945 45.02511
#
# Poissons Ratio (x) = 0.54770 0.66092
# Poissons Ratio (y) = 0.24652 -0.06185
# Poissons Ratio (z) = 0.42298 -0.08794
#
# Static dielectric constant tensor:
#      x y z
#    x 1.894260 0.000000 0.000000 
#    y 0.000000 1.848550 0.000000 
#    z 0.000000 0.000000 1.812140 
# 
# From -- ./inp_files/6763.got.cif
#   From: 2010.05.17/outbox.cif.g08.bks.cpg/sg18_4_cif.got.tgz:6763.got - 2010.06.03 22:40:56.
