data_PCOD9311926
_publ_section_title
;
Structure prediction by ZEFSAII (Michael W. Deem and Ramdas Pophale) SiO2 
 PCOD9311926
Probable space group: P 21 21 2
;
_chemical_formula_sum "Si O2"
_cell_formula_units_Z 24
_cell_length_a 9.087250
_cell_length_b 13.239728
_cell_length_c 9.970772
_cell_angle_alpha 90.000000
_cell_angle_beta 90.000000
_cell_angle_gamma 90.000000
_cell_volume 1199.610683
_symmetry_space_group_name_H-M "P 21 21 2"
_symmetry_group_IT_number 18
_symmetry_cell_setting 'orthorhombic'
loop_
_space_group_symop_operation_xyz
x,y,z
-x,-y,z
1/2+x,1/2-y,-z
1/2-x,1/2+y,-z
loop_
_atom_site_type_symbol
_atom_site_label
_atom_site_fract_x
_atom_site_fract_y
_atom_site_fract_z
Si Si1 0.605054 0.738735 0.655489
Si Si2 0.309270 0.495078 0.703702
Si Si3 0.000000 0.000000 0.547497
Si Si4 0.500000 0.000000 0.157450
Si Si5 0.101140 0.188489 0.125328
Si Si6 0.057048 0.716231 0.892962
Si Si7 0.939452 0.790996 0.620564
O O1 0.652053 0.623778 0.696390
O O2 0.493383 0.761276 0.776506
O O3 0.761848 0.792219 0.631889
O O4 0.505815 0.744489 0.521745
O O5 0.365717 0.525265 0.555195
O O6 0.382767 0.577166 0.805701
O O7 0.141485 0.500900 0.746566
O O8 0.012124 0.901278 0.635168
O O9 0.508779 0.898064 0.069399
O O10 0.267716 0.224218 0.104023
O O11 0.017886 0.199040 0.984747
O O12 0.000725 0.725490 0.741439
#
# Coordination Sequence:
#
# PCOD9311926 Si02
#       7
#     4   4   2   2   4   4   4
#     4  11  21  39  67  91 130 174 218 269 327 400
#     4  10  19  39  64  89 124 170 221 254 330 395
#     4  10  22  38  60  96 132 172 210 268 322 394
#     4  10  22  38  62  96 126 170 218 274 318 404
#     4  11  22  41  63  93 125 172 220 267 329 393
#     4  11  24  40  64  95 130 171 220 273 329 385
#     4  11  22  39  62  98 132 169 218 270 329 385
#
# _framework density 20.006491
#
# number of rings (size 3 to 8) (size 9 to 14) (size 15 to 20)
#    0.000    1.333    5.000    2.000    2.333    0.000 
#    3.000    1.667    0.000    1.000    0.000    0.000 
#    0.000    0.000    0.000    0.000    0.000    0.000 
#
# Total GULP energy -133603.724776 kJ/mol
# GULP energy per Si atom -5566.821866 kJ/mol
# Density = 1.996096 g / cm^3
# Si number density = 20.006491 Si / 1000 Ang^3
#
#
#
# Elastic Constant Matrix: (Units=GPa)
#
#
# Indices 1 2 3 4 5 6 
#
# 1 149.4317 17.8220 47.8257 0.0000 0.0000 0.0000
# 2 17.8220 73.4195 26.6480 0.0000 0.0000 0.0000
# 3 47.8257 26.6480 68.3943 0.0000 0.0000 0.0000
# 4 0.0000 0.0000 0.0000 13.3075 0.0000 0.0000
# 5 0.0000 0.0000 0.0000 0.0000 -0.9952 0.0000
# 6 0.0000 0.0000 0.0000 0.0000 0.0000 24.2969
#
#
#
# Elastic Compliance Matrix: (Units=1/GPa)
#
#
# Indices 1 2 3 4 5 6 
#
# 1 0.008622 0.000111 -0.006073 0.000000 0.000000 0.000000
# 2 0.000111 0.015865 -0.006259 0.000000 0.000000 0.000000
# 3 -0.006073 -0.006259 0.021306 0.000000 0.000000 0.000000
# 4 0.000000 0.000000 0.000000 0.075145 0.000000 0.000000
# 5 0.000000 0.000000 0.000000 0.000000 -1.004787 0.000000
# 6 0.000000 0.000000 0.000000 0.000000 0.000000 0.041158
#
#
# Mechanical properties :
#
#
# Convention : Reuss Voigt Hill
#
# Bulk Modulus (GPa) = 46.83308 52.87075 49.85192
# Shear Modulus (GPa) = -6.16423 20.58517 7.21047
#
# Velocity S-wave (km/s) = -1.75721 3.21117 1.90050
# Velocity P-wave (km/s) = 4.39803 6.34294 5.45782
#
# Compressibility (1/GPa) = 0.02135243
#
# Stress axis : x y z
#
# Youngs Moduli (GPa) = 115.97847 63.03119 46.93496
#
# Poissons Ratio (x) = -0.00700 0.28501
# Poissons Ratio (y) = -0.01288 0.29377
# Poissons Ratio (z) = 0.70428 0.39452
#
# Static dielectric constant tensor:
#      x y z
#    x 1.741940 0.000000 0.000000 
#    y 0.000000 1.764500 0.000000 
#    z 0.000000 0.000000 1.691930 
# 
# From -- ./inp_files/3203.got.cif
#   From: 2010.05.17/outbox.cif.g08.bks.cpg/sg18_2_cif.got.tgz:3203.got - 2010.06.03 22:40:56.
