data_PCOD9311971
_publ_section_title
;
Structure prediction by ZEFSAII (Michael W. Deem and Ramdas Pophale) SiO2 
 PCOD9311971
Probable space group: P 21 21 2
;
_chemical_formula_sum "Si O2"
_cell_formula_units_Z 18
_cell_length_a 5.621160
_cell_length_b 15.873909
_cell_length_c 10.270106
_cell_angle_alpha 90.000000
_cell_angle_beta 90.000000
_cell_angle_gamma 90.000000
_cell_volume 916.399323
_symmetry_space_group_name_H-M "P 21 21 2"
_symmetry_group_IT_number 18
_symmetry_cell_setting 'orthorhombic'
loop_
_space_group_symop_operation_xyz
x,y,z
-x,-y,z
1/2+x,1/2-y,-z
1/2-x,1/2+y,-z
loop_
_atom_site_type_symbol
_atom_site_label
_atom_site_fract_x
_atom_site_fract_y
_atom_site_fract_z
Si Si1 0.747706 0.154613 0.442632
Si Si2 0.452872 0.800956 0.984736
Si Si3 0.364749 0.116464 0.233037
Si Si4 0.445386 0.780219 0.704201
Si Si5 0.500000 0.500000 0.668969
O O1 0.520582 0.123056 0.363032
O O2 0.700943 0.173252 0.592455
O O3 0.827854 0.241018 0.370802
O O4 0.934772 0.080080 0.418930
O O5 0.478701 0.832600 0.835913
O O6 0.686029 0.738273 0.996437
O O7 0.490383 0.867180 0.101276
O O8 0.187402 0.196312 0.244723
O O9 0.214854 0.031338 0.240663
#
# Coordination Sequence:
#
# PCOD9311971 Si02
#       5
#     4   4   4   4   2
#     4  11  19  37  58  92 122 159 209 260 313 379
#     4  10  20  36  61  96 122 151 201 265 315 362
#     4  10  20  37  59  88 123 159 208 255 315 376
#     4  10  20  33  62  96 117 153 209 265 312 359
#     4  10  24  36  60  88 122 174 206 252 320 386
#
# _framework density 19.642091000000001
#
# number of rings (size 3 to 8) (size 9 to 14) (size 15 to 20)
#    0.000    1.778    4.444    0.667    0.000    0.000 
#    0.000    0.000    0.000    8.000    0.000    0.000 
#    0.000    0.000    0.000    0.000    0.000    0.000 
#
# Total GULP energy -100267.976794 kJ/mol
# GULP energy per Si atom -5570.443155 kJ/mol
# Density = 1.959738 g / cm^3
# Si number density = 19.642091 Si / 1000 Ang^3
#
#
#
# Elastic Constant Matrix: (Units=GPa)
#
#
# Indices 1 2 3 4 5 6 
#
# 1 58.7879 0.1332 -0.0216 0.0000 0.0000 0.0000
# 2 0.1332 44.6655 11.3630 0.0000 0.0000 0.0000
# 3 -0.0216 11.3630 140.0900 0.0000 0.0000 0.0000
# 4 0.0000 0.0000 0.0000 18.6944 0.0000 0.0000
# 5 0.0000 0.0000 0.0000 0.0000 29.6829 0.0000
# 6 0.0000 0.0000 0.0000 0.0000 0.0000 27.2133
#
#
#
# Elastic Compliance Matrix: (Units=1/GPa)
#
#
# Indices 1 2 3 4 5 6 
#
# 1 0.017010 -0.000052 0.000007 0.000000 0.000000 0.000000
# 2 -0.000052 0.022861 -0.001854 0.000000 0.000000 0.000000
# 3 0.000007 -0.001854 0.007289 0.000000 0.000000 0.000000
# 4 0.000000 0.000000 0.000000 0.053492 0.000000 0.000000
# 5 0.000000 0.000000 0.000000 0.000000 0.033689 0.000000
# 6 0.000000 0.000000 0.000000 0.000000 0.000000 0.036747
#
#
# Mechanical properties :
#
#
# Convention : Reuss Voigt Hill
#
# Bulk Modulus (GPa) = 23.06279 29.61028 26.33654
# Shear Modulus (GPa) = 26.40742 30.58938 28.49840
#
# Velocity S-wave (km/s) = 3.67062 3.95059 3.81318
# Velocity P-wave (km/s) = 5.45267 5.99310 5.72926
#
# Compressibility (1/GPa) = 0.04335989
#
# Stress axis : x y z
#
# Youngs Moduli (GPa) = 58.78744 43.74352 137.19917
#
# Poissons Ratio (x) = 0.00230 -0.00094
# Poissons Ratio (y) = 0.00309 0.25440
# Poissons Ratio (z) = -0.00040 0.08111
#
# Static dielectric constant tensor:
#      x y z
#    x 1.805540 0.000000 0.000000 
#    y 0.000000 1.702020 0.000000 
#    z 0.000000 0.000000 1.702940 
# 
# From -- ./inp_files/2438.got.cif
#   From: 2010.05.17/outbox.cif.g08.bks.cpg/sg18_2_cif.got.tgz:2438.got - 2010.06.03 22:40:56.
