data_PCOD9311126
_publ_section_title
;
Structure prediction by ZEFSAII (Michael W. Deem and Ramdas Pophale) SiO2 
 PCOD9311126
Probable space group: P 2 2 21
;
_chemical_formula_sum "Si O2"
_cell_formula_units_Z 18
_cell_length_a 5.196339
_cell_length_b 13.574195
_cell_length_c 10.790742
_cell_angle_alpha 90.000000
_cell_angle_beta 90.000000
_cell_angle_gamma 90.000000
_cell_volume 761.137060
_symmetry_space_group_name_H-M "P 2 2 21"
_symmetry_group_IT_number 17
_symmetry_cell_setting 'orthorhombic'
loop_
_space_group_symop_operation_xyz
x,y,z
-x,-y,1/2+z
x,-y,-z
-x,y,1/2-z
loop_
_atom_site_type_symbol
_atom_site_label
_atom_site_fract_x
_atom_site_fract_y
_atom_site_fract_z
Si Si1 0.888792 0.911225 0.402889
Si Si2 0.604904 0.826284 0.987430
Si Si3 0.117574 0.651496 0.633516
Si Si4 0.500000 0.498643 0.750000
Si Si5 0.246009 0.500000 0.000000
Si Si6 0.500000 0.033980 0.250000
O O1 0.671016 0.833890 0.448037
O O2 0.163902 0.858729 0.420849
O O3 0.905196 0.000000 0.500000
O O4 0.742438 0.966517 0.289947
O O5 0.685685 0.720418 0.937779
O O6 0.581660 0.899909 0.868343
O O7 0.269585 0.566844 0.704539
O O8 0.000000 0.712636 0.750000
O O9 0.922815 0.592732 0.546189
O O10 0.596017 0.456961 0.618247
#
# Coordination Sequence:
#
# PCOD9311126 Si02
#       6
#     4   4   4   2   2   2
#     4  10  23  39  62  94 131 180 220 278 350 406
#     4  11  24  39  66 101 130 172 238 284 335 417
#     4  10  23  39  67 102 130 175 232 295 350 418
#     4  10  21  42  71  98 136 186 228 295 360 429
#     4  10  22  42  70 102 142 178 234 294 368 428
#     4  10  23  44  67  92 146 184 226 289 352 411
#
# _framework density 23.648828000000002
#
# number of rings (size 3 to 8) (size 9 to 14) (size 15 to 20)
#    0.000    1.778    0.000    3.333   12.444    4.444 
#    0.000    1.111   14.667    0.000    0.000    0.000 
#    0.000    0.000    0.000    0.000    0.000    0.000 
#
# Total GULP energy -100446.200476 kJ/mol
# GULP energy per Si atom -5580.344471 kJ/mol
# Density = 2.359500 g / cm^3
# Si number density = 23.648828 Si / 1000 Ang^3
#
#
#
# Elastic Constant Matrix: (Units=GPa)
#
#
# Indices 1 2 3 4 5 6 
#
# 1 120.4952 11.9594 42.5072 0.0000 0.0000 0.0000
# 2 11.9594 51.4309 35.3107 0.0000 0.0000 0.0000
# 3 42.5072 35.3107 128.6085 0.0000 0.0000 0.0000
# 4 0.0000 0.0000 0.0000 -51.9339 0.0000 0.0000
# 5 0.0000 0.0000 0.0000 0.0000 42.2835 0.0000
# 6 0.0000 0.0000 0.0000 0.0000 0.0000 36.0426
#
#
#
# Elastic Compliance Matrix: (Units=1/GPa)
#
#
# Indices 1 2 3 4 5 6 
#
# 1 0.009395 -0.000065 -0.003087 0.000000 0.000000 0.000000
# 2 -0.000065 0.023961 -0.006557 0.000000 0.000000 0.000000
# 3 -0.003087 -0.006557 0.010596 0.000000 0.000000 0.000000
# 4 0.000000 0.000000 0.000000 -0.019255 0.000000 0.000000
# 5 0.000000 0.000000 0.000000 0.000000 0.023650 0.000000
# 6 0.000000 0.000000 0.000000 0.000000 0.000000 0.027745
#
#
# Mechanical properties :
#
#
# Convention : Reuss Voigt Hill
#
# Bulk Modulus (GPa) = 40.76181 53.34322 47.05252
# Shear Modulus (GPa) = 48.22192 19.32892 33.77542
#
# Velocity S-wave (km/s) = 4.52052 2.86200 3.78326
# Velocity P-wave (km/s) = 6.67237 5.79023 6.24689
#
# Compressibility (1/GPa) = 0.02453277
#
# Stress axis : x y z
#
# Youngs Moduli (GPa) = 106.44386 41.73523 94.37307
#
# Poissons Ratio (x) = 0.00271 0.29135
# Poissons Ratio (y) = 0.00692 0.61882
# Poissons Ratio (z) = 0.32862 0.27366
#
# Static dielectric constant tensor:
#      x y z
#    x 2.104440 0.000000 0.000000 
#    y 0.000000 1.857550 0.000000 
#    z 0.000000 0.000000 2.250310 
# 
# From -- ./inp_files/5865.got.cif
#   From: 2010.05.17/outbox.cif.g08.bks.cpg/sg17_3_cif.got.tgz:5865.got - 2010.06.03 22:34:06.
