data_PCOD9311778
_publ_section_title
;
Structure prediction by ZEFSAII (Michael W. Deem and Ramdas Pophale) SiO2 
 PCOD9311778
Probable space group: P 21 21 2
;
_chemical_formula_sum "Si O2"
_cell_formula_units_Z 16
_cell_length_a 13.002571
_cell_length_b 7.633838
_cell_length_c 5.684735
_cell_angle_alpha 90.000000
_cell_angle_beta 90.000000
_cell_angle_gamma 90.000000
_cell_volume 564.264071
_symmetry_space_group_name_H-M "P 21 21 2"
_symmetry_group_IT_number 18
_symmetry_cell_setting 'orthorhombic'
loop_
_space_group_symop_operation_xyz
x,y,z
-x,-y,z
1/2+x,1/2-y,-z
1/2-x,1/2+y,-z
loop_
_atom_site_type_symbol
_atom_site_label
_atom_site_fract_x
_atom_site_fract_y
_atom_site_fract_z
Si Si1 0.745650 0.245803 0.840622
Si Si2 0.007963 0.786212 0.877695
Si Si3 0.260961 0.141982 0.655483
Si Si4 0.488680 0.290157 0.620240
O O1 0.869992 0.257906 0.873279
O O2 0.716106 0.363217 0.612021
O O3 0.724509 0.054075 0.742843
O O4 0.707647 0.279378 0.107869
O O5 0.968687 0.718903 0.625874
O O6 0.969139 0.722973 0.131284
O O7 0.000000 0.000000 0.876188
O O8 0.368620 0.241036 0.624064
O O9 0.500000 0.500000 0.618082
#
# Coordination Sequence:
#
# PCOD9311778 Si02
#       4
#     4   4   4   4
#     4  10  19  31  48  73  99 126 159 200 242 285
#     4   8  14  25  42  65  86 114 155 194 221 267
#     4  10  19  31  48  73  99 126 159 200 242 285
#     4   8  14  25  42  65  86 114 155 194 221 267
#
# _framework density 28.355513999999999
#
# number of rings (size 3 to 8) (size 9 to 14) (size 15 to 20)
#    0.000    3.000    0.000    1.500    0.000    0.000 
#    0.000    0.000    0.000    0.000    0.000  168.000 
#    0.000    0.000    0.000    0.000    0.000    0.000 
#
# Total GULP energy -89493.704961 kJ/mol
# GULP energy per Si atom -5593.356560 kJ/mol
# Density = 2.829098 g / cm^3
# Si number density = 28.355514 Si / 1000 Ang^3
#
#
#
# Elastic Constant Matrix: (Units=GPa)
#
#
# Indices 1 2 3 4 5 6 
#
# 1 88.7255 13.7430 76.2229 0.0000 0.0000 0.0000
# 2 13.7430 99.3736 44.4078 0.0000 0.0000 0.0000
# 3 76.2229 44.4078 400.1873 0.0000 0.0000 0.0000
# 4 0.0000 0.0000 0.0000 147.9227 0.0000 0.0000
# 5 0.0000 0.0000 0.0000 0.0000 68.8375 0.0000
# 6 0.0000 0.0000 0.0000 0.0000 0.0000 34.3542
#
#
#
# Elastic Compliance Matrix: (Units=1/GPa)
#
#
# Indices 1 2 3 4 5 6 
#
# 1 0.013530 -0.000757 -0.002493 0.000000 0.000000 0.000000
# 2 -0.000757 0.010630 -0.001035 0.000000 0.000000 0.000000
# 3 -0.002493 -0.001035 0.003089 0.000000 0.000000 0.000000
# 4 0.000000 0.000000 0.000000 0.006760 0.000000 0.000000
# 5 0.000000 0.000000 0.000000 0.000000 0.014527 0.000000
# 6 0.000000 0.000000 0.000000 0.000000 0.000000 0.029108
#
#
# Mechanical properties :
#
#
# Convention : Reuss Voigt Hill
#
# Bulk Modulus (GPa) = 53.53964 95.22597 74.38280
# Shear Modulus (GPa) = 54.08843 80.48374 67.28609
#
# Velocity S-wave (km/s) = 4.37224 5.33343 4.87657
# Velocity P-wave (km/s) = 6.66418 8.46067 7.61558
#
# Compressibility (1/GPa) = 0.01867775
#
# Stress axis : x y z
#
# Youngs Moduli (GPa) = 73.91176 94.06947 323.77560
#
# Poissons Ratio (x) = 0.07122 0.80716
# Poissons Ratio (y) = 0.05596 0.33525
# Poissons Ratio (z) = 0.18426 0.09740
#
# Static dielectric constant tensor:
#      x y z
#    x 0.988460 0.000000 0.000000 
#    y 0.000000 2.058020 0.000000 
#    z 0.000000 0.000000 2.314250 
# 
# From -- ./inp_files/147.got.cif
#   From: 2010.05.17/outbox.cif.g08.bks.cpg/sg18_1_cif.got.tgz:147.got - 2010.06.03 22:40:56.
