data_PCOD9311692
_publ_section_title
;
Structure prediction by ZEFSAII (Michael W. Deem and Ramdas Pophale) SiO2 
 PCOD9311692
Probable space group: P 21 21 2
;
_chemical_formula_sum "Si O2"
_cell_formula_units_Z 24
_cell_length_a 7.889319
_cell_length_b 16.958719
_cell_length_c 9.384274
_cell_angle_alpha 90.000000
_cell_angle_beta 90.000000
_cell_angle_gamma 90.000000
_cell_volume 1255.547769
_symmetry_space_group_name_H-M "P 21 21 2"
_symmetry_group_IT_number 18
_symmetry_cell_setting 'orthorhombic'
loop_
_space_group_symop_operation_xyz
x,y,z
-x,-y,z
1/2+x,1/2-y,-z
1/2-x,1/2+y,-z
loop_
_atom_site_type_symbol
_atom_site_label
_atom_site_fract_x
_atom_site_fract_y
_atom_site_fract_z
Si Si1 0.323422 0.312652 0.096161
Si Si2 0.400926 0.223152 0.596273
Si Si3 0.289221 0.680965 0.682956
Si Si4 0.146071 0.266225 0.820878
Si Si5 0.588898 0.916217 0.130115
Si Si6 0.517764 0.089206 0.815925
O O1 0.236880 0.247551 0.197173
O O2 0.521196 0.304974 0.132516
O O3 0.208965 0.389370 0.128847
O O4 0.292798 0.282725 0.936216
O O5 0.531893 0.296041 0.611624
O O6 0.351110 0.194615 0.439609
O O7 0.228333 0.250722 0.670677
O O8 0.466815 0.150515 0.693498
O O9 0.253159 0.600766 0.771372
O O10 0.036765 0.345714 0.825372
O O11 0.500000 0.000000 0.154583
O O12 0.600060 0.905620 0.958386
O O13 0.500000 0.000000 0.764020
#
# Coordination Sequence:
#
# PCOD9311692 Si02
#       6
#     4   4   4   4   4   4
#     4   9  17  31  53  78 104 134 177 218 260 314
#     4  11  21  34  54  77 105 139 182 226 266 315
#     4  10  19  32  51  77 104 137 177 218 261 313
#     4  10  18  32  54  78 101 136 179 225 265 312
#     4   9  18  34  55  79 108 140 174 212 264 322
#     4   9  19  35  55  79 108 142 173 211 268 324
#
# _framework density 19.115162000000002
#
# number of rings (size 3 to 8) (size 9 to 14) (size 15 to 20)
#    0.000    2.333    0.000    6.000    0.000    0.667 
#    0.000    1.667    0.000   10.000    0.000    0.000 
#    0.000    0.000    0.000    0.000    0.000    0.000 
#
# Total GULP energy -133609.238962 kJ/mol
# GULP energy per Si atom -5567.051623 kJ/mol
# Density = 1.907166 g / cm^3
# Si number density = 19.115162 Si / 1000 Ang^3
#
#
#
# Elastic Constant Matrix: (Units=GPa)
#
#
# Indices 1 2 3 4 5 6 
#
# 1 65.7913 11.8675 -2.3719 0.0000 0.0000 0.0000
# 2 11.8675 88.2995 2.8265 0.0000 0.0000 0.0000
# 3 -2.3719 2.8265 67.0863 0.0000 0.0000 0.0000
# 4 0.0000 0.0000 0.0000 13.5423 0.0000 0.0000
# 5 0.0000 0.0000 0.0000 0.0000 35.8045 0.0000
# 6 0.0000 0.0000 0.0000 0.0000 0.0000 22.3034
#
#
#
# Elastic Compliance Matrix: (Units=1/GPa)
#
#
# Indices 1 2 3 4 5 6 
#
# 1 0.015605 -0.002118 0.000641 0.000000 0.000000 0.000000
# 2 -0.002118 0.011628 -0.000565 0.000000 0.000000 0.000000
# 3 0.000641 -0.000565 0.014953 0.000000 0.000000 0.000000
# 4 0.000000 0.000000 0.000000 0.073842 0.000000 0.000000
# 5 0.000000 0.000000 0.000000 0.000000 0.027929 0.000000
# 6 0.000000 0.000000 0.000000 0.000000 0.000000 0.044836
#
#
# Mechanical properties :
#
#
# Convention : Reuss Voigt Hill
#
# Bulk Modulus (GPa) = 26.24542 27.31347 26.77945
# Shear Modulus (GPa) = 24.32176 28.25371 26.28773
#
# Velocity S-wave (km/s) = 3.57091 3.84875 3.71243
# Velocity P-wave (km/s) = 5.54634 5.83699 5.69352
#
# Compressibility (1/GPa) = 0.03810188
#
# Stress axis : x y z
#
# Youngs Moduli (GPa) = 64.08327 86.00080 66.87784
#
# Poissons Ratio (x) = 0.18213 -0.04287
# Poissons Ratio (y) = 0.13572 0.03777
# Poissons Ratio (z) = -0.04107 0.04857
#
# Static dielectric constant tensor:
#      x y z
#    x 1.776520 0.000000 0.000000 
#    y 0.000000 1.661560 0.000000 
#    z 0.000000 0.000000 1.683160 
# 
# From -- ./inp_files/3277.got.cif
#   From: 2010.05.17/outbox.cif.g08.bks.cpg/sg18_2_cif.got.tgz:3277.got - 2010.06.03 22:40:56.
