data_PCOD9311278
_publ_section_title
;
Structure prediction by ZEFSAII (Michael W. Deem and Ramdas Pophale) SiO2 
 PCOD9311278
Probable space group: P 2 2 21
;
_chemical_formula_sum "Si O2"
_cell_formula_units_Z 24
_cell_length_a 5.291954
_cell_length_b 18.537470
_cell_length_c 10.458525
_cell_angle_alpha 90.000000
_cell_angle_beta 90.000000
_cell_angle_gamma 90.000000
_cell_volume 1025.975430
_symmetry_space_group_name_H-M "P 2 2 21"
_symmetry_group_IT_number 17
_symmetry_cell_setting 'orthorhombic'
loop_
_space_group_symop_operation_xyz
x,y,z
-x,-y,1/2+z
x,-y,-z
-x,y,1/2-z
loop_
_atom_site_type_symbol
_atom_site_label
_atom_site_fract_x
_atom_site_fract_y
_atom_site_fract_z
Si Si1 0.877458 0.915332 0.499316
Si Si2 0.696861 0.303305 0.353126
Si Si3 0.000000 0.574781 0.750000
Si Si4 0.654837 0.461317 0.880962
Si Si5 0.000000 0.829973 0.750000
Si Si6 0.387257 0.698904 0.392626
Si Si7 0.361757 0.142731 0.613449
O O1 0.603487 0.877317 0.476098
O O2 0.004716 0.881921 0.627422
O O3 0.109725 0.904446 0.399825
O O4 0.822307 0.000000 0.500000
O O5 0.500000 0.333923 0.250000
O O6 0.897375 0.366522 0.351020
O O7 0.785269 0.228149 0.290010
O O8 0.592150 0.296349 0.494544
O O9 0.138764 0.519347 0.656611
O O10 0.500000 0.456215 0.750000
O O11 0.738976 0.379229 0.908070
O O12 0.514129 0.500000 0.000000
O O13 0.500000 0.700851 0.250000
O O14 0.252234 0.775896 0.407965
O O15 0.500000 0.137960 0.750000
#
# Coordination Sequence:
#
# PCOD9311278 Si02
#       7
#     4   4   2   4   2   4   4
#     4  12  27  48  76 114 151 194 247 313 384 453
#     4  11  22  45  71  98 141 191 250 307 376 446
#     4  11  24  38  66 101 134 186 240 313 376 440
#     4  11  24  43  64  97 135 183 238 304 371 438
#     4  11  26  42  78 107 144 194 250 313 370 480
#     4  10  22  43  66  96 138 190 239 304 369 445
#     4  11  25  49  74 107 151 200 248 302 376 459
#
# _framework density 23.392372000000002
#
# number of rings (size 3 to 8) (size 9 to 14) (size 15 to 20)
#    0.000    1.000    1.667    4.500    2.333    4.667 
#    9.000    0.000    0.000    0.000    0.000    0.000 
#    0.000    0.000    0.000    0.000    0.000    0.000 
#
# Total GULP energy -133752.025055 kJ/mol
# GULP energy per Si atom -5573.001044 kJ/mol
# Density = 2.333913 g / cm^3
# Si number density = 23.392372 Si / 1000 Ang^3
#
#
#
# Elastic Constant Matrix: (Units=GPa)
#
#
# Indices 1 2 3 4 5 6 
#
# 1 32.6096 11.6428 19.4390 0.0000 0.0000 0.0000
# 2 11.6428 163.8188 29.4112 0.0000 0.0000 0.0000
# 3 19.4390 29.4112 123.9727 0.0000 0.0000 0.0000
# 4 0.0000 0.0000 0.0000 37.2152 0.0000 0.0000
# 5 0.0000 0.0000 0.0000 0.0000 18.8122 0.0000
# 6 0.0000 0.0000 0.0000 0.0000 0.0000 22.8802
#
#
#
# Elastic Compliance Matrix: (Units=1/GPa)
#
#
# Indices 1 2 3 4 5 6 
#
# 1 0.034192 -0.001533 -0.004998 0.000000 0.000000 0.000000
# 2 -0.001533 0.006445 -0.001289 0.000000 0.000000 0.000000
# 3 -0.004998 -0.001289 0.009156 0.000000 0.000000 0.000000
# 4 0.000000 0.000000 0.000000 0.026871 0.000000 0.000000
# 5 0.000000 0.000000 0.000000 0.000000 0.053157 0.000000
# 6 0.000000 0.000000 0.000000 0.000000 0.000000 0.043706
#
#
# Mechanical properties :
#
#
# Convention : Reuss Voigt Hill
#
# Bulk Modulus (GPa) = 29.27888 49.04300 39.16094
# Shear Modulus (GPa) = 24.93153 33.10872 29.02013
#
# Velocity S-wave (km/s) = 3.26820 3.76621 3.52601
# Velocity P-wave (km/s) = 5.17543 6.31850 5.77531
#
# Compressibility (1/GPa) = 0.03415431
#
# Stress axis : x y z
#
# Youngs Moduli (GPa) = 29.24635 155.16894 109.22237
#
# Poissons Ratio (x) = 0.23785 0.54586
# Poissons Ratio (y) = 0.04483 0.14074
# Poissons Ratio (z) = 0.14617 0.19995
#
# Static dielectric constant tensor:
#      x y z
#    x 1.975280 0.000000 0.000000 
#    y 0.000000 1.868970 0.000000 
#    z 0.000000 0.000000 2.021070 
# 
# From -- ./inp_files/6048.got.cif
#   From: 2010.05.17/outbox.cif.g08.bks.cpg/sg17_4_cif.got.tgz:6048.got - 2010.06.03 22:34:06.
