data_PCOD9311212
_publ_section_title
;
Structure prediction by ZEFSAII (Michael W. Deem and Ramdas Pophale) SiO2 
 PCOD9311212
Probable space group: P 2 2 21
;
_chemical_formula_sum "Si O2"
_cell_formula_units_Z 24
_cell_length_a 8.885915
_cell_length_b 23.292214
_cell_length_c 5.232436
_cell_angle_alpha 90.000000
_cell_angle_beta 90.000000
_cell_angle_gamma 90.000000
_cell_volume 1082.971060
_symmetry_space_group_name_H-M "P 2 2 21"
_symmetry_group_IT_number 17
_symmetry_cell_setting 'orthorhombic'
loop_
_space_group_symop_operation_xyz
x,y,z
-x,-y,1/2+z
x,-y,-z
-x,y,1/2-z
loop_
_atom_site_type_symbol
_atom_site_label
_atom_site_fract_x
_atom_site_fract_y
_atom_site_fract_z
Si Si1 0.683648 0.400607 0.271816
Si Si2 0.755516 0.877597 0.050785
Si Si3 0.104237 0.000000 0.500000
Si Si4 0.103355 0.500000 0.000000
Si Si5 0.244231 0.221037 0.906739
Si Si6 0.500000 0.817728 0.750000
Si Si7 0.000000 0.196573 0.250000
Si Si8 0.679444 0.667559 0.228298
O O1 0.500000 0.411595 0.250000
O O2 0.782699 0.453890 0.369285
O O3 0.721491 0.353554 0.489041
O O4 0.727018 0.375377 0.995312
O O5 0.794512 0.943985 0.050474
O O6 0.765286 0.845214 0.320268
O O7 0.597229 0.858700 0.932751
O O8 0.881507 0.844508 0.888176
O O9 0.000000 0.008981 0.250000
O O10 0.000000 0.481896 0.750000
O O11 0.267846 0.267147 0.685521
O O12 0.388283 0.221949 0.088893
O O13 0.091293 0.233780 0.050212
O O14 0.500000 0.667665 0.250000
#
# Coordination Sequence:
#
# PCOD9311212 Si02
#       8
#     4   4   2   2   4   2   2   4
#     4  10  24  45  73 110 139 194 252 290 342 436
#     4  11  23  44  65  97 131 179 237 285 363 424
#     4  12  26  46  72  94 130 184 238 304 352 428
#     4  12  26  48  76 106 156 196 234 310 380 416
#     4  11  23  41  69 100 141 186 224 296 355 430
#     4  10  24  40  66 102 134 182 224 288 374 424
#     4  10  22  40  64  96 130 180 242 270 354 436
#     4  10  22  40  70 106 141 180 238 296 350 413
#
# _framework density 22.161259999999999
#
# number of rings (size 3 to 8) (size 9 to 14) (size 15 to 20)
#    0.000    1.333    0.833    4.000   10.500    2.667 
#    4.500    1.667    0.000    0.000    0.000    0.000 
#    0.000    0.000    0.000    0.000    0.000    0.000 
#
# Total GULP energy -134072.192573 kJ/mol
# GULP energy per Si atom -5586.341357 kJ/mol
# Density = 2.211082 g / cm^3
# Si number density = 22.161260 Si / 1000 Ang^3
#
#
#
# Elastic Constant Matrix: (Units=GPa)
#
#
# Indices 1 2 3 4 5 6 
#
# 1 85.3847 40.8397 44.9034 0.0000 0.0000 0.0000
# 2 40.8397 132.8318 40.4194 0.0000 0.0000 0.0000
# 3 44.9034 40.4194 125.2560 0.0000 0.0000 0.0000
# 4 0.0000 0.0000 0.0000 21.9180 0.0000 0.0000
# 5 0.0000 0.0000 0.0000 0.0000 25.1136 0.0000
# 6 0.0000 0.0000 0.0000 0.0000 0.0000 3.4116
#
#
#
# Elastic Compliance Matrix: (Units=1/GPa)
#
#
# Indices 1 2 3 4 5 6 
#
# 1 0.015750 -0.003465 -0.004528 0.000000 0.000000 0.000000
# 2 -0.003465 0.009110 -0.001698 0.000000 0.000000 0.000000
# 3 -0.004528 -0.001698 0.010155 0.000000 0.000000 0.000000
# 4 0.000000 0.000000 0.000000 0.045625 0.000000 0.000000
# 5 0.000000 0.000000 0.000000 0.000000 0.039819 0.000000
# 6 0.000000 0.000000 0.000000 0.000000 0.000000 0.293119
#
#
# Mechanical properties :
#
#
# Convention : Reuss Voigt Hill
#
# Bulk Modulus (GPa) = 63.96354 66.19972 65.08163
# Shear Modulus (GPa) = 11.41108 24.57598 17.99353
#
# Velocity S-wave (km/s) = 2.27163 3.33372 2.85254
# Velocity P-wave (km/s) = 5.98380 6.68991 6.34668
#
# Compressibility (1/GPa) = 0.01563391
#
# Stress axis : x y z
#
# Youngs Moduli (GPa) = 63.49110 109.76803 98.47465
#
# Poissons Ratio (x) = 0.38030 0.44593
# Poissons Ratio (y) = 0.21997 0.16719
# Poissons Ratio (z) = 0.28751 0.18636
#
# Static dielectric constant tensor:
#      x y z
#    x 1.827320 0.000000 0.000000 
#    y 0.000000 1.791800 0.000000 
#    z 0.000000 0.000000 1.896850 
# 
# From -- ./inp_files/1044.got.cif
#   From: 2010.05.17/outbox.cif.g08.bks.cpg/sg17_1_cif.got.tgz:1044.got - 2010.06.03 22:34:06.
