data_PCOD9311750
_publ_section_title
;
Structure prediction by ZEFSAII (Michael W. Deem and Ramdas Pophale) SiO2 
 PCOD9311750
Probable space group: P 21 21 2
;
_chemical_formula_sum "Si O2"
_cell_formula_units_Z 26
_cell_length_a 16.220525
_cell_length_b 9.018414
_cell_length_c 8.132596
_cell_angle_alpha 90.000000
_cell_angle_beta 90.000000
_cell_angle_gamma 90.000000
_cell_volume 1189.663873
_symmetry_space_group_name_H-M "P 21 21 2"
_symmetry_group_IT_number 18
_symmetry_cell_setting 'orthorhombic'
loop_
_space_group_symop_operation_xyz
x,y,z
-x,-y,z
1/2+x,1/2-y,-z
1/2-x,1/2+y,-z
loop_
_atom_site_type_symbol
_atom_site_label
_atom_site_fract_x
_atom_site_fract_y
_atom_site_fract_z
Si Si1 0.506001 0.673718 0.770214
Si Si2 0.151387 0.338215 0.704684
Si Si3 0.420501 0.582726 0.099332
Si Si4 0.725566 0.442983 0.888476
Si Si5 0.865965 0.384797 0.118803
Si Si6 0.850439 0.682266 0.332330
Si Si7 0.500000 0.000000 0.142107
O O1 0.500000 0.500000 0.725984
O O2 0.594257 0.752609 0.775359
O O3 0.445942 0.768581 0.657261
O O4 0.463415 0.678867 0.952977
O O5 0.132581 0.174144 0.771872
O O6 0.218414 0.431119 0.807336
O O7 0.179041 0.340379 0.516914
O O8 0.061699 0.410162 0.740375
O O9 0.500000 0.500000 0.172244
O O10 0.352698 0.494782 0.991505
O O11 0.694329 0.319652 0.758811
O O12 0.783924 0.356696 0.016495
O O13 0.848479 0.531801 0.226756
O O14 0.935642 0.422948 0.982794
#
# Coordination Sequence:
#
# PCOD9311750 Si02
#       7
#     4   4   4   4   4   4   2
#     4  10  20  37  65  99 133 174 233 279 337 426
#     4  11  24  42  68 105 144 175 234 302 367 409
#     4  10  22  43  70  97 133 183 239 288 345 439
#     4  10  23  43  69 101 134 189 243 286 346 434
#     4  11  20  42  72  94 133 182 239 278 337 432
#     4  11  24  41  67 101 143 178 226 302 361 408
#     4  10  18  38  68 100 124 182 234 278 338 438
#
# _framework density 21.854911999999999
#
# number of rings (size 3 to 8) (size 9 to 14) (size 15 to 20)
#    0.000    1.538    3.077    2.769    2.154    9.231 
#    0.000    0.000    3.385    0.000    0.000    0.000 
#    0.000    0.000    0.000    0.000    0.000    0.000 
#
# Total GULP energy -145060.933746 kJ/mol
# GULP energy per Si atom -5579.266683 kJ/mol
# Density = 2.180517 g / cm^3
# Si number density = 21.854912 Si / 1000 Ang^3
#
#
#
# Elastic Constant Matrix: (Units=GPa)
#
#
# Indices 1 2 3 4 5 6 
#
# 1 129.0142 38.4402 40.9496 0.0000 0.0000 0.0000
# 2 38.4402 92.6839 50.9079 0.0000 0.0000 0.0000
# 3 40.9496 50.9079 71.1960 0.0000 0.0000 0.0000
# 4 0.0000 0.0000 0.0000 22.4570 0.0000 0.0000
# 5 0.0000 0.0000 0.0000 0.0000 19.1909 0.0000
# 6 0.0000 0.0000 0.0000 0.0000 0.0000 40.5635
#
#
#
# Elastic Compliance Matrix: (Units=1/GPa)
#
#
# Indices 1 2 3 4 5 6 
#
# 1 0.009618 -0.001565 -0.004413 0.000000 0.000000 0.000000
# 2 -0.001565 0.018022 -0.011986 0.000000 0.000000 0.000000
# 3 -0.004413 -0.011986 0.025154 0.000000 0.000000 0.000000
# 4 0.000000 0.000000 0.000000 0.044530 0.000000 0.000000
# 5 0.000000 0.000000 0.000000 0.000000 0.052108 0.000000
# 6 0.000000 0.000000 0.000000 0.000000 0.000000 0.024653
#
#
# Mechanical properties :
#
#
# Convention : Reuss Voigt Hill
#
# Bulk Modulus (GPa) = 59.29055 61.49885 60.39470
# Shear Modulus (GPa) = 23.18727 27.28205 25.23466
#
# Velocity S-wave (km/s) = 3.26078 3.53700 3.40169
# Velocity P-wave (km/s) = 6.43156 6.69934 6.56682
#
# Compressibility (1/GPa) = 0.01686609
#
# Stress axis : x y z
#
# Youngs Moduli (GPa) = 103.97065 55.48722 39.75438
#
# Poissons Ratio (x) = 0.08685 0.17543
# Poissons Ratio (y) = 0.16274 0.47651
# Poissons Ratio (z) = 0.45880 0.66508
#
# Static dielectric constant tensor:
#      x y z
#    x 1.836000 0.000000 0.000000 
#    y 0.000000 1.879080 0.000000 
#    z 0.000000 0.000000 1.781110 
# 
# From -- ./inp_files/4540.got.cif
#   From: 2010.05.17/outbox.cif.g08.bks.cpg/sg18_3_cif.got.tgz:4540.got - 2010.06.03 22:40:56.
