data_PCOD9311375
_publ_section_title
;
Structure prediction by ZEFSAII (Michael W. Deem and Ramdas Pophale) SiO2 
 PCOD9311375
Probable space group: P 2 2 21
;
_chemical_formula_sum "Si O2"
_cell_formula_units_Z 30
_cell_length_a 12.194342
_cell_length_b 5.394757
_cell_length_c 20.868754
_cell_angle_alpha 90.000000
_cell_angle_beta 90.000000
_cell_angle_gamma 90.000000
_cell_volume 1372.861664
_symmetry_space_group_name_H-M "P 2 2 21"
_symmetry_group_IT_number 17
_symmetry_cell_setting 'orthorhombic'
loop_
_space_group_symop_operation_xyz
x,y,z
-x,-y,1/2+z
x,-y,-z
-x,y,1/2-z
loop_
_atom_site_type_symbol
_atom_site_label
_atom_site_fract_x
_atom_site_fract_y
_atom_site_fract_z
Si Si1 0.483793 0.437288 0.854132
Si Si2 0.678373 0.387836 0.756270
Si Si3 0.037842 0.327314 0.891903
Si Si4 0.441486 0.921539 0.928622
Si Si5 0.839720 0.003729 0.711502
Si Si6 0.200576 0.293376 0.089257
Si Si7 0.034153 0.000000 0.000000
Si Si8 0.905543 0.628786 0.800275
O O1 0.590570 0.367640 0.812785
O O2 0.388617 0.508534 0.802746
O O3 0.503914 0.685053 0.896665
O O4 0.447905 0.183465 0.890290
O O5 0.725755 0.136227 0.726092
O O6 0.788507 0.508300 0.785098
O O7 0.078202 0.166714 0.831307
O O8 0.156780 0.427091 0.917274
O O9 0.978257 0.184325 0.949655
O O10 0.957796 0.544253 0.866803
O O11 0.318950 0.802219 0.931082
O O12 0.476441 0.000000 0.000000
O O13 0.817858 0.774744 0.663761
O O14 0.885323 0.912809 0.779760
O O15 0.112660 0.149198 0.047338
O O16 0.000000 0.553539 0.750000
#
# Coordination Sequence:
#
# PCOD9311375 Si02
#       8
#     4   4   4   4   4   4   2   4
#     4  11  27  45  71 107 142 191 237 299 373 435
#     4  11  25  43  69 100 149 180 237 290 369 441
#     4  11  24  40  62 102 145 186 236 288 360 444
#     4  12  25  44  72 104 139 184 246 301 360 430
#     4  11  21  37  62  97 139 183 220 290 354 436
#     4  11  21  38  65  97 140 180 233 291 364 427
#     4  10  24  38  66  94 144 188 230 294 356 424
#     4  12  24  38  65 103 138 185 232 288 360 435
#
# _framework density 21.852167000000001
#
# number of rings (size 3 to 8) (size 9 to 14) (size 15 to 20)
#    0.000    0.800    4.667    2.400    5.600    2.133 
#    0.000    0.000    1.467    1.600    0.000    0.000 
#    0.000    0.000    0.000    0.000    0.000    0.000 
#
# Total GULP energy -167273.892113 kJ/mol
# GULP energy per Si atom -5575.796404 kJ/mol
# Density = 2.180243 g / cm^3
# Si number density = 21.852167 Si / 1000 Ang^3
#
#
#
# Elastic Constant Matrix: (Units=GPa)
#
#
# Indices 1 2 3 4 5 6 
#
# 1 100.4555 21.2583 39.0704 0.0000 0.0000 0.0000
# 2 21.2583 85.7232 54.5339 0.0000 0.0000 0.0000
# 3 39.0704 54.5339 122.6993 0.0000 0.0000 0.0000
# 4 0.0000 0.0000 0.0000 54.6010 0.0000 0.0000
# 5 0.0000 0.0000 0.0000 0.0000 19.1882 0.0000
# 6 0.0000 0.0000 0.0000 0.0000 0.0000 -105.8764
#
#
#
# Elastic Compliance Matrix: (Units=1/GPa)
#
#
# Indices 1 2 3 4 5 6 
#
# 1 0.011394 -0.000721 -0.003307 0.000000 0.000000 0.000000
# 2 -0.000721 0.016310 -0.007019 0.000000 0.000000 0.000000
# 3 -0.003307 -0.007019 0.012323 0.000000 0.000000 0.000000
# 4 0.000000 0.000000 0.000000 0.018315 0.000000 0.000000
# 5 0.000000 0.000000 0.000000 0.000000 0.052115 0.000000
# 6 0.000000 0.000000 0.000000 0.000000 0.000000 -0.009445
#
#
# Mechanical properties :
#
#
# Convention : Reuss Voigt Hill
#
# Bulk Modulus (GPa) = 55.77173 59.84481 57.80827
# Shear Modulus (GPa) = 38.73455 6.51694 22.62574
#
# Velocity S-wave (km/s) = 4.21476 1.72880 3.22125
# Velocity P-wave (km/s) = 7.01878 5.60631 6.35193
#
# Compressibility (1/GPa) = 0.01793023
#
# Stress axis : x y z
#
# Youngs Moduli (GPa) = 87.76805 61.31334 81.15035
#
# Poissons Ratio (x) = 0.04424 0.26839
# Poissons Ratio (y) = 0.06332 0.56960
# Poissons Ratio (z) = 0.29028 0.43037
#
# Static dielectric constant tensor:
#      x y z
#    x 1.790330 0.000000 0.000000 
#    y 0.000000 1.953240 0.000000 
#    z 0.000000 0.000000 2.110000 
# 
# From -- ./inp_files/10248.got.cif
#   From: 2010.05.17/outbox.cif.g08.bks.cpg/sg17_6_cif.got.tgz:10248.got - 2010.06.03 22:34:06.
