data_PCOD9311216
_publ_section_title
;
Structure prediction by ZEFSAII (Michael W. Deem and Ramdas Pophale) SiO2 
 PCOD9311216
Probable space group: P 2 2 21
;
_chemical_formula_sum "Si O2"
_cell_formula_units_Z 26
_cell_length_a 8.875319
_cell_length_b 8.070617
_cell_length_c 17.649410
_cell_angle_alpha 90.000000
_cell_angle_beta 90.000000
_cell_angle_gamma 90.000000
_cell_volume 1264.214891
_symmetry_space_group_name_H-M "P 2 2 21"
_symmetry_group_IT_number 17
_symmetry_cell_setting 'orthorhombic'
loop_
_space_group_symop_operation_xyz
x,y,z
-x,-y,1/2+z
x,-y,-z
-x,y,1/2-z
loop_
_atom_site_type_symbol
_atom_site_label
_atom_site_fract_x
_atom_site_fract_y
_atom_site_fract_z
Si Si1 0.638609 0.560306 0.873262
Si Si2 0.833244 0.642086 0.727154
Si Si3 0.313704 0.248380 0.525093
Si Si4 0.500000 0.631937 0.250000
Si Si5 0.830727 0.733860 0.287674
Si Si6 0.202534 0.935756 0.883736
Si Si7 0.051819 0.000000 0.500000
Si Si8 0.551446 0.000000 0.500000
O O1 0.743294 0.620711 0.805221
O O2 0.699166 0.402731 0.919837
O O3 0.497876 0.486127 0.825158
O O4 0.636470 0.695277 0.940114
O O5 0.843541 0.459833 0.688461
O O6 0.776798 0.791873 0.676803
O O7 0.000000 0.691466 0.750000
O O8 0.160294 0.147031 0.526251
O O9 0.446118 0.123156 0.547274
O O10 0.662290 0.727330 0.246174
O O11 0.000000 0.765294 0.250000
O O12 0.805510 0.881079 0.347106
O O13 0.051075 0.927202 0.933397
O O14 0.338298 0.913308 0.941756
#
# Coordination Sequence:
#
# PCOD9311216 Si02
#       8
#     4   4   4   2   4   4   2   2
#     4  10  22  40  68  99 133 178 232 294 342 434
#     4  10  22  40  65 101 134 171 230 280 356 411
#     4  10  22  43  68  93 136 182 234 279 354 430
#     4  10  22  40  66 106 134 178 238 280 368 406
#     4  10  23  41  66  98 142 178 223 291 349 414
#     4  11  23  44  63  99 134 179 228 290 346 422
#     4  10  24  40  68  94 136 182 232 278 356 424
#     4  10  24  42  62  94 132 178 228 280 350 416
#
# _framework density 20.566126000000001
#
# number of rings (size 3 to 8) (size 9 to 14) (size 15 to 20)
#    0.000    1.846    0.000    2.308   10.769    0.000 
#    8.308    1.538    0.000    0.000    0.000    0.000 
#    0.000    0.000    0.000    0.000    0.000    0.000 
#
# Total GULP energy -144753.039099 kJ/mol
# GULP energy per Si atom -5567.424581 kJ/mol
# Density = 2.051932 g / cm^3
# Si number density = 20.566126 Si / 1000 Ang^3
#
#
#
# Elastic Constant Matrix: (Units=GPa)
#
#
# Indices 1 2 3 4 5 6 
#
# 1 133.0368 8.2806 30.0878 0.0000 0.0000 0.0000
# 2 8.2806 57.2224 30.6995 0.0000 0.0000 0.0000
# 3 30.0878 30.6995 90.2518 0.0000 0.0000 0.0000
# 4 0.0000 0.0000 0.0000 14.7634 0.0000 0.0000
# 5 0.0000 0.0000 0.0000 0.0000 -11.9351 0.0000
# 6 0.0000 0.0000 0.0000 0.0000 0.0000 -10.7876
#
#
#
# Elastic Compliance Matrix: (Units=1/GPa)
#
#
# Indices 1 2 3 4 5 6 
#
# 1 0.008135 0.000340 -0.002828 0.000000 0.000000 0.000000
# 2 0.000340 0.021391 -0.007389 0.000000 0.000000 0.000000
# 3 -0.002828 -0.007389 0.014536 0.000000 0.000000 0.000000
# 4 0.000000 0.000000 0.000000 0.067735 0.000000 0.000000
# 5 0.000000 0.000000 0.000000 0.000000 -0.083786 0.000000
# 6 0.000000 0.000000 0.000000 0.000000 0.000000 -0.092699
#
#
# Mechanical properties :
#
#
# Convention : Reuss Voigt Hill
#
# Bulk Modulus (GPa) = 41.13923 46.51630 43.82776
# Shear Modulus (GPa) = -135.75838 12.50432 -61.62703
#
# Velocity S-wave (km/s) = -8.13351 2.46845 -5.48000
# Velocity P-wave (km/s) = 8.25582 5.54900 4.32245
#
# Compressibility (1/GPa) = 0.02430770
#
# Stress axis : x y z
#
# Youngs Moduli (GPa) = 122.92463 46.74877 68.79313
#
# Poissons Ratio (x) = -0.01588 0.19452
# Poissons Ratio (y) = -0.04177 0.50835
# Poissons Ratio (z) = 0.34758 0.34545
#
# Static dielectric constant tensor:
#      x y z
#    x 1.769760 0.000000 0.000000 
#    y 0.000000 1.750500 0.000000 
#    z 0.000000 0.000000 1.714750 
# 
# From -- ./inp_files/9457.got.cif
#   From: 2010.05.17/outbox.cif.g08.bks.cpg/sg17_5_cif.got.tgz:9457.got - 2010.06.03 22:34:06.
