data_PCOD9311843
_publ_section_title
;
Structure prediction by ZEFSAII (Michael W. Deem and Ramdas Pophale) SiO2 
 PCOD9311843
Probable space group: P 21 21 2
;
_chemical_formula_sum "Si O2"
_cell_formula_units_Z 30
_cell_length_a 20.531681
_cell_length_b 8.633233
_cell_length_c 8.252931
_cell_angle_alpha 90.000000
_cell_angle_beta 90.000000
_cell_angle_gamma 90.000000
_cell_volume 1462.871518
_symmetry_space_group_name_H-M "P 21 21 2"
_symmetry_group_IT_number 18
_symmetry_cell_setting 'orthorhombic'
loop_
_space_group_symop_operation_xyz
x,y,z
-x,-y,z
1/2+x,1/2-y,-z
1/2-x,1/2+y,-z
loop_
_atom_site_type_symbol
_atom_site_label
_atom_site_fract_x
_atom_site_fract_y
_atom_site_fract_z
Si Si1 0.164009 0.835607 0.631567
Si Si2 0.615628 0.182841 0.928423
Si Si3 0.214870 0.835715 0.122775
Si Si4 0.384163 0.199114 0.668153
Si Si5 0.827940 0.506353 0.756423
Si Si6 0.821668 0.932333 0.878071
Si Si7 0.000000 0.500000 0.202806
Si Si8 0.816065 0.606112 0.411443
O O1 0.117427 0.817815 0.477515
O O2 0.154789 0.672580 0.728050
O O3 0.148873 0.998876 0.716217
O O4 0.240811 0.845241 0.584831
O O5 0.543508 0.118949 0.899764
O O6 0.649911 0.176817 0.750154
O O7 0.644684 0.070243 0.071795
O O8 0.626800 0.352230 0.003049
O O9 0.143695 0.784195 0.175332
O O10 0.249722 0.968832 0.229479
O O11 0.264137 0.692536 0.132258
O O12 0.210545 0.912315 0.948864
O O13 0.448827 0.101434 0.694789
O O14 0.327032 0.076434 0.622996
O O15 0.845387 0.610239 0.596115
#
# Coordination Sequence:
#
# PCOD9311843 Si02
#       8
#     4   4   4   4   4   4   2   4
#     4  11  20  36  62 104 137 163 212 287 344 405
#     4  10  23  43  63  95 129 182 227 271 321 411
#     4  11  20  36  58  99 134 166 206 274 346 403
#     4  10  22  38  63  93 133 178 221 263 334 405
#     4  10  21  34  61  96 131 170 210 270 347 385
#     4  11  23  34  63 101 138 164 218 276 352 400
#     4  10  24  46  70  90 134 192 236 266 328 408
#     4  10  19  35  59  98 135 161 208 273 343 393
#
# _framework density 20.507611000000001
#
# number of rings (size 3 to 8) (size 9 to 14) (size 15 to 20)
#    0.000    1.600    2.667    3.200    7.467    0.000 
#    4.800    6.667    0.000    0.000    6.933    0.000 
#    0.000    0.000    0.000    0.000    0.000    0.000 
#
# Total GULP energy -167002.796952 kJ/mol
# GULP energy per Si atom -5566.759898 kJ/mol
# Density = 2.046094 g / cm^3
# Si number density = 20.507611 Si / 1000 Ang^3
#
#
#
# Elastic Constant Matrix: (Units=GPa)
#
#
# Indices 1 2 3 4 5 6 
#
# 1 86.8370 26.8970 37.5885 0.0000 0.0000 0.0000
# 2 26.8970 79.6113 42.5941 0.0000 0.0000 0.0000
# 3 37.5885 42.5941 74.3333 0.0000 0.0000 0.0000
# 4 0.0000 0.0000 0.0000 28.8126 0.0000 0.0000
# 5 0.0000 0.0000 0.0000 0.0000 16.1139 0.0000
# 6 0.0000 0.0000 0.0000 0.0000 0.0000 36.1801
#
#
#
# Elastic Compliance Matrix: (Units=1/GPa)
#
#
# Indices 1 2 3 4 5 6 
#
# 1 0.014857 -0.001442 -0.006686 0.000000 0.000000 0.000000
# 2 -0.001442 0.018255 -0.009731 0.000000 0.000000 0.000000
# 3 -0.006686 -0.009731 0.022410 0.000000 0.000000 0.000000
# 4 0.000000 0.000000 0.000000 0.034707 0.000000 0.000000
# 5 0.000000 0.000000 0.000000 0.000000 0.062058 0.000000
# 6 0.000000 0.000000 0.000000 0.000000 0.000000 0.027640
#
#
# Mechanical properties :
#
#
# Convention : Reuss Voigt Hill
#
# Bulk Modulus (GPa) = 50.49835 50.54901 50.52368
# Shear Modulus (GPa) = 22.49761 25.13478 23.81620
#
# Velocity S-wave (km/s) = 3.31575 3.50470 3.41153
# Velocity P-wave (km/s) = 6.27189 6.40934 6.34099
#
# Compressibility (1/GPa) = 0.01980263
#
# Stress axis : x y z
#
# Youngs Moduli (GPa) = 67.30936 54.78095 44.62287
#
# Poissons Ratio (x) = 0.07900 0.29837
# Poissons Ratio (y) = 0.09706 0.43422
# Poissons Ratio (z) = 0.45006 0.53307
#
# Static dielectric constant tensor:
#      x y z
#    x 1.723520 0.000000 0.000000 
#    y 0.000000 1.792620 0.000000 
#    z 0.000000 0.000000 1.907720 
# 
# From -- ./inp_files/4690.got.cif
#   From: 2010.05.17/outbox.cif.g08.bks.cpg/sg18_3_cif.got.tgz:4690.got - 2010.06.03 22:40:56.
