data_PCOD9311718
_publ_section_title
;
Structure prediction by ZEFSAII (Michael W. Deem and Ramdas Pophale) SiO2 
 PCOD9311718
Probable space group: P 21 21 2
;
_chemical_formula_sum "Si O2"
_cell_formula_units_Z 28
_cell_length_a 19.420968
_cell_length_b 6.505833
_cell_length_c 11.396283
_cell_angle_alpha 90.000000
_cell_angle_beta 90.000000
_cell_angle_gamma 90.000000
_cell_volume 1439.915508
_symmetry_space_group_name_H-M "P 21 21 2"
_symmetry_group_IT_number 18
_symmetry_cell_setting 'orthorhombic'
loop_
_space_group_symop_operation_xyz
x,y,z
-x,-y,z
1/2+x,1/2-y,-z
1/2-x,1/2+y,-z
loop_
_atom_site_type_symbol
_atom_site_label
_atom_site_fract_x
_atom_site_fract_y
_atom_site_fract_z
Si Si1 0.073142 0.113748 0.029704
Si Si2 0.158047 0.665281 0.423561
Si Si3 0.397258 0.768645 0.485864
Si Si4 0.500000 0.500000 0.366152
Si Si5 0.416771 0.511856 0.712266
Si Si6 0.000000 0.500000 0.925338
Si Si7 0.204174 0.958690 0.632797
Si Si8 0.893495 0.169449 0.818500
O O1 0.104902 0.081385 0.157722
O O2 0.048823 0.343417 0.997634
O O3 0.000000 0.000000 0.033533
O O4 0.112304 0.990665 0.926724
O O5 0.112111 0.509015 0.499750
O O6 0.114348 0.795545 0.330693
O O7 0.192699 0.817111 0.518373
O O8 0.217919 0.534874 0.361981
O O9 0.470736 0.686230 0.441943
O O10 0.390741 0.671419 0.615022
O O11 0.341293 0.663166 0.399306
O O12 0.440490 0.428817 0.281704
O O13 0.500000 0.500000 0.708886
O O14 0.058335 0.636426 0.856765
O O15 0.178440 0.831220 0.747004
#
# Coordination Sequence:
#
# PCOD9311718 Si02
#       8
#     4   4   4   2   4   2   4   4
#     4   9  19  37  59  87 125 155 205 255 312 377
#     4  11  22  40  64  84 124 174 202 250 317 372
#     4  10  21  36  58  87 125 157 199 252 305 366
#     4  10  18  36  52  92 128 150 202 258 298 368
#     4  10  22  40  59  91 122 155 208 262 312 378
#     4  10  18  34  58  94 120 168 188 246 346 352
#     4  10  22  38  59  88 120 164 215 247 295 381
#     4  10  20  34  58  88 124 156 204 259 297 368
#
# _framework density 19.445585999999999
#
# number of rings (size 3 to 8) (size 9 to 14) (size 15 to 20)
#    0.000    2.000    4.286    0.000    2.000    4.000 
#    0.000    0.000    3.143    0.000    0.000    0.000 
#    0.000    0.000    0.000    0.000    0.000    0.000 
#
# Total GULP energy -155919.415518 kJ/mol
# GULP energy per Si atom -5568.550554 kJ/mol
# Density = 1.940133 g / cm^3
# Si number density = 19.445586 Si / 1000 Ang^3
#
#
#
# Elastic Constant Matrix: (Units=GPa)
#
#
# Indices 1 2 3 4 5 6 
#
# 1 72.3242 39.0191 31.9197 0.0000 0.0000 0.0000
# 2 39.0191 107.8316 46.0294 0.0000 0.0000 0.0000
# 3 31.9197 46.0294 112.0119 0.0000 0.0000 0.0000
# 4 0.0000 0.0000 0.0000 14.2551 0.0000 0.0000
# 5 0.0000 0.0000 0.0000 0.0000 15.7251 0.0000
# 6 0.0000 0.0000 0.0000 0.0000 0.0000 28.7042
#
#
#
# Elastic Compliance Matrix: (Units=1/GPa)
#
#
# Indices 1 2 3 4 5 6 
#
# 1 0.017959 -0.005232 -0.002968 0.000000 0.000000 0.000000
# 2 -0.005232 0.012770 -0.003757 0.000000 0.000000 0.000000
# 3 -0.002968 -0.003757 0.011317 0.000000 0.000000 0.000000
# 4 0.000000 0.000000 0.000000 0.070150 0.000000 0.000000
# 5 0.000000 0.000000 0.000000 0.000000 0.063593 0.000000
# 6 0.000000 0.000000 0.000000 0.000000 0.000000 0.034838
#
#
# Mechanical properties :
#
#
# Convention : Reuss Voigt Hill
#
# Bulk Modulus (GPa) = 55.14574 58.45600 56.80087
# Shear Modulus (GPa) = 20.78267 23.41686 22.09976
#
# Velocity S-wave (km/s) = 3.27274 3.47396 3.37485
# Velocity P-wave (km/s) = 6.53465 6.79837 6.66781
#
# Compressibility (1/GPa) = 0.01813377
#
# Stress axis : x y z
#
# Youngs Moduli (GPa) = 55.68258 78.30550 88.36082
#
# Poissons Ratio (x) = 0.40966 0.26224
# Poissons Ratio (y) = 0.29131 0.33197
# Poissons Ratio (z) = 0.16526 0.29419
#
# Static dielectric constant tensor:
#      x y z
#    x 1.540410 0.000000 0.000000 
#    y 0.000000 1.730780 0.000000 
#    z 0.000000 0.000000 1.711280 
# 
# From -- ./inp_files/6271.got.cif
#   From: 2010.05.17/outbox.cif.g08.bks.cpg/sg18_4_cif.got.tgz:6271.got - 2010.06.03 22:40:56.
