data_PCOD9311714
_publ_section_title
;
Structure prediction by ZEFSAII (Michael W. Deem and Ramdas Pophale) SiO2 
 PCOD9311714
Probable space group: P 21 21 2
;
_chemical_formula_sum "Si O2"
_cell_formula_units_Z 24
_cell_length_a 7.551766
_cell_length_b 8.344382
_cell_length_c 18.421482
_cell_angle_alpha 90.000000
_cell_angle_beta 90.000000
_cell_angle_gamma 90.000000
_cell_volume 1160.826377
_symmetry_space_group_name_H-M "P 21 21 2"
_symmetry_group_IT_number 18
_symmetry_cell_setting 'orthorhombic'
loop_
_space_group_symop_operation_xyz
x,y,z
-x,-y,z
1/2+x,1/2-y,-z
1/2-x,1/2+y,-z
loop_
_atom_site_type_symbol
_atom_site_label
_atom_site_fract_x
_atom_site_fract_y
_atom_site_fract_z
Si Si1 0.675212 0.103071 0.034361
Si Si2 0.705708 0.946027 0.177360
Si Si3 0.787522 0.685941 0.419306
Si Si4 0.796027 0.001449 0.338539
Si Si5 0.082337 0.846921 0.895339
Si Si6 0.212677 0.683705 0.418959
O O1 0.793070 0.122303 0.964327
O O2 0.500000 0.000000 0.015960
O O3 0.588646 0.260429 0.069021
O O4 0.775214 0.020699 0.102040
O O5 0.791979 0.995934 0.251675
O O6 0.690809 0.758717 0.161244
O O7 0.500000 0.000000 0.181477
O O8 0.719076 0.832505 0.368411
O O9 0.721107 0.501143 0.410132
O O10 0.750801 0.750556 0.500322
O O11 0.999980 0.674850 0.409230
O O12 0.719790 0.170782 0.367333
O O13 0.000000 0.000000 0.363836
O O14 0.000000 0.000000 0.858252
#
# Coordination Sequence:
#
# PCOD9311714 Si02
#       6
#     4   4   4   4   4   4
#     4   9  19  34  56  83 111 145 185 232 283 342
#     4   9  21  38  53  78 113 144 182 226 282 337
#     4  10  20  35  57  85 109 143 187 229 279 337
#     4  10  21  38  56  79 115 150 185 233 283 334
#     4  10  18  34  57  81 111 142 187 237 280 340
#     4  10  20  35  58  82 113 142 185 234 276 334
#
# _framework density 20.674928000000001
#
# number of rings (size 3 to 8) (size 9 to 14) (size 15 to 20)
#    0.000    2.667    1.667    2.000    0.000    3.333 
#    6.000    0.000    3.667    0.000    0.000    0.000 
#    0.000    0.000    0.000    0.000    0.000    0.000 
#
# Total GULP energy -133655.918117 kJ/mol
# GULP energy per Si atom -5568.996588 kJ/mol
# Density = 2.062787 g / cm^3
# Si number density = 20.674928 Si / 1000 Ang^3
#
#
#
# Elastic Constant Matrix: (Units=GPa)
#
#
# Indices 1 2 3 4 5 6 
#
# 1 37.9931 17.8693 0.8776 0.0000 0.0000 0.0000
# 2 17.8693 166.1624 44.5343 0.0000 0.0000 0.0000
# 3 0.8776 44.5343 84.9579 0.0000 0.0000 0.0000
# 4 0.0000 0.0000 0.0000 0.1568 0.0000 0.0000
# 5 0.0000 0.0000 0.0000 0.0000 20.0127 0.0000
# 6 0.0000 0.0000 0.0000 0.0000 0.0000 5.3926
#
#
#
# Elastic Compliance Matrix: (Units=1/GPa)
#
#
# Indices 1 2 3 4 5 6 
#
# 1 0.027885 -0.003399 0.001494 0.000000 0.000000 0.000000
# 2 -0.003399 0.007416 -0.003852 0.000000 0.000000 0.000000
# 3 0.001494 -0.003852 0.013775 0.000000 0.000000 0.000000
# 4 0.000000 0.000000 0.000000 6.376696 0.000000 0.000000
# 5 0.000000 0.000000 0.000000 0.000000 0.049968 0.000000
# 6 0.000000 0.000000 0.000000 0.000000 0.000000 0.185438
#
#
# Mechanical properties :
#
#
# Convention : Reuss Voigt Hill
#
# Bulk Modulus (GPa) = 26.62408 46.18620 36.40514
# Shear Modulus (GPa) = 0.74792 20.16790 10.45791
#
# Velocity S-wave (km/s) = 0.60211 3.12665 2.25150
# Velocity P-wave (km/s) = 3.65907 5.95166 4.94020
#
# Compressibility (1/GPa) = 0.03755998
#
# Stress axis : x y z
#
# Youngs Moduli (GPa) = 35.86185 134.83858 72.59774
#
# Poissons Ratio (x) = 0.45833 -0.10844
# Poissons Ratio (y) = 0.12190 0.27968
# Poissons Ratio (z) = -0.05357 0.51946
#
# Static dielectric constant tensor:
#      x y z
#    x 1.757510 0.000000 0.000000 
#    y 0.000000 1.881200 0.000000 
#    z 0.000000 0.000000 1.694330 
# 
# From -- ./inp_files/6672.got.cif
#   From: 2010.05.17/outbox.cif.g08.bks.cpg/sg18_4_cif.got.tgz:6672.got - 2010.06.03 22:40:56.
