data_PCOD9311541
_publ_section_title
;
Structure prediction by ZEFSAII (Michael W. Deem and Ramdas Pophale) SiO2 
 PCOD9311541
Probable space group: P 2 2 21
;
_chemical_formula_sum "Si O2"
_cell_formula_units_Z 22
_cell_length_a 6.620922
_cell_length_b 10.768090
_cell_length_c 14.232384
_cell_angle_alpha 90.000000
_cell_angle_beta 90.000000
_cell_angle_gamma 90.000000
_cell_volume 1014.693320
_symmetry_space_group_name_H-M "P 2 2 21"
_symmetry_group_IT_number 17
_symmetry_cell_setting 'orthorhombic'
loop_
_space_group_symop_operation_xyz
x,y,z
-x,-y,1/2+z
x,-y,-z
-x,y,1/2-z
loop_
_atom_site_type_symbol
_atom_site_label
_atom_site_fract_x
_atom_site_fract_y
_atom_site_fract_z
Si Si1 0.813869 0.134529 0.325843
Si Si2 0.004365 0.000000 0.500000
Si Si3 0.598248 0.400579 0.352125
Si Si4 0.500000 0.072200 0.750000
Si Si5 0.307473 0.500000 0.500000
Si Si6 0.034929 0.575078 0.143837
Si Si7 0.880324 0.160104 0.835649
O O1 0.888451 0.090820 0.428598
O O2 0.703707 0.267550 0.336811
O O3 0.000000 0.152201 0.250000
O O4 0.650879 0.027413 0.298884
O O5 0.129854 0.083286 0.570185
O O6 0.500000 0.433795 0.250000
O O7 0.439989 0.403770 0.438587
O O8 0.762355 0.504486 0.382604
O O9 0.648773 0.166059 0.804928
O O10 0.155333 0.447948 0.577867
O O11 0.000000 0.529574 0.250000
O O12 0.028540 0.723558 0.148636
O O13 0.000000 0.095206 0.750000
#
# Coordination Sequence:
#
# PCOD9311541 Si02
#       7
#     4   2   4   2   2   4   4
#     4  12  27  48  76 114 158 198 256 322 387 468
#     4  12  24  46  72 110 150 190 240 320 390 436
#     4  12  27  49  80 114 156 212 260 318 400 481
#     4  12  22  50  72 108 146 198 256 300 380 468
#     4  12  28  46  72 120 144 206 264 308 394 468
#     4  11  26  49  74 106 160 197 248 332 384 453
#     4  11  26  47  71 105 149 193 243 316 376 451
#
# _framework density 21.681425000000001
#
# number of rings (size 3 to 8) (size 9 to 14) (size 15 to 20)
#    0.000    0.364    6.364    1.091    5.091    6.545 
#    0.000    0.000    0.000    0.000    0.000    0.000 
#    0.000    0.000    0.000    0.000    0.000    0.000 
#
# Total GULP energy -122551.205126 kJ/mol
# GULP energy per Si atom -5570.509324 kJ/mol
# Density = 2.163208 g / cm^3
# Si number density = 21.681425 Si / 1000 Ang^3
#
#
#
# Elastic Constant Matrix: (Units=GPa)
#
#
# Indices 1 2 3 4 5 6 
#
# 1 113.8603 41.1752 52.0800 0.0000 0.0000 0.0000
# 2 41.1752 90.8617 12.0154 0.0000 0.0000 0.0000
# 3 52.0800 12.0154 141.1147 0.0000 0.0000 0.0000
# 4 0.0000 0.0000 0.0000 29.4002 0.0000 0.0000
# 5 0.0000 0.0000 0.0000 0.0000 42.0347 0.0000
# 6 0.0000 0.0000 0.0000 0.0000 0.0000 48.7374
#
#
#
# Elastic Compliance Matrix: (Units=1/GPa)
#
#
# Indices 1 2 3 4 5 6 
#
# 1 0.012561 -0.005137 -0.004198 0.000000 0.000000 0.000000
# 2 -0.005137 0.013232 0.000769 0.000000 0.000000 0.000000
# 3 -0.004198 0.000769 0.008570 0.000000 0.000000 0.000000
# 4 0.000000 0.000000 0.000000 0.034013 0.000000 0.000000
# 5 0.000000 0.000000 0.000000 0.000000 0.023790 0.000000
# 6 0.000000 0.000000 0.000000 0.000000 0.000000 0.020518
#
#
# Mechanical properties :
#
#
# Convention : Reuss Voigt Hill
#
# Bulk Modulus (GPa) = 58.03505 61.81976 59.92741
# Shear Modulus (GPa) = 36.88412 40.07220 38.47816
#
# Velocity S-wave (km/s) = 4.12902 4.30377 4.21730
# Velocity P-wave (km/s) = 7.03967 7.29871 7.17036
#
# Compressibility (1/GPa) = 0.01723097
#
# Stress axis : x y z
#
# Youngs Moduli (GPa) = 79.61389 75.57521 116.68120
#
# Poissons Ratio (x) = 0.38822 0.48986
# Poissons Ratio (y) = 0.40896 -0.08975
# Poissons Ratio (z) = 0.33424 -0.05813
#
# Static dielectric constant tensor:
#      x y z
#    x 1.814840 0.000000 0.000000 
#    y 0.000000 1.912440 0.000000 
#    z 0.000000 0.000000 1.728040 
# 
# From -- ./inp_files/7669.got.cif
#   From: 2010.05.17/outbox.cif.g08.bks.cpg/sg17_4_cif.got.tgz:7669.got - 2010.06.03 22:34:06.
