data_PCOD9311722
_publ_section_title
;
Structure prediction by ZEFSAII (Michael W. Deem and Ramdas Pophale) SiO2 
 PCOD9311722
Probable space group: P 21 21 2
;
_chemical_formula_sum "Si O2"
_cell_formula_units_Z 28
_cell_length_a 16.627974
_cell_length_b 11.533651
_cell_length_c 6.351593
_cell_angle_alpha 90.000000
_cell_angle_beta 90.000000
_cell_angle_gamma 90.000000
_cell_volume 1218.116438
_symmetry_space_group_name_H-M "P 21 21 2"
_symmetry_group_IT_number 18
_symmetry_cell_setting 'orthorhombic'
loop_
_space_group_symop_operation_xyz
x,y,z
-x,-y,z
1/2+x,1/2-y,-z
1/2-x,1/2+y,-z
loop_
_atom_site_type_symbol
_atom_site_label
_atom_site_fract_x
_atom_site_fract_y
_atom_site_fract_z
Si Si1 0.629326 0.259758 0.592627
Si Si2 0.000000 0.500000 0.070956
Si Si3 0.876330 0.387843 0.362426
Si Si4 0.629604 0.483021 0.365246
Si Si5 0.447301 0.344074 0.688730
Si Si6 0.774193 0.582935 0.134470
Si Si7 0.136092 0.445575 0.743052
Si Si8 0.000000 0.000000 0.945368
O O1 0.668377 0.376050 0.493589
O O2 0.537530 0.296286 0.643290
O O3 0.678676 0.197300 0.781306
O O4 0.627954 0.160264 0.415984
O O5 0.958310 0.413770 0.233308
O O6 0.934114 0.554763 0.917214
O O7 0.877025 0.250943 0.341588
O O8 0.815370 0.466963 0.231835
O O9 0.873564 0.439486 0.598445
O O10 0.578229 0.557447 0.526764
O O11 0.688111 0.569988 0.241138
O O12 0.566572 0.435251 0.194296
O O13 0.454793 0.405899 0.912701
O O14 0.783665 0.568490 0.883804
#
# Coordination Sequence:
#
# PCOD9311722 Si02
#       8
#     4   2   4   4   4   4   4   2
#     4  11  23  45  73  99 139 185 232 295 352 417
#     4  10  18  34  64 106 134 170 220 284 354 408
#     4  10  22  39  68 100 138 177 226 288 350 411
#     4  12  27  47  67 106 138 188 242 287 355 428
#     4  12  24  46  72 102 136 191 233 297 347 419
#     4  10  26  45  68 107 138 185 229 290 366 417
#     4  10  21  41  66 103 135 177 226 291 346 424
#     4  12  26  46  68 104 140 186 240 286 344 430
#
# _framework density 22.986307
#
# number of rings (size 3 to 8) (size 9 to 14) (size 15 to 20)
#    0.000    1.143    2.857    3.857    6.000    4.571 
#    2.571    0.000    0.000    0.000    0.000    0.000 
#    0.000    0.000    0.000    0.000    0.000    0.000 
#
# Total GULP energy -156342.972388 kJ/mol
# GULP energy per Si atom -5583.677585 kJ/mol
# Density = 2.293399 g / cm^3
# Si number density = 22.986307 Si / 1000 Ang^3
#
#
#
# Elastic Constant Matrix: (Units=GPa)
#
#
# Indices 1 2 3 4 5 6 
#
# 1 35.8097 15.1471 13.2240 0.0000 0.0000 0.0000
# 2 15.1471 104.5933 35.4720 0.0000 0.0000 0.0000
# 3 13.2240 35.4720 110.2957 0.0000 0.0000 0.0000
# 4 0.0000 0.0000 0.0000 27.3384 0.0000 0.0000
# 5 0.0000 0.0000 0.0000 0.0000 -5.1849 0.0000
# 6 0.0000 0.0000 0.0000 0.0000 0.0000 30.9018
#
#
#
# Elastic Compliance Matrix: (Units=1/GPa)
#
#
# Indices 1 2 3 4 5 6 
#
# 1 0.030348 -0.003548 -0.002498 0.000000 0.000000 0.000000
# 2 -0.003548 0.011146 -0.003159 0.000000 0.000000 0.000000
# 3 -0.002498 -0.003159 0.010382 0.000000 0.000000 0.000000
# 4 0.000000 0.000000 0.000000 0.036579 0.000000 0.000000
# 5 0.000000 0.000000 0.000000 0.000000 -0.192868 0.000000
# 6 0.000000 0.000000 0.000000 0.000000 0.000000 0.032361
#
#
# Mechanical properties :
#
#
# Convention : Reuss Voigt Hill
#
# Bulk Modulus (GPa) = 29.88031 42.04277 35.96154
# Shear Modulus (GPa) = -117.68367 23.06810 -47.30778
#
# Velocity S-wave (km/s) = -7.16299 3.17134 -4.54153
# Velocity P-wave (km/s) = 7.44203 5.63382 3.43831
#
# Compressibility (1/GPa) = 0.03346685
#
# Stress axis : x y z
#
# Youngs Moduli (GPa) = 32.95058 89.71742 96.32018
#
# Poissons Ratio (x) = 0.31832 0.24057
# Poissons Ratio (y) = 0.11691 0.30430
# Poissons Ratio (z) = 0.08230 0.28344
#
# Static dielectric constant tensor:
#      x y z
#    x 1.963180 0.000000 0.000000 
#    y 0.000000 2.255220 0.000000 
#    z 0.000000 0.000000 1.847400 
# 
# From -- ./inp_files/1980.got.cif
#   From: 2010.05.17/outbox.cif.g08.bks.cpg/sg18_1_cif.got.tgz:1980.got - 2010.06.03 22:40:56.
