data_PCOD9311669
_publ_section_title
;
Structure prediction by ZEFSAII (Michael W. Deem and Ramdas Pophale) SiO2 
 PCOD9311669
Probable space group: P 21 21 2
;
_chemical_formula_sum "Si O2"
_cell_formula_units_Z 32
_cell_length_a 12.876790
_cell_length_b 5.565261
_cell_length_c 18.332618
_cell_angle_alpha 90.000000
_cell_angle_beta 90.000000
_cell_angle_gamma 90.000000
_cell_volume 1313.764852
_symmetry_space_group_name_H-M "P 21 21 2"
_symmetry_group_IT_number 18
_symmetry_cell_setting 'orthorhombic'
loop_
_space_group_symop_operation_xyz
x,y,z
-x,-y,z
1/2+x,1/2-y,-z
1/2-x,1/2+y,-z
loop_
_atom_site_type_symbol
_atom_site_label
_atom_site_fract_x
_atom_site_fract_y
_atom_site_fract_z
Si Si1 0.614939 0.999997 0.349890
Si Si2 0.826698 0.499997 0.413989
Si Si3 0.156279 0.000007 0.961625
Si Si4 0.322784 0.000006 0.847968
Si Si5 0.655799 0.499994 0.864301
Si Si6 0.818025 0.999997 0.715726
Si Si7 0.320479 0.500003 0.546641
Si Si8 0.109249 0.500006 0.885488
O O1 0.625998 0.749272 0.305347
O O2 0.713722 0.999997 0.404775
O O3 0.500000 0.000000 0.384609
O O4 0.625999 0.250722 0.305347
O O5 0.788757 0.499997 0.331391
O O6 0.720491 0.499997 0.463811
O O7 0.876800 0.752393 0.434898
O O8 0.876800 0.247601 0.434898
O O9 0.146841 0.000005 0.048336
O O10 0.274623 0.000006 0.930076
O O11 0.111475 0.748553 0.931555
O O12 0.111476 0.251462 0.931556
O O13 0.382288 0.753507 0.835589
O O14 0.382287 0.246505 0.835589
O O15 0.219371 0.000005 0.798356
O O16 0.779493 0.499994 0.846422
O O17 0.000000 0.500000 0.843146
#
# Coordination Sequence:
#
# PCOD9311669 Si02
#       8
#     4   4   4   4   4   4   4   4
#     4  10  19  31  43  59  88 124 155 175 202 252
#     4   8  14  25  41  59  80 104 133 174 219 243
#     4  10  19  33  48  64  87 120 153 191 235 272
#     4  10  18  30  46  64  83 114 155 187 219 267
#     4  10  19  33  50  64  86 120 156 193 231 270
#     4  10  19  30  42  62  90 116 145 185 222 260
#     4   8  14  25  42  59  76 106 141 174 206 239
#     4  10  18  29  45  67  90 110 140 185 233 273
#
# _framework density 24.357478
#
# number of rings (size 3 to 8) (size 9 to 14) (size 15 to 20)
#    0.000    2.500    0.000    5.250    0.000    0.000 
#    0.000   15.000    0.000    0.000    0.000    0.000 
#    0.000   11.000    0.000    5.000    0.000    0.000 
#
# Total GULP energy -178522.443224 kJ/mol
# GULP energy per Si atom -5578.826351 kJ/mol
# Density = 2.430204 g / cm^3
# Si number density = 24.357478 Si / 1000 Ang^3
#
#
#
# Elastic Constant Matrix: (Units=GPa)
#
#
# Indices 1 2 3 4 5 6 
#
# 1 99.2319 23.3238 2.2460 0.0000 0.0000 0.0000
# 2 23.3238 298.6782 24.0444 0.0000 0.0000 0.0000
# 3 2.2460 24.0444 58.4445 0.0000 0.0000 0.0000
# 4 0.0000 0.0000 0.0000 34.5518 0.0000 0.0000
# 5 0.0000 0.0000 0.0000 0.0000 0.2626 0.0000
# 6 0.0000 0.0000 0.0000 0.0000 0.0000 -9.9480
#
#
#
# Elastic Compliance Matrix: (Units=1/GPa)
#
#
# Indices 1 2 3 4 5 6 
#
# 1 0.010266 -0.000796 -0.000067 0.000000 0.000000 0.000000
# 2 -0.000796 0.003525 -0.001419 0.000000 0.000000 0.000000
# 3 -0.000067 -0.001419 0.017697 0.000000 0.000000 0.000000
# 4 0.000000 0.000000 0.000000 0.028942 0.000000 0.000000
# 5 0.000000 0.000000 0.000000 0.000000 3.808588 0.000000
# 6 0.000000 0.000000 0.000000 0.000000 0.000000 -0.100523
#
#
# Mechanical properties :
#
#
# Convention : Reuss Voigt Hill
#
# Bulk Modulus (GPa) = 37.14418 61.73145 49.43781
# Shear Modulus (GPa) = 1.32204 32.08931 16.70567
#
# Velocity S-wave (km/s) = 0.73753 3.63358 2.62172
# Velocity P-wave (km/s) = 4.00100 6.55766 5.43189
#
# Compressibility (1/GPa) = 0.02692212
#
# Stress axis : x y z
#
# Youngs Moduli (GPa) = 97.40819 283.72553 56.50750
#
# Poissons Ratio (x) = 0.22593 0.00378
# Poissons Ratio (y) = 0.07757 0.08021
# Poissons Ratio (z) = 0.00652 0.40272
#
# Static dielectric constant tensor:
#      x y z
#    x 1.916930 0.000000 0.000000 
#    y 0.000000 2.038670 0.000000 
#    z 0.000000 0.000000 1.977340 
# 
# From -- ./inp_files/7444.got.cif
#   From: 2010.05.17/outbox.cif.g08.bks.cpg/sg18_4_cif.got.tgz:7444.got - 2010.06.03 22:40:56.
