data_PCOD9311880
_publ_section_title
;
Structure prediction by ZEFSAII (Michael W. Deem and Ramdas Pophale) SiO2 
 PCOD9311880
Probable space group: P 21 21 2
;
_chemical_formula_sum "Si O2"
_cell_formula_units_Z 24
_cell_length_a 8.987492
_cell_length_b 16.038358
_cell_length_c 9.876187
_cell_angle_alpha 90.000000
_cell_angle_beta 90.000000
_cell_angle_gamma 90.000000
_cell_volume 1423.599165
_symmetry_space_group_name_H-M "P 21 21 2"
_symmetry_group_IT_number 18
_symmetry_cell_setting 'orthorhombic'
loop_
_space_group_symop_operation_xyz
x,y,z
-x,-y,z
1/2+x,1/2-y,-z
1/2-x,1/2+y,-z
loop_
_atom_site_type_symbol
_atom_site_label
_atom_site_fract_x
_atom_site_fract_y
_atom_site_fract_z
Si Si1 0.834985 0.519890 0.201530
Si Si2 0.889667 0.212436 0.232742
Si Si3 0.078485 0.913242 0.987991
Si Si4 0.375826 0.817942 0.642131
Si Si5 0.563566 0.710634 0.468511
Si Si6 0.646193 0.355124 0.243472
O O1 0.854766 0.586157 0.322527
O O2 0.752066 0.435956 0.248366
O O3 0.000000 0.500000 0.149497
O O4 0.729452 0.562939 0.090596
O O5 0.894317 0.146331 0.114236
O O6 0.894544 0.172984 0.384205
O O7 0.749198 0.274180 0.223946
O O8 0.036921 0.271513 0.236319
O O9 0.000000 0.000000 0.028967
O O10 0.968639 0.869759 0.879161
O O11 0.481396 0.795852 0.514477
O O12 0.215395 0.778501 0.613046
O O13 0.449957 0.657459 0.379305
#
# Coordination Sequence:
#
# PCOD9311880 Si02
#       6
#     4   4   4   4   4   4
#     4  11  21  38  60  85 115 153 200 240 286 348
#     4  10  21  37  59  86 117 152 190 242 295 335
#     4  10  24  39  56  87 121 154 199 242 291 348
#     4  10  20  36  60  87 115 148 188 247 284 351
#     4  10  19  37  57  87 114 146 194 240 286 354
#     4  11  21  36  60  87 113 155 203 235 288 358
#
# _framework density 16.858678999999999
#
# number of rings (size 3 to 8) (size 9 to 14) (size 15 to 20)
#    1.000    0.667    5.000    0.000    2.333    0.000 
#    3.000    1.667    0.000    0.000    0.000    0.000 
#    0.000    0.000    0.000    0.000    0.000    0.000 
#
# Total GULP energy -133623.413644 kJ/mol
# GULP energy per Si atom -5567.642235 kJ/mol
# Density = 1.682031 g / cm^3
# Si number density = 16.858679 Si / 1000 Ang^3
#
#
#
# Elastic Constant Matrix: (Units=GPa)
#
#
# Indices 1 2 3 4 5 6 
#
# 1 152.9041 61.4703 58.4280 0.0000 0.0000 0.0000
# 2 61.4703 88.8630 74.5289 0.0000 0.0000 0.0000
# 3 58.4280 74.5289 95.1270 0.0000 0.0000 0.0000
# 4 0.0000 0.0000 0.0000 27.9437 0.0000 0.0000
# 5 0.0000 0.0000 0.0000 0.0000 14.4548 0.0000
# 6 0.0000 0.0000 0.0000 0.0000 0.0000 24.2764
#
#
#
# Elastic Compliance Matrix: (Units=1/GPa)
#
#
# Indices 1 2 3 4 5 6 
#
# 1 0.009180 -0.004728 -0.001934 0.000000 0.000000 0.000000
# 2 -0.004728 0.035252 -0.024715 0.000000 0.000000 0.000000
# 3 -0.001934 -0.024715 0.031064 0.000000 0.000000 0.000000
# 4 0.000000 0.000000 0.000000 0.035786 0.000000 0.000000
# 5 0.000000 0.000000 0.000000 0.000000 0.069181 0.000000
# 6 0.000000 0.000000 0.000000 0.000000 0.000000 0.041192
#
#
# Mechanical properties :
#
#
# Convention : Reuss Voigt Hill
#
# Bulk Modulus (GPa) = 78.48384 80.63872 79.56128
# Shear Modulus (GPa) = 17.32164 22.83275 20.07719
#
# Velocity S-wave (km/s) = 3.20888 3.68416 3.45470
# Velocity P-wave (km/s) = 7.77073 8.12609 7.95040
#
# Compressibility (1/GPa) = 0.01274148
#
# Stress axis : x y z
#
# Youngs Moduli (GPa) = 108.93421 28.36721 32.19205
#
# Poissons Ratio (x) = 0.13412 0.06227
# Poissons Ratio (y) = 0.51503 0.79562
# Poissons Ratio (z) = 0.21071 0.70109
#
# Static dielectric constant tensor:
#      x y z
#    x 1.591630 0.000000 0.000000 
#    y 0.000000 1.557930 0.000000 
#    z 0.000000 0.000000 1.555200 
# 
# From -- ./inp_files/3300.got.cif
#   From: 2010.05.17/outbox.cif.g08.bks.cpg/sg18_2_cif.got.tgz:3300.got - 2010.06.03 22:40:56.
