data_PCOD9311230
_publ_section_title
;
Structure prediction by ZEFSAII (Michael W. Deem and Ramdas Pophale) SiO2 
 PCOD9311230
Probable space group: P 2 2 21
;
_chemical_formula_sum "Si O2"
_cell_formula_units_Z 24
_cell_length_a 5.038011
_cell_length_b 13.812731
_cell_length_c 16.891080
_cell_angle_alpha 90.000000
_cell_angle_beta 90.000000
_cell_angle_gamma 90.000000
_cell_volume 1175.428142
_symmetry_space_group_name_H-M "P 2 2 21"
_symmetry_group_IT_number 17
_symmetry_cell_setting 'orthorhombic'
loop_
_space_group_symop_operation_xyz
x,y,z
-x,-y,1/2+z
x,-y,-z
-x,y,1/2-z
loop_
_atom_site_type_symbol
_atom_site_label
_atom_site_fract_x
_atom_site_fract_y
_atom_site_fract_z
Si Si1 0.884882 0.745734 0.555639
Si Si2 0.540000 0.034342 0.591221
Si Si3 0.615755 0.753127 0.050316
Si Si4 0.524231 0.430192 0.656392
Si Si5 0.970007 0.934247 0.842635
Si Si6 0.975838 0.557194 0.843797
O O1 0.084466 0.750281 0.481151
O O2 0.947825 0.839309 0.608535
O O3 0.949315 0.649675 0.604887
O O4 0.584606 0.747387 0.524491
O O5 0.447238 0.145052 0.591940
O O6 0.551833 0.000000 0.500000
O O7 0.324450 0.967875 0.635063
O O8 0.825492 0.017407 0.629835
O O9 0.550639 0.662816 0.105897
O O10 0.500000 0.408830 0.750000
O O11 0.316425 0.516658 0.639388
O O12 0.816385 0.470861 0.639506
O O13 0.000000 0.916521 0.750000
O O14 0.000000 0.579822 0.750000
#
# Coordination Sequence:
#
# PCOD9311230 Si02
#       6
#     4   4   4   4   4   4
#     4  12  23  40  64  96 124 162 206 260 318 381
#     4  12  23  45  66  90 133 173 207 258 328 377
#     4  12  25  39  67  91 123 168 208 258 319 372
#     4  10  23  42  60  87 124 164 209 257 306 374
#     4  12  25  42  67  98 127 166 217 265 311 384
#     4  10  22  41  63  87 127 166 199 257 319 364
#
# _framework density 20.418091
#
# number of rings (size 3 to 8) (size 9 to 14) (size 15 to 20)
#    0.000    0.667    3.333    4.500    0.000    5.333 
#    0.000    6.667    0.000    0.000    0.000    0.000 
#    0.000    0.000    0.000    0.000    0.000    0.000 
#
# Total GULP energy -134386.121922 kJ/mol
# GULP energy per Si atom -5599.421747 kJ/mol
# Density = 2.037162 g / cm^3
# Si number density = 20.418091 Si / 1000 Ang^3
#
#
#
# Elastic Constant Matrix: (Units=GPa)
#
#
# Indices 1 2 3 4 5 6 
#
# 1 56.4258 -29.5478 -3.3520 0.0000 0.0000 0.0000
# 2 -29.5478 81.9475 24.6410 0.0000 0.0000 0.0000
# 3 -3.3520 24.6410 47.9503 0.0000 0.0000 0.0000
# 4 0.0000 0.0000 0.0000 17.4821 0.0000 0.0000
# 5 0.0000 0.0000 0.0000 0.0000 19.3362 0.0000
# 6 0.0000 0.0000 0.0000 0.0000 0.0000 11.8913
#
#
#
# Elastic Compliance Matrix: (Units=1/GPa)
#
#
# Indices 1 2 3 4 5 6 
#
# 1 0.022214 0.008921 -0.003032 0.000000 0.000000 0.000000
# 2 0.008921 0.018016 -0.008635 0.000000 0.000000 0.000000
# 3 -0.003032 -0.008635 0.025080 0.000000 0.000000 0.000000
# 4 0.000000 0.000000 0.000000 0.057201 0.000000 0.000000
# 5 0.000000 0.000000 0.000000 0.000000 0.051716 0.000000
# 6 0.000000 0.000000 0.000000 0.000000 0.000000 0.084095
#
#
# Mechanical properties :
#
#
# Convention : Reuss Voigt Hill
#
# Bulk Modulus (GPa) = 16.71670 18.86732 17.79201
# Shear Modulus (GPa) = 17.62095 22.71408 20.16751
#
# Velocity S-wave (km/s) = 2.94088 3.33896 3.14622
# Velocity P-wave (km/s) = 4.44260 4.91176 4.68306
#
# Compressibility (1/GPa) = 0.05982043
#
# Stress axis : x y z
#
# Youngs Moduli (GPa) = 45.01672 55.50621 39.87216
#
# Poissons Ratio (x) = -0.49519 0.12088
# Poissons Ratio (y) = -0.40161 0.34428
# Poissons Ratio (z) = 0.13647 0.47927
#
# Static dielectric constant tensor:
#      x y z
#    x 1.690780 0.000000 0.000000 
#    y 0.000000 1.686420 0.000000 
#    z 0.000000 0.000000 1.700540 
# 
# From -- ./inp_files/7745.got.cif
#   From: 2010.05.17/outbox.cif.g08.bks.cpg/sg17_4_cif.got.tgz:7745.got - 2010.06.03 22:34:06.
