data_PCOD9311407
_publ_section_title
;
Structure prediction by ZEFSAII (Michael W. Deem and Ramdas Pophale) SiO2 
 PCOD9311407
Probable space group: P 2 2 21
;
_chemical_formula_sum "Si O2"
_cell_formula_units_Z 20
_cell_length_a 4.926390
_cell_length_b 18.680393
_cell_length_c 9.365298
_cell_angle_alpha 90.000000
_cell_angle_beta 90.000000
_cell_angle_gamma 90.000000
_cell_volume 861.859354
_symmetry_space_group_name_H-M "P 2 2 21"
_symmetry_group_IT_number 17
_symmetry_cell_setting 'orthorhombic'
loop_
_space_group_symop_operation_xyz
x,y,z
-x,-y,1/2+z
x,-y,-z
-x,y,1/2-z
loop_
_atom_site_type_symbol
_atom_site_label
_atom_site_fract_x
_atom_site_fract_y
_atom_site_fract_z
Si Si1 0.500000 0.470352 0.250000
Si Si2 0.000000 0.988720 0.250000
Si Si3 0.863626 0.102689 0.026213
Si Si4 0.621558 0.807219 0.594038
Si Si5 0.220921 0.605844 0.362871
Si Si6 0.727404 0.357526 0.472023
O O1 0.280830 0.523421 0.323221
O O2 0.631470 0.419022 0.365540
O O3 0.993446 0.934547 0.386941
O O4 0.813871 0.045986 0.157567
O O5 0.088159 0.157063 0.080085
O O6 0.591592 0.148076 0.995184
O O7 0.500000 0.816339 0.750000
O O8 0.668995 0.723268 0.572320
O O9 0.522528 0.633437 0.393775
O O10 0.000000 0.635189 0.250000
O O11 0.042932 0.625173 0.502036
#
# Coordination Sequence:
#
# PCOD9311407 Si02
#       6
#     2   2   4   4   4   4
#     4  12  28  44  76 102 138 180 258 302 382 430
#     4  10  24  46  74 116 142 194 230 296 356 412
#     4  11  25  45  77 105 153 183 243 290 351 432
#     4  12  24  50  70 105 139 193 237 292 354 437
#     4  12  27  47  68 102 138 183 235 313 365 432
#     4  12  28  47  73  99 142 189 240 301 370 433
#
# _framework density 23.205642999999998
#
# number of rings (size 3 to 8) (size 9 to 14) (size 15 to 20)
#    0.000    0.400    5.000    1.800    5.600    5.600 
#   10.800    0.000    0.000    0.000    0.000    0.000 
#    0.000    0.000    0.000    0.000    0.000    0.000 
#
# Total GULP energy -111344.456517 kJ/mol
# GULP energy per Si atom -5567.222826 kJ/mol
# Density = 2.315283 g / cm^3
# Si number density = 23.205643 Si / 1000 Ang^3
#
#
#
# Elastic Constant Matrix: (Units=GPa)
#
#
# Indices 1 2 3 4 5 6 
#
# 1 145.1033 33.0126 -1.5685 0.0000 0.0000 0.0000
# 2 33.0126 113.7025 24.1792 0.0000 0.0000 0.0000
# 3 -1.5685 24.1792 65.2072 0.0000 0.0000 0.0000
# 4 0.0000 0.0000 0.0000 16.0860 0.0000 0.0000
# 5 0.0000 0.0000 0.0000 0.0000 20.3722 0.0000
# 6 0.0000 0.0000 0.0000 0.0000 0.0000 19.2635
#
#
#
# Elastic Compliance Matrix: (Units=1/GPa)
#
#
# Indices 1 2 3 4 5 6 
#
# 1 0.007447 -0.002388 0.001065 0.000000 0.000000 0.000000
# 2 -0.002388 0.010314 -0.003882 0.000000 0.000000 0.000000
# 3 0.001065 -0.003882 0.016801 0.000000 0.000000 0.000000
# 4 0.000000 0.000000 0.000000 0.062166 0.000000 0.000000
# 5 0.000000 0.000000 0.000000 0.000000 0.049086 0.000000
# 6 0.000000 0.000000 0.000000 0.000000 0.000000 0.051912
#
#
# Mechanical properties :
#
#
# Convention : Reuss Voigt Hill
#
# Bulk Modulus (GPa) = 41.40784 48.36218 44.88501
# Shear Modulus (GPa) = 23.12819 29.03698 26.08259
#
# Velocity S-wave (km/s) = 3.16042 3.54120 3.35621
# Velocity P-wave (km/s) = 5.58572 6.13238 5.86542
#
# Compressibility (1/GPa) = 0.02415002
#
# Stress axis : x y z
#
# Youngs Moduli (GPa) = 134.29023 96.95694 59.52107
#
# Poissons Ratio (x) = 0.23158 -0.06338
# Poissons Ratio (y) = 0.32075 0.23105
# Poissons Ratio (z) = -0.14299 0.37638
#
# Static dielectric constant tensor:
#      x y z
#    x 1.854280 0.000000 0.000000 
#    y 0.000000 1.881530 0.000000 
#    z 0.000000 0.000000 2.079230 
# 
# From -- ./inp_files/3438.got.cif
#   From: 2010.05.17/outbox.cif.g08.bks.cpg/sg17_2_cif.got.tgz:3438.got - 2010.06.03 22:34:06.
