data_PCOD9311296
_publ_section_title
;
Structure prediction by ZEFSAII (Michael W. Deem and Ramdas Pophale) SiO2 
 PCOD9311296
Probable space group: P 2 2 21
;
_chemical_formula_sum "Si O2"
_cell_formula_units_Z 16
_cell_length_a 9.179926
_cell_length_b 5.091261
_cell_length_c 14.833578
_cell_angle_alpha 90.000000
_cell_angle_beta 90.000000
_cell_angle_gamma 90.000000
_cell_volume 693.282857
_symmetry_space_group_name_H-M "P 2 2 21"
_symmetry_group_IT_number 17
_symmetry_cell_setting 'orthorhombic'
loop_
_space_group_symop_operation_xyz
x,y,z
-x,-y,1/2+z
x,-y,-z
-x,y,1/2-z
loop_
_atom_site_type_symbol
_atom_site_label
_atom_site_fract_x
_atom_site_fract_y
_atom_site_fract_z
Si Si1 0.671854 0.752190 0.728248
Si Si2 0.285243 0.758074 0.113743
Si Si3 0.785039 0.800760 0.915262
Si Si4 0.959225 0.500000 0.500000
Si Si5 0.530272 0.500000 0.000000
O O1 0.500000 0.770707 0.750000
O O2 0.708018 0.455906 0.695690
O O3 0.765288 0.871357 0.811303
O O4 0.706488 0.945734 0.646097
O O5 0.143835 0.696052 0.054652
O O6 0.426023 0.697111 0.052619
O O7 0.640817 0.626157 0.929540
O O8 0.932605 0.641293 0.930415
O O9 0.780780 0.000000 0.000000
#
# Coordination Sequence:
#
# PCOD9311296 Si02
#       5
#     4   4   4   2   2
#     4  12  25  45  76 110 137 181 244 301 350 408
#     4  11  26  46  74 105 144 184 238 293 352 422
#     4  11  25  45  71 101 145 189 235 288 357 427
#     4  10  28  48  68 104 146 198 232 280 366 430
#     4  10  22  44  72 104 140 188 232 294 354 422
#
# _framework density 23.078600999999999
#
# number of rings (size 3 to 8) (size 9 to 14) (size 15 to 20)
#    0.000    1.000    2.500    2.250   10.500    3.000 
#    0.000    0.000    0.000    0.000    0.000    0.000 
#    0.000    0.000    0.000    0.000    0.000    0.000 
#
# Total GULP energy -89539.360046 kJ/mol
# GULP energy per Si atom -5596.210003 kJ/mol
# Density = 2.302607 g / cm^3
# Si number density = 23.078601 Si / 1000 Ang^3
#
#
#
# Elastic Constant Matrix: (Units=GPa)
#
#
# Indices 1 2 3 4 5 6 
#
# 1 147.2912 13.3105 30.3982 0.0000 0.0000 0.0000
# 2 13.3105 55.6481 2.5679 0.0000 0.0000 0.0000
# 3 30.3982 2.5679 78.5769 0.0000 0.0000 0.0000
# 4 0.0000 0.0000 0.0000 54.8054 0.0000 0.0000
# 5 0.0000 0.0000 0.0000 0.0000 1.5564 0.0000
# 6 0.0000 0.0000 0.0000 0.0000 0.0000 -2.7820
#
#
#
# Elastic Compliance Matrix: (Units=1/GPa)
#
#
# Indices 1 2 3 4 5 6 
#
# 1 0.007530 -0.001669 -0.002859 0.000000 0.000000 0.000000
# 2 -0.001669 0.018367 0.000046 0.000000 0.000000 0.000000
# 3 -0.002859 0.000046 0.013831 0.000000 0.000000 0.000000
# 4 0.000000 0.000000 0.000000 0.018246 0.000000 0.000000
# 5 0.000000 0.000000 0.000000 0.000000 0.642516 0.000000
# 6 0.000000 0.000000 0.000000 0.000000 0.000000 -0.359457
#
#
# Mechanical properties :
#
#
# Convention : Reuss Voigt Hill
#
# Bulk Modulus (GPa) = 32.50601 41.56330 37.03466
# Shear Modulus (GPa) = 13.87915 26.39860 20.13887
#
# Velocity S-wave (km/s) = 2.45498 3.38576 2.95722
# Velocity P-wave (km/s) = 4.70653 5.77348 5.26709
#
# Compressibility (1/GPa) = 0.03076354
#
# Stress axis : x y z
#
# Youngs Moduli (GPa) = 132.80095 54.44483 72.30270
#
# Poissons Ratio (x) = 0.09088 0.20668
# Poissons Ratio (y) = 0.22167 -0.00329
# Poissons Ratio (z) = 0.37962 -0.00248
#
# Static dielectric constant tensor:
#      x y z
#    x 1.794510 0.000000 0.000000 
#    y 0.000000 1.878490 0.000000 
#    z 0.000000 0.000000 1.863990 
# 
# From -- ./inp_files/7885.got.cif
#   From: 2010.05.17/outbox.cif.g08.bks.cpg/sg17_4_cif.got.tgz:7885.got - 2010.06.03 22:34:06.
