data_PCOD9311081
_publ_section_title
;
Structure prediction by ZEFSAII (Michael W. Deem and Ramdas Pophale) SiO2 
 PCOD9311081
Probable space group: P 2 2 21
;
_chemical_formula_sum "Si O2"
_cell_formula_units_Z 20
_cell_length_a 17.926324
_cell_length_b 8.642774
_cell_length_c 5.590463
_cell_angle_alpha 90.000000
_cell_angle_beta 90.000000
_cell_angle_gamma 90.000000
_cell_volume 866.148137
_symmetry_space_group_name_H-M "P 2 2 21"
_symmetry_group_IT_number 17
_symmetry_cell_setting 'orthorhombic'
loop_
_space_group_symop_operation_xyz
x,y,z
-x,-y,1/2+z
x,-y,-z
-x,y,1/2-z
loop_
_atom_site_type_symbol
_atom_site_label
_atom_site_fract_x
_atom_site_fract_y
_atom_site_fract_z
Si Si1 0.791295 0.500000 0.000000
Si Si2 0.259601 0.777276 0.225720
Si Si3 0.419633 0.834055 0.125922
Si Si4 0.143528 0.750620 0.840243
Si Si5 0.956240 0.500000 0.500000
Si Si6 0.453817 0.500000 0.000000
Si Si7 0.852756 0.000000 0.000000
O O1 0.743716 0.601210 0.184022
O O2 0.841194 0.382249 0.147422
O O3 0.342456 0.837065 0.269437
O O4 0.201321 0.877665 0.374511
O O5 0.223834 0.788958 0.960326
O O6 0.500000 0.825624 0.250000
O O7 0.412617 0.667312 0.990774
O O8 0.420764 0.000000 0.000000
O O9 0.092320 0.658211 0.026751
O O10 0.108993 0.899875 0.709366
O O11 0.000000 0.518217 0.750000
O O12 0.500000 0.498452 0.750000
#
# Coordination Sequence:
#
# PCOD9311081 Si02
#       7
#     2   4   4   4   2   2   2
#     4  10  21  39  74 101 139 184 246 308 365 437
#     4  11  23  42  68 105 135 195 254 312 378 459
#     4  11  25  43  66  98 145 193 250 324 398 457
#     4  11  22  45  72 107 145 189 246 306 372 451
#     4  12  27  45  82 116 154 196 252 312 381 467
#     4  10  24  46  66  95 131 186 242 298 380 472
#     4  10  24  40  74 100 146 188 254 308 366 452
#
# _framework density 23.090738000000002
#
# number of rings (size 3 to 8) (size 9 to 14) (size 15 to 20)
#    0.000    1.200    2.000    3.000    7.000    3.200 
#    7.200    0.000    4.400    0.000    0.000    0.000 
#    0.000    0.000    0.000    0.000    0.000    0.000 
#
# Total GULP energy -111525.526261 kJ/mol
# GULP energy per Si atom -5576.276313 kJ/mol
# Density = 2.303818 g / cm^3
# Si number density = 23.090738 Si / 1000 Ang^3
#
#
#
# Elastic Constant Matrix: (Units=GPa)
#
#
# Indices 1 2 3 4 5 6 
#
# 1 74.5957 11.2602 8.5860 0.0000 0.0000 0.0000
# 2 11.2602 165.9869 20.5467 0.0000 0.0000 0.0000
# 3 8.5860 20.5467 70.1046 0.0000 0.0000 0.0000
# 4 0.0000 0.0000 0.0000 36.3154 0.0000 0.0000
# 5 0.0000 0.0000 0.0000 0.0000 14.0762 0.0000
# 6 0.0000 0.0000 0.0000 0.0000 0.0000 9.6405
#
#
#
# Elastic Compliance Matrix: (Units=1/GPa)
#
#
# Indices 1 2 3 4 5 6 
#
# 1 0.013686 -0.000748 -0.001457 0.000000 0.000000 0.000000
# 2 -0.000748 0.006292 -0.001753 0.000000 0.000000 0.000000
# 3 -0.001457 -0.001753 0.014956 0.000000 0.000000 0.000000
# 4 0.000000 0.000000 0.000000 0.027537 0.000000 0.000000
# 5 0.000000 0.000000 0.000000 0.000000 0.071042 0.000000
# 6 0.000000 0.000000 0.000000 0.000000 0.000000 0.103729
#
#
# Mechanical properties :
#
#
# Convention : Reuss Voigt Hill
#
# Bulk Modulus (GPa) = 37.00992 43.49698 40.25345
# Shear Modulus (GPa) = 19.67234 30.02603 24.84918
#
# Velocity S-wave (km/s) = 2.92200 3.60995 3.28404
# Velocity P-wave (km/s) = 5.23898 6.02112 5.64362
#
# Compressibility (1/GPa) = 0.02701978
#
# Stress axis : x y z
#
# Youngs Moduli (GPa) = 73.06621 158.92533 66.86062
#
# Poissons Ratio (x) = 0.11889 0.09741
# Poissons Ratio (y) = 0.05466 0.11718
# Poissons Ratio (z) = 0.10645 0.27853
#
# Static dielectric constant tensor:
#      x y z
#    x 2.194520 0.000000 0.000000 
#    y 0.000000 1.926140 0.000000 
#    z 0.000000 0.000000 2.020400 
# 
# From -- ./inp_files/2523.got.cif
#   From: 2010.05.17/outbox.cif.g08.bks.cpg/sg17_2_cif.got.tgz:2523.got - 2010.06.03 22:34:06.
