data_PCOD9311557
_publ_section_title
;
Structure prediction by ZEFSAII (Michael W. Deem and Ramdas Pophale) SiO2 
 PCOD9311557
Probable space group: P 2 2 21
;
_chemical_formula_sum "Si O2"
_cell_formula_units_Z 16
_cell_length_a 9.499373
_cell_length_b 9.152312
_cell_length_c 7.697308
_cell_angle_alpha 90.000000
_cell_angle_beta 90.000000
_cell_angle_gamma 90.000000
_cell_volume 669.213391
_symmetry_space_group_name_H-M "P 2 2 21"
_symmetry_group_IT_number 17
_symmetry_cell_setting 'orthorhombic'
loop_
_space_group_symop_operation_xyz
x,y,z
-x,-y,1/2+z
x,-y,-z
-x,y,1/2-z
loop_
_atom_site_type_symbol
_atom_site_label
_atom_site_fract_x
_atom_site_fract_y
_atom_site_fract_z
Si Si1 0.300095 0.004444 0.704752
Si Si2 0.394472 0.695477 0.109873
Si Si3 0.065892 0.658222 0.062542
Si Si4 0.500000 0.252845 0.250000
Si Si5 0.000000 0.116702 0.250000
O O1 0.362280 0.139498 0.813303
O O2 0.335242 0.000000 0.500000
O O3 0.366515 0.853890 0.767002
O O4 0.134715 0.985874 0.726857
O O5 0.500000 0.627726 0.250000
O O6 0.234807 0.643271 0.085213
O O7 0.484737 0.674249 0.934866
O O8 0.000000 0.691227 0.250000
O O9 0.010856 0.500000 0.000000
O O10 0.025797 0.778885 0.917488
#
# Coordination Sequence:
#
# PCOD9311557 Si02
#       5
#     4   4   4   2   2
#     4  12  23  41  69 106 149 186 222 289 362 426
#     4  12  26  46  71 107 145 186 232 287 359 427
#     4  12  28  53  75  99 140 193 243 299 348 411
#     4  12  22  42  66  98 150 186 218 284 356 428
#     4  12  28  44  70 112 140 186 246 288 354 432
#
# _framework density 23.908666
#
# number of rings (size 3 to 8) (size 9 to 14) (size 15 to 20)
#    0.000    0.000    7.500    2.250    5.250    0.000 
#    2.250    0.000    0.000    0.000    0.000    0.000 
#    0.000    0.000    0.000    0.000    0.000    0.000 
#
# Total GULP energy -89485.297306 kJ/mol
# GULP energy per Si atom -5592.831082 kJ/mol
# Density = 2.385425 g / cm^3
# Si number density = 23.908666 Si / 1000 Ang^3
#
#
#
# Elastic Constant Matrix: (Units=GPa)
#
#
# Indices 1 2 3 4 5 6 
#
# 1 139.9292 24.1349 35.0576 0.0000 0.0000 0.0000
# 2 24.1349 89.9651 72.1278 0.0000 0.0000 0.0000
# 3 35.0576 72.1278 230.8059 0.0000 0.0000 0.0000
# 4 0.0000 0.0000 0.0000 32.9132 0.0000 0.0000
# 5 0.0000 0.0000 0.0000 0.0000 44.4264 0.0000
# 6 0.0000 0.0000 0.0000 0.0000 0.0000 38.3990
#
#
#
# Elastic Compliance Matrix: (Units=1/GPa)
#
#
# Indices 1 2 3 4 5 6 
#
# 1 0.007574 -0.001480 -0.000688 0.000000 0.000000 0.000000
# 2 -0.001480 0.015121 -0.004500 0.000000 0.000000 0.000000
# 3 -0.000688 -0.004500 0.005844 0.000000 0.000000 0.000000
# 4 0.000000 0.000000 0.000000 0.030383 0.000000 0.000000
# 5 0.000000 0.000000 0.000000 0.000000 0.022509 0.000000
# 6 0.000000 0.000000 0.000000 0.000000 0.000000 0.026042
#
#
# Mechanical properties :
#
#
# Convention : Reuss Voigt Hill
#
# Bulk Modulus (GPa) = 65.78524 80.37121 73.07823
# Shear Modulus (GPa) = 39.72127 45.10639 42.41383
#
# Velocity S-wave (km/s) = 4.08042 4.34823 4.21645
# Velocity P-wave (km/s) = 7.05512 7.67453 7.37133
#
# Compressibility (1/GPa) = 0.01520098
#
# Stress axis : x y z
#
# Youngs Moduli (GPa) = 132.02811 66.13446 171.13000
#
# Poissons Ratio (x) = 0.09791 0.11770
# Poissons Ratio (y) = 0.19547 0.77016
# Poissons Ratio (z) = 0.09081 0.29763
#
# Static dielectric constant tensor:
#      x y z
#    x 1.955280 0.000000 0.000000 
#    y 0.000000 1.936450 0.000000 
#    z 0.000000 0.000000 1.987020 
# 
# From -- ./inp_files/3789.got.cif
#   From: 2010.05.17/outbox.cif.g08.bks.cpg/sg17_2_cif.got.tgz:3789.got - 2010.06.03 22:34:06.
