data_PCOD9311959
_publ_section_title
;
Structure prediction by ZEFSAII (Michael W. Deem and Ramdas Pophale) SiO2 
 PCOD9311959
Probable space group: P 21 21 2
;
_chemical_formula_sum "Si O2"
_cell_formula_units_Z 20
_cell_length_a 5.204622
_cell_length_b 19.916510
_cell_length_c 10.374982
_cell_angle_alpha 90.000000
_cell_angle_beta 90.000000
_cell_angle_gamma 90.000000
_cell_volume 1075.448910
_symmetry_space_group_name_H-M "P 21 21 2"
_symmetry_group_IT_number 18
_symmetry_cell_setting 'orthorhombic'
loop_
_space_group_symop_operation_xyz
x,y,z
-x,-y,z
1/2+x,1/2-y,-z
1/2-x,1/2+y,-z
loop_
_atom_site_type_symbol
_atom_site_label
_atom_site_fract_x
_atom_site_fract_y
_atom_site_fract_z
Si Si1 0.553381 0.162194 0.447473
Si Si2 0.257604 0.543639 0.626479
Si Si3 0.293109 0.293136 0.023153
Si Si4 0.957031 0.142069 0.228040
Si Si5 0.224814 0.775505 0.692896
O O1 0.317277 0.110201 0.454751
O O2 0.747366 0.132786 0.340591
O O3 0.655199 0.174906 0.589490
O O4 0.492062 0.235320 0.386447
O O5 0.500000 0.500000 0.578730
O O6 0.350884 0.579464 0.758721
O O7 0.000000 0.500000 0.635980
O O8 0.342694 0.348224 0.913475
O O9 0.505032 0.234794 0.996663
O O10 0.340773 0.310788 0.172503
O O11 0.095908 0.212499 0.263843
#
# Coordination Sequence:
#
# PCOD9311959 Si02
#       5
#     4   4   4   4   4
#     4  11  19  34  58  91 119 157 188 241 298 355
#     4  11  23  39  58  86 111 156 210 255 277 331
#     4  10  20  34  53  85 124 152 175 221 288 362
#     4  10  20  35  58  86 119 154 191 237 295 352
#     4  10  20  32  55  92 129 147 182 234 304 364
#
# _framework density 18.596885
#
# number of rings (size 3 to 8) (size 9 to 14) (size 15 to 20)
#    0.000    1.600    6.000    0.000    0.000    0.000 
#    0.000    0.000    0.000    0.000   10.400    0.000 
#    0.000    0.000    0.000    0.000    0.000    0.000 
#
# Total GULP energy -111353.748437 kJ/mol
# GULP energy per Si atom -5567.687422 kJ/mol
# Density = 1.855456 g / cm^3
# Si number density = 18.596885 Si / 1000 Ang^3
#
#
#
# Elastic Constant Matrix: (Units=GPa)
#
#
# Indices 1 2 3 4 5 6 
#
# 1 59.3543 20.2337 11.4100 0.0000 0.0000 0.0000
# 2 20.2337 56.9549 25.0068 0.0000 0.0000 0.0000
# 3 11.4100 25.0068 148.5482 0.0000 0.0000 0.0000
# 4 0.0000 0.0000 0.0000 8.1604 0.0000 0.0000
# 5 0.0000 0.0000 0.0000 0.0000 23.4867 0.0000
# 6 0.0000 0.0000 0.0000 0.0000 0.0000 18.7172
#
#
#
# Elastic Compliance Matrix: (Units=1/GPa)
#
#
# Indices 1 2 3 4 5 6 
#
# 1 0.019187 -0.006662 -0.000352 0.000000 0.000000 0.000000
# 2 -0.006662 0.021272 -0.003069 0.000000 0.000000 0.000000
# 3 -0.000352 -0.003069 0.007276 0.000000 0.000000 0.000000
# 4 0.000000 0.000000 0.000000 0.122543 0.000000 0.000000
# 5 0.000000 0.000000 0.000000 0.000000 0.042577 0.000000
# 6 0.000000 0.000000 0.000000 0.000000 0.000000 0.053427
#
#
# Mechanical properties :
#
#
# Convention : Reuss Voigt Hill
#
# Bulk Modulus (GPa) = 36.27410 42.01760 39.14585
# Shear Modulus (GPa) = 16.91263 23.95331 20.43297
#
# Velocity S-wave (km/s) = 3.01895 3.59280 3.31831
# Velocity P-wave (km/s) = 5.63027 6.31300 5.98138
#
# Compressibility (1/GPa) = 0.02756788
#
# Stress axis : x y z
#
# Youngs Moduli (GPa) = 52.11966 47.01033 137.44634
#
# Poissons Ratio (x) = 0.31316 0.04843
# Poissons Ratio (y) = 0.34720 0.42186
# Poissons Ratio (z) = 0.01836 0.14429
#
# Static dielectric constant tensor:
#      x y z
#    x 1.764660 0.000000 0.000000 
#    y 0.000000 1.694520 0.000000 
#    z 0.000000 0.000000 1.672420 
# 
# From -- ./inp_files/2537.got.cif
#   From: 2010.05.17/outbox.cif.g08.bks.cpg/sg18_2_cif.got.tgz:2537.got - 2010.06.03 22:40:56.
