data_PCOD9311000
_publ_section_title
;
Structure prediction by ZEFSAII (Michael W. Deem and Ramdas Pophale) SiO2 
 PCOD9311000
Probable space group: P 2 2 21
;
_chemical_formula_sum "Si O2"
_cell_formula_units_Z 12
_cell_length_a 10.894151
_cell_length_b 9.352380
_cell_length_c 5.271697
_cell_angle_alpha 90.000000
_cell_angle_beta 90.000000
_cell_angle_gamma 90.000000
_cell_volume 537.113385
_symmetry_space_group_name_H-M "P 2 2 21"
_symmetry_group_IT_number 17
_symmetry_cell_setting 'orthorhombic'
loop_
_space_group_symop_operation_xyz
x,y,z
-x,-y,1/2+z
x,-y,-z
-x,y,1/2-z
loop_
_atom_site_type_symbol
_atom_site_label
_atom_site_fract_x
_atom_site_fract_y
_atom_site_fract_z
Si Si1 0.885072 0.665825 0.073691
Si Si2 0.855856 0.071915 0.248323
Si Si3 0.367526 0.598943 0.247872
O O1 0.759789 0.681894 0.233123
O O2 0.000000 0.710499 0.250000
O O3 0.903716 0.500000 0.000000
O O4 0.861870 0.760052 0.821432
O O5 0.000000 0.031801 0.250000
O O6 0.802865 0.000000 0.500000
O O7 0.798319 0.000000 0.000000
O O8 0.367819 0.500000 0.500000
O O9 0.500000 0.676209 0.250000
O O10 0.362608 0.500000 0.000000
#
# Coordination Sequence:
#
# PCOD9311000 Si02
#       3
#     4   4   4
#     4  11  21  34  61  98 129 157 206 274 318 353
#     4  10  21  37  54  79 121 166 199 235 302 381
#     4   9  19  35  54  83 126 167 198 243 318 388
#
# _framework density 22.341650000000001
#
# number of rings (size 3 to 8) (size 9 to 14) (size 15 to 20)
#    0.000    2.000    0.000    5.000    0.000    8.000 
#    0.000    0.000    0.000    0.000    0.000   35.000 
#    0.000    0.000    0.000    0.000    0.000    0.000 
#
# Total GULP energy -66913.524991 kJ/mol
# GULP energy per Si atom -5576.127083 kJ/mol
# Density = 2.229080 g / cm^3
# Si number density = 22.341650 Si / 1000 Ang^3
#
#
#
# Elastic Constant Matrix: (Units=GPa)
#
#
# Indices 1 2 3 4 5 6 
#
# 1 175.6748 -0.8944 28.4317 0.0000 0.0000 0.0000
# 2 -0.8944 149.5692 60.5455 0.0000 0.0000 0.0000
# 3 28.4317 60.5455 194.8495 0.0000 0.0000 0.0000
# 4 0.0000 0.0000 0.0000 37.2168 0.0000 0.0000
# 5 0.0000 0.0000 0.0000 0.0000 29.5251 0.0000
# 6 0.0000 0.0000 0.0000 0.0000 0.0000 -4.4176
#
#
#
# Elastic Compliance Matrix: (Units=1/GPa)
#
#
# Indices 1 2 3 4 5 6 
#
# 1 0.005855 0.000436 -0.000990 0.000000 0.000000 0.000000
# 2 0.000436 0.007680 -0.002450 0.000000 0.000000 0.000000
# 3 -0.000990 -0.002450 0.006038 0.000000 0.000000 0.000000
# 4 0.000000 0.000000 0.000000 0.026870 0.000000 0.000000
# 5 0.000000 0.000000 0.000000 0.000000 0.033869 0.000000
# 6 0.000000 0.000000 0.000000 0.000000 0.000000 -0.226368
#
#
# Mechanical properties :
#
#
# Convention : Reuss Voigt Hill
#
# Bulk Modulus (GPa) = 73.72083 77.36211 75.54147
# Shear Modulus (GPa) = -36.89321 41.26558 2.18619
#
# Velocity S-wave (km/s) = -4.06805 4.30237 0.99028
# Velocity P-wave (km/s) = 3.31712 7.70600 5.93236
#
# Compressibility (1/GPa) = 0.01356469
#
# Stress axis : x y z
#
# Youngs Moduli (GPa) = 170.80227 130.20407 165.62115
#
# Poissons Ratio (x) = -0.05672 0.16391
# Poissons Ratio (y) = -0.07441 0.40578
# Poissons Ratio (z) = 0.16904 0.31901
#
# Static dielectric constant tensor:
#      x y z
#    x 1.857900 0.000000 0.000000 
#    y 0.000000 1.879790 0.000000 
#    z 0.000000 0.000000 1.929810 
# 
# From -- ./inp_files/514.got.cif
#   From: 2010.05.17/outbox.cif.g08.bks.cpg/sg17_1_cif.got.tgz:514.got - 2010.06.03 22:34:06.
