data_PCOD9311634
_publ_section_title
;
Structure prediction by ZEFSAII (Michael W. Deem and Ramdas Pophale) SiO2 
 PCOD9311634
Probable space group: P 21 21 2
;
_chemical_formula_sum "Si O2"
_cell_formula_units_Z 20
_cell_length_a 11.231095
_cell_length_b 11.231089
_cell_length_c 6.727964
_cell_angle_alpha 90.000000
_cell_angle_beta 90.000000
_cell_angle_gamma 90.000000
_cell_volume 848.648071
_symmetry_space_group_name_H-M "P 21 21 2"
_symmetry_group_IT_number 18
_symmetry_cell_setting 'orthorhombic'
loop_
_space_group_symop_operation_xyz
x,y,z
-x,-y,z
1/2+x,1/2-y,-z
1/2-x,1/2+y,-z
loop_
_atom_site_type_symbol
_atom_site_label
_atom_site_fract_x
_atom_site_fract_y
_atom_site_fract_z
Si Si1 0.131010 0.631010 0.748311
Si Si2 0.594449 0.277434 0.287323
Si Si3 0.183237 0.316763 0.105612
Si Si4 0.000000 0.500000 0.108884
Si Si5 0.277434 0.405551 0.712676
Si Si6 0.000000 0.000000 0.500000
O O1 0.192727 0.516063 0.652865
O O2 0.016063 0.692727 0.652865
O O3 0.230685 0.730685 0.778142
O O4 0.080607 0.580607 0.959692
O O5 0.607339 0.265713 0.048123
O O6 0.715947 0.215947 0.359212
O O7 0.571787 0.407440 0.365620
O O8 0.265713 0.392661 0.951876
O O9 0.091914 0.408086 0.209019
O O10 0.407440 0.428213 0.634379
#
# Coordination Sequence:
#
# PCOD9311634 Si02
#       6
#     4   4   4   2   4   2
#     4  10  16  37  68  81 117 166 197 262 313 357
#     4   9  22  40  57  92 121 162 204 254 300 366
#     4   8  18  35  60  86 124 153 207 247 321 357
#     4   8  16  32  48  86 116 154 184 242 304 350
#     4   9  22  40  57  92 121 162 204 254 300 366
#     4  12  24  36  66  88 128 168 212 234 312 368
#
# _framework density 23.566894999999999
#
# number of rings (size 3 to 8) (size 9 to 14) (size 15 to 20)
#    1.200    1.600    2.000    0.000    2.800    6.400 
#    0.000    0.000    4.400    0.000    0.000    0.000 
#    0.000    0.000    0.000    0.000    0.000    0.000 
#
# Total GULP energy -111558.129405 kJ/mol
# GULP energy per Si atom -5577.906470 kJ/mol
# Density = 2.351326 g / cm^3
# Si number density = 23.566895 Si / 1000 Ang^3
#
#
#
# Elastic Constant Matrix: (Units=GPa)
#
#
# Indices 1 2 3 4 5 6 
#
# 1 108.0982 51.8544 23.4738 0.0000 0.0000 0.0000
# 2 51.8544 108.0967 23.4736 0.0000 0.0000 0.0000
# 3 23.4738 23.4736 46.4965 0.0000 0.0000 0.0000
# 4 0.0000 0.0000 0.0000 7.6934 0.0000 0.0000
# 5 0.0000 0.0000 0.0000 0.0000 7.6933 0.0000
# 6 0.0000 0.0000 0.0000 0.0000 0.0000 69.7816
#
#
#
# Elastic Compliance Matrix: (Units=1/GPa)
#
#
# Indices 1 2 3 4 5 6 
#
# 1 0.012560 -0.005220 -0.003705 0.000000 0.000000 0.000000
# 2 -0.005220 0.012560 -0.003705 0.000000 0.000000 0.000000
# 3 -0.003705 -0.003705 0.025248 0.000000 0.000000 0.000000
# 4 0.000000 0.000000 0.000000 0.129981 0.000000 0.000000
# 5 0.000000 0.000000 0.000000 0.000000 0.129984 0.000000
# 6 0.000000 0.000000 0.000000 0.000000 0.000000 0.014330
#
#
# Mechanical properties :
#
#
# Convention : Reuss Voigt Hill
#
# Bulk Modulus (GPa) = 39.83131 51.14389 45.48760
# Shear Modulus (GPa) = 13.95505 27.95964 20.95734
#
# Velocity S-wave (km/s) = 2.43605 3.44814 2.98530
# Velocity P-wave (km/s) = 4.98503 6.13202 5.58803
#
# Compressibility (1/GPa) = 0.02510588
#
# Stress axis : x y z
#
# Youngs Moduli (GPa) = 79.62025 79.61917 39.60672
#
# Poissons Ratio (x) = 0.41563 0.14675
# Poissons Ratio (y) = 0.41564 0.14676
# Poissons Ratio (z) = 0.29502 0.29501
#
# Static dielectric constant tensor:
#      x y z
#    x 1.890640 0.000000 0.000000 
#    y 0.000000 1.890650 0.000000 
#    z 0.000000 0.000000 1.931300 
# 
# From -- ./inp_files/3708.got.cif
#   From: 2010.05.17/outbox.cif.g08.bks.cpg/sg18_2_cif.got.tgz:3708.got - 2010.06.03 22:40:56.
