data_PCOD9311006
_publ_section_title
;
Structure prediction by ZEFSAII (Michael W. Deem and Ramdas Pophale) SiO2 
 PCOD9311006
Probable space group: P 2 2 21
;
_chemical_formula_sum "Si O2"
_cell_formula_units_Z 24
_cell_length_a 5.481274
_cell_length_b 13.165680
_cell_length_c 15.914014
_cell_angle_alpha 90.000000
_cell_angle_beta 90.000000
_cell_angle_gamma 90.000000
_cell_volume 1148.430038
_symmetry_space_group_name_H-M "P 2 2 21"
_symmetry_group_IT_number 17
_symmetry_cell_setting 'orthorhombic'
loop_
_space_group_symop_operation_xyz
x,y,z
-x,-y,1/2+z
x,-y,-z
-x,y,1/2-z
loop_
_atom_site_type_symbol
_atom_site_label
_atom_site_fract_x
_atom_site_fract_y
_atom_site_fract_z
Si Si1 0.300802 0.817841 0.584715
Si Si2 0.337150 0.980447 0.332945
Si Si3 0.748790 0.391569 0.803592
Si Si4 0.306061 0.102674 0.975069
Si Si5 0.749033 0.376562 0.196405
Si Si6 0.085545 0.797683 0.400570
O O1 0.579105 0.841200 0.555491
O O2 0.259053 0.710132 0.626721
O O3 0.161506 0.821987 0.496478
O O4 0.228019 0.908876 0.647485
O O5 0.500000 0.983026 0.250000
O O6 0.496710 0.952060 0.415053
O O7 0.152014 0.886839 0.335542
O O8 0.500000 0.374696 0.750000
O O9 0.740020 0.507327 0.836282
O O10 0.789173 0.305158 0.872576
O O11 0.000000 0.384091 0.750000
O O12 0.201774 0.190200 0.913966
O O13 0.154340 0.000000 0.000000
O O14 0.500000 0.363214 0.250000
O O15 0.000000 0.366508 0.250000
#
# Coordination Sequence:
#
# PCOD9311006 Si02
#       6
#     4   4   4   4   4   4
#     4  10  22  39  62  89 128 168 215 265 324 386
#     4  10  21  37  57  91 124 166 215 261 319 383
#     4  10  24  43  67  94 128 166 217 271 323 382
#     4   9  20  37  57  89 131 167 207 262 318 384
#     4  10  23  45  67  93 127 167 215 273 323 379
#     4  11  22  36  62  89 130 169 211 264 324 385
#
# _framework density 20.898095000000001
#
# number of rings (size 3 to 8) (size 9 to 14) (size 15 to 20)
#    0.000    2.000    0.000    3.500    9.333    0.667 
#    3.000    0.000    0.000    0.000    0.000    0.000 
#    0.000    0.000    0.000    0.000    0.000    0.000 
#
# Total GULP energy -133670.909113 kJ/mol
# GULP energy per Si atom -5569.621213 kJ/mol
# Density = 2.085053 g / cm^3
# Si number density = 20.898095 Si / 1000 Ang^3
#
#
#
# Elastic Constant Matrix: (Units=GPa)
#
#
# Indices 1 2 3 4 5 6 
#
# 1 70.4343 40.5519 13.8598 0.0000 0.0000 0.0000
# 2 40.5519 130.9727 54.3432 0.0000 0.0000 0.0000
# 3 13.8598 54.3432 70.6069 0.0000 0.0000 0.0000
# 4 0.0000 0.0000 0.0000 34.8456 0.0000 0.0000
# 5 0.0000 0.0000 0.0000 0.0000 28.1408 0.0000
# 6 0.0000 0.0000 0.0000 0.0000 0.0000 15.5876
#
#
#
# Elastic Compliance Matrix: (Units=1/GPa)
#
#
# Indices 1 2 3 4 5 6 
#
# 1 0.017332 -0.005810 0.001070 0.000000 0.000000 0.000000
# 2 -0.005810 0.013165 -0.008992 0.000000 0.000000 0.000000
# 3 0.001070 -0.008992 0.020874 0.000000 0.000000 0.000000
# 4 0.000000 0.000000 0.000000 0.028698 0.000000 0.000000
# 5 0.000000 0.000000 0.000000 0.000000 0.035536 0.000000
# 6 0.000000 0.000000 0.000000 0.000000 0.000000 0.064154
#
#
# Mechanical properties :
#
#
# Convention : Reuss Voigt Hill
#
# Bulk Modulus (GPa) = 41.83076 54.39153 48.11115
# Shear Modulus (GPa) = 23.23498 26.59874 24.91686
#
# Velocity S-wave (km/s) = 3.33802 3.57148 3.45672
# Velocity P-wave (km/s) = 5.90902 6.56436 6.24529
#
# Compressibility (1/GPa) = 0.02390585
#
# Stress axis : x y z
#
# Youngs Moduli (GPa) = 57.69552 75.95777 47.90680
#
# Poissons Ratio (x) = 0.44134 -0.05125
# Poissons Ratio (y) = 0.33523 0.43079
# Poissons Ratio (z) = -0.06172 0.68303
#
# Static dielectric constant tensor:
#      x y z
#    x 2.105870 0.000000 0.000000 
#    y 0.000000 1.780830 0.000000 
#    z 0.000000 0.000000 1.736250 
# 
# From -- ./inp_files/9032.got.cif
#   From: 2010.05.17/outbox.cif.g08.bks.cpg/sg17_5_cif.got.tgz:9032.got - 2010.06.03 22:34:06.
