data_PCOD9311247
_publ_section_title
;
Structure prediction by ZEFSAII (Michael W. Deem and Ramdas Pophale) SiO2 
 PCOD9311247
Probable space group: P 2 2 21
;
_chemical_formula_sum "Si O2"
_cell_formula_units_Z 18
_cell_length_a 5.021409
_cell_length_b 5.696094
_cell_length_c 25.150375
_cell_angle_alpha 90.000000
_cell_angle_beta 90.000000
_cell_angle_gamma 90.000000
_cell_volume 719.361530
_symmetry_space_group_name_H-M "P 2 2 21"
_symmetry_group_IT_number 17
_symmetry_cell_setting 'orthorhombic'
loop_
_space_group_symop_operation_xyz
x,y,z
-x,-y,1/2+z
x,-y,-z
-x,y,1/2-z
loop_
_atom_site_type_symbol
_atom_site_label
_atom_site_fract_x
_atom_site_fract_y
_atom_site_fract_z
Si Si1 0.540408 0.200855 0.858088
Si Si2 0.887398 0.177983 0.200888
Si Si3 0.612519 0.129766 0.444068
Si Si4 0.086326 0.605947 0.595228
Si Si5 0.500000 0.549036 0.250000
O O1 0.688644 0.986316 0.830379
O O2 0.344095 0.079883 0.900416
O O3 0.753676 0.368315 0.888737
O O4 0.425149 0.323694 0.805256
O O5 0.000000 0.029620 0.250000
O O6 0.031880 0.301507 0.151942
O O7 0.736573 0.380214 0.232559
O O8 0.829019 0.660166 0.559197
O O9 0.617094 0.000000 0.500000
O O10 0.322864 0.238414 0.430861
#
# Coordination Sequence:
#
# PCOD9311247 Si02
#       5
#     4   4   4   4   2
#     4  10  24  44  71 106 146 194 242 308 378 441
#     4  10  23  40  65  98 143 187 236 295 361 444
#     4  11  25  50  75 105 146 195 248 316 367 438
#     4  10  25  44  72 105 143 186 249 297 369 448
#     4  10  22  42  64 102 140 192 244 296 374 456
#
# _framework density 25.022186999999999
#
# number of rings (size 3 to 8) (size 9 to 14) (size 15 to 20)
#    0.000    1.778    0.000    1.333   12.444    8.000 
#    4.000    2.222    0.000    0.000    0.000    0.000 
#    0.000    0.000    0.000    0.000    0.000    0.000 
#
# Total GULP energy -100408.677334 kJ/mol
# GULP energy per Si atom -5578.259852 kJ/mol
# Density = 2.496524 g / cm^3
# Si number density = 25.022187 Si / 1000 Ang^3
#
#
#
# Elastic Constant Matrix: (Units=GPa)
#
#
# Indices 1 2 3 4 5 6 
#
# 1 78.6397 13.6155 32.3796 0.0000 0.0000 0.0000
# 2 13.6155 82.4055 47.0840 0.0000 0.0000 0.0000
# 3 32.3796 47.0840 118.9839 0.0000 0.0000 0.0000
# 4 0.0000 0.0000 0.0000 -23.5897 0.0000 0.0000
# 5 0.0000 0.0000 0.0000 0.0000 28.9445 0.0000
# 6 0.0000 0.0000 0.0000 0.0000 0.0000 48.4399
#
#
#
# Elastic Compliance Matrix: (Units=1/GPa)
#
#
# Indices 1 2 3 4 5 6 
#
# 1 0.014323 -0.000180 -0.003826 0.000000 0.000000 0.000000
# 2 -0.000180 0.015683 -0.006157 0.000000 0.000000 0.000000
# 3 -0.003826 -0.006157 0.011882 0.000000 0.000000 0.000000
# 4 0.000000 0.000000 0.000000 -0.042391 0.000000 0.000000
# 5 0.000000 0.000000 0.000000 0.000000 0.034549 0.000000
# 6 0.000000 0.000000 0.000000 0.000000 0.000000 0.020644
#
#
# Mechanical properties :
#
#
# Convention : Reuss Voigt Hill
#
# Bulk Modulus (GPa) = 46.38046 51.79858 49.08952
# Shear Modulus (GPa) = 60.82460 23.22227 42.02344
#
# Velocity S-wave (km/s) = 4.93569 3.04972 4.10255
# Velocity P-wave (km/s) = 7.14544 5.75735 6.48862
#
# Compressibility (1/GPa) = 0.02156080
#
# Stress axis : x y z
#
# Youngs Moduli (GPa) = 69.81801 63.76433 84.15951
#
# Poissons Ratio (x) = 0.01149 0.32203
# Poissons Ratio (y) = 0.01258 0.51816
# Poissons Ratio (z) = 0.26716 0.39259
#
# Static dielectric constant tensor:
#      x y z
#    x 2.565140 0.000000 0.000000 
#    y 0.000000 2.057440 0.000000 
#    z 0.000000 0.000000 1.579220 
# 
# From -- ./inp_files/10524.got.cif
#   From: 2010.05.17/outbox.cif.g08.bks.cpg/sg17_6_cif.got.tgz:10524.got - 2010.06.03 22:34:06.
