data_PCOD9311760
_publ_section_title
;
Structure prediction by ZEFSAII (Michael W. Deem and Ramdas Pophale) SiO2 
 PCOD9311760
Probable space group: P 21 21 2
;
_chemical_formula_sum "Si O2"
_cell_formula_units_Z 30
_cell_length_a 13.221657
_cell_length_b 12.341500
_cell_length_c 8.257586
_cell_angle_alpha 90.000000
_cell_angle_beta 90.000000
_cell_angle_gamma 90.000000
_cell_volume 1347.432255
_symmetry_space_group_name_H-M "P 21 21 2"
_symmetry_group_IT_number 18
_symmetry_cell_setting 'orthorhombic'
loop_
_space_group_symop_operation_xyz
x,y,z
-x,-y,z
1/2+x,1/2-y,-z
1/2-x,1/2+y,-z
loop_
_atom_site_type_symbol
_atom_site_label
_atom_site_fract_x
_atom_site_fract_y
_atom_site_fract_z
Si Si1 0.000000 0.000000 0.851730
Si Si2 0.106182 0.456739 0.627753
Si Si3 0.242161 0.618806 0.429988
Si Si4 0.116701 0.968226 0.265476
Si Si5 0.332954 0.411062 0.362450
Si Si6 0.258416 0.297807 0.821419
Si Si7 0.862361 0.724534 0.374543
Si Si8 0.133066 0.160354 0.071827
O O1 0.065847 0.920331 0.737769
O O2 0.935395 0.915519 0.958602
O O3 0.165224 0.560734 0.552982
O O4 0.174434 0.382334 0.747720
O O5 0.088933 0.372778 0.476831
O O6 0.000000 0.500000 0.694202
O O7 0.273815 0.520373 0.314237
O O8 0.205092 0.715308 0.317651
O O9 0.343513 0.671479 0.510056
O O10 0.146167 0.929334 0.445795
O O11 0.145386 0.872173 0.142586
O O12 0.178299 0.069769 0.193003
O O13 0.000000 0.000000 0.270438
O O14 0.254002 0.314294 0.339445
O O15 0.208875 0.229655 0.963693
O O16 0.913747 0.757704 0.206417
#
# Coordination Sequence:
#
# PCOD9311760 Si02
#       8
#     2   4   4   4   4   4   4   4
#     4  12  26  40  64 108 140 176 234 308 348 424
#     4  10  22  41  66  97 132 175 244 285 333 438
#     4  10  18  41  65  92 127 180 231 278 339 422
#     4  12  24  43  72 104 141 183 251 303 342 437
#     4  11  21  41  69  98 132 184 242 291 336 431
#     4  11  24  43  67  99 142 189 224 294 386 414
#     4  10  22  41  66  93 134 183 228 274 365 424
#     4  12  26  41  66 102 147 174 227 301 376 430
#
# _framework density 22.264569999999999
#
# number of rings (size 3 to 8) (size 9 to 14) (size 15 to 20)
#    0.000    1.067    8.000    0.000    1.867    2.133 
#    0.000    2.000    0.000    0.000    0.000    0.000 
#    0.000    0.000    0.000    0.000    0.000    0.000 
#
# Total GULP energy -167181.229216 kJ/mol
# GULP energy per Si atom -5572.707641 kJ/mol
# Density = 2.221389 g / cm^3
# Si number density = 22.264570 Si / 1000 Ang^3
#
#
#
# Elastic Constant Matrix: (Units=GPa)
#
#
# Indices 1 2 3 4 5 6 
#
# 1 68.2466 26.6936 26.7614 0.0000 0.0000 0.0000
# 2 26.6936 117.1247 34.3736 0.0000 0.0000 0.0000
# 3 26.7614 34.3736 86.7817 0.0000 0.0000 0.0000
# 4 0.0000 0.0000 0.0000 31.4254 0.0000 0.0000
# 5 0.0000 0.0000 0.0000 0.0000 29.2870 0.0000
# 6 0.0000 0.0000 0.0000 0.0000 0.0000 29.4737
#
#
#
# Elastic Compliance Matrix: (Units=1/GPa)
#
#
# Indices 1 2 3 4 5 6 
#
# 1 0.017394 -0.002704 -0.004293 0.000000 0.000000 0.000000
# 2 -0.002704 0.010081 -0.003159 0.000000 0.000000 0.000000
# 3 -0.004293 -0.003159 0.014098 0.000000 0.000000 0.000000
# 4 0.000000 0.000000 0.000000 0.031821 0.000000 0.000000
# 5 0.000000 0.000000 0.000000 0.000000 0.034145 0.000000
# 6 0.000000 0.000000 0.000000 0.000000 0.000000 0.033929
#
#
# Mechanical properties :
#
#
# Convention : Reuss Voigt Hill
#
# Bulk Modulus (GPa) = 47.03447 49.75667 48.39557
# Shear Modulus (GPa) = 29.60899 30.32553 29.96726
#
# Velocity S-wave (km/s) = 3.65070 3.69460 3.67272
# Velocity P-wave (km/s) = 6.24029 6.37154 6.30626
#
# Compressibility (1/GPa) = 0.02126100
#
# Stress axis : x y z
#
# Youngs Moduli (GPa) = 57.49184 99.19239 70.93081
#
# Poissons Ratio (x) = 0.26825 0.30448
# Poissons Ratio (y) = 0.15548 0.22409
# Poissons Ratio (z) = 0.24679 0.31337
#
# Static dielectric constant tensor:
#      x y z
#    x 1.876600 0.000000 0.000000 
#    y 0.000000 1.877190 0.000000 
#    z 0.000000 0.000000 1.895070 
# 
# From -- ./inp_files/4276.got.cif
#   From: 2010.05.17/outbox.cif.g08.bks.cpg/sg18_3_cif.got.tgz:4276.got - 2010.06.03 22:40:56.
