data_PCOD9311334
_publ_section_title
;
Structure prediction by ZEFSAII (Michael W. Deem and Ramdas Pophale) SiO2 
 PCOD9311334
Probable space group: P 2 2 21
;
_chemical_formula_sum "Si O2"
_cell_formula_units_Z 30
_cell_length_a 5.105493
_cell_length_b 12.630101
_cell_length_c 19.296361
_cell_angle_alpha 90.000000
_cell_angle_beta 90.000000
_cell_angle_gamma 90.000000
_cell_volume 1244.285167
_symmetry_space_group_name_H-M "P 2 2 21"
_symmetry_group_IT_number 17
_symmetry_cell_setting 'orthorhombic'
loop_
_space_group_symop_operation_xyz
x,y,z
-x,-y,1/2+z
x,-y,-z
-x,y,1/2-z
loop_
_atom_site_type_symbol
_atom_site_label
_atom_site_fract_x
_atom_site_fract_y
_atom_site_fract_z
Si Si1 0.722046 0.203355 0.125797
Si Si2 0.871578 0.213287 0.973939
Si Si3 0.660893 0.145979 0.678515
Si Si4 0.541224 0.352563 0.877347
Si Si5 0.239704 0.327093 0.162632
Si Si6 0.840582 0.959705 0.123472
Si Si7 0.247229 0.605631 0.988230
Si Si8 0.500000 0.504148 0.750000
O O1 0.453292 0.232106 0.164745
O O2 0.949573 0.281238 0.153549
O O3 0.829836 0.084684 0.133117
O O4 0.689863 0.216152 0.042209
O O5 0.766017 0.275985 0.906780
O O6 0.924892 0.094742 0.949068
O O7 0.115423 0.281852 0.997726
O O8 0.500000 0.147809 0.750000
O O9 0.668200 0.267050 0.652031
O O10 0.460496 0.077895 0.631667
O O11 0.943883 0.092054 0.674717
O O12 0.450472 0.406476 0.948954
O O13 0.596653 0.431276 0.814061
O O14 0.283226 0.415334 0.220473
O O15 0.319121 0.386447 0.091495
O O16 0.070898 0.500000 0.000000
#
# Coordination Sequence:
#
# PCOD9311334 Si02
#       8
#     4   4   4   4   4   4   4   2
#     4  11  24  47  69 102 139 189 227 294 343 421
#     4  10  23  40  71 105 138 174 241 296 351 421
#     4  11  23  43  65 103 140 179 231 290 349 429
#     4  11  22  43  69 101 140 183 238 296 359 417
#     4  11  26  46  69 100 141 184 241 279 349 432
#     4  11  23  42  71 101 137 180 233 290 355 409
#     4  11  21  41  69  99 139 183 231 287 361 415
#     4  12  26  48  70 104 144 190 238 294 360 438
#
# _framework density 24.110230999999999
#
# number of rings (size 3 to 8) (size 9 to 14) (size 15 to 20)
#    0.000    1.067    4.667    1.600    0.000    3.200 
#    9.600    2.667    0.000    0.000    0.000    0.000 
#    0.000    0.000    0.000    0.000    0.000    0.000 
#
# Total GULP energy -167440.452185 kJ/mol
# GULP energy per Si atom -5581.348406 kJ/mol
# Density = 2.405535 g / cm^3
# Si number density = 24.110231 Si / 1000 Ang^3
#
#
#
# Elastic Constant Matrix: (Units=GPa)
#
#
# Indices 1 2 3 4 5 6 
#
# 1 79.7277 17.8328 18.9649 0.0000 0.0000 0.0000
# 2 17.8328 128.6260 43.5932 0.0000 0.0000 0.0000
# 3 18.9649 43.5932 113.9750 0.0000 0.0000 0.0000
# 4 0.0000 0.0000 0.0000 32.4654 0.0000 0.0000
# 5 0.0000 0.0000 0.0000 0.0000 27.1744 0.0000
# 6 0.0000 0.0000 0.0000 0.0000 0.0000 13.5019
#
#
#
# Elastic Compliance Matrix: (Units=1/GPa)
#
#
# Indices 1 2 3 4 5 6 
#
# 1 0.013232 -0.001250 -0.001724 0.000000 0.000000 0.000000
# 2 -0.001250 0.009051 -0.003254 0.000000 0.000000 0.000000
# 3 -0.001724 -0.003254 0.010305 0.000000 0.000000 0.000000
# 4 0.000000 0.000000 0.000000 0.030802 0.000000 0.000000
# 5 0.000000 0.000000 0.000000 0.000000 0.036799 0.000000
# 6 0.000000 0.000000 0.000000 0.000000 0.000000 0.074064
#
#
# Mechanical properties :
#
#
# Convention : Reuss Voigt Hill
#
# Bulk Modulus (GPa) = 49.67000 53.67894 51.67447
# Shear Modulus (GPa) = 25.85060 30.75754 28.30407
#
# Velocity S-wave (km/s) = 3.27797 3.57558 3.43000
# Velocity P-wave (km/s) = 5.91378 6.27365 6.09637
#
# Compressibility (1/GPa) = 0.02013288
#
# Stress axis : x y z
#
# Youngs Moduli (GPa) = 75.57240 110.49092 97.03960
#
# Poissons Ratio (x) = 0.13816 0.16725
# Poissons Ratio (y) = 0.09450 0.31573
# Poissons Ratio (z) = 0.13025 0.35949
#
# Static dielectric constant tensor:
#      x y z
#    x 1.960520 0.000000 0.000000 
#    y 0.000000 1.994870 0.000000 
#    z 0.000000 0.000000 2.004230 
# 
# From -- ./inp_files/9955.got.cif
#   From: 2010.05.17/outbox.cif.g08.bks.cpg/sg17_5_cif.got.tgz:9955.got - 2010.06.03 22:34:06.
