data_PCOD9311678
_publ_section_title
;
Structure prediction by ZEFSAII (Michael W. Deem and Ramdas Pophale) SiO2 
 PCOD9311678
Probable space group: P 21 21 2
;
_chemical_formula_sum "Si O2"
_cell_formula_units_Z 32
_cell_length_a 7.958358
_cell_length_b 22.649163
_cell_length_c 9.231332
_cell_angle_alpha 90.000000
_cell_angle_beta 90.000000
_cell_angle_gamma 90.000000
_cell_volume 1663.948955
_symmetry_space_group_name_H-M "P 21 21 2"
_symmetry_group_IT_number 18
_symmetry_cell_setting 'orthorhombic'
loop_
_space_group_symop_operation_xyz
x,y,z
-x,-y,z
1/2+x,1/2-y,-z
1/2-x,1/2+y,-z
loop_
_atom_site_type_symbol
_atom_site_label
_atom_site_fract_x
_atom_site_fract_y
_atom_site_fract_z
Si Si1 0.977323 0.815879 0.178281
Si Si2 0.440724 0.560374 0.927473
Si Si3 0.457772 0.289053 0.296952
Si Si4 0.670032 0.592431 0.195626
Si Si5 0.963711 0.353642 0.238467
Si Si6 0.182969 0.527365 0.173309
Si Si7 0.603367 0.239637 0.559701
Si Si8 0.332754 0.238695 0.002361
O O1 0.966623 0.791861 0.339226
O O2 0.838782 0.780671 0.081087
O O3 0.926084 0.883548 0.173073
O O4 0.150560 0.796781 0.099423
O O5 0.500000 0.500000 0.854780
O O6 0.583811 0.579490 0.042633
O O7 0.279658 0.546370 0.027220
O O8 0.451494 0.359777 0.272776
O O9 0.600595 0.260793 0.395354
O O10 0.290456 0.273858 0.387433
O O11 0.443181 0.256272 0.143516
O O12 0.849560 0.625339 0.189218
O O13 0.711875 0.525654 0.249578
O O14 0.994658 0.316585 0.385159
O O15 0.852602 0.412130 0.258274
O O16 0.889276 0.313116 0.108695
O O17 0.000000 0.500000 0.139875
#
# Coordination Sequence:
#
# PCOD9311678 Si02
#       8
#     4   4   4   4   4   4   4   4
#     4  10  19  33  49  78 100 133 170 216 264 319
#     4  10  18  30  50  76 105 132 168 214 266 307
#     4  10  19  35  47  74 106 140 175 215 259 318
#     4   9  18  31  50  76 105 129 173 220 258 311
#     4   9  17  33  50  78 102 130 172 215 270 318
#     4   9  17  30  52  78 102 133 169 221 265 312
#     4   9  21  32  49  70 107 138 171 214 264 309
#     4  10  19  30  52  74 106 130 168 216 263 317
#
# _framework density 19.231361
#
# number of rings (size 3 to 8) (size 9 to 14) (size 15 to 20)
#    0.000    2.500    2.500    0.750    0.000    3.000 
#    0.000    0.000    0.000    5.250    0.000    2.625 
#    0.000    0.000    0.000    0.000    0.000    0.000 
#
# Total GULP energy -178144.858406 kJ/mol
# GULP energy per Si atom -5567.026825 kJ/mol
# Density = 1.918759 g / cm^3
# Si number density = 19.231361 Si / 1000 Ang^3
#
#
#
# Elastic Constant Matrix: (Units=GPa)
#
#
# Indices 1 2 3 4 5 6 
#
# 1 33.3762 13.3437 6.8129 0.0000 0.0000 0.0000
# 2 13.3437 137.0703 23.2334 0.0000 0.0000 0.0000
# 3 6.8129 23.2334 42.1070 0.0000 0.0000 0.0000
# 4 0.0000 0.0000 0.0000 15.7935 0.0000 0.0000
# 5 0.0000 0.0000 0.0000 0.0000 20.3659 0.0000
# 6 0.0000 0.0000 0.0000 0.0000 0.0000 24.3733
#
#
#
# Elastic Compliance Matrix: (Units=1/GPa)
#
#
# Indices 1 2 3 4 5 6 
#
# 1 0.031711 -0.002446 -0.003781 0.000000 0.000000 0.000000
# 2 -0.002446 0.008237 -0.004149 0.000000 0.000000 0.000000
# 3 -0.003781 -0.004149 0.026650 0.000000 0.000000 0.000000
# 4 0.000000 0.000000 0.000000 0.063317 0.000000 0.000000
# 5 0.000000 0.000000 0.000000 0.000000 0.049102 0.000000
# 6 0.000000 0.000000 0.000000 0.000000 0.000000 0.041029
#
#
# Mechanical properties :
#
#
# Convention : Reuss Voigt Hill
#
# Bulk Modulus (GPa) = 21.81237 33.25927 27.53582
# Shear Modulus (GPa) = 19.52512 23.38410 21.45461
#
# Velocity S-wave (km/s) = 3.18979 3.49081 3.34369
# Velocity P-wave (km/s) = 4.99330 5.79478 5.40891
#
# Compressibility (1/GPa) = 0.04584554
#
# Stress axis : x y z
#
# Youngs Moduli (GPa) = 31.53449 121.40441 37.52318
#
# Poissons Ratio (x) = 0.29698 0.14188
# Poissons Ratio (y) = 0.07714 0.15569
# Poissons Ratio (z) = 0.11924 0.50372
#
# Static dielectric constant tensor:
#      x y z
#    x 1.774940 0.000000 0.000000 
#    y 0.000000 1.734420 0.000000 
#    z 0.000000 0.000000 1.634690 
# 
# From -- ./inp_files/3539.got.cif
#   From: 2010.05.17/outbox.cif.g08.bks.cpg/sg18_2_cif.got.tgz:3539.got - 2010.06.03 22:40:56.
