data_PCOD9311742
_publ_section_title
;
Structure prediction by ZEFSAII (Michael W. Deem and Ramdas Pophale) SiO2 
 PCOD9311742
Probable space group: P 21 21 2
;
_chemical_formula_sum "Si O2"
_cell_formula_units_Z 26
_cell_length_a 10.507729
_cell_length_b 14.888316
_cell_length_c 7.731193
_cell_angle_alpha 90.000000
_cell_angle_beta 90.000000
_cell_angle_gamma 90.000000
_cell_volume 1209.486309
_symmetry_space_group_name_H-M "P 21 21 2"
_symmetry_group_IT_number 18
_symmetry_cell_setting 'orthorhombic'
loop_
_space_group_symop_operation_xyz
x,y,z
-x,-y,z
1/2+x,1/2-y,-z
1/2-x,1/2+y,-z
loop_
_atom_site_type_symbol
_atom_site_label
_atom_site_fract_x
_atom_site_fract_y
_atom_site_fract_z
Si Si1 0.856194 0.726209 0.989616
Si Si2 0.500000 0.500000 0.135463
Si Si3 0.755465 0.409364 0.140596
Si Si4 0.379499 0.385740 0.845873
Si Si5 0.497707 0.148712 0.309196
Si Si6 0.476182 0.207026 0.688907
Si Si7 0.686975 0.987080 0.214221
O O1 0.742673 0.662138 0.930552
O O2 0.970206 0.713253 0.850404
O O3 0.801145 0.825509 0.968390
O O4 0.910853 0.696614 0.172994
O O5 0.633562 0.464184 0.218937
O O6 0.462047 0.419573 0.005255
O O7 0.821564 0.471144 0.993433
O O8 0.861590 0.363001 0.263110
O O9 0.434263 0.309838 0.722260
O O10 0.327410 0.475266 0.752494
O O11 0.517885 0.192388 0.493624
O O12 0.357943 0.105591 0.297515
O O13 0.593038 0.064656 0.282112
#
# Coordination Sequence:
#
# PCOD9311742 Si02
#       7
#     4   2   4   4   4   4   4
#     4  10  20  40  62  95 122 166 213 274 310 389
#     4  10  18  38  60  94 124 172 208 272 318 394
#     4  10  20  38  68  88 131 170 216 258 341 382
#     4   9  20  37  62  88 126 166 213 257 332 369
#     4  10  21  40  63  89 133 154 218 271 318 373
#     4  11  21  40  65  98 117 179 220 259 322 408
#     4   9  19  41  57  87 127 167 194 283 312 367
#
# _framework density 21.496731
#
# number of rings (size 3 to 8) (size 9 to 14) (size 15 to 20)
#    0.000    2.154    3.077    0.000    0.000    0.000 
#   24.923    1.538    0.000    0.923    0.000    0.000 
#    0.000    0.000    0.000    0.000    0.000    0.000 
#
# Total GULP energy -144872.834105 kJ/mol
# GULP energy per Si atom -5572.032081 kJ/mol
# Density = 2.144780 g / cm^3
# Si number density = 21.496731 Si / 1000 Ang^3
#
#
#
# Elastic Constant Matrix: (Units=GPa)
#
#
# Indices 1 2 3 4 5 6 
#
# 1 36.1566 5.3773 -14.1709 0.0000 0.0000 0.0000
# 2 5.3773 68.6816 8.6922 0.0000 0.0000 0.0000
# 3 -14.1709 8.6922 38.3111 0.0000 0.0000 0.0000
# 4 0.0000 0.0000 0.0000 20.1577 0.0000 0.0000
# 5 0.0000 0.0000 0.0000 0.0000 -0.1231 0.0000
# 6 0.0000 0.0000 0.0000 0.0000 0.0000 31.1528
#
#
#
# Elastic Compliance Matrix: (Units=1/GPa)
#
#
# Indices 1 2 3 4 5 6 
#
# 1 0.033548 -0.004321 0.013389 0.000000 0.000000 0.000000
# 2 -0.004321 0.015547 -0.005126 0.000000 0.000000 0.000000
# 3 0.013389 -0.005126 0.032218 0.000000 0.000000 0.000000
# 4 0.000000 0.000000 0.000000 0.049609 0.000000 0.000000
# 5 0.000000 0.000000 0.000000 0.000000 -8.126558 0.000000
# 6 0.000000 0.000000 0.000000 0.000000 0.000000 0.032100
#
#
# Mechanical properties :
#
#
# Convention : Reuss Voigt Hill
#
# Bulk Modulus (GPa) = 11.21105 15.88295 13.54700
# Shear Modulus (GPa) = -0.62959 19.78754 9.57897
#
# Velocity S-wave (km/s) = -0.54177 3.03725 2.11322
# Velocity P-wave (km/s) = 2.19891 4.43897 3.50283
#
# Compressibility (1/GPa) = 0.08919768
#
# Stress axis : x y z
#
# Youngs Moduli (GPa) = 29.80817 64.32135 31.03890
#
# Poissons Ratio (x) = 0.27794 -0.41559
# Poissons Ratio (y) = 0.12880 0.15910
# Poissons Ratio (z) = -0.39911 0.32969
#
# Static dielectric constant tensor:
#      x y z
#    x 1.939860 0.000000 0.000000 
#    y 0.000000 1.857600 0.000000 
#    z 0.000000 0.000000 1.735180 
# 
# From -- ./inp_files/3849.got.cif
#   From: 2010.05.17/outbox.cif.g08.bks.cpg/sg18_2_cif.got.tgz:3849.got - 2010.06.03 22:40:56.
