data_PCOD9311284
_publ_section_title
;
Structure prediction by ZEFSAII (Michael W. Deem and Ramdas Pophale) SiO2 
 PCOD9311284
Probable space group: P 2 2 21
;
_chemical_formula_sum "Si O2"
_cell_formula_units_Z 24
_cell_length_a 5.840707
_cell_length_b 17.150400
_cell_length_c 11.439839
_cell_angle_alpha 90.000000
_cell_angle_beta 90.000000
_cell_angle_gamma 90.000000
_cell_volume 1145.933950
_symmetry_space_group_name_H-M "P 2 2 21"
_symmetry_group_IT_number 17
_symmetry_cell_setting 'orthorhombic'
loop_
_space_group_symop_operation_xyz
x,y,z
-x,-y,1/2+z
x,-y,-z
-x,y,1/2-z
loop_
_atom_site_type_symbol
_atom_site_label
_atom_site_fract_x
_atom_site_fract_y
_atom_site_fract_z
Si Si1 0.350745 0.842125 0.475327
Si Si2 0.720454 0.588102 0.958505
Si Si3 0.250366 0.072910 0.298494
Si Si4 0.000000 0.342389 0.250000
Si Si5 0.035004 0.711094 0.385998
Si Si6 0.500000 0.922778 0.250000
Si Si7 0.350020 0.293467 0.075780
O O1 0.263156 0.907799 0.564087
O O2 0.145899 0.794236 0.416212
O O3 0.506467 0.873713 0.369326
O O4 0.479962 0.777745 0.554421
O O5 0.895516 0.604980 0.852720
O O6 0.483419 0.625023 0.915207
O O7 0.709270 0.500000 0.000000
O O8 0.799613 0.643594 0.064769
O O9 0.500000 0.104267 0.250000
O O10 0.000000 0.098410 0.250000
O O11 0.285927 0.981609 0.267000
O O12 0.190542 0.288502 0.189176
O O13 0.000000 0.702915 0.250000
O O14 0.805935 0.703663 0.460859
#
# Coordination Sequence:
#
# PCOD9311284 Si02
#       7
#     4   4   4   2   4   2   4
#     4  11  23  45  71 102 137 186 230 294 352 423
#     4  10  23  42  65  95 132 177 222 287 349 414
#     4  10  26  47  69 106 142 188 236 297 361 435
#     4  10  22  44  64  98 132 170 232 278 346 414
#     4  10  23  41  66 101 134 178 231 282 347 421
#     4  10  24  46  70 104 138 184 236 290 362 430
#     4  10  23  42  66  97 136 173 230 282 344 416
#
# _framework density 20.943615999999999
#
# number of rings (size 3 to 8) (size 9 to 14) (size 15 to 20)
#    0.500    1.333    0.000    2.000    3.500   10.667 
#   12.000    0.000    0.000    0.000    0.000    0.000 
#    0.000    0.000    0.000    0.000    0.000    0.000 
#
# Total GULP energy -133918.343227 kJ/mol
# GULP energy per Si atom -5579.930968 kJ/mol
# Density = 2.089595 g / cm^3
# Si number density = 20.943616 Si / 1000 Ang^3
#
#
#
# Elastic Constant Matrix: (Units=GPa)
#
#
# Indices 1 2 3 4 5 6 
#
# 1 90.5360 26.5784 39.4488 0.0000 0.0000 0.0000
# 2 26.5784 94.3469 50.9695 0.0000 0.0000 0.0000
# 3 39.4488 50.9695 155.3188 0.0000 0.0000 0.0000
# 4 0.0000 0.0000 0.0000 7.1129 0.0000 0.0000
# 5 0.0000 0.0000 0.0000 0.0000 23.1743 0.0000
# 6 0.0000 0.0000 0.0000 0.0000 0.0000 37.4600
#
#
#
# Elastic Compliance Matrix: (Units=1/GPa)
#
#
# Indices 1 2 3 4 5 6 
#
# 1 0.012800 -0.002248 -0.002513 0.000000 0.000000 0.000000
# 2 -0.002248 0.013278 -0.003786 0.000000 0.000000 0.000000
# 3 -0.002513 -0.003786 0.008319 0.000000 0.000000 0.000000
# 4 0.000000 0.000000 0.000000 0.140590 0.000000 0.000000
# 5 0.000000 0.000000 0.000000 0.000000 0.043151 0.000000
# 6 0.000000 0.000000 0.000000 0.000000 0.000000 0.026695
#
#
# Mechanical properties :
#
#
# Convention : Reuss Voigt Hill
#
# Bulk Modulus (GPa) = 57.79687 63.79945 60.79816
# Shear Modulus (GPa) = 18.67785 28.42979 23.55382
#
# Velocity S-wave (km/s) = 2.98957 3.68835 3.35719
# Velocity P-wave (km/s) = 6.29071 6.97619 6.64230
#
# Compressibility (1/GPa) = 0.01730198
#
# Stress axis : x y z
#
# Youngs Moduli (GPa) = 78.12217 75.31246 120.20315
#
# Poissons Ratio (x) = 0.16932 0.30211
# Poissons Ratio (y) = 0.17563 0.45513
# Poissons Ratio (z) = 0.19635 0.28516
#
# Static dielectric constant tensor:
#      x y z
#    x 1.893790 0.000000 0.000000 
#    y 0.000000 1.742860 0.000000 
#    z 0.000000 0.000000 1.623590 
# 
# From -- ./inp_files/6044.got.cif
#   From: 2010.05.17/outbox.cif.g08.bks.cpg/sg17_4_cif.got.tgz:6044.got - 2010.06.03 22:34:06.
