data_PCOD9311313
_publ_section_title
;
Structure prediction by ZEFSAII (Michael W. Deem and Ramdas Pophale) SiO2 
 PCOD9311313
Probable space group: P 2 2 21
;
_chemical_formula_sum "Si O2"
_cell_formula_units_Z 20
_cell_length_a 4.873070
_cell_length_b 5.763428
_cell_length_c 25.491157
_cell_angle_alpha 90.000000
_cell_angle_beta 90.000000
_cell_angle_gamma 90.000000
_cell_volume 715.934135
_symmetry_space_group_name_H-M "P 2 2 21"
_symmetry_group_IT_number 17
_symmetry_cell_setting 'orthorhombic'
loop_
_space_group_symop_operation_xyz
x,y,z
-x,-y,1/2+z
x,-y,-z
-x,y,1/2-z
loop_
_atom_site_type_symbol
_atom_site_label
_atom_site_fract_x
_atom_site_fract_y
_atom_site_fract_z
Si Si1 0.225385 0.400802 0.552077
Si Si2 0.896262 0.808754 0.802094
Si Si3 0.500000 0.440963 0.750000
Si Si4 0.848034 0.000000 0.500000
Si Si5 0.155667 0.798177 0.899172
Si Si6 0.470850 0.163083 0.852916
O O1 0.371095 0.500000 0.500000
O O2 0.413296 0.321770 0.600363
O O3 0.042132 0.185757 0.530397
O O4 0.050126 0.616913 0.573964
O O5 0.728559 0.603734 0.775299
O O6 0.000000 0.943432 0.750000
O O7 0.130476 0.697187 0.839582
O O8 0.682575 0.950243 0.839641
O O9 0.419060 0.280750 0.798223
O O10 0.682954 0.128300 0.453291
O O11 0.189489 0.056440 0.873968
#
# Coordination Sequence:
#
# PCOD9311313 Si02
#       6
#     4   4   2   2   4   4
#     4  10  23  49  80 114 165 211 265 340 409 488
#     4  12  26  48  72 111 161 208 275 337 404 490
#     4  12  26  46  74 118 150 218 282 330 416 484
#     4  10  22  46  78 112 156 210 256 338 418 464
#     4  11  24  47  75 115 156 207 272 331 403 495
#     4  12  26  49  80 116 158 222 271 335 422 481
#
# _framework density 27.935531000000001
#
# number of rings (size 3 to 8) (size 9 to 14) (size 15 to 20)
#    0.000    0.800    4.000    3.000    0.000    6.400 
#    3.600    1.000    0.000    0.000    0.000    0.000 
#    0.000    0.000    0.000    0.000    0.000    0.000 
#
# Total GULP energy -111340.886512 kJ/mol
# GULP energy per Si atom -5567.044326 kJ/mol
# Density = 2.787195 g / cm^3
# Si number density = 27.935531 Si / 1000 Ang^3
#
#
#
# Elastic Constant Matrix: (Units=GPa)
#
#
# Indices 1 2 3 4 5 6 
#
# 1 64.2950 51.7247 30.7107 0.0000 0.0000 0.0000
# 2 51.7247 133.9670 88.7078 0.0000 0.0000 0.0000
# 3 30.7107 88.7078 270.3801 0.0000 0.0000 0.0000
# 4 0.0000 0.0000 0.0000 84.2320 0.0000 0.0000
# 5 0.0000 0.0000 0.0000 0.0000 25.2087 0.0000
# 6 0.0000 0.0000 0.0000 0.0000 0.0000 51.1231
#
#
#
# Elastic Compliance Matrix: (Units=1/GPa)
#
#
# Indices 1 2 3 4 5 6 
#
# 1 0.022591 -0.008973 0.000378 0.000000 0.000000 0.000000
# 2 -0.008973 0.013100 -0.003279 0.000000 0.000000 0.000000
# 3 0.000378 -0.003279 0.004731 0.000000 0.000000 0.000000
# 4 0.000000 0.000000 0.000000 0.011872 0.000000 0.000000
# 5 0.000000 0.000000 0.000000 0.000000 0.039669 0.000000
# 6 0.000000 0.000000 0.000000 0.000000 0.000000 0.019561
#
#
# Mechanical properties :
#
#
# Convention : Reuss Voigt Hill
#
# Bulk Modulus (GPa) = 59.96902 90.10317 75.03609
# Shear Modulus (GPa) = 35.50393 51.94603 43.72498
#
# Velocity S-wave (km/s) = 3.56887 4.31687 3.96057
# Velocity P-wave (km/s) = 6.20451 7.56116 6.91618
#
# Compressibility (1/GPa) = 0.01667528
#
# Stress axis : x y z
#
# Youngs Moduli (GPa) = 44.26493 76.33629 211.35855
#
# Poissons Ratio (x) = 0.68494 -0.07985
# Poissons Ratio (y) = 0.39717 0.69299
# Poissons Ratio (z) = -0.01672 0.25029
#
# Static dielectric constant tensor:
#      x y z
#    x 2.345090 0.000000 0.000000 
#    y 0.000000 2.232650 0.000000 
#    z 0.000000 0.000000 2.543110 
# 
# From -- ./inp_files/11044.got.cif
#   From: 2010.05.17/outbox.cif.g08.bks.cpg/sg17_6_cif.got.tgz:11044.got - 2010.06.03 22:34:06.
