data_PCOD9311033
_publ_section_title
;
Structure prediction by ZEFSAII (Michael W. Deem and Ramdas Pophale) SiO2 
 PCOD9311033
Probable space group: P 2 2 21
;
_chemical_formula_sum "Si O2"
_cell_formula_units_Z 32
_cell_length_a 14.558064
_cell_length_b 5.370974
_cell_length_c 17.631283
_cell_angle_alpha 90.000000
_cell_angle_beta 90.000000
_cell_angle_gamma 90.000000
_cell_volume 1378.607353
_symmetry_space_group_name_H-M "P 2 2 21"
_symmetry_group_IT_number 17
_symmetry_cell_setting 'orthorhombic'
loop_
_space_group_symop_operation_xyz
x,y,z
-x,-y,1/2+z
x,-y,-z
-x,y,1/2-z
loop_
_atom_site_type_symbol
_atom_site_label
_atom_site_fract_x
_atom_site_fract_y
_atom_site_fract_z
Si Si1 0.111309 0.013279 0.766799
Si Si2 0.620052 0.050287 0.122457
Si Si3 0.008952 0.237311 0.457267
Si Si4 0.795169 0.687378 0.930415
Si Si5 0.263645 0.319133 0.689180
Si Si6 0.431511 0.237404 0.050025
Si Si7 0.920408 0.478828 0.312958
Si Si8 0.397187 0.627649 0.775626
O O1 0.186136 0.115992 0.707472
O O2 0.114094 0.242304 0.827096
O O3 0.000000 0.987983 0.750000
O O4 0.146170 0.736917 0.783770
O O5 0.704642 0.155774 0.075687
O O6 0.530675 0.130709 0.077217
O O7 0.617988 0.163469 0.208889
O O8 0.651376 0.767190 0.135498
O O9 0.016799 0.500000 0.500000
O O10 0.111610 0.158811 0.434373
O O11 0.958096 0.330053 0.383748
O O12 0.967611 0.000000 0.500000
O O13 0.794586 0.519712 0.856061
O O14 0.790469 0.500000 0.000000
O O15 0.319114 0.422635 0.760719
O O16 0.391721 0.291159 0.135788
O O17 0.433307 0.500000 0.000000
O O18 0.392777 0.000000 0.000000
O O19 0.000000 0.515875 0.250000
O O20 0.500000 0.534796 0.750000
#
# Coordination Sequence:
#
# PCOD9311033 Si02
#       8
#     4   4   4   4   4   4   4   4
#     4  10  22  37  64  95 128 170 225 282 322 380
#     4  10  24  37  66  95 143 177 227 272 344 415
#     4  11  24  39  62  91 132 176 220 276 351 410
#     4  10  23  35  54  91 140 180 217 268 339 417
#     4  11  24  39  69  98 142 182 230 284 343 405
#     4  11  26  44  72 101 137 184 229 282 351 419
#     4  10  21  38  61  88 124 165 229 272 318 383
#     4   9  23  45  65 101 137 181 226 283 345 415
#
# _framework density 23.211829000000002
#
# number of rings (size 3 to 8) (size 9 to 14) (size 15 to 20)
#    0.000    1.750    0.000    2.625   19.250    0.500 
#    0.000    0.000    0.000    3.000    0.000    0.000 
#    0.000    0.000    0.000    0.000    0.000    0.000 
#
# Total GULP energy -178202.451732 kJ/mol
# GULP energy per Si atom -5568.826617 kJ/mol
# Density = 2.315900 g / cm^3
# Si number density = 23.211829 Si / 1000 Ang^3
#
#
#
# Elastic Constant Matrix: (Units=GPa)
#
#
# Indices 1 2 3 4 5 6 
#
# 1 50.3358 18.2824 25.8499 0.0000 0.0000 0.0000
# 2 18.2824 99.0573 51.2162 0.0000 0.0000 0.0000
# 3 25.8499 51.2162 147.0753 0.0000 0.0000 0.0000
# 4 0.0000 0.0000 0.0000 38.5788 0.0000 0.0000
# 5 0.0000 0.0000 0.0000 0.0000 20.3352 0.0000
# 6 0.0000 0.0000 0.0000 0.0000 0.0000 72.4162
#
#
#
# Elastic Compliance Matrix: (Units=1/GPa)
#
#
# Indices 1 2 3 4 5 6 
#
# 1 0.022355 -0.002554 -0.003040 0.000000 0.000000 0.000000
# 2 -0.002554 0.012604 -0.003940 0.000000 0.000000 0.000000
# 3 -0.003040 -0.003940 0.008706 0.000000 0.000000 0.000000
# 4 0.000000 0.000000 0.000000 0.025921 0.000000 0.000000
# 5 0.000000 0.000000 0.000000 0.000000 0.049176 0.000000
# 6 0.000000 0.000000 0.000000 0.000000 0.000000 0.013809
#
#
# Mechanical properties :
#
#
# Convention : Reuss Voigt Hill
#
# Bulk Modulus (GPa) = 40.65624 54.12948 47.39286
# Shear Modulus (GPa) = 31.28175 39.67403 35.47789
#
# Velocity S-wave (km/s) = 3.67504 4.13875 3.91377
# Velocity P-wave (km/s) = 5.96332 6.79775 6.39416
#
# Compressibility (1/GPa) = 0.02459647
#
# Stress axis : x y z
#
# Youngs Moduli (GPa) = 44.73200 79.34133 114.86933
#
# Poissons Ratio (x) = 0.20267 0.34916
# Poissons Ratio (y) = 0.11426 0.45259
# Poissons Ratio (z) = 0.13597 0.31261
#
# Static dielectric constant tensor:
#      x y z
#    x 1.881730 0.000000 0.000000 
#    y 0.000000 1.911490 0.000000 
#    z 0.000000 0.000000 1.776250 
# 
# From -- ./inp_files/8690.got.cif
#   From: 2010.05.17/outbox.cif.g08.bks.cpg/sg17_5_cif.got.tgz:8690.got - 2010.06.03 22:34:06.
