data_PCOD9311330
_publ_section_title
;
Structure prediction by ZEFSAII (Michael W. Deem and Ramdas Pophale) SiO2 
 PCOD9311330
Probable space group: P 2 2 21
;
_chemical_formula_sum "Si O2"
_cell_formula_units_Z 18
_cell_length_a 7.253161
_cell_length_b 8.722610
_cell_length_c 11.778768
_cell_angle_alpha 90.000000
_cell_angle_beta 90.000000
_cell_angle_gamma 90.000000
_cell_volume 745.201363
_symmetry_space_group_name_H-M "P 2 2 21"
_symmetry_group_IT_number 17
_symmetry_cell_setting 'orthorhombic'
loop_
_space_group_symop_operation_xyz
x,y,z
-x,-y,1/2+z
x,-y,-z
-x,y,1/2-z
loop_
_atom_site_type_symbol
_atom_site_label
_atom_site_fract_x
_atom_site_fract_y
_atom_site_fract_z
Si Si1 0.257300 0.582606 0.885979
Si Si2 0.672039 0.119177 0.900517
Si Si3 0.841447 0.652516 0.951854
Si Si4 0.777502 0.852704 0.749722
Si Si5 0.500000 0.636514 0.250000
O O1 0.300398 0.761615 0.858456
O O2 0.330368 0.472221 0.786468
O O3 0.035632 0.595507 0.900689
O O4 0.322637 0.500000 0.000000
O O5 0.540714 0.253208 0.856818
O O6 0.710710 0.017156 0.789250
O O7 0.847411 0.214311 0.952101
O O8 0.615259 0.000000 0.000000
O O9 0.733692 0.736381 0.852334
O O10 0.750944 0.500000 0.000000
O O11 0.000000 0.863142 0.750000
#
# Coordination Sequence:
#
# PCOD9311330 Si02
#       5
#     4   4   4   4   2
#     4  10  23  40  62  94 130 177 230 280 336 403
#     4  10  23  41  64  95 136 181 224 281 348 411
#     4   9  18  38  65  92 120 164 225 279 327 398
#     4   9  19  37  63  91 124 171 226 282 333 392
#     4  12  26  40  62 100 140 180 226 280 350 416
#
# _framework density 24.154544000000001
#
# number of rings (size 3 to 8) (size 9 to 14) (size 15 to 20)
#    0.000    2.222    0.000    1.333    0.000   12.444 
#    0.000    2.222    0.000    0.000    0.000    0.000 
#    0.000    0.000    0.000    0.000    0.000    0.000 
#
# Total GULP energy -100328.951510 kJ/mol
# GULP energy per Si atom -5573.830639 kJ/mol
# Density = 2.409957 g / cm^3
# Si number density = 24.154544 Si / 1000 Ang^3
#
#
#
# Elastic Constant Matrix: (Units=GPa)
#
#
# Indices 1 2 3 4 5 6 
#
# 1 106.7051 48.8028 22.5337 0.0000 0.0000 0.0000
# 2 48.8028 174.1140 53.4473 0.0000 0.0000 0.0000
# 3 22.5337 53.4473 69.1689 0.0000 0.0000 0.0000
# 4 0.0000 0.0000 0.0000 63.7175 0.0000 0.0000
# 5 0.0000 0.0000 0.0000 0.0000 12.8771 0.0000
# 6 0.0000 0.0000 0.0000 0.0000 0.0000 40.1775
#
#
#
# Elastic Compliance Matrix: (Units=1/GPa)
#
#
# Indices 1 2 3 4 5 6 
#
# 1 0.010876 -0.002571 -0.001557 0.000000 0.000000 0.000000
# 2 -0.002571 0.008137 -0.005450 0.000000 0.000000 0.000000
# 3 -0.001557 -0.005450 0.019176 0.000000 0.000000 0.000000
# 4 0.000000 0.000000 0.000000 0.015694 0.000000 0.000000
# 5 0.000000 0.000000 0.000000 0.000000 0.077657 0.000000
# 6 0.000000 0.000000 0.000000 0.000000 0.000000 0.024890
#
#
# Mechanical properties :
#
#
# Convention : Reuss Voigt Hill
#
# Bulk Modulus (GPa) = 52.53794 66.61729 59.57761
# Shear Modulus (GPa) = 27.48325 38.36804 32.92564
#
# Velocity S-wave (km/s) = 3.37680 3.98985 3.69606
# Velocity P-wave (km/s) = 6.08290 6.99033 6.55234
#
# Compressibility (1/GPa) = 0.01903387
#
# Stress axis : x y z
#
# Youngs Moduli (GPa) = 91.94487 122.89803 52.14915
#
# Poissons Ratio (x) = 0.31592 0.08119
# Poissons Ratio (y) = 0.23635 0.28421
# Poissons Ratio (z) = 0.14315 0.66979
#
# Static dielectric constant tensor:
#      x y z
#    x 1.957600 0.000000 0.000000 
#    y 0.000000 1.916380 0.000000 
#    z 0.000000 0.000000 2.033700 
# 
# From -- ./inp_files/6293.got.cif
#   From: 2010.05.17/outbox.cif.g08.bks.cpg/sg17_4_cif.got.tgz:6293.got - 2010.06.03 22:34:06.
