data_PCOD9311266
_publ_section_title
;
Structure prediction by ZEFSAII (Michael W. Deem and Ramdas Pophale) SiO2 
 PCOD9311266
Probable space group: P 2 2 21
;
_chemical_formula_sum "Si O2"
_cell_formula_units_Z 26
_cell_length_a 5.060626
_cell_length_b 9.561523
_cell_length_c 24.470818
_cell_angle_alpha 90.000000
_cell_angle_beta 90.000000
_cell_angle_gamma 90.000000
_cell_volume 1184.076613
_symmetry_space_group_name_H-M "P 2 2 21"
_symmetry_group_IT_number 17
_symmetry_cell_setting 'orthorhombic'
loop_
_space_group_symop_operation_xyz
x,y,z
-x,-y,1/2+z
x,-y,-z
-x,y,1/2-z
loop_
_atom_site_type_symbol
_atom_site_label
_atom_site_fract_x
_atom_site_fract_y
_atom_site_fract_z
Si Si1 0.929144 0.370036 0.362972
Si Si2 0.490928 0.731452 0.031494
Si Si3 0.545628 0.886739 0.143182
Si Si4 0.000000 0.480729 0.750000
Si Si5 0.129926 0.000000 0.000000
Si Si6 0.022085 0.948297 0.880259
Si Si7 0.500000 0.288711 0.750000
Si Si8 0.580711 0.569553 0.928115
O O1 0.141098 0.458124 0.398728
O O2 0.930253 0.427822 0.302358
O O3 0.022906 0.211066 0.365806
O O4 0.635713 0.368838 0.387424
O O5 0.593543 0.795487 0.088392
O O6 0.432093 0.572232 0.051740
O O7 0.641896 0.680872 0.976660
O O8 0.294320 0.855301 0.010742
O O9 0.450619 0.800387 0.195357
O O10 0.320961 0.000139 0.128873
O O11 0.823408 0.958985 0.154823
O O12 0.249238 0.384094 0.737325
O O13 0.967866 0.973636 0.944788
#
# Coordination Sequence:
#
# PCOD9311266 Si02
#       8
#     4   4   4   2   2   4   2   4
#     4  12  25  45  66 100 136 180 229 282 340 409
#     4  10  23  42  67 101 134 182 223 284 340 408
#     4  11  25  42  70  99 135 174 231 276 342 402
#     4  12  26  44  74  92 132 180 232 282 344 404
#     4  10  22  42  70  98 146 178 230 272 358 410
#     4  11  25  42  69 102 138 181 219 287 341 419
#     4  12  26  50  72 100 132 184 228 290 334 412
#     4  11  25  42  67  97 141 176 227 282 339 404
#
# _framework density 21.958041000000001
#
# number of rings (size 3 to 8) (size 9 to 14) (size 15 to 20)
#    0.000    0.923    1.538    4.615    4.308    8.000 
#    0.000    0.000    0.000    0.000    0.000    0.000 
#    0.000    0.000    0.000    0.000    0.000    0.000 
#
# Total GULP energy -145091.231148 kJ/mol
# GULP energy per Si atom -5580.431967 kJ/mol
# Density = 2.190806 g / cm^3
# Si number density = 21.958041 Si / 1000 Ang^3
#
#
#
# Elastic Constant Matrix: (Units=GPa)
#
#
# Indices 1 2 3 4 5 6 
#
# 1 62.3621 3.6863 -0.2520 0.0000 0.0000 0.0000
# 2 3.6863 109.6770 20.2429 0.0000 0.0000 0.0000
# 3 -0.2520 20.2429 111.2307 0.0000 0.0000 0.0000
# 4 0.0000 0.0000 0.0000 31.5147 0.0000 0.0000
# 5 0.0000 0.0000 0.0000 0.0000 1.3774 0.0000
# 6 0.0000 0.0000 0.0000 0.0000 0.0000 29.3426
#
#
#
# Elastic Compliance Matrix: (Units=1/GPa)
#
#
# Indices 1 2 3 4 5 6 
#
# 1 0.016069 -0.000566 0.000139 0.000000 0.000000 0.000000
# 2 -0.000566 0.009455 -0.001722 0.000000 0.000000 0.000000
# 3 0.000139 -0.001722 0.009304 0.000000 0.000000 0.000000
# 4 0.000000 0.000000 0.000000 0.031731 0.000000 0.000000
# 5 0.000000 0.000000 0.000000 0.000000 0.725987 0.000000
# 6 0.000000 0.000000 0.000000 0.000000 0.000000 0.034080
#
#
# Mechanical properties :
#
#
# Convention : Reuss Voigt Hill
#
# Bulk Modulus (GPa) = 32.75336 36.73601 34.74469
# Shear Modulus (GPa) = 5.94460 29.75312 17.84886
#
# Velocity S-wave (km/s) = 1.64716 3.68502 2.85417
# Velocity P-wave (km/s) = 4.30885 5.90528 5.16907
#
# Compressibility (1/GPa) = 0.03053122
#
# Stress axis : x y z
#
# Youngs Moduli (GPa) = 62.23009 105.76964 107.48048
#
# Poissons Ratio (x) = 0.05985 -0.01498
# Poissons Ratio (y) = 0.03521 0.18507
# Poissons Ratio (z) = -0.00867 0.18213
#
# Static dielectric constant tensor:
#      x y z
#    x 1.790600 0.000000 0.000000 
#    y 0.000000 1.822640 0.000000 
#    z 0.000000 0.000000 1.739230 
# 
# From -- ./inp_files/10470.got.cif
#   From: 2010.05.17/outbox.cif.g08.bks.cpg/sg17_6_cif.got.tgz:10470.got - 2010.06.03 22:34:06.
