data_PCOD9311347
_publ_section_title
;
Structure prediction by ZEFSAII (Michael W. Deem and Ramdas Pophale) SiO2 
 PCOD9311347
Probable space group: P 2 2 21
;
_chemical_formula_sum "Si O2"
_cell_formula_units_Z 26
_cell_length_a 8.335976
_cell_length_b 8.321109
_cell_length_c 19.009183
_cell_angle_alpha 90.000000
_cell_angle_beta 90.000000
_cell_angle_gamma 90.000000
_cell_volume 1318.563708
_symmetry_space_group_name_H-M "P 2 2 21"
_symmetry_group_IT_number 17
_symmetry_cell_setting 'orthorhombic'
loop_
_space_group_symop_operation_xyz
x,y,z
-x,-y,1/2+z
x,-y,-z
-x,y,1/2-z
loop_
_atom_site_type_symbol
_atom_site_label
_atom_site_fract_x
_atom_site_fract_y
_atom_site_fract_z
Si Si1 0.358238 0.392105 0.621180
Si Si2 0.436430 0.705399 0.920310
Si Si3 0.212220 0.500000 0.000000
Si Si4 0.662492 0.887739 0.712727
Si Si5 0.744727 0.181534 0.013289
Si Si6 0.500000 0.801330 0.250000
Si Si7 0.958236 0.587466 0.891502
Si Si8 0.000000 0.774279 0.750000
O O1 0.483908 0.534922 0.602861
O O2 0.321531 0.273132 0.555896
O O3 0.415712 0.302295 0.690414
O O4 0.187848 0.476135 0.631697
O O5 0.323631 0.654507 0.985189
O O6 0.335681 0.796667 0.861245
O O7 0.587159 0.818089 0.937585
O O8 0.098046 0.493232 0.931984
O O9 0.500000 0.818448 0.750000
O O10 0.829425 0.865839 0.753470
O O11 0.622288 0.076502 0.710983
O O12 0.880394 0.287518 0.052016
O O13 0.798211 0.000000 0.000000
O O14 0.013819 0.672905 0.821020
#
# Coordination Sequence:
#
# PCOD9311347 Si02
#       8
#     4   4   2   4   4   2   4   2
#     4  11  22  41  66  96 128 174 226 271 329 405
#     4  11  21  40  68  92 126 173 222 275 326 392
#     4  12  20  42  62  98 134 160 228 280 318 402
#     4  10  23  43  64  93 133 176 215 272 339 396
#     4  11  22  41  68  93 128 174 219 269 334 398
#     4  10  26  40  64 100 136 172 220 278 338 408
#     4  11  24  42  67  96 129 175 222 276 332 399
#     4  12  24  40  72  96 130 178 224 274 342 402
#
# _framework density 19.718423999999999
#
# number of rings (size 3 to 8) (size 9 to 14) (size 15 to 20)
#    0.462    0.615    4.615    3.692    5.385    0.000 
#    0.000    4.615    0.000    0.000    0.000    0.000 
#    0.000    0.000    0.000    0.000    0.000    0.000 
#
# Total GULP energy -145006.362018 kJ/mol
# GULP energy per Si atom -5577.167770 kJ/mol
# Density = 1.967354 g / cm^3
# Si number density = 19.718424 Si / 1000 Ang^3
#
#
#
# Elastic Constant Matrix: (Units=GPa)
#
#
# Indices 1 2 3 4 5 6 
#
# 1 96.6305 18.8440 10.0200 0.0000 0.0000 0.0000
# 2 18.8440 75.6926 31.6410 0.0000 0.0000 0.0000
# 3 10.0200 31.6410 70.4174 0.0000 0.0000 0.0000
# 4 0.0000 0.0000 0.0000 16.2165 0.0000 0.0000
# 5 0.0000 0.0000 0.0000 0.0000 35.1935 0.0000
# 6 0.0000 0.0000 0.0000 0.0000 0.0000 1.2253
#
#
#
# Elastic Compliance Matrix: (Units=1/GPa)
#
#
# Indices 1 2 3 4 5 6 
#
# 1 0.010886 -0.002540 -0.000408 0.000000 0.000000 0.000000
# 2 -0.002540 0.016859 -0.007214 0.000000 0.000000 0.000000
# 3 -0.000408 -0.007214 0.017501 0.000000 0.000000 0.000000
# 4 0.000000 0.000000 0.000000 0.061666 0.000000 0.000000
# 5 0.000000 0.000000 0.000000 0.000000 0.028414 0.000000
# 6 0.000000 0.000000 0.000000 0.000000 0.000000 0.816136
#
#
# Mechanical properties :
#
#
# Convention : Reuss Voigt Hill
#
# Bulk Modulus (GPa) = 40.12385 40.41674 40.27030
# Shear Modulus (GPa) = 5.10156 22.67610 13.88883
#
# Velocity S-wave (km/s) = 1.61022 3.39484 2.65685
# Velocity P-wave (km/s) = 4.88361 5.99233 5.46615
#
# Compressibility (1/GPa) = 0.02492283
#
# Stress axis : x y z
#
# Youngs Moduli (GPa) = 91.85894 59.31471 57.14089
#
# Poissons Ratio (x) = 0.15064 0.02331
# Poissons Ratio (y) = 0.23329 0.41222
# Poissons Ratio (z) = 0.03747 0.42790
#
# Static dielectric constant tensor:
#      x y z
#    x 1.908480 0.000000 0.000000 
#    y 0.000000 1.678900 0.000000 
#    z 0.000000 0.000000 1.657270 
# 
# From -- ./inp_files/9493.got.cif
#   From: 2010.05.17/outbox.cif.g08.bks.cpg/sg17_5_cif.got.tgz:9493.got - 2010.06.03 22:34:06.
