data_PCOD9311274
_publ_section_title
;
Structure prediction by ZEFSAII (Michael W. Deem and Ramdas Pophale) SiO2 
 PCOD9311274
Probable space group: P 2 2 21
;
_chemical_formula_sum "Si O2"
_cell_formula_units_Z 20
_cell_length_a 6.373923
_cell_length_b 13.694382
_cell_length_c 11.797506
_cell_angle_alpha 90.000000
_cell_angle_beta 90.000000
_cell_angle_gamma 90.000000
_cell_volume 1029.768156
_symmetry_space_group_name_H-M "P 2 2 21"
_symmetry_group_IT_number 17
_symmetry_cell_setting 'orthorhombic'
loop_
_space_group_symop_operation_xyz
x,y,z
-x,-y,1/2+z
x,-y,-z
-x,y,1/2-z
loop_
_atom_site_type_symbol
_atom_site_label
_atom_site_fract_x
_atom_site_fract_y
_atom_site_fract_z
Si Si1 0.290723 0.101731 0.947982
Si Si2 0.121340 0.760212 0.860900
Si Si3 0.621340 0.260212 0.860901
Si Si4 0.790722 0.398269 0.052018
Si Si5 0.000000 0.853554 0.250000
Si Si6 0.500000 0.353554 0.250000
O O1 0.479192 0.172199 0.909479
O O2 0.140860 0.087063 0.839037
O O3 0.161395 0.159919 0.043661
O O4 0.364587 0.000000 0.000000
O O5 0.340798 0.715085 0.819578
O O6 0.000000 0.799098 0.750000
O O7 0.979191 0.672199 0.909479
O O8 0.500000 0.299098 0.750000
O O9 0.840799 0.215086 0.819578
O O10 0.661395 0.340081 0.956339
O O11 0.640860 0.412937 0.160963
O O12 0.864588 0.500000 0.000000
#
# Coordination Sequence:
#
# PCOD9311274 Si02
#       6
#     4   4   4   4   2   2
#     4  11  23  41  66  94 126 168 210 256 313 377
#     4  10  22  43  62  92 130 164 212 263 306 372
#     4  10  22  43  62  92 130 164 212 263 306 372
#     4  11  23  41  66  94 126 168 210 256 313 377
#     4  10  22  44  64  92 130 164 210 260 316 366
#     4  10  22  44  64  92 130 164 210 260 316 366
#
# _framework density 19.421845999999999
#
# number of rings (size 3 to 8) (size 9 to 14) (size 15 to 20)
#    0.000    1.600    4.000    0.000    2.800    1.600 
#   10.800    0.000    0.000    0.000    0.000    0.000 
#    0.000    0.000    0.000    0.000    0.000    0.000 
#
# Total GULP energy -111719.036781 kJ/mol
# GULP energy per Si atom -5585.951839 kJ/mol
# Density = 1.937764 g / cm^3
# Si number density = 19.421846 Si / 1000 Ang^3
#
#
#
# Elastic Constant Matrix: (Units=GPa)
#
#
# Indices 1 2 3 4 5 6 
#
# 1 77.0765 24.9527 31.2704 0.0000 0.0000 0.0000
# 2 24.9527 72.3861 48.5662 0.0000 0.0000 0.0000
# 3 31.2704 48.5662 117.4230 0.0000 0.0000 0.0000
# 4 0.0000 0.0000 0.0000 13.9120 0.0000 0.0000
# 5 0.0000 0.0000 0.0000 0.0000 35.1668 0.0000
# 6 0.0000 0.0000 0.0000 0.0000 0.0000 13.7037
#
#
#
# Elastic Compliance Matrix: (Units=1/GPa)
#
#
# Indices 1 2 3 4 5 6 
#
# 1 0.015155 -0.003483 -0.002595 0.000000 0.000000 0.000000
# 2 -0.003483 0.019921 -0.007312 0.000000 0.000000 0.000000
# 3 -0.002595 -0.007312 0.012232 0.000000 0.000000 0.000000
# 4 0.000000 0.000000 0.000000 0.071880 0.000000 0.000000
# 5 0.000000 0.000000 0.000000 0.000000 0.028436 0.000000
# 6 0.000000 0.000000 0.000000 0.000000 0.000000 0.072973
#
#
# Mechanical properties :
#
#
# Convention : Reuss Voigt Hill
#
# Bulk Modulus (GPa) = 48.71546 52.94047 50.82796
# Shear Modulus (GPa) = 19.66809 23.36292 21.51550
#
# Velocity S-wave (km/s) = 3.18571 3.47208 3.33197
# Velocity P-wave (km/s) = 6.21844 6.58719 6.40547
#
# Compressibility (1/GPa) = 0.02052737
#
# Stress axis : x y z
#
# Youngs Moduli (GPa) = 65.98671 50.19779 81.75566
#
# Poissons Ratio (x) = 0.17483 0.21218
# Poissons Ratio (y) = 0.22982 0.59779
# Poissons Ratio (z) = 0.17125 0.36704
#
# Static dielectric constant tensor:
#      x y z
#    x 1.664690 0.000000 0.000000 
#    y 0.000000 1.623670 0.000000 
#    z 0.000000 0.000000 1.699710 
# 
# From -- ./inp_files/5900.got.cif
#   From: 2010.05.17/outbox.cif.g08.bks.cpg/sg17_3_cif.got.tgz:5900.got - 2010.06.03 22:34:06.
