data_PCOD9311925
_publ_section_title
;
Structure prediction by ZEFSAII (Michael W. Deem and Ramdas Pophale) SiO2 
 PCOD9311925
Probable space group: P 21 21 2
;
_chemical_formula_sum "Si O2"
_cell_formula_units_Z 30
_cell_length_a 13.765977
_cell_length_b 20.062499
_cell_length_c 5.233005
_cell_angle_alpha 90.000000
_cell_angle_beta 90.000000
_cell_angle_gamma 90.000000
_cell_volume 1445.250797
_symmetry_space_group_name_H-M "P 21 21 2"
_symmetry_group_IT_number 18
_symmetry_cell_setting 'orthorhombic'
loop_
_space_group_symop_operation_xyz
x,y,z
-x,-y,z
1/2+x,1/2-y,-z
1/2-x,1/2+y,-z
loop_
_atom_site_type_symbol
_atom_site_label
_atom_site_fract_x
_atom_site_fract_y
_atom_site_fract_z
Si Si1 0.595728 0.127442 0.500472
Si Si2 0.500000 0.500000 0.540415
Si Si3 0.831979 0.933849 0.116464
Si Si4 0.284361 0.843852 0.003074
Si Si5 0.380794 0.148100 0.623360
Si Si6 0.168413 0.505694 0.558479
Si Si7 0.659660 0.549075 0.242193
Si Si8 0.275472 0.194560 0.122169
O O1 0.637989 0.134258 0.787195
O O2 0.489793 0.159229 0.525241
O O3 0.586545 0.049958 0.409722
O O4 0.665878 0.157276 0.281287
O O5 0.417895 0.538917 0.703317
O O6 0.557835 0.557016 0.382438
O O7 0.725628 0.961112 0.206879
O O8 0.816563 0.855445 0.089701
O O9 0.851053 0.974096 0.861577
O O10 0.195784 0.897335 0.965605
O O11 0.249327 0.770804 0.927344
O O12 0.362299 0.068245 0.611617
O O13 0.312605 0.182100 0.409754
O O14 0.353317 0.173052 0.904946
O O15 0.252759 0.459273 0.438802
#
# Coordination Sequence:
#
# PCOD9311925 Si02
#       8
#     4   2   4   4   4   4   4   4
#     4  11  22  40  65  97 124 158 212 262 310 385
#     4  10  22  36  62  98 122 164 236 274 302 374
#     4  10  19  39  62  90 125 169 213 264 319 375
#     4  11  24  43  65  89 131 177 204 258 332 381
#     4  11  22  40  65  97 124 158 212 262 310 385
#     4   9  19  35  63  92 124 158 197 261 329 371
#     4  10  19  39  62  90 125 169 213 264 319 375
#     4  11  24  43  65  89 131 177 204 258 332 381
#
# _framework density 20.757642000000001
#
# number of rings (size 3 to 8) (size 9 to 14) (size 15 to 20)
#    0.000    1.600    2.667    2.400    0.000    0.000 
#    2.400    5.333    0.000    0.000    0.000    0.000 
#    0.000    0.000    0.000    0.000    0.000    0.000 
#
# Total GULP energy -167144.816171 kJ/mol
# GULP energy per Si atom -5571.493872 kJ/mol
# Density = 2.071040 g / cm^3
# Si number density = 20.757642 Si / 1000 Ang^3
#
#
#
# Elastic Constant Matrix: (Units=GPa)
#
#
# Indices 1 2 3 4 5 6 
#
# 1 74.0190 8.7058 10.9156 0.0000 0.0000 0.0000
# 2 8.7058 70.1554 -16.9425 0.0000 0.0000 0.0000
# 3 10.9156 -16.9425 61.2965 0.0000 0.0000 0.0000
# 4 0.0000 0.0000 0.0000 19.3303 0.0000 0.0000
# 5 0.0000 0.0000 0.0000 0.0000 25.9444 0.0000
# 6 0.0000 0.0000 0.0000 0.0000 0.0000 9.4579
#
#
#
# Elastic Compliance Matrix: (Units=1/GPa)
#
#
# Indices 1 2 3 4 5 6 
#
# 1 0.014291 -0.002559 -0.003252 0.000000 0.000000 0.000000
# 2 -0.002559 0.015732 0.004804 0.000000 0.000000 0.000000
# 3 -0.003252 0.004804 0.018221 0.000000 0.000000 0.000000
# 4 0.000000 0.000000 0.000000 0.051732 0.000000 0.000000
# 5 0.000000 0.000000 0.000000 0.000000 0.038544 0.000000
# 6 0.000000 0.000000 0.000000 0.000000 0.000000 0.105732
#
#
# Mechanical properties :
#
#
# Convention : Reuss Voigt Hill
#
# Bulk Modulus (GPa) = 21.63114 23.42542 22.52828
# Shear Modulus (GPa) = 19.10764 24.46598 21.78681
#
# Velocity S-wave (km/s) = 3.03728 3.43687 3.24324
# Velocity P-wave (km/s) = 4.76902 5.20184 4.99013
#
# Compressibility (1/GPa) = 0.04622965
#
# Stress axis : x y z
#
# Youngs Moduli (GPa) = 69.97619 63.56575 54.88138
#
# Poissons Ratio (x) = 0.16265 0.17848
# Poissons Ratio (y) = 0.17905 -0.26365
# Poissons Ratio (z) = 0.22757 -0.30537
#
# Static dielectric constant tensor:
#      x y z
#    x 1.840000 0.000000 0.000000 
#    y 0.000000 1.779160 0.000000 
#    z 0.000000 0.000000 1.773840 
# 
# From -- ./inp_files/1610.got.cif
#   From: 2010.05.17/outbox.cif.g08.bks.cpg/sg18_1_cif.got.tgz:1610.got - 2010.06.03 22:40:56.
