data_PCOD9311359
_publ_section_title
;
Structure prediction by ZEFSAII (Michael W. Deem and Ramdas Pophale) SiO2 
 PCOD9311359
Probable space group: P 2 2 21
;
_chemical_formula_sum "Si O2"
_cell_formula_units_Z 16
_cell_length_a 23.687850
_cell_length_b 5.341044
_cell_length_c 5.091008
_cell_angle_alpha 90.000000
_cell_angle_beta 90.000000
_cell_angle_gamma 90.000000
_cell_volume 644.103382
_symmetry_space_group_name_H-M "P 2 2 21"
_symmetry_group_IT_number 17
_symmetry_cell_setting 'orthorhombic'
loop_
_space_group_symop_operation_xyz
x,y,z
-x,-y,1/2+z
x,-y,-z
-x,y,1/2-z
loop_
_atom_site_type_symbol
_atom_site_label
_atom_site_fract_x
_atom_site_fract_y
_atom_site_fract_z
Si Si1 0.940550 0.825262 0.753697
Si Si2 0.231639 0.500000 0.000000
Si Si3 0.157367 0.500000 0.500000
Si Si4 0.439778 0.681262 0.750975
Si Si5 0.683778 0.764539 0.838332
O O1 0.885241 0.677516 0.838400
O O2 0.000000 0.672548 0.750000
O O3 0.930256 0.000000 0.500000
O O4 0.952050 0.000000 0.000000
O O5 0.196153 0.410392 0.743970
O O6 0.273727 0.713049 0.897286
O O7 0.441479 0.500000 0.500000
O O8 0.500000 0.822787 0.750000
O O9 0.380753 0.824526 0.742940
O O10 0.436924 0.500000 0.000000
O O11 0.682132 0.500000 0.000000
O O12 0.704765 0.000000 0.000000
#
# Coordination Sequence:
#
# PCOD9311359 Si02
#       5
#     4   2   2   4   4
#     4  10  23  45  74 112 152 195 247 310 383 457
#     4  12  26  49  70 111 150 208 266 314 386 458
#     4  12  26  47  76 111 154 204 254 316 378 454
#     4   9  18  38  69 106 146 190 249 322 397 470
#     4  11  25  50  76 107 151 207 262 323 396 465
#
# _framework density 24.840730000000001
#
# number of rings (size 3 to 8) (size 9 to 14) (size 15 to 20)
#    0.000    1.500    2.500    1.500    0.000    6.000 
#    9.000   10.000    0.000    0.000    0.000    0.000 
#    0.000    0.000    0.000    0.000    0.000    0.000 
#
# Total GULP energy -89414.621045 kJ/mol
# GULP energy per Si atom -5588.413815 kJ/mol
# Density = 2.478419 g / cm^3
# Si number density = 24.840730 Si / 1000 Ang^3
#
#
#
# Elastic Constant Matrix: (Units=GPa)
#
#
# Indices 1 2 3 4 5 6 
#
# 1 222.3728 46.9994 75.9422 0.0000 0.0000 0.0000
# 2 46.9994 86.4195 59.2003 0.0000 0.0000 0.0000
# 3 75.9422 59.2003 218.9479 0.0000 0.0000 0.0000
# 4 0.0000 0.0000 0.0000 61.9105 0.0000 0.0000
# 5 0.0000 0.0000 0.0000 0.0000 26.8805 0.0000
# 6 0.0000 0.0000 0.0000 0.0000 0.0000 -505.3632
#
#
#
# Elastic Compliance Matrix: (Units=1/GPa)
#
#
# Indices 1 2 3 4 5 6 
#
# 1 0.005374 -0.002020 -0.001318 0.000000 0.000000 0.000000
# 2 -0.002020 0.014961 -0.003345 0.000000 0.000000 0.000000
# 3 -0.001318 -0.003345 0.005929 0.000000 0.000000 0.000000
# 4 0.000000 0.000000 0.000000 0.016152 0.000000 0.000000
# 5 0.000000 0.000000 0.000000 0.000000 0.037202 0.000000
# 6 0.000000 0.000000 0.000000 0.000000 0.000000 -0.001979
#
#
# Mechanical properties :
#
#
# Convention : Reuss Voigt Hill
#
# Bulk Modulus (GPa) = 77.52472 99.11376 88.31924
# Shear Modulus (GPa) = 52.46397 -60.27455 -3.90529
#
# Velocity S-wave (km/s) = 4.60065 -4.93124 -1.25521
# Velocity P-wave (km/s) = 7.71348 2.75019 5.79057
#
# Compressibility (1/GPa) = 0.01289911
#
# Stress axis : x y z
#
# Youngs Moduli (GPa) = 186.08455 66.83954 168.67022
#
# Poissons Ratio (x) = 0.13501 0.22227
# Poissons Ratio (y) = 0.37587 0.56415
# Poissons Ratio (z) = 0.24522 0.22356
#
# Static dielectric constant tensor:
#      x y z
#    x 2.118690 0.000000 0.000000 
#    y 0.000000 2.000410 0.000000 
#    z 0.000000 0.000000 1.971730 
# 
# From -- ./inp_files/3016.got.cif
#   From: 2010.05.17/outbox.cif.g08.bks.cpg/sg17_2_cif.got.tgz:3016.got - 2010.06.03 22:34:06.
