data_PCOD9311106
_publ_section_title
;
Structure prediction by ZEFSAII (Michael W. Deem and Ramdas Pophale) SiO2 
 PCOD9311106
Probable space group: P 2 2 21
;
_chemical_formula_sum "Si O2"
_cell_formula_units_Z 32
_cell_length_a 11.676075
_cell_length_b 9.657244
_cell_length_c 13.808801
_cell_angle_alpha 90.000000
_cell_angle_beta 90.000000
_cell_angle_gamma 90.000000
_cell_volume 1557.062522
_symmetry_space_group_name_H-M "P 2 2 21"
_symmetry_group_IT_number 17
_symmetry_cell_setting 'orthorhombic'
loop_
_space_group_symop_operation_xyz
x,y,z
-x,-y,1/2+z
x,-y,-z
-x,y,1/2-z
loop_
_atom_site_type_symbol
_atom_site_label
_atom_site_fract_x
_atom_site_fract_y
_atom_site_fract_z
Si Si1 0.424960 0.539313 0.886764
Si Si2 0.188858 0.048138 0.792292
Si Si3 0.947925 0.084419 0.899774
Si Si4 0.625236 0.730914 0.256366
Si Si5 0.324143 0.522140 0.387762
Si Si6 0.228790 0.763536 0.868827
Si Si7 0.023757 0.666454 0.988978
Si Si8 0.105609 0.390144 0.300452
O O1 0.387897 0.407088 0.822519
O O2 0.559591 0.563368 0.864523
O O3 0.339306 0.665982 0.871703
O O4 0.420494 0.500000 0.000000
O O5 0.147393 0.044740 0.679732
O O6 0.272672 0.178614 0.797210
O O7 0.070828 0.052359 0.851962
O O8 0.255190 0.920156 0.841250
O O9 0.961141 0.248005 0.926639
O O10 0.934442 0.000000 0.000000
O O11 0.500000 0.799998 0.250000
O O12 0.649893 0.676904 0.147536
O O13 0.300099 0.500000 0.500000
O O14 0.213280 0.479349 0.329063
O O15 0.146839 0.734066 0.961708
O O16 0.149093 0.716204 0.779232
O O17 0.942355 0.682087 0.895735
O O18 0.037354 0.500000 0.000000
O O19 0.000000 0.469785 0.250000
#
# Coordination Sequence:
#
# PCOD9311106 Si02
#       8
#     4   4   4   4   4   4   4   4
#     4  10  22  40  70  96 124 172 225 273 334 387
#     4  11  26  41  66  94 128 178 220 259 325 416
#     4  11  24  45  66  90 135 178 210 261 348 391
#     4  10  23  45  64  92 135 169 215 282 326 383
#     4  10  21  41  66  96 132 170 211 273 340 387
#     4  11  22  41  62  92 129 168 222 267 320 386
#     4  11  24  37  63  97 126 166 216 278 322 386
#     4  10  22  36  62  92 132 163 212 266 324 383
#
# _framework density 20.551518999999999
#
# number of rings (size 3 to 8) (size 9 to 14) (size 15 to 20)
#    0.000    1.500    2.500    1.500   10.500    0.000 
#    4.500    0.000    0.000    0.750    0.000    0.000 
#    0.000    0.000    0.000    0.000    0.000    0.000 
#
# Total GULP energy -178579.180159 kJ/mol
# GULP energy per Si atom -5580.599380 kJ/mol
# Density = 2.050474 g / cm^3
# Si number density = 20.551519 Si / 1000 Ang^3
#
#
#
# Elastic Constant Matrix: (Units=GPa)
#
#
# Indices 1 2 3 4 5 6 
#
# 1 95.6364 24.3722 8.6561 0.0000 0.0000 0.0000
# 2 24.3722 75.7152 20.0653 0.0000 0.0000 0.0000
# 3 8.6561 20.0653 77.7512 0.0000 0.0000 0.0000
# 4 0.0000 0.0000 0.0000 24.6663 0.0000 0.0000
# 5 0.0000 0.0000 0.0000 0.0000 21.2956 0.0000
# 6 0.0000 0.0000 0.0000 0.0000 0.0000 13.1167
#
#
#
# Elastic Compliance Matrix: (Units=1/GPa)
#
#
# Indices 1 2 3 4 5 6 
#
# 1 0.011399 -0.003578 -0.000346 0.000000 0.000000 0.000000
# 2 -0.003578 0.015300 -0.003550 0.000000 0.000000 0.000000
# 3 -0.000346 -0.003550 0.013816 0.000000 0.000000 0.000000
# 4 0.000000 0.000000 0.000000 0.040541 0.000000 0.000000
# 5 0.000000 0.000000 0.000000 0.000000 0.046958 0.000000
# 6 0.000000 0.000000 0.000000 0.000000 0.000000 0.076239
#
#
# Mechanical properties :
#
#
# Convention : Reuss Voigt Hill
#
# Bulk Modulus (GPa) = 39.11123 39.47667 39.29395
# Shear Modulus (GPa) = 21.95646 24.88299 23.41973
#
# Velocity S-wave (km/s) = 3.27213 3.48337 3.37940
# Velocity P-wave (km/s) = 5.77476 5.95222 5.86416
#
# Compressibility (1/GPa) = 0.02556810
#
# Stress axis : x y z
#
# Youngs Moduli (GPa) = 87.72446 65.36007 72.37866
#
# Poissons Ratio (x) = 0.23384 0.02503
# Poissons Ratio (y) = 0.31385 0.25695
# Poissons Ratio (z) = 0.03033 0.23204
#
# Static dielectric constant tensor:
#      x y z
#    x 1.743400 0.000000 0.000000 
#    y 0.000000 1.781110 0.000000 
#    z 0.000000 0.000000 1.785670 
# 
# From -- ./inp_files/8571.got.cif
#   From: 2010.05.17/outbox.cif.g08.bks.cpg/sg17_5_cif.got.tgz:8571.got - 2010.06.03 22:34:06.
