data_PCOD9311335
_publ_section_title
;
Structure prediction by ZEFSAII (Michael W. Deem and Ramdas Pophale) SiO2 
 PCOD9311335
Probable space group: P 2 2 21
;
_chemical_formula_sum "Si O2"
_cell_formula_units_Z 20
_cell_length_a 11.140490
_cell_length_b 5.264482
_cell_length_c 14.443414
_cell_angle_alpha 90.000000
_cell_angle_beta 90.000000
_cell_angle_gamma 90.000000
_cell_volume 847.090474
_symmetry_space_group_name_H-M "P 2 2 21"
_symmetry_group_IT_number 17
_symmetry_cell_setting 'orthorhombic'
loop_
_space_group_symop_operation_xyz
x,y,z
-x,-y,1/2+z
x,-y,-z
-x,y,1/2-z
loop_
_atom_site_type_symbol
_atom_site_label
_atom_site_fract_x
_atom_site_fract_y
_atom_site_fract_z
Si Si1 0.044638 0.627732 0.850283
Si Si2 0.817722 0.117384 0.602738
Si Si3 0.446182 0.639551 0.646545
Si Si4 0.791693 0.251469 0.061031
Si Si5 0.453472 0.863939 0.144145
O O1 0.128787 0.876720 0.841291
O O2 0.000000 0.542406 0.750000
O O3 0.927465 0.727643 0.903822
O O4 0.104436 0.376271 0.894745
O O5 0.809421 0.000000 0.500000
O O6 0.686761 0.191353 0.639863
O O7 0.500000 0.609160 0.750000
O O8 0.308641 0.727210 0.641244
O O9 0.469989 0.365675 0.603057
O O10 0.521921 0.863239 0.599752
O O11 0.771155 0.500000 0.000000
O O12 0.775725 0.000000 0.000000
O O13 0.500000 0.894537 0.250000
#
# Coordination Sequence:
#
# PCOD9311335 Si02
#       5
#     4   4   4   4   4
#     4  12  28  46  77 106 145 194 249 295 373 444
#     4  12  26  47  73 108 149 192 240 310 367 431
#     4  10  23  43  70 100 144 187 240 288 354 426
#     4  12  26  46  75 106 145 186 239 307 365 422
#     4  10  23  40  72 100 147 185 241 288 354 428
#
# _framework density 23.610229
#
# number of rings (size 3 to 8) (size 9 to 14) (size 15 to 20)
#    0.000    0.800    0.000    6.600   11.200    2.400 
#    0.000    0.000    0.000    0.000    0.000    0.000 
#    0.000    0.000    0.000    0.000    0.000    0.000 
#
# Total GULP energy -111884.502909 kJ/mol
# GULP energy per Si atom -5594.225145 kJ/mol
# Density = 2.355649 g / cm^3
# Si number density = 23.610229 Si / 1000 Ang^3
#
#
#
# Elastic Constant Matrix: (Units=GPa)
#
#
# Indices 1 2 3 4 5 6 
#
# 1 143.7443 29.3422 21.6275 0.0000 0.0000 0.0000
# 2 29.3422 177.1848 12.8205 0.0000 0.0000 0.0000
# 3 21.6275 12.8205 71.9319 0.0000 0.0000 0.0000
# 4 0.0000 0.0000 0.0000 25.3392 0.0000 0.0000
# 5 0.0000 0.0000 0.0000 0.0000 49.8188 0.0000
# 6 0.0000 0.0000 0.0000 0.0000 0.0000 50.7096
#
#
#
# Elastic Compliance Matrix: (Units=1/GPa)
#
#
# Indices 1 2 3 4 5 6 
#
# 1 0.007489 -0.001091 -0.002057 0.000000 0.000000 0.000000
# 2 -0.001091 0.005877 -0.000719 0.000000 0.000000 0.000000
# 3 -0.002057 -0.000719 0.014649 0.000000 0.000000 0.000000
# 4 0.000000 0.000000 0.000000 0.039465 0.000000 0.000000
# 5 0.000000 0.000000 0.000000 0.000000 0.020073 0.000000
# 6 0.000000 0.000000 0.000000 0.000000 0.000000 0.019720
#
#
# Mechanical properties :
#
#
# Convention : Reuss Voigt Hill
#
# Bulk Modulus (GPa) = 49.31252 57.82681 53.56966
# Shear Modulus (GPa) = 41.06198 47.11157 44.08678
#
# Velocity S-wave (km/s) = 4.17485 4.47182 4.32588
# Velocity P-wave (km/s) = 6.64609 7.15600 6.90576
#
# Compressibility (1/GPa) = 0.02027883
#
# Stress axis : x y z
#
# Youngs Moduli (GPa) = 133.52749 170.16644 68.26515
#
# Poissons Ratio (x) = 0.18571 0.14044
# Poissons Ratio (y) = 0.14573 0.04910
# Poissons Ratio (z) = 0.27469 0.12239
#
# Static dielectric constant tensor:
#      x y z
#    x 1.896820 0.000000 0.000000 
#    y 0.000000 1.910350 0.000000 
#    z 0.000000 0.000000 1.797350 
# 
# From -- ./inp_files/8392.got.cif
#   From: 2010.05.17/outbox.cif.g08.bks.cpg/sg17_5_cif.got.tgz:8392.got - 2010.06.03 22:34:06.
