data_PCOD9311465
_publ_section_title
;
Structure prediction by ZEFSAII (Michael W. Deem and Ramdas Pophale) SiO2 
 PCOD9311465
Probable space group: P 2 2 21
;
_chemical_formula_sum "Si O2"
_cell_formula_units_Z 32
_cell_length_a 11.749361
_cell_length_b 9.712508
_cell_length_c 13.755584
_cell_angle_alpha 90.000000
_cell_angle_beta 90.000000
_cell_angle_gamma 90.000000
_cell_volume 1569.728960
_symmetry_space_group_name_H-M "P 2 2 21"
_symmetry_group_IT_number 17
_symmetry_cell_setting 'orthorhombic'
loop_
_space_group_symop_operation_xyz
x,y,z
-x,-y,1/2+z
x,-y,-z
-x,y,1/2-z
loop_
_atom_site_type_symbol
_atom_site_label
_atom_site_fract_x
_atom_site_fract_y
_atom_site_fract_z
Si Si1 0.259904 0.356827 0.555930
Si Si2 0.211460 0.362056 0.939086
Si Si3 0.956948 0.069557 0.144592
Si Si4 0.985848 0.221446 0.943211
Si Si5 0.637097 0.707074 0.252581
Si Si6 0.424936 0.853710 0.556597
Si Si7 0.316461 0.864909 0.934331
Si Si8 0.291033 0.025824 0.277703
O O1 0.244941 0.500000 0.500000
O O2 0.139245 0.282992 0.573083
O O3 0.317330 0.377383 0.660590
O O4 0.342476 0.254973 0.494994
O O5 0.299957 0.344950 0.850165
O O6 0.080467 0.332028 0.911636
O O7 0.225104 0.500000 0.000000
O O8 0.235015 0.240998 0.014942
O O9 0.822089 0.043326 0.157746
O O10 0.000000 0.115621 0.250000
O O11 0.006786 0.919542 0.116708
O O12 0.983692 0.172694 0.056504
O O13 0.500000 0.702136 0.250000
O O14 0.674263 0.866702 0.236231
O O15 0.555298 0.806941 0.560123
O O16 0.386862 0.891654 0.664567
O O17 0.418183 0.000000 0.500000
O O18 0.278136 0.907390 0.827617
O O19 0.317295 0.000000 0.000000
#
# Coordination Sequence:
#
# PCOD9311465 Si02
#       8
#     4   4   4   4   4   4   4   4
#     4  12  26  45  70 101 141 187 230 280 344 411
#     4  12  28  48  68  98 143 184 227 282 346 413
#     4  11  22  39  71 103 139 173 228 291 340 404
#     4  11  24  45  68 102 134 180 230 280 347 406
#     4  12  25  44  73 104 138 183 232 282 345 416
#     4  11  21  40  66  99 136 178 226 285 338 403
#     4  11  24  39  67 101 135 175 228 286 343 401
#     4  12  21  40  69 108 135 173 231 287 351 406
#
# _framework density 20.385686
#
# number of rings (size 3 to 8) (size 9 to 14) (size 15 to 20)
#    0.000    0.500    5.000    3.750    1.750    3.000 
#    2.250    0.000    0.000    0.000    0.000    0.000 
#    0.000    0.000    0.000    0.000    0.000    0.000 
#
# Total GULP energy -178976.295235 kJ/mol
# GULP energy per Si atom -5593.009226 kJ/mol
# Density = 2.033929 g / cm^3
# Si number density = 20.385686 Si / 1000 Ang^3
#
#
#
# Elastic Constant Matrix: (Units=GPa)
#
#
# Indices 1 2 3 4 5 6 
#
# 1 116.6558 25.5545 20.0717 0.0000 0.0000 0.0000
# 2 25.5545 38.8409 9.3507 0.0000 0.0000 0.0000
# 3 20.0717 9.3507 115.3825 0.0000 0.0000 0.0000
# 4 0.0000 0.0000 0.0000 28.4950 0.0000 0.0000
# 5 0.0000 0.0000 0.0000 0.0000 39.9939 0.0000
# 6 0.0000 0.0000 0.0000 0.0000 0.0000 4.4375
#
#
#
# Elastic Compliance Matrix: (Units=1/GPa)
#
#
# Indices 1 2 3 4 5 6 
#
# 1 0.010191 -0.006403 -0.001254 0.000000 0.000000 0.000000
# 2 -0.006403 0.030281 -0.001340 0.000000 0.000000 0.000000
# 3 -0.001254 -0.001340 0.008994 0.000000 0.000000 0.000000
# 4 0.000000 0.000000 0.000000 0.035094 0.000000 0.000000
# 5 0.000000 0.000000 0.000000 0.000000 0.025004 0.000000
# 6 0.000000 0.000000 0.000000 0.000000 0.000000 0.225352
#
#
# Mechanical properties :
#
#
# Convention : Reuss Voigt Hill
#
# Bulk Modulus (GPa) = 31.77459 42.31478 37.04469
# Shear Modulus (GPa) = 13.75895 28.97877 21.36886
#
# Velocity S-wave (km/s) = 2.60076 3.77440 3.24115
# Velocity P-wave (km/s) = 4.96379 6.30848 5.67610
#
# Compressibility (1/GPa) = 0.03147169
#
# Stress axis : x y z
#
# Youngs Moduli (GPa) = 98.13016 33.02374 111.19082
#
# Poissons Ratio (x) = 0.21144 0.13942
# Poissons Ratio (y) = 0.62831 0.14902
# Poissons Ratio (z) = 0.12304 0.04426
#
# Static dielectric constant tensor:
#      x y z
#    x 1.761970 0.000000 0.000000 
#    y 0.000000 1.667350 0.000000 
#    z 0.000000 0.000000 1.741010 
# 
# From -- ./inp_files/8564.got.cif
#   From: 2010.05.17/outbox.cif.g08.bks.cpg/sg17_5_cif.got.tgz:8564.got - 2010.06.03 22:34:06.
