data_PCOD9311224
_publ_section_title
;
Structure prediction by ZEFSAII (Michael W. Deem and Ramdas Pophale) SiO2 
 PCOD9311224
Probable space group: P 2 2 21
;
_chemical_formula_sum "Si O2"
_cell_formula_units_Z 18
_cell_length_a 6.575907
_cell_length_b 17.825340
_cell_length_c 7.557125
_cell_angle_alpha 90.000000
_cell_angle_beta 90.000000
_cell_angle_gamma 90.000000
_cell_volume 885.829401
_symmetry_space_group_name_H-M "P 2 2 21"
_symmetry_group_IT_number 17
_symmetry_cell_setting 'orthorhombic'
loop_
_space_group_symop_operation_xyz
x,y,z
-x,-y,1/2+z
x,-y,-z
-x,y,1/2-z
loop_
_atom_site_type_symbol
_atom_site_label
_atom_site_fract_x
_atom_site_fract_y
_atom_site_fract_z
Si Si1 0.638239 0.300556 0.419409
Si Si2 0.500000 0.599483 0.250000
Si Si3 0.779320 0.500000 0.000000
Si Si4 0.338657 0.000000 0.500000
Si Si5 0.000000 0.382313 0.250000
Si Si6 0.625842 0.863646 0.432150
Si Si7 0.000000 0.936546 0.250000
O O1 0.500000 0.320079 0.250000
O O2 0.583073 0.346966 0.595016
O O3 0.855851 0.328081 0.359190
O O4 0.626101 0.212580 0.458768
O O5 0.653052 0.544366 0.148640
O O6 0.901091 0.437317 0.106501
O O7 0.491271 0.070259 0.479635
O O8 0.178835 0.015543 0.657755
O O9 0.500000 0.849565 0.250000
O O10 0.858579 0.888038 0.384660
#
# Coordination Sequence:
#
# PCOD9311224 Si02
#       7
#     4   2   2   2   2   4   2
#     4  12  26  47  69 106 147 189 231 294 362 425
#     4  12  24  48  76 100 148 184 232 292 364 426
#     4  12  24  46  76 106 138 186 236 298 348 434
#     4  10  22  42  68 102 136 188 242 294 348 422
#     4  12  26  44  72 112 136 184 246 284 360 433
#     4  10  23  43  69  96 143 191 238 295 352 421
#     4  10  22  40  68 100 132 186 246 292 352 411
#
# _framework density 20.319938
#
# number of rings (size 3 to 8) (size 9 to 14) (size 15 to 20)
#    0.000    0.889    3.333    3.333    0.000    9.778 
#    0.000    1.111    0.000    0.000    0.000    0.000 
#    0.000    0.000    0.000    0.000    0.000    0.000 
#
# Total GULP energy -100510.838990 kJ/mol
# GULP energy per Si atom -5583.935499 kJ/mol
# Density = 2.027369 g / cm^3
# Si number density = 20.319938 Si / 1000 Ang^3
#
#
#
# Elastic Constant Matrix: (Units=GPa)
#
#
# Indices 1 2 3 4 5 6 
#
# 1 132.4679 76.1613 57.1313 0.0000 0.0000 0.0000
# 2 76.1613 152.8381 57.0156 0.0000 0.0000 0.0000
# 3 57.1313 57.0156 126.0954 0.0000 0.0000 0.0000
# 4 0.0000 0.0000 0.0000 24.3988 0.0000 0.0000
# 5 0.0000 0.0000 0.0000 0.0000 44.8800 0.0000
# 6 0.0000 0.0000 0.0000 0.0000 0.0000 36.0002
#
#
#
# Elastic Compliance Matrix: (Units=1/GPa)
#
#
# Indices 1 2 3 4 5 6 
#
# 1 0.011541 -0.004572 -0.003162 0.000000 0.000000 0.000000
# 2 -0.004572 0.009681 -0.002306 0.000000 0.000000 0.000000
# 3 -0.003162 -0.002306 0.010406 0.000000 0.000000 0.000000
# 4 0.000000 0.000000 0.000000 0.040986 0.000000 0.000000
# 5 0.000000 0.000000 0.000000 0.000000 0.022282 0.000000
# 6 0.000000 0.000000 0.000000 0.000000 0.000000 0.027778
#
#
# Mechanical properties :
#
#
# Convention : Reuss Voigt Hill
#
# Bulk Modulus (GPa) = 86.58900 88.00199 87.29550
# Shear Modulus (GPa) = 34.10591 35.79533 34.95062
#
# Velocity S-wave (km/s) = 4.10133 4.20168 4.15181
# Velocity P-wave (km/s) = 8.07051 8.18175 8.12632
#
# Compressibility (1/GPa) = 0.01154881
#
# Stress axis : x y z
#
# Youngs Moduli (GPa) = 86.64720 103.29244 96.09913
#
# Poissons Ratio (x) = 0.47220 0.30386
# Poissons Ratio (y) = 0.39611 0.22163
# Poissons Ratio (z) = 0.27397 0.23822
#
# Static dielectric constant tensor:
#      x y z
#    x 1.785910 0.000000 0.000000 
#    y 0.000000 1.706660 0.000000 
#    z 0.000000 0.000000 1.716430 
# 
# From -- ./inp_files/3460.got.cif
#   From: 2010.05.17/outbox.cif.g08.bks.cpg/sg17_2_cif.got.tgz:3460.got - 2010.06.03 22:34:06.
