data_PCOD9311803
_publ_section_title
;
Structure prediction by ZEFSAII (Michael W. Deem and Ramdas Pophale) SiO2 
 PCOD9311803
Probable space group: P 21 21 2
;
_chemical_formula_sum "Si O2"
_cell_formula_units_Z 32
_cell_length_a 15.155948
_cell_length_b 10.710383
_cell_length_c 8.556887
_cell_angle_alpha 90.000000
_cell_angle_beta 90.000000
_cell_angle_gamma 90.000000
_cell_volume 1389.005306
_symmetry_space_group_name_H-M "P 21 21 2"
_symmetry_group_IT_number 18
_symmetry_cell_setting 'orthorhombic'
loop_
_space_group_symop_operation_xyz
x,y,z
-x,-y,z
1/2+x,1/2-y,-z
1/2-x,1/2+y,-z
loop_
_atom_site_type_symbol
_atom_site_label
_atom_site_fract_x
_atom_site_fract_y
_atom_site_fract_z
Si Si1 0.411537 0.955052 0.405522
Si Si2 0.559126 0.110970 0.769746
Si Si3 0.601404 0.544776 0.239923
Si Si4 0.337679 0.700771 0.401209
Si Si5 0.261635 0.876958 0.970606
Si Si6 0.943006 0.877179 0.282699
Si Si7 0.728728 0.373112 0.900118
Si Si8 0.673890 0.776404 0.400672
O O1 0.379306 0.826353 0.331039
O O2 0.500000 0.000000 0.322955
O O3 0.426783 0.916806 0.586527
O O4 0.360721 0.084334 0.423651
O O5 0.654316 0.116307 0.852446
O O6 0.500000 0.000000 0.836328
O O7 0.512776 0.247074 0.772127
O O8 0.500000 0.500000 0.213018
O O9 0.654609 0.423717 0.300474
O O10 0.663759 0.591654 0.098512
O O11 0.608190 0.660734 0.365111
O O12 0.391732 0.656671 0.557218
O O13 0.241656 0.745811 0.459150
O O14 0.263261 0.734173 0.032197
O O15 0.277148 0.996619 0.079807
O O16 0.870623 0.901764 0.149342
O O17 0.000000 0.000000 0.304820
O O18 0.770059 0.296341 0.756517
#
# Coordination Sequence:
#
# PCOD9311803 Si02
#       8
#     4   4   4   4   4   4   4   4
#     4  10  19  33  53  79 111 139 169 213 268 329
#     4   9  19  35  55  80 108 143 181 225 282 336
#     4  11  22  36  57  85 117 150 187 232 284 338
#     4  10  19  33  54  82 111 144 179 218 270 330
#     4  10  21  40  55  76 110 143 186 239 280 329
#     4   9  18  33  53  79 109 135 174 227 272 327
#     4   9  21  37  56  76 104 144 186 228 279 330
#     4  10  20  37  55  77 110 146 182 228 275 325
#
# _framework density 23.038067000000002
#
# number of rings (size 3 to 8) (size 9 to 14) (size 15 to 20)
#    0.000    2.250    0.000    4.875    0.000    4.500 
#    0.000    6.875    0.000    0.000    0.000    0.000 
#    0.000    0.000    0.000    0.000    0.000    0.000 
#
# Total GULP energy -178293.905236 kJ/mol
# GULP energy per Si atom -5571.684539 kJ/mol
# Density = 2.298563 g / cm^3
# Si number density = 23.038067 Si / 1000 Ang^3
#
#
#
# Elastic Constant Matrix: (Units=GPa)
#
#
# Indices 1 2 3 4 5 6 
#
# 1 78.6650 51.5366 4.0781 0.0000 0.0000 0.0000
# 2 51.5366 197.9839 23.3481 0.0000 0.0000 0.0000
# 3 4.0781 23.3481 10.2992 0.0000 0.0000 0.0000
# 4 0.0000 0.0000 0.0000 32.0059 0.0000 0.0000
# 5 0.0000 0.0000 0.0000 0.0000 9.7155 0.0000
# 6 0.0000 0.0000 0.0000 0.0000 0.0000 46.3329
#
#
#
# Elastic Compliance Matrix: (Units=1/GPa)
#
#
# Indices 1 2 3 4 5 6 
#
# 1 0.015451 -0.004505 0.004095 0.000000 0.000000 0.000000
# 2 -0.004505 0.008207 -0.016822 0.000000 0.000000 0.000000
# 3 0.004095 -0.016822 0.133610 0.000000 0.000000 0.000000
# 4 0.000000 0.000000 0.000000 0.031244 0.000000 0.000000
# 5 0.000000 0.000000 0.000000 0.000000 0.102928 0.000000
# 6 0.000000 0.000000 0.000000 0.000000 0.000000 0.021583
#
#
# Mechanical properties :
#
#
# Convention : Reuss Voigt Hill
#
# Bulk Modulus (GPa) = 8.14310 49.43040 28.78675
# Shear Modulus (GPa) = 12.87251 31.47655 22.17453
#
# Velocity S-wave (km/s) = 2.36635 3.70034 3.10581
# Velocity P-wave (km/s) = 3.31790 6.30549 5.03824
#
# Compressibility (1/GPa) = 0.12280340
#
# Stress axis : x y z
#
# Youngs Moduli (GPa) = 64.71976 121.84066 7.48445
#
# Poissons Ratio (x) = 0.54888 -0.03065
# Poissons Ratio (y) = 0.29156 0.12591
# Poissons Ratio (z) = -0.26500 2.04966
#
# Static dielectric constant tensor:
#      x y z
#    x 1.914100 0.000000 0.000000 
#    y 0.000000 1.823320 0.000000 
#    z 0.000000 0.000000 1.982820 
# 
# From -- ./inp_files/6139.got.cif
#   From: 2010.05.17/outbox.cif.g08.bks.cpg/sg18_4_cif.got.tgz:6139.got - 2010.06.03 22:40:56.
