data_PCOD9311749
_publ_section_title
;
Structure prediction by ZEFSAII (Michael W. Deem and Ramdas Pophale) SiO2 
 PCOD9311749
Probable space group: P 21 21 2
;
_chemical_formula_sum "Si O2"
_cell_formula_units_Z 22
_cell_length_a 7.859861
_cell_length_b 12.381554
_cell_length_c 8.355996
_cell_angle_alpha 90.000000
_cell_angle_beta 90.000000
_cell_angle_gamma 90.000000
_cell_volume 813.182914
_symmetry_space_group_name_H-M "P 21 21 2"
_symmetry_group_IT_number 18
_symmetry_cell_setting 'orthorhombic'
loop_
_space_group_symop_operation_xyz
x,y,z
-x,-y,z
1/2+x,1/2-y,-z
1/2-x,1/2+y,-z
loop_
_atom_site_type_symbol
_atom_site_label
_atom_site_fract_x
_atom_site_fract_y
_atom_site_fract_z
Si Si1 0.011470 0.753644 0.030167
Si Si2 0.826549 0.067347 0.251438
Si Si3 0.278267 0.074300 0.966977
Si Si4 0.000000 0.000000 0.718255
Si Si5 0.128854 0.779269 0.665027
Si Si6 0.434650 0.884448 0.538333
O O1 0.066941 0.754751 0.842828
O O2 0.839349 0.821987 0.013755
O O3 0.119057 0.825540 0.155311
O O4 0.043834 0.629162 0.078248
O O5 0.703775 0.091602 0.398308
O O6 0.000000 0.000000 0.285023
O O7 0.720279 0.997950 0.123478
O O8 0.165682 0.014452 0.832032
O O9 0.974811 0.110614 0.623896
O O10 0.326763 0.808850 0.656415
O O11 0.083487 0.684910 0.542740
O O12 0.500000 0.000000 0.596114
#
# Coordination Sequence:
#
# PCOD9311749 Si02
#       6
#     4   4   4   2   4   4
#     4  10  20  39  66 100 130 171 225 286 341 411
#     4  10  20  40  68 101 131 175 227 283 352 416
#     4  10  18  38  66  97 133 172 219 280 352 399
#     4  10  20  44  72 100 142 178 228 294 348 406
#     4  11  26  48  69 102 143 189 236 289 350 422
#     4  12  29  47  69 103 143 194 236 289 355 421
#
# _framework density 27.054183999999999
#
# number of rings (size 3 to 8) (size 9 to 14) (size 15 to 20)
#    0.000    1.455    4.545    3.273    3.818    2.909 
#    3.273    0.909    0.000    0.000    0.000    0.000 
#    0.000    0.000    0.000    0.000    0.000    0.000 
#
# Total GULP energy -123308.139673 kJ/mol
# GULP energy per Si atom -5604.915440 kJ/mol
# Density = 2.699261 g / cm^3
# Si number density = 27.054184 Si / 1000 Ang^3
#
#
#
# Elastic Constant Matrix: (Units=GPa)
#
#
# Indices 1 2 3 4 5 6 
#
# 1 90.7241 17.2066 25.6309 0.0000 0.0000 0.0000
# 2 17.2066 117.4545 17.3141 0.0000 0.0000 0.0000
# 3 25.6309 17.3141 52.9708 0.0000 0.0000 0.0000
# 4 0.0000 0.0000 0.0000 30.6577 0.0000 0.0000
# 5 0.0000 0.0000 0.0000 0.0000 44.4737 0.0000
# 6 0.0000 0.0000 0.0000 0.0000 0.0000 67.8816
#
#
#
# Elastic Compliance Matrix: (Units=1/GPa)
#
#
# Indices 1 2 3 4 5 6 
#
# 1 0.012882 -0.001017 -0.005901 0.000000 0.000000 0.000000
# 2 -0.001017 0.009025 -0.002458 0.000000 0.000000 0.000000
# 3 -0.005901 -0.002458 0.022537 0.000000 0.000000 0.000000
# 4 0.000000 0.000000 0.000000 0.032618 0.000000 0.000000
# 5 0.000000 0.000000 0.000000 0.000000 0.022485 0.000000
# 6 0.000000 0.000000 0.000000 0.000000 0.000000 0.014732
#
#
# Mechanical properties :
#
#
# Convention : Reuss Voigt Hill
#
# Bulk Modulus (GPa) = 38.92160 42.38362 40.65261
# Shear Modulus (GPa) = 35.31177 42.00246 38.65711
#
# Velocity S-wave (km/s) = 3.61671 3.94449 3.78415
# Velocity P-wave (km/s) = 5.64434 6.03702 5.84398
#
# Compressibility (1/GPa) = 0.02569267
#
# Stress axis : x y z
#
# Youngs Moduli (GPa) = 77.62491 110.80004 44.37167
#
# Poissons Ratio (x) = 0.11272 0.26183
# Poissons Ratio (y) = 0.07897 0.10905
# Poissons Ratio (z) = 0.45806 0.27232
#
# Static dielectric constant tensor:
#      x y z
#    x 2.253920 0.000000 0.000000 
#    y 0.000000 2.114700 0.000000 
#    z 0.000000 0.000000 2.106930 
# 
# From -- ./inp_files/3174.got.cif
#   From: 2010.05.17/outbox.cif.g08.bks.cpg/sg18_2_cif.got.tgz:3174.got - 2010.06.03 22:40:56.
