data_PCOD9311114
_publ_section_title
;
Structure prediction by ZEFSAII (Michael W. Deem and Ramdas Pophale) SiO2 
 PCOD9311114
Probable space group: P 2 2 21
;
_chemical_formula_sum "Si O2"
_cell_formula_units_Z 18
_cell_length_a 5.381863
_cell_length_b 25.578453
_cell_length_c 5.315140
_cell_angle_alpha 90.000000
_cell_angle_beta 90.000000
_cell_angle_gamma 90.000000
_cell_volume 731.680736
_symmetry_space_group_name_H-M "P 2 2 21"
_symmetry_group_IT_number 17
_symmetry_cell_setting 'orthorhombic'
loop_
_space_group_symop_operation_xyz
x,y,z
-x,-y,1/2+z
x,-y,-z
-x,y,1/2-z
loop_
_atom_site_type_symbol
_atom_site_label
_atom_site_fract_x
_atom_site_fract_y
_atom_site_fract_z
Si Si1 0.748857 0.827772 0.422686
Si Si2 0.343487 0.329014 0.489716
Si Si3 0.245074 0.558624 0.403737
Si Si4 0.749707 0.059426 0.592690
Si Si5 0.000000 0.253992 0.250000
O O1 0.500000 0.820801 0.250000
O O2 0.744046 0.885495 0.555169
O O3 0.000000 0.825765 0.250000
O O4 0.793154 0.783855 0.630230
O O5 0.500000 0.312116 0.250000
O O6 0.274544 0.389643 0.430702
O O7 0.106749 0.291524 0.468965
O O8 0.500000 0.326522 0.750000
O O9 0.206518 0.500000 0.500000
O O10 0.500000 0.555477 0.250000
O O11 0.000000 0.571270 0.250000
O O12 0.500000 0.062968 0.750000
O O13 0.000000 0.062779 0.750000
O O14 0.749815 0.000000 0.500000
#
# Coordination Sequence:
#
# PCOD9311114 Si02
#       5
#     4   4   4   4   2
#     4  10  26  48  71 110 153 199 264 324 401 474
#     4  11  30  51  79 118 158 211 273 331 404 478
#     4  11  25  46  78 115 160 202 259 327 401 479
#     4  10  21  41  68 102 142 187 244 320 390 472
#     4  12  30  46  84 106 160 214 266 334 394 490
#
# _framework density 24.600892999999999
#
# number of rings (size 3 to 8) (size 9 to 14) (size 15 to 20)
#    0.000    1.333    0.000    2.000   15.556    0.000 
#    0.000    0.000    0.000    0.000    0.000    0.000 
#    0.000    0.000    0.000    0.000    0.000    0.000 
#
# Total GULP energy -100562.837333 kJ/mol
# GULP energy per Si atom -5586.824296 kJ/mol
# Density = 2.454490 g / cm^3
# Si number density = 24.600893 Si / 1000 Ang^3
#
#
#
# Elastic Constant Matrix: (Units=GPa)
#
#
# Indices 1 2 3 4 5 6 
#
# 1 156.2125 27.0442 36.6717 0.0000 0.0000 0.0000
# 2 27.0442 244.9938 46.6251 0.0000 0.0000 0.0000
# 3 36.6717 46.6251 71.0214 0.0000 0.0000 0.0000
# 4 0.0000 0.0000 0.0000 50.2267 0.0000 0.0000
# 5 0.0000 0.0000 0.0000 0.0000 43.8581 0.0000
# 6 0.0000 0.0000 0.0000 0.0000 0.0000 73.8609
#
#
#
# Elastic Compliance Matrix: (Units=1/GPa)
#
#
# Indices 1 2 3 4 5 6 
#
# 1 0.007287 -0.000101 -0.003696 0.000000 0.000000 0.000000
# 2 -0.000101 0.004666 -0.003011 0.000000 0.000000 0.000000
# 3 -0.003696 -0.003011 0.017966 0.000000 0.000000 0.000000
# 4 0.000000 0.000000 0.000000 0.019910 0.000000 0.000000
# 5 0.000000 0.000000 0.000000 0.000000 0.022801 0.000000
# 6 0.000000 0.000000 0.000000 0.000000 0.000000 0.013539
#
#
# Mechanical properties :
#
#
# Convention : Reuss Voigt Hill
#
# Bulk Modulus (GPa) = 61.34293 76.98998 69.16645
# Shear Modulus (GPa) = 47.52044 57.71493 52.61768
#
# Velocity S-wave (km/s) = 4.39983 4.84886 4.62979
# Velocity P-wave (km/s) = 7.12746 7.91910 7.53368
#
# Compressibility (1/GPa) = 0.01630180
#
# Stress axis : x y z
#
# Youngs Moduli (GPa) = 137.23603 214.32047 55.66221
#
# Poissons Ratio (x) = 0.02163 0.20574
# Poissons Ratio (y) = 0.01385 0.16760
# Poissons Ratio (z) = 0.50725 0.64532
#
# Static dielectric constant tensor:
#      x y z
#    x 0.459240 0.000000 0.000000 
#    y 0.000000 2.040730 0.000000 
#    z 0.000000 0.000000 1.974410 
# 
# From -- ./inp_files/360.got.cif
#   From: 2010.05.17/outbox.cif.g08.bks.cpg/sg17_1_cif.got.tgz:360.got - 2010.06.03 22:34:06.
