data_PCOD9311250
_publ_section_title
;
Structure prediction by ZEFSAII (Michael W. Deem and Ramdas Pophale) SiO2 
 PCOD9311250
Probable space group: P 2 2 21
;
_chemical_formula_sum "Si O2"
_cell_formula_units_Z 32
_cell_length_a 10.958667
_cell_length_b 15.019235
_cell_length_c 9.208898
_cell_angle_alpha 90.000000
_cell_angle_beta 90.000000
_cell_angle_gamma 90.000000
_cell_volume 1515.699843
_symmetry_space_group_name_H-M "P 2 2 21"
_symmetry_group_IT_number 17
_symmetry_cell_setting 'orthorhombic'
loop_
_space_group_symop_operation_xyz
x,y,z
-x,-y,1/2+z
x,-y,-z
-x,y,1/2-z
loop_
_atom_site_type_symbol
_atom_site_label
_atom_site_fract_x
_atom_site_fract_y
_atom_site_fract_z
Si Si1 0.503534 0.234627 0.574452
Si Si2 0.561347 0.584056 0.590277
Si Si3 0.135694 0.906648 0.684764
Si Si4 0.138323 0.895183 0.226999
Si Si5 0.895962 0.600136 0.954407
Si Si6 0.228044 0.776077 0.447521
Si Si7 0.746784 0.164531 0.453639
Si Si8 0.834424 0.364143 0.383739
O O1 0.500000 0.235330 0.750000
O O2 0.533277 0.330620 0.507679
O O3 0.369178 0.215301 0.512789
O O4 0.610131 0.171427 0.513908
O O5 0.515097 0.500000 0.500000
O O6 0.500000 0.590369 0.750000
O O7 0.708596 0.581869 0.601327
O O8 0.149736 0.844105 0.545635
O O9 0.000000 0.891798 0.750000
O O10 0.152721 0.013101 0.684177
O O11 0.239992 0.874342 0.794198
O O12 0.218893 0.815024 0.286880
O O13 0.172990 0.898076 0.058870
O O14 0.000000 0.867798 0.250000
O O15 0.865810 0.625904 0.787341
O O16 0.043197 0.606830 0.967887
O O17 0.859359 0.500000 0.000000
O O18 0.825437 0.677137 0.042134
O O19 0.803739 0.263639 0.435326
#
# Coordination Sequence:
#
# PCOD9311250 Si02
#       8
#     4   4   4   4   4   4   4   4
#     4  11  25  45  64  92 134 180 231 282 329 406
#     4  11  24  41  67  95 129 178 233 281 339 398
#     4  11  23  42  71 102 137 172 221 283 338 415
#     4  11  23  41  68 105 133 173 227 275 344 409
#     4  11  23  41  65  97 134 173 225 273 338 401
#     4  12  24  43  68  96 139 179 222 282 343 396
#     4  11  22  43  69  94 138 181 218 276 344 396
#     4  10  22  42  64  94 134 174 219 279 335 399
#
# _framework density 21.112358
#
# number of rings (size 3 to 8) (size 9 to 14) (size 15 to 20)
#    0.000    1.000    2.500    4.500    1.750    5.000 
#    6.750    3.750    0.000    0.000    0.000    0.000 
#    0.000    0.000    0.000    0.000    0.000    0.000 
#
# Total GULP energy -178662.367584 kJ/mol
# GULP energy per Si atom -5583.198987 kJ/mol
# Density = 2.106431 g / cm^3
# Si number density = 21.112358 Si / 1000 Ang^3
#
#
#
# Elastic Constant Matrix: (Units=GPa)
#
#
# Indices 1 2 3 4 5 6 
#
# 1 123.0838 46.5024 24.5109 0.0000 0.0000 0.0000
# 2 46.5024 70.1888 19.5780 0.0000 0.0000 0.0000
# 3 24.5109 19.5780 63.6296 0.0000 0.0000 0.0000
# 4 0.0000 0.0000 0.0000 33.2319 0.0000 0.0000
# 5 0.0000 0.0000 0.0000 0.0000 24.8961 0.0000
# 6 0.0000 0.0000 0.0000 0.0000 0.0000 9.4365
#
#
#
# Elastic Compliance Matrix: (Units=1/GPa)
#
#
# Indices 1 2 3 4 5 6 
#
# 1 0.011113 -0.006748 -0.002205 0.000000 0.000000 0.000000
# 2 -0.006748 0.019682 -0.003457 0.000000 0.000000 0.000000
# 3 -0.002205 -0.003457 0.017629 0.000000 0.000000 0.000000
# 4 0.000000 0.000000 0.000000 0.030092 0.000000 0.000000
# 5 0.000000 0.000000 0.000000 0.000000 0.040167 0.000000
# 6 0.000000 0.000000 0.000000 0.000000 0.000000 0.105971
#
#
# Mechanical properties :
#
#
# Convention : Reuss Voigt Hill
#
# Bulk Modulus (GPa) = 42.36250 48.67608 45.51929
# Shear Modulus (GPa) = 19.42956 24.60031 22.01493
#
# Velocity S-wave (km/s) = 3.03692 3.41722 3.23267
# Velocity P-wave (km/s) = 5.69263 6.21897 5.96161
#
# Compressibility (1/GPa) = 0.02360578
#
# Stress axis : x y z
#
# Youngs Moduli (GPa) = 89.98509 50.80777 56.72547
#
# Poissons Ratio (x) = 0.34284 0.12506
# Poissons Ratio (y) = 0.60720 0.19608
# Poissons Ratio (z) = 0.19839 0.17562
#
# Static dielectric constant tensor:
#      x y z
#    x 1.769630 0.000000 0.000000 
#    y 0.000000 1.761010 0.000000 
#    z 0.000000 0.000000 1.772640 
# 
# From -- ./inp_files/4965.got.cif
#   From: 2010.05.17/outbox.cif.g08.bks.cpg/sg17_3_cif.got.tgz:4965.got - 2010.06.03 22:34:06.
