data_PCOD9311967
_publ_section_title
;
Structure prediction by ZEFSAII (Michael W. Deem and Ramdas Pophale) SiO2 
 PCOD9311967
Probable space group: P 21 21 2
;
_chemical_formula_sum "Si O2"
_cell_formula_units_Z 28
_cell_length_a 5.628697
_cell_length_b 21.349851
_cell_length_c 11.480854
_cell_angle_alpha 90.000000
_cell_angle_beta 90.000000
_cell_angle_gamma 90.000000
_cell_volume 1379.675376
_symmetry_space_group_name_H-M "P 21 21 2"
_symmetry_group_IT_number 18
_symmetry_cell_setting 'orthorhombic'
loop_
_space_group_symop_operation_xyz
x,y,z
-x,-y,z
1/2+x,1/2-y,-z
1/2-x,1/2+y,-z
loop_
_atom_site_type_symbol
_atom_site_label
_atom_site_fract_x
_atom_site_fract_y
_atom_site_fract_z
Si Si1 0.031746 0.073365 0.838102
Si Si2 0.505380 0.671565 0.958457
Si Si3 0.257679 0.759152 0.668772
Si Si4 0.091333 0.625029 0.324953
Si Si5 0.997514 0.292810 0.879611
Si Si6 0.521839 0.332635 0.515138
Si Si7 0.686541 0.556486 0.410551
O O1 0.288554 0.094825 0.788869
O O2 0.881079 0.082475 0.719483
O O3 0.000000 0.000000 0.867562
O O4 0.966118 0.118424 0.943287
O O5 0.243098 0.666569 0.900631
O O6 0.747637 0.673179 0.882777
O O7 0.496077 0.739633 0.020590
O O8 0.431913 0.814703 0.708826
O O9 0.053716 0.744642 0.760724
O O10 0.391612 0.695649 0.635048
O O11 0.148356 0.782737 0.547494
O O12 0.272292 0.652642 0.421102
O O13 0.966895 0.567118 0.394066
O O14 0.377853 0.396976 0.515418
O O15 0.500000 0.500000 0.421168
#
# Coordination Sequence:
#
# PCOD9311967 Si02
#       7
#     4   4   4   4   4   4   4
#     4  10  22  37  60  89 120 160 203 252 320 371
#     4  10  22  40  55  90 115 163 199 259 304 366
#     4  11  21  35  57  93 121 166 200 257 311 377
#     4  10  20  35  60  86 127 157 198 256 305 386
#     4  10  23  36  62  81 126 155 207 249 310 366
#     4  10  20  33  56  86 123 155 198 247 314 363
#     4   9  20  36  54  88 118 157 198 247 312 373
#
# _framework density 20.294630000000002
#
# number of rings (size 3 to 8) (size 9 to 14) (size 15 to 20)
#    0.000    2.000    1.429    2.571   10.000    5.143 
#    0.000    0.000    0.000    0.857    3.714    0.000 
#    0.000    0.000    0.000    0.000    0.000    0.000 
#
# Total GULP energy -155876.612207 kJ/mol
# GULP energy per Si atom -5567.021865 kJ/mol
# Density = 2.024844 g / cm^3
# Si number density = 20.294630 Si / 1000 Ang^3
#
#
#
# Elastic Constant Matrix: (Units=GPa)
#
#
# Indices 1 2 3 4 5 6 
#
# 1 81.8659 37.0042 24.6502 0.0000 0.0000 0.0000
# 2 37.0042 77.9318 17.5568 0.0000 0.0000 0.0000
# 3 24.6502 17.5568 19.0930 0.0000 0.0000 0.0000
# 4 0.0000 0.0000 0.0000 26.2711 0.0000 0.0000
# 5 0.0000 0.0000 0.0000 0.0000 22.9594 0.0000
# 6 0.0000 0.0000 0.0000 0.0000 0.0000 15.8950
#
#
#
# Elastic Compliance Matrix: (Units=1/GPa)
#
#
# Indices 1 2 3 4 5 6 
#
# 1 0.021407 -0.004967 -0.023070 0.000000 0.000000 0.000000
# 2 -0.004967 0.017337 -0.009529 0.000000 0.000000 0.000000
# 3 -0.023070 -0.009529 0.090922 0.000000 0.000000 0.000000
# 4 0.000000 0.000000 0.000000 0.038065 0.000000 0.000000
# 5 0.000000 0.000000 0.000000 0.000000 0.043555 0.000000
# 6 0.000000 0.000000 0.000000 0.000000 0.000000 0.062913
#
#
# Mechanical properties :
#
#
# Convention : Reuss Voigt Hill
#
# Bulk Modulus (GPa) = 18.33730 37.47921 27.90826
# Shear Modulus (GPa) = 13.60511 19.67040 16.63776
#
# Velocity S-wave (km/s) = 2.59198 3.11664 2.86634
# Velocity P-wave (km/s) = 4.24417 5.60883 4.97352
#
# Compressibility (1/GPa) = 0.05453366
#
# Stress axis : x y z
#
# Youngs Moduli (GPa) = 46.71422 57.67982 10.99842
#
# Poissons Ratio (x) = 0.28651 0.25373
# Poissons Ratio (y) = 0.23204 0.10480
# Poissons Ratio (z) = 1.07769 0.54964
#
# Static dielectric constant tensor:
#      x y z
#    x 1.936710 0.000000 0.000000 
#    y 0.000000 1.767430 0.000000 
#    z 0.000000 0.000000 1.692570 
# 
# From -- ./inp_files/5212.got.cif
#   From: 2010.05.17/outbox.cif.g08.bks.cpg/sg18_3_cif.got.tgz:5212.got - 2010.06.03 22:40:56.
