data_PCOD9311729
_publ_section_title
;
Structure prediction by ZEFSAII (Michael W. Deem and Ramdas Pophale) SiO2 
 PCOD9311729
Probable space group: P 21 21 2
;
_chemical_formula_sum "Si O2"
_cell_formula_units_Z 14
_cell_length_a 9.520284
_cell_length_b 10.435576
_cell_length_c 5.218169
_cell_angle_alpha 90.000000
_cell_angle_beta 90.000000
_cell_angle_gamma 90.000000
_cell_volume 518.423249
_symmetry_space_group_name_H-M "P 21 21 2"
_symmetry_group_IT_number 18
_symmetry_cell_setting 'orthorhombic'
loop_
_space_group_symop_operation_xyz
x,y,z
-x,-y,z
1/2+x,1/2-y,-z
1/2-x,1/2+y,-z
loop_
_atom_site_type_symbol
_atom_site_label
_atom_site_fract_x
_atom_site_fract_y
_atom_site_fract_z
Si Si1 0.609490 0.133111 0.920492
Si Si2 0.762510 0.872738 0.940316
Si Si3 0.500000 0.500000 0.699383
Si Si4 0.468199 0.731027 0.416846
O O1 0.545712 0.172075 0.649843
O O2 0.651976 0.986543 0.933811
O O3 0.746831 0.227047 0.952926
O O4 0.518568 0.186723 0.159548
O O5 0.823621 0.846102 0.655078
O O6 0.887615 0.932787 0.115199
O O7 0.561961 0.613759 0.520387
#
# Coordination Sequence:
#
# PCOD9311729 Si02
#       4
#     4   4   2   4
#     4   9  20  32  54  81 111 136 183 220 268 315
#     4   9  20  35  56  84 107 141 181 226 267 319
#     4  10  18  36  56  86 108 138 186 226 264 320
#     4   9  20  31  53  82 107 140 174 226 261 317
#
# _framework density 27.004958999999999
#
# number of rings (size 3 to 8) (size 9 to 14) (size 15 to 20)
#    1.714    1.143    0.000    0.857    8.000    0.000 
#    0.000    0.000    0.000    6.857    7.429    0.000 
#    0.000    0.000    0.000    0.000    0.000    0.000 
#
# Total GULP energy -78129.545522 kJ/mol
# GULP energy per Si atom -5580.681823 kJ/mol
# Density = 2.694349 g / cm^3
# Si number density = 27.004959 Si / 1000 Ang^3
#
#
#
# Elastic Constant Matrix: (Units=GPa)
#
#
# Indices 1 2 3 4 5 6 
#
# 1 39.4651 50.7260 29.7424 0.0000 0.0000 0.0000
# 2 50.7260 230.2926 93.2706 0.0000 0.0000 0.0000
# 3 29.7424 93.2706 209.2296 0.0000 0.0000 0.0000
# 4 0.0000 0.0000 0.0000 54.7543 0.0000 0.0000
# 5 0.0000 0.0000 0.0000 0.0000 16.6256 0.0000
# 6 0.0000 0.0000 0.0000 0.0000 0.0000 58.6070
#
#
#
# Elastic Compliance Matrix: (Units=1/GPa)
#
#
# Indices 1 2 3 4 5 6 
#
# 1 0.035973 -0.007142 -0.001930 0.000000 0.000000 0.000000
# 2 -0.007142 0.006717 -0.001979 0.000000 0.000000 0.000000
# 3 -0.001930 -0.001979 0.005936 0.000000 0.000000 0.000000
# 4 0.000000 0.000000 0.000000 0.018263 0.000000 0.000000
# 5 0.000000 0.000000 0.000000 0.000000 0.060148 0.000000
# 6 0.000000 0.000000 0.000000 0.000000 0.000000 0.017063
#
#
# Mechanical properties :
#
#
# Convention : Reuss Voigt Hill
#
# Bulk Modulus (GPa) = 37.70134 91.82947 64.76541
# Shear Modulus (GPa) = 28.56417 46.34724 37.45571
#
# Velocity S-wave (km/s) = 3.25582 4.14726 3.72828
# Velocity P-wave (km/s) = 5.30330 7.55060 6.52443
#
# Compressibility (1/GPa) = 0.02652425
#
# Stress axis : x y z
#
# Youngs Moduli (GPa) = 27.79835 148.87553 168.46383
#
# Poissons Ratio (x) = 1.06329 0.32511
# Poissons Ratio (y) = 0.19854 0.33340
# Poissons Ratio (z) = 0.05365 0.29463
#
# Static dielectric constant tensor:
#      x y z
#    x 2.481460 0.000000 0.000000 
#    y 0.000000 2.090860 0.000000 
#    z 0.000000 0.000000 2.036110 
# 
# From -- ./inp_files/397.got.cif
#   From: 2010.05.17/outbox.cif.g08.bks.cpg/sg18_1_cif.got.tgz:397.got - 2010.06.03 22:40:56.
