data_PCOD9311072
_publ_section_title
;
Structure prediction by ZEFSAII (Michael W. Deem and Ramdas Pophale) SiO2 
 PCOD9311072
Probable space group: P 2 2 21
;
_chemical_formula_sum "Si O2"
_cell_formula_units_Z 12
_cell_length_a 8.327621
_cell_length_b 12.866859
_cell_length_c 5.179836
_cell_angle_alpha 90.000000
_cell_angle_beta 90.000000
_cell_angle_gamma 90.000000
_cell_volume 555.021112
_symmetry_space_group_name_H-M "P 2 2 21"
_symmetry_group_IT_number 17
_symmetry_cell_setting 'orthorhombic'
loop_
_space_group_symop_operation_xyz
x,y,z
-x,-y,1/2+z
x,-y,-z
-x,y,1/2-z
loop_
_atom_site_type_symbol
_atom_site_label
_atom_site_fract_x
_atom_site_fract_y
_atom_site_fract_z
Si Si1 0.604904 0.661596 0.485925
Si Si2 0.000000 0.073137 0.250000
Si Si3 0.887878 0.500000 0.500000
Si Si4 0.334366 0.881555 0.903616
O O1 0.500000 0.617479 0.250000
O O2 0.767021 0.597440 0.521250
O O3 0.649519 0.781322 0.415035
O O4 0.500000 0.659870 0.750000
O O5 0.833825 0.135903 0.256605
O O6 0.010917 0.000000 0.500000
O O7 0.000000 0.508446 0.250000
O O8 0.500000 0.881663 0.750000
O O9 0.322214 0.000000 0.000000
#
# Coordination Sequence:
#
# PCOD9311072 Si02
#       4
#     4   2   2   4
#     4  11  24  44  70  97 132 177 222 272 331 401
#     4  10  22  38  58  92 130 178 220 270 318 384
#     4  12  26  46  70 100 132 170 222 284 338 394
#     4  10  21  39  65  96 135 176 219 265 330 398
#
# _framework density 21.620797
#
# number of rings (size 3 to 8) (size 9 to 14) (size 15 to 20)
#    0.000    1.333    0.000    5.000    2.333    8.000 
#   12.000    0.000    0.000    0.000    0.000    0.000 
#    0.000    0.000    0.000    0.000    0.000    0.000 
#
# Total GULP energy -66962.238592 kJ/mol
# GULP energy per Si atom -5580.186549 kJ/mol
# Density = 2.157159 g / cm^3
# Si number density = 21.620797 Si / 1000 Ang^3
#
#
#
# Elastic Constant Matrix: (Units=GPa)
#
#
# Indices 1 2 3 4 5 6 
#
# 1 211.2443 41.9806 51.3519 0.0000 0.0000 0.0000
# 2 41.9806 129.4217 11.4130 0.0000 0.0000 0.0000
# 3 51.3519 11.4130 120.1996 0.0000 0.0000 0.0000
# 4 0.0000 0.0000 0.0000 5.2274 0.0000 0.0000
# 5 0.0000 0.0000 0.0000 0.0000 47.8294 0.0000
# 6 0.0000 0.0000 0.0000 0.0000 0.0000 188.3255
#
#
#
# Elastic Compliance Matrix: (Units=1/GPa)
#
#
# Indices 1 2 3 4 5 6 
#
# 1 0.005600 -0.001619 -0.002239 0.000000 0.000000 0.000000
# 2 -0.001619 0.008260 -0.000093 0.000000 0.000000 0.000000
# 3 -0.002239 -0.000093 0.009285 0.000000 0.000000 0.000000
# 4 0.000000 0.000000 0.000000 0.191300 0.000000 0.000000
# 5 0.000000 0.000000 0.000000 0.000000 0.020908 0.000000
# 6 0.000000 0.000000 0.000000 0.000000 0.000000 0.005310
#
#
# Mechanical properties :
#
#
# Convention : Reuss Voigt Hill
#
# Bulk Modulus (GPa) = 65.59965 74.48407 70.04186
# Shear Modulus (GPa) = 19.71265 72.01780 45.86522
#
# Velocity S-wave (km/s) = 3.02279 5.77770 4.61081
# Velocity P-wave (km/s) = 6.52609 8.89011 7.79820
#
# Compressibility (1/GPa) = 0.01524398
#
# Stress axis : x y z
#
# Youngs Moduli (GPa) = 178.57807 121.06538 107.70426
#
# Poissons Ratio (x) = 0.19600 0.24111
# Poissons Ratio (y) = 0.28912 0.00998
# Poissons Ratio (z) = 0.39977 0.01121
#
# Static dielectric constant tensor:
#      x y z
#    x 1.824990 0.000000 0.000000 
#    y 0.000000 1.872190 0.000000 
#    z 0.000000 0.000000 1.640860 
# 
# From -- ./inp_files/522.got.cif
#   From: 2010.05.17/outbox.cif.g08.bks.cpg/sg17_1_cif.got.tgz:522.got - 2010.06.03 22:34:06.
