data_PCOD9311321
_publ_section_title
;
Structure prediction by ZEFSAII (Michael W. Deem and Ramdas Pophale) SiO2 
 PCOD9311321
Probable space group: P 2 2 21
;
_chemical_formula_sum "Si O2"
_cell_formula_units_Z 20
_cell_length_a 4.996566
_cell_length_b 5.625126
_cell_length_c 28.370356
_cell_angle_alpha 90.000000
_cell_angle_beta 90.000000
_cell_angle_gamma 90.000000
_cell_volume 797.386115
_symmetry_space_group_name_H-M "P 2 2 21"
_symmetry_group_IT_number 17
_symmetry_cell_setting 'orthorhombic'
loop_
_space_group_symop_operation_xyz
x,y,z
-x,-y,1/2+z
x,-y,-z
-x,y,1/2-z
loop_
_atom_site_type_symbol
_atom_site_label
_atom_site_fract_x
_atom_site_fract_y
_atom_site_fract_z
Si Si1 0.949983 0.000000 0.500000
Si Si2 0.376792 0.500000 0.000000
Si Si3 0.079138 0.112928 0.397458
Si Si4 0.555283 0.574538 0.602656
Si Si5 0.500000 0.876699 0.750000
Si Si6 0.752285 0.787956 0.327812
Si Si7 0.000000 0.550691 0.750000
O O1 0.783360 0.751715 0.497891
O O2 0.105623 0.986595 0.549385
O O3 0.530832 0.508228 0.950471
O O4 0.857639 0.324622 0.399300
O O5 0.359481 0.217816 0.381695
O O6 0.954796 0.925809 0.361727
O O7 0.555792 0.358563 0.638380
O O8 0.250223 0.713345 0.736387
O O9 0.402031 0.038385 0.792782
O O10 0.909622 0.608108 0.293801
#
# Coordination Sequence:
#
# PCOD9311321 Si02
#       7
#     2   2   4   4   2   4   2
#     4  10  22  50  80 120 170 230 278 344 416 504
#     4  10  22  50  80 120 170 230 278 344 416 504
#     4  11  27  48  80 117 165 216 275 337 411 500
#     4  11  27  48  80 117 165 216 275 337 411 500
#     4  12  30  52  84 118 162 212 276 350 418 498
#     4  12  28  54  82 120 162 218 276 340 426 492
#     4  12  30  52  84 118 162 212 276 350 418 498
#
# _framework density 25.081952000000001
#
# number of rings (size 3 to 8) (size 9 to 14) (size 15 to 20)
#    0.000    0.800    2.000    2.400    0.000   24.000 
#    0.000    0.000    0.000    0.000    0.000    0.000 
#    0.000    0.000    0.000    0.000    0.000    0.000 
#
# Total GULP energy -112295.109716 kJ/mol
# GULP energy per Si atom -5614.755486 kJ/mol
# Density = 2.502486 g / cm^3
# Si number density = 25.081952 Si / 1000 Ang^3
#
#
#
# Elastic Constant Matrix: (Units=GPa)
#
#
# Indices 1 2 3 4 5 6 
#
# 1 93.7858 49.5391 46.1259 0.0000 0.0000 0.0000
# 2 49.5391 161.8383 91.4301 0.0000 0.0000 0.0000
# 3 46.1259 91.4301 224.9763 0.0000 0.0000 0.0000
# 4 0.0000 0.0000 0.0000 66.0084 0.0000 0.0000
# 5 0.0000 0.0000 0.0000 0.0000 -30.6280 0.0000
# 6 0.0000 0.0000 0.0000 0.0000 0.0000 34.7752
#
#
#
# Elastic Compliance Matrix: (Units=1/GPa)
#
#
# Indices 1 2 3 4 5 6 
#
# 1 0.013034 -0.003219 -0.001364 0.000000 0.000000 0.000000
# 2 -0.003219 0.008815 -0.002923 0.000000 0.000000 0.000000
# 3 -0.001364 -0.002923 0.005912 0.000000 0.000000 0.000000
# 4 0.000000 0.000000 0.000000 0.015150 0.000000 0.000000
# 5 0.000000 0.000000 0.000000 0.000000 -0.032650 0.000000
# 6 0.000000 0.000000 0.000000 0.000000 0.000000 0.028756
#
#
# Mechanical properties :
#
#
# Convention : Reuss Voigt Hill
#
# Bulk Modulus (GPa) = 78.43023 94.97673 86.70348
# Shear Modulus (GPa) = 85.79423 33.59814 59.69619
#
# Velocity S-wave (km/s) = 5.85490 3.66394 4.88386
# Velocity P-wave (km/s) = 8.77747 7.47315 8.15144
#
# Compressibility (1/GPa) = 0.01275019
#
# Stress axis : x y z
#
# Youngs Moduli (GPa) = 76.72345 113.43661 169.13828
#
# Poissons Ratio (x) = 0.36516 0.23071
# Poissons Ratio (y) = 0.24698 0.49433
# Poissons Ratio (z) = 0.10465 0.33153
#
# Static dielectric constant tensor:
#      x y z
#    x 1.978840 0.000000 0.000000 
#    y 0.000000 1.972870 0.000000 
#    z 0.000000 0.000000 1.941240 
# 
# From -- ./inp_files/10789.got.cif
#   From: 2010.05.17/outbox.cif.g08.bks.cpg/sg17_6_cif.got.tgz:10789.got - 2010.06.03 22:34:06.
