data_PCOD9311987
_publ_section_title
;
Structure prediction by ZEFSAII (Michael W. Deem and Ramdas Pophale) SiO2 
 PCOD9311987
Probable space group: P 21 21 2
;
_chemical_formula_sum "Si O2"
_cell_formula_units_Z 30
_cell_length_a 12.342798
_cell_length_b 9.247444
_cell_length_c 11.750313
_cell_angle_alpha 90.000000
_cell_angle_beta 90.000000
_cell_angle_gamma 90.000000
_cell_volume 1341.172892
_symmetry_space_group_name_H-M "P 21 21 2"
_symmetry_group_IT_number 18
_symmetry_cell_setting 'orthorhombic'
loop_
_space_group_symop_operation_xyz
x,y,z
-x,-y,z
1/2+x,1/2-y,-z
1/2-x,1/2+y,-z
loop_
_atom_site_type_symbol
_atom_site_label
_atom_site_fract_x
_atom_site_fract_y
_atom_site_fract_z
Si Si1 0.306448 0.058894 0.158835
Si Si2 0.749621 0.639034 0.250679
Si Si3 0.616280 0.937483 0.912524
Si Si4 0.972088 0.775803 0.348064
Si Si5 0.631095 0.650115 0.472005
Si Si6 0.679517 0.985816 0.412464
Si Si7 0.500000 0.000000 0.572879
Si Si8 0.082092 0.896599 0.126513
O O1 0.298844 0.232143 0.174285
O O2 0.350207 0.004950 0.280503
O O3 0.187753 0.990286 0.149006
O O4 0.364491 0.016006 0.043302
O O5 0.796026 0.512368 0.170926
O O6 0.851542 0.720073 0.315751
O O7 0.663152 0.589285 0.346863
O O8 0.614346 0.763257 0.914517
O O9 0.500000 0.000000 0.879280
O O10 0.012364 0.844432 0.468268
O O11 0.042345 0.627747 0.350720
O O12 0.017152 0.861415 0.242134
O O13 0.668795 0.818350 0.452872
O O14 0.706642 0.560076 0.559122
O O15 0.590692 0.063166 0.490497
O O16 0.000000 0.000000 0.055808
#
# Coordination Sequence:
#
# PCOD9311987 Si02
#       8
#     4   4   4   4   4   4   2   4
#     4  11  24  41  61  95 129 172 225 280 319 386
#     4  11  22  43  64  98 132 172 225 270 338 401
#     4  12  25  42  68  93 127 177 225 270 331 397
#     4  11  19  36  64  94 127 169 210 264 328 398
#     4  10  22  35  62  96 129 163 210 269 330 392
#     4  10  21  36  57  89 126 164 207 269 323 389
#     4  10  20  34  58  88 124 170 204 256 328 388
#     4  12  23  39  66  95 126 161 221 271 318 389
#
# _framework density 22.368482
#
# number of rings (size 3 to 8) (size 9 to 14) (size 15 to 20)
#    0.000    1.067    5.333    1.600    2.800    0.000 
#    0.000    0.000    0.000    0.000    0.000    0.000 
#    0.000    0.000    0.000    0.000    0.000    0.000 
#
# Total GULP energy -167213.506564 kJ/mol
# GULP energy per Si atom -5573.783552 kJ/mol
# Density = 2.231757 g / cm^3
# Si number density = 22.368482 Si / 1000 Ang^3
#
#
#
# Elastic Constant Matrix: (Units=GPa)
#
#
# Indices 1 2 3 4 5 6 
#
# 1 40.4860 -7.3160 18.9592 0.0000 0.0000 0.0000
# 2 -7.3160 79.4628 33.8419 0.0000 0.0000 0.0000
# 3 18.9592 33.8419 123.0761 0.0000 0.0000 0.0000
# 4 0.0000 0.0000 0.0000 21.0722 0.0000 0.0000
# 5 0.0000 0.0000 0.0000 0.0000 23.7128 0.0000
# 6 0.0000 0.0000 0.0000 0.0000 0.0000 28.6281
#
#
#
# Elastic Compliance Matrix: (Units=1/GPa)
#
#
# Indices 1 2 3 4 5 6 
#
# 1 0.028306 0.005055 -0.005750 0.000000 0.000000 0.000000
# 2 0.005055 0.015156 -0.004946 0.000000 0.000000 0.000000
# 3 -0.005750 -0.004946 0.010371 0.000000 0.000000 0.000000
# 4 0.000000 0.000000 0.000000 0.047456 0.000000 0.000000
# 5 0.000000 0.000000 0.000000 0.000000 0.042171 0.000000
# 6 0.000000 0.000000 0.000000 0.000000 0.000000 0.034931
#
#
# Mechanical properties :
#
#
# Convention : Reuss Voigt Hill
#
# Bulk Modulus (GPa) = 23.50145 37.11058 30.30601
# Shear Modulus (GPa) = 24.52687 27.85195 26.18941
#
# Velocity S-wave (km/s) = 3.31492 3.53249 3.42543
# Velocity P-wave (km/s) = 5.01806 5.76754 5.40581
#
# Compressibility (1/GPa) = 0.04255057
#
# Stress axis : x y z
#
# Youngs Moduli (GPa) = 35.32786 65.97849 96.42331
#
# Poissons Ratio (x) = -0.33353 0.55448
# Poissons Ratio (y) = -0.17859 0.47693
# Poissons Ratio (z) = 0.20315 0.32635
#
# Static dielectric constant tensor:
#      x y z
#    x 1.894590 0.000000 0.000000 
#    y 0.000000 1.895890 0.000000 
#    z 0.000000 0.000000 1.855810 
# 
# From -- ./inp_files/6084.got.cif
#   From: 2010.05.17/outbox.cif.g08.bks.cpg/sg18_4_cif.got.tgz:6084.got - 2010.06.03 22:40:56.
