data_PCOD9311037
_publ_section_title
;
Structure prediction by ZEFSAII (Michael W. Deem and Ramdas Pophale) SiO2 
 PCOD9311037
Probable space group: P 2 2 21
;
_chemical_formula_sum "Si O2"
_cell_formula_units_Z 20
_cell_length_a 4.882081
_cell_length_b 16.232719
_cell_length_c 11.689748
_cell_angle_alpha 90.000000
_cell_angle_beta 90.000000
_cell_angle_gamma 90.000000
_cell_volume 926.406088
_symmetry_space_group_name_H-M "P 2 2 21"
_symmetry_group_IT_number 17
_symmetry_cell_setting 'orthorhombic'
loop_
_space_group_symop_operation_xyz
x,y,z
-x,-y,1/2+z
x,-y,-z
-x,y,1/2-z
loop_
_atom_site_type_symbol
_atom_site_label
_atom_site_fract_x
_atom_site_fract_y
_atom_site_fract_z
Si Si1 0.046802 0.549989 0.381917
Si Si2 0.417641 0.173722 0.510214
Si Si3 0.090100 0.095015 0.876931
Si Si4 0.545514 0.337876 0.622153
Si Si5 0.749380 0.082140 0.320854
O O1 0.991479 0.500000 0.500000
O O2 0.358464 0.580916 0.386228
O O3 0.000000 0.515899 0.250000
O O4 0.855305 0.631347 0.388031
O O5 0.608816 0.128750 0.602470
O O6 0.448156 0.270251 0.532251
O O7 0.572275 0.145314 0.395581
O O8 0.115987 0.138074 0.532857
O O9 0.000000 0.118246 0.750000
O O10 0.106318 0.995928 0.880871
O O11 0.500000 0.303723 0.750000
O O12 0.500000 0.041570 0.250000
O O13 0.000000 0.121292 0.250000
#
# Coordination Sequence:
#
# PCOD9311037 Si02
#       5
#     4   4   4   4   4
#     4  10  21  40  65  93 125 158 195 242 302 374
#     4  12  23  39  61  85 116 158 203 251 312 368
#     4  11  22  36  57  85 113 150 204 260 308 361
#     4  10  21  38  62  93 123 151 191 250 307 357
#     4  11  24  41  56  80 120 165 212 263 308 362
#
# _framework density 21.588806000000002
#
# number of rings (size 3 to 8) (size 9 to 14) (size 15 to 20)
#    0.000    1.200    0.000    7.800    0.000    4.800 
#    0.000    3.000    0.000    0.000    0.000    0.000 
#    0.000    0.000    0.000    0.000    0.000    0.000 
#
# Total GULP energy -111582.528090 kJ/mol
# GULP energy per Si atom -5579.126405 kJ/mol
# Density = 2.153967 g / cm^3
# Si number density = 21.588806 Si / 1000 Ang^3
#
#
#
# Elastic Constant Matrix: (Units=GPa)
#
#
# Indices 1 2 3 4 5 6 
#
# 1 83.3625 -1.6788 10.3482 0.0000 0.0000 0.0000
# 2 -1.6788 49.8364 31.9633 0.0000 0.0000 0.0000
# 3 10.3482 31.9633 104.7517 0.0000 0.0000 0.0000
# 4 0.0000 0.0000 0.0000 26.1927 0.0000 0.0000
# 5 0.0000 0.0000 0.0000 0.0000 41.6719 0.0000
# 6 0.0000 0.0000 0.0000 0.0000 0.0000 8.4386
#
#
#
# Elastic Compliance Matrix: (Units=1/GPa)
#
#
# Indices 1 2 3 4 5 6 
#
# 1 0.012231 0.001476 -0.001659 0.000000 0.000000 0.000000
# 2 0.001476 0.025126 -0.007813 0.000000 0.000000 0.000000
# 3 -0.001659 -0.007813 0.012094 0.000000 0.000000 0.000000
# 4 0.000000 0.000000 0.000000 0.038179 0.000000 0.000000
# 5 0.000000 0.000000 0.000000 0.000000 0.023997 0.000000
# 6 0.000000 0.000000 0.000000 0.000000 0.000000 0.118504
#
#
# Mechanical properties :
#
#
# Convention : Reuss Voigt Hill
#
# Bulk Modulus (GPa) = 29.88571 35.46844 32.67708
# Shear Modulus (GPa) = 19.43444 28.41517 23.92480
#
# Velocity S-wave (km/s) = 3.00360 3.63188 3.33258
# Velocity P-wave (km/s) = 5.08941 5.83542 5.47514
#
# Compressibility (1/GPa) = 0.03346080
#
# Stress axis : x y z
#
# Youngs Moduli (GPa) = 81.75670 39.79919 82.68464
#
# Poissons Ratio (x) = -0.05874 0.13714
# Poissons Ratio (y) = -0.12066 0.64599
# Poissons Ratio (z) = 0.13561 0.31094
#
# Static dielectric constant tensor:
#      x y z
#    x 1.740760 0.000000 0.000000 
#    y 0.000000 1.772910 0.000000 
#    z 0.000000 0.000000 1.952120 
# 
# From -- ./inp_files/5949.got.cif
#   From: 2010.05.17/outbox.cif.g08.bks.cpg/sg17_3_cif.got.tgz:5949.got - 2010.06.03 22:34:06.
