data_PCOD9311054
_publ_section_title
;
Structure prediction by ZEFSAII (Michael W. Deem and Ramdas Pophale) SiO2 
 PCOD9311054
Probable space group: P 2 2 21
;
_chemical_formula_sum "Si O2"
_cell_formula_units_Z 24
_cell_length_a 5.347860
_cell_length_b 7.824140
_cell_length_c 26.319933
_cell_angle_alpha 90.000000
_cell_angle_beta 90.000000
_cell_angle_gamma 90.000000
_cell_volume 1101.289305
_symmetry_space_group_name_H-M "P 2 2 21"
_symmetry_group_IT_number 17
_symmetry_cell_setting 'orthorhombic'
loop_
_space_group_symop_operation_xyz
x,y,z
-x,-y,1/2+z
x,-y,-z
-x,y,1/2-z
loop_
_atom_site_type_symbol
_atom_site_label
_atom_site_fract_x
_atom_site_fract_y
_atom_site_fract_z
Si Si1 0.244328 0.587798 0.345157
Si Si2 0.974021 0.997486 0.060515
Si Si3 0.884574 0.352982 0.402085
Si Si4 0.404332 0.500000 0.000000
Si Si5 0.000000 0.587111 0.250000
Si Si6 0.483752 0.788074 0.077433
Si Si7 0.598724 0.673295 0.699775
O O1 0.125808 0.685797 0.297179
O O2 0.477923 0.675485 0.372141
O O3 0.349304 0.414506 0.321060
O O4 0.042314 0.519369 0.385158
O O5 0.225910 0.892678 0.075455
O O6 0.724078 0.907827 0.079023
O O7 0.960960 0.190424 0.079990
O O8 0.976713 0.000000 0.000000
O O9 0.736917 0.413273 0.452244
O O10 0.733787 0.278390 0.353046
O O11 0.525023 0.338425 0.970888
O O12 0.209883 0.468674 0.222814
O O13 0.500000 0.776311 0.750000
#
# Coordination Sequence:
#
# PCOD9311054 Si02
#       7
#     4   4   4   2   2   4   4
#     4  10  21  38  71  97 129 173 235 284 332 405
#     4  12  28  44  62  94 145 183 217 276 353 407
#     4  11  24  42  66 100 136 180 228 284 339 411
#     4  12  24  44  68 102 130 178 238 278 328 414
#     4   8  18  36  64 104 128 160 224 302 340 382
#     4  12  27  43  67  98 136 179 227 277 340 411
#     4   9  18  37  67 101 126 169 233 292 335 388
#
# _framework density 21.792642000000001
#
# number of rings (size 3 to 8) (size 9 to 14) (size 15 to 20)
#    0.000    1.333    3.333    1.500    7.000    0.667 
#    0.000    0.000    3.667    0.000    0.000    0.000 
#    0.000    0.000    0.000    0.000    0.000    0.000 
#
# Total GULP energy -133670.467294 kJ/mol
# GULP energy per Si atom -5569.602804 kJ/mol
# Density = 2.174304 g / cm^3
# Si number density = 21.792642 Si / 1000 Ang^3
#
#
#
# Elastic Constant Matrix: (Units=GPa)
#
#
# Indices 1 2 3 4 5 6 
#
# 1 66.6643 0.5407 6.0168 0.0000 0.0000 0.0000
# 2 0.5407 40.3585 3.2863 0.0000 0.0000 0.0000
# 3 6.0168 3.2863 119.0321 0.0000 0.0000 0.0000
# 4 0.0000 0.0000 0.0000 7.7116 0.0000 0.0000
# 5 0.0000 0.0000 0.0000 0.0000 -659.4171 0.0000
# 6 0.0000 0.0000 0.0000 0.0000 0.0000 -269.4917
#
#
#
# Elastic Compliance Matrix: (Units=1/GPa)
#
#
# Indices 1 2 3 4 5 6 
#
# 1 0.015070 -0.000140 -0.000758 0.000000 0.000000 0.000000
# 2 -0.000140 0.024835 -0.000679 0.000000 0.000000 0.000000
# 3 -0.000758 -0.000679 0.008458 0.000000 0.000000 0.000000
# 4 0.000000 0.000000 0.000000 0.129675 0.000000 0.000000
# 5 0.000000 0.000000 0.000000 0.000000 -0.001516 0.000000
# 6 0.000000 0.000000 0.000000 0.000000 0.000000 -0.003711
#
#
# Mechanical properties :
#
#
# Convention : Reuss Voigt Hill
#
# Bulk Modulus (GPa) = 22.11903 27.30473 24.71188
# Shear Modulus (GPa) = 26.17330 -169.82536 -71.82603
#
# Velocity S-wave (km/s) = 3.46933 -8.83725 -5.74721
# Velocity P-wave (km/s) = 5.12056 9.56937 5.71632
#
# Compressibility (1/GPa) = 0.04520994
#
# Stress axis : x y z
#
# Youngs Moduli (GPa) = 66.35665 40.26569 118.22929
#
# Poissons Ratio (x) = 0.00565 0.08961
# Poissons Ratio (y) = 0.00930 0.08023
# Poissons Ratio (z) = 0.05029 0.02732
#
# Static dielectric constant tensor:
#      x y z
#    x 1.908220 0.000000 0.000000 
#    y 0.000000 2.925100 0.000000 
#    z 0.000000 0.000000 2.069350 
# 
# From -- ./inp_files/10426.got.cif
#   From: 2010.05.17/outbox.cif.g08.bks.cpg/sg17_6_cif.got.tgz:10426.got - 2010.06.03 22:34:06.
