data_PCOD9311990
_publ_section_title
;
Structure prediction by ZEFSAII (Michael W. Deem and Ramdas Pophale) SiO2 
 PCOD9311990
Probable space group: P 21 21 2
;
_chemical_formula_sum "Si O2"
_cell_formula_units_Z 26
_cell_length_a 17.628597
_cell_length_b 8.052210
_cell_length_c 9.154423
_cell_angle_alpha 90.000000
_cell_angle_beta 90.000000
_cell_angle_gamma 90.000000
_cell_volume 1299.462701
_symmetry_space_group_name_H-M "P 21 21 2"
_symmetry_group_IT_number 18
_symmetry_cell_setting 'orthorhombic'
loop_
_space_group_symop_operation_xyz
x,y,z
-x,-y,z
1/2+x,1/2-y,-z
1/2-x,1/2+y,-z
loop_
_atom_site_type_symbol
_atom_site_label
_atom_site_fract_x
_atom_site_fract_y
_atom_site_fract_z
Si Si1 0.058608 0.846841 0.672562
Si Si2 0.799215 0.775559 0.295206
Si Si3 0.285118 0.186461 0.816658
Si Si4 0.683836 0.615472 0.092149
Si Si5 0.581238 0.048558 0.730567
Si Si6 0.000000 0.500000 0.561486
Si Si7 0.706686 0.613537 0.530145
O O1 0.103381 0.862896 0.826815
O O2 0.017719 0.668049 0.650357
O O3 0.125751 0.857531 0.549906
O O4 0.000000 0.000000 0.655572
O O5 0.739216 0.753765 0.166409
O O6 0.884055 0.730822 0.247071
O O7 0.769656 0.631508 0.405452
O O8 0.794226 0.941010 0.386125
O O9 0.272428 0.255720 0.655374
O O10 0.217430 0.066739 0.871268
O O11 0.358602 0.070912 0.804594
O O12 0.307361 0.338185 0.923228
O O13 0.500000 0.000000 0.793554
O O14 0.568277 0.026999 0.555667
#
# Coordination Sequence:
#
# PCOD9311990 Si02
#       7
#     4   4   4   4   4   2   4
#     4  11  23  42  62  95 127 160 211 259 317 383
#     4  10  20  34  60  91 119 158 206 259 315 357
#     4  11  21  43  60  85 126 159 208 257 302 373
#     4  10  24  41  59  89 125 166 211 257 310 376
#     4   9  19  37  58  88 120 153 201 246 307 369
#     4  10  20  38  64  92 124 162 194 266 314 372
#     4  11  20  35  62  89 121 158 206 264 306 369
#
# _framework density 20.008268000000001
#
# number of rings (size 3 to 8) (size 9 to 14) (size 15 to 20)
#    0.462    1.231    1.538    4.615    2.154    0.000 
#    4.154    3.846    0.000    0.000    0.000    0.000 
#    0.000    0.000    0.000    0.000    0.000    0.000 
#
# Total GULP energy -144875.157341 kJ/mol
# GULP energy per Si atom -5572.121436 kJ/mol
# Density = 1.996273 g / cm^3
# Si number density = 20.008268 Si / 1000 Ang^3
#
#
#
# Elastic Constant Matrix: (Units=GPa)
#
#
# Indices 1 2 3 4 5 6 
#
# 1 78.8012 27.6967 6.6736 0.0000 0.0000 0.0000
# 2 27.6967 89.8911 -3.0162 0.0000 0.0000 0.0000
# 3 6.6736 -3.0162 67.0167 0.0000 0.0000 0.0000
# 4 0.0000 0.0000 0.0000 39.0152 0.0000 0.0000
# 5 0.0000 0.0000 0.0000 0.0000 16.3694 0.0000
# 6 0.0000 0.0000 0.0000 0.0000 0.0000 13.2472
#
#
#
# Elastic Compliance Matrix: (Units=1/GPa)
#
#
# Indices 1 2 3 4 5 6 
#
# 1 0.014408 -0.004494 -0.001637 0.000000 0.000000 0.000000
# 2 -0.004494 0.012543 0.001012 0.000000 0.000000 0.000000
# 3 -0.001637 0.001012 0.015130 0.000000 0.000000 0.000000
# 4 0.000000 0.000000 0.000000 0.025631 0.000000 0.000000
# 5 0.000000 0.000000 0.000000 0.000000 0.061090 0.000000
# 6 0.000000 0.000000 0.000000 0.000000 0.000000 0.075488
#
#
# Mechanical properties :
#
#
# Convention : Reuss Voigt Hill
#
# Bulk Modulus (GPa) = 31.40383 33.15746 32.28064
# Shear Modulus (GPa) = 22.20803 27.35002 24.77903
#
# Velocity S-wave (km/s) = 3.33519 3.70122 3.52296
# Velocity P-wave (km/s) = 5.52819 5.90536 5.71988
#
# Compressibility (1/GPa) = 0.03184325
#
# Stress axis : x y z
#
# Youngs Moduli (GPa) = 69.40364 79.72374 66.09288
#
# Poissons Ratio (x) = 0.35831 0.10820
# Poissons Ratio (y) = 0.31193 -0.06689
# Poissons Ratio (z) = 0.11362 -0.08069
#
# Static dielectric constant tensor:
#      x y z
#    x 1.723310 0.000000 0.000000 
#    y 0.000000 1.759290 0.000000 
#    z 0.000000 0.000000 1.706540 
# 
# From -- ./inp_files/4489.got.cif
#   From: 2010.05.17/outbox.cif.g08.bks.cpg/sg18_3_cif.got.tgz:4489.got - 2010.06.03 22:40:56.
