data_PCOD9311129
_publ_section_title
;
Structure prediction by ZEFSAII (Michael W. Deem and Ramdas Pophale) SiO2 
 PCOD9311129
Probable space group: P 2 2 21
;
_chemical_formula_sum "Si O2"
_cell_formula_units_Z 26
_cell_length_a 7.970782
_cell_length_b 16.820685
_cell_length_c 8.273455
_cell_angle_alpha 90.000000
_cell_angle_beta 90.000000
_cell_angle_gamma 90.000000
_cell_volume 1109.255315
_symmetry_space_group_name_H-M "P 2 2 21"
_symmetry_group_IT_number 17
_symmetry_cell_setting 'orthorhombic'
loop_
_space_group_symop_operation_xyz
x,y,z
-x,-y,1/2+z
x,-y,-z
-x,y,1/2-z
loop_
_atom_site_type_symbol
_atom_site_label
_atom_site_fract_x
_atom_site_fract_y
_atom_site_fract_z
Si Si1 0.306832 0.095266 0.204641
Si Si2 0.163957 0.527169 0.678312
Si Si3 0.686181 0.092434 0.681836
Si Si4 0.104622 0.226929 0.405397
Si Si5 0.000000 0.807389 0.250000
Si Si6 0.416404 0.331904 0.401281
Si Si7 0.359385 0.574797 0.117037
O O1 0.500000 0.109301 0.250000
O O2 0.185279 0.146197 0.323112
O O3 0.278504 0.000406 0.218853
O O4 0.296068 0.109349 0.010658
O O5 0.128395 0.500000 0.500000
O O6 0.322658 0.587121 0.662755
O O7 0.194900 0.446596 0.782605
O O8 0.000000 0.567704 0.750000
O O9 0.500000 0.110446 0.750000
O O10 0.830292 0.142170 0.767253
O O11 0.992404 0.229375 0.568804
O O12 0.264233 0.279311 0.459979
O O13 0.000000 0.258240 0.250000
O O14 0.500000 0.290227 0.250000
O O15 0.572486 0.350649 0.518251
O O16 0.500000 0.567009 0.250000
O O17 0.367145 0.500000 0.000000
#
# Coordination Sequence:
#
# PCOD9311129 Si02
#       7
#     4   4   4   4   2   4   4
#     4  10  21  42  72 109 149 194 250 320 378 449
#     4  12  24  42  71 108 142 177 235 320 366 429
#     4  10  22  40  75 114 145 192 261 322 380 439
#     4  12  27  50  68 104 159 201 249 304 383 473
#     4  12  26  48  76 106 150 202 262 316 382 450
#     4  12  25  46  73 101 141 199 240 291 383 454
#     4  12  19  43  72 103 135 171 242 305 354 429
#
# _framework density 23.439150000000001
#
# number of rings (size 3 to 8) (size 9 to 14) (size 15 to 20)
#    0.000    0.615    6.154    2.308    1.077    1.846 
#    4.154    0.000    0.000    0.000    0.000    0.000 
#    0.000    0.000    0.000    0.000    0.000    0.000 
#
# Total GULP energy -144946.764686 kJ/mol
# GULP energy per Si atom -5574.875565 kJ/mol
# Density = 2.338580 g / cm^3
# Si number density = 23.439150 Si / 1000 Ang^3
#
#
#
# Elastic Constant Matrix: (Units=GPa)
#
#
# Indices 1 2 3 4 5 6 
#
# 1 74.2972 23.6746 9.8874 0.0000 0.0000 0.0000
# 2 23.6746 58.1714 31.9643 0.0000 0.0000 0.0000
# 3 9.8874 31.9643 140.3798 0.0000 0.0000 0.0000
# 4 0.0000 0.0000 0.0000 -10.5151 0.0000 0.0000
# 5 0.0000 0.0000 0.0000 0.0000 47.9786 0.0000
# 6 0.0000 0.0000 0.0000 0.0000 0.0000 -65.4826
#
#
#
# Elastic Compliance Matrix: (Units=1/GPa)
#
#
# Indices 1 2 3 4 5 6 
#
# 1 0.015484 -0.006518 0.000394 0.000000 0.000000 0.000000
# 2 -0.006518 0.022393 -0.004640 0.000000 0.000000 0.000000
# 3 0.000394 -0.004640 0.008152 0.000000 0.000000 0.000000
# 4 0.000000 0.000000 0.000000 -0.095102 0.000000 0.000000
# 5 0.000000 0.000000 0.000000 0.000000 0.020843 0.000000
# 6 0.000000 0.000000 0.000000 0.000000 0.000000 -0.015271
#
#
# Mechanical properties :
#
#
# Convention : Reuss Voigt Hill
#
# Bulk Modulus (GPa) = 40.81502 44.87788 42.84645
# Shear Modulus (GPa) = -362.15902 8.21766 -176.97068
#
# Velocity S-wave (km/s) = -12.44370 1.87445 -8.69863
# Velocity P-wave (km/s) = 13.74809 4.88599 9.08672
#
# Compressibility (1/GPa) = 0.02450078
#
# Stress axis : x y z
#
# Youngs Moduli (GPa) = 64.58280 44.65744 122.66526
#
# Poissons Ratio (x) = 0.29107 -0.04827
# Poissons Ratio (y) = 0.42094 0.56913
# Poissons Ratio (z) = -0.02542 0.20720
#
# Static dielectric constant tensor:
#      x y z
#    x 1.856300 0.000000 0.000000 
#    y 0.000000 1.920700 0.000000 
#    z 0.000000 0.000000 2.074640 
# 
# From -- ./inp_files/4399.got.cif
#   From: 2010.05.17/outbox.cif.g08.bks.cpg/sg17_3_cif.got.tgz:4399.got - 2010.06.03 22:34:06.
