data_PCOD9311198
_publ_section_title
;
Structure prediction by ZEFSAII (Michael W. Deem and Ramdas Pophale) SiO2 
 PCOD9311198
Probable space group: P 2 2 21
;
_chemical_formula_sum "Si O2"
_cell_formula_units_Z 20
_cell_length_a 11.136106
_cell_length_b 7.356333
_cell_length_c 10.226559
_cell_angle_alpha 90.000000
_cell_angle_beta 90.000000
_cell_angle_gamma 90.000000
_cell_volume 837.768959
_symmetry_space_group_name_H-M "P 2 2 21"
_symmetry_group_IT_number 17
_symmetry_cell_setting 'orthorhombic'
loop_
_space_group_symop_operation_xyz
x,y,z
-x,-y,1/2+z
x,-y,-z
-x,y,1/2-z
loop_
_atom_site_type_symbol
_atom_site_label
_atom_site_fract_x
_atom_site_fract_y
_atom_site_fract_z
Si Si1 0.582422 0.706077 0.031632
Si Si2 0.635032 0.209959 0.245168
Si Si3 0.358855 0.800245 0.169735
Si Si4 0.910251 0.211528 0.637840
Si Si5 0.103426 0.231670 0.153651
O O1 0.439354 0.733251 0.048913
O O2 0.614764 0.744051 0.181270
O O3 0.612567 0.500000 0.000000
O O4 0.642214 0.817758 0.913013
O O5 0.500000 0.301828 0.250000
O O6 0.761598 0.287401 0.299812
O O7 0.625335 0.018024 0.320160
O O8 0.226080 0.730350 0.151002
O O9 0.940187 0.273717 0.492460
O O10 0.000000 0.272822 0.750000
O O11 0.899471 0.990920 0.651993
O O12 0.000000 0.295807 0.250000
#
# Coordination Sequence:
#
# PCOD9311198 Si02
#       5
#     4   4   4   4   4
#     4  11  24  39  59  90 130 163 207 262 328 382
#     4  11  21  36  65  90 124 161 210 266 312 375
#     4  10  22  40  59  93 122 160 214 260 319 386
#     4   9  18  34  58  86 127 159 198 263 317 374
#     4   9  19  33  55  94 126 158 204 258 325 376
#
# _framework density 23.872931000000001
#
# number of rings (size 3 to 8) (size 9 to 14) (size 15 to 20)
#    0.000    2.000    2.000    1.800    5.600    1.600 
#    0.000    0.000    0.000    2.400    0.000    0.000 
#    0.000    0.000    0.000    0.000    0.000    0.000 
#
# Total GULP energy -111546.132061 kJ/mol
# GULP energy per Si atom -5577.306603 kJ/mol
# Density = 2.381860 g / cm^3
# Si number density = 23.872931 Si / 1000 Ang^3
#
#
#
# Elastic Constant Matrix: (Units=GPa)
#
#
# Indices 1 2 3 4 5 6 
#
# 1 136.0883 -14.5616 72.3183 0.0000 0.0000 0.0000
# 2 -14.5616 56.9271 -1.9171 0.0000 0.0000 0.0000
# 3 72.3183 -1.9171 169.1277 0.0000 0.0000 0.0000
# 4 0.0000 0.0000 0.0000 4.8548 0.0000 0.0000
# 5 0.0000 0.0000 0.0000 0.0000 35.0646 0.0000
# 6 0.0000 0.0000 0.0000 0.0000 0.0000 -63.6664
#
#
#
# Elastic Compliance Matrix: (Units=1/GPa)
#
#
# Indices 1 2 3 4 5 6 
#
# 1 0.009819 0.002371 -0.004172 0.000000 0.000000 0.000000
# 2 0.002371 0.018146 -0.000808 0.000000 0.000000 0.000000
# 3 -0.004172 -0.000808 0.007687 0.000000 0.000000 0.000000
# 4 0.000000 0.000000 0.000000 0.205983 0.000000 0.000000
# 5 0.000000 0.000000 0.000000 0.000000 0.028519 0.000000
# 6 0.000000 0.000000 0.000000 0.000000 0.000000 -0.015707
#
#
# Mechanical properties :
#
#
# Convention : Reuss Voigt Hill
#
# Bulk Modulus (GPa) = 32.85775 52.64694 42.75235
# Shear Modulus (GPa) = 18.53166 15.67084 17.10125
#
# Velocity S-wave (km/s) = 2.78917 2.56486 2.67937
# Velocity P-wave (km/s) = 4.91590 5.55628 5.24587
#
# Compressibility (1/GPa) = 0.03043422
#
# Stress axis : x y z
#
# Youngs Moduli (GPa) = 101.84684 55.10978 130.08525
#
# Poissons Ratio (x) = -0.13067 0.54266
# Poissons Ratio (y) = -0.24149 0.10513
# Poissons Ratio (z) = 0.42486 0.04454
#
# Static dielectric constant tensor:
#      x y z
#    x 1.997430 0.000000 0.000000 
#    y 0.000000 1.935090 0.000000 
#    z 0.000000 0.000000 2.025510 
# 
# From -- ./inp_files/4634.got.cif
#   From: 2010.05.17/outbox.cif.g08.bks.cpg/sg17_3_cif.got.tgz:4634.got - 2010.06.03 22:34:06.
