data_PCOD9311002
_publ_section_title
;
Structure prediction by ZEFSAII (Michael W. Deem and Ramdas Pophale) SiO2 
 PCOD9311002
Probable space group: P 2 2 21
;
_chemical_formula_sum "Si O2"
_cell_formula_units_Z 26
_cell_length_a 6.465501
_cell_length_b 9.229957
_cell_length_c 23.868552
_cell_angle_alpha 90.000000
_cell_angle_beta 90.000000
_cell_angle_gamma 90.000000
_cell_volume 1424.386779
_symmetry_space_group_name_H-M "P 2 2 21"
_symmetry_group_IT_number 17
_symmetry_cell_setting 'orthorhombic'
loop_
_space_group_symop_operation_xyz
x,y,z
-x,-y,1/2+z
x,-y,-z
-x,y,1/2-z
loop_
_atom_site_type_symbol
_atom_site_label
_atom_site_fract_x
_atom_site_fract_y
_atom_site_fract_z
Si Si1 0.217025 0.842368 0.008786
Si Si2 0.446145 0.165830 0.410238
Si Si3 0.822506 0.330450 0.008274
Si Si4 0.380954 0.371088 0.694681
Si Si5 0.000000 0.467871 0.250000
Si Si6 0.382048 0.665139 0.807197
Si Si7 0.578555 0.834445 0.089993
O O1 0.340819 0.830851 0.067332
O O2 0.390446 0.840258 0.960874
O O3 0.060434 0.713191 0.998261
O O4 0.111058 0.000000 0.000000
O O5 0.268464 0.273206 0.432805
O O6 0.564777 0.223691 0.355871
O O7 0.364889 0.002832 0.402951
O O8 0.786358 0.500000 0.000000
O O9 0.710202 0.241405 0.958830
O O10 0.500000 0.315436 0.750000
O O11 0.158380 0.432955 0.714222
O O12 0.513959 0.511514 0.675993
O O13 0.382453 0.254137 0.646219
O O14 0.853702 0.370014 0.289949
O O15 0.500000 0.708912 0.750000
#
# Coordination Sequence:
#
# PCOD9311002 Si02
#       7
#     4   4   4   4   2   4   4
#     4   9  20  37  54  77 110 144 175 216 269 322
#     4  10  21  37  56  80 111 143 178 222 271 322
#     4  11  22  35  56  82 108 142 181 221 266 320
#     4   9  19  35  56  80 109 143 182 224 269 319
#     4   8  18  36  56  82 110 140 182 228 270 316
#     4   9  19  35  56  80 109 143 182 224 269 319
#     4  10  21  37  56  80 111 143 178 222 271 322
#
# _framework density 18.253468999999999
#
# number of rings (size 3 to 8) (size 9 to 14) (size 15 to 20)
#    0.000    2.769    0.000    3.231    0.000   10.462 
#    0.000    0.000    0.000    7.385    0.000    0.000 
#    0.000    0.000    0.000    0.000    0.000    0.000 
#
# Total GULP energy -144932.374851 kJ/mol
# GULP energy per Si atom -5574.322110 kJ/mol
# Density = 1.821192 g / cm^3
# Si number density = 18.253469 Si / 1000 Ang^3
#
#
#
# Elastic Constant Matrix: (Units=GPa)
#
#
# Indices 1 2 3 4 5 6 
#
# 1 58.7427 20.2834 4.1193 0.0000 0.0000 0.0000
# 2 20.2834 106.8018 41.1996 0.0000 0.0000 0.0000
# 3 4.1193 41.1996 78.3328 0.0000 0.0000 0.0000
# 4 0.0000 0.0000 0.0000 23.9267 0.0000 0.0000
# 5 0.0000 0.0000 0.0000 0.0000 8.8100 0.0000
# 6 0.0000 0.0000 0.0000 0.0000 0.0000 15.4942
#
#
#
# Elastic Compliance Matrix: (Units=1/GPa)
#
#
# Indices 1 2 3 4 5 6 
#
# 1 0.018291 -0.003893 0.001085 0.000000 0.000000 0.000000
# 2 -0.003893 0.012575 -0.006409 0.000000 0.000000 0.000000
# 3 0.001085 -0.006409 0.016080 0.000000 0.000000 0.000000
# 4 0.000000 0.000000 0.000000 0.041794 0.000000 0.000000
# 5 0.000000 0.000000 0.000000 0.000000 0.113507 0.000000
# 6 0.000000 0.000000 0.000000 0.000000 0.000000 0.064540
#
#
# Mechanical properties :
#
#
# Convention : Reuss Voigt Hill
#
# Bulk Modulus (GPa) = 35.07103 41.67577 38.37340
# Shear Modulus (GPa) = 16.96499 21.53117 19.24808
#
# Velocity S-wave (km/s) = 3.05193 3.43821 3.25081
# Velocity P-wave (km/s) = 5.62798 6.21635 5.92946
#
# Compressibility (1/GPa) = 0.02851356
#
# Stress axis : x y z
#
# Youngs Moduli (GPa) = 54.67068 79.52449 62.18959
#
# Poissons Ratio (x) = 0.30955 -0.06750
# Poissons Ratio (y) = 0.21281 0.39858
# Poissons Ratio (z) = -0.05934 0.50968
#
# Static dielectric constant tensor:
#      x y z
#    x 1.651310 0.000000 0.000000 
#    y 0.000000 1.638690 0.000000 
#    z 0.000000 0.000000 1.626900 
# 
# From -- ./inp_files/10862.got.cif
#   From: 2010.05.17/outbox.cif.g08.bks.cpg/sg17_6_cif.got.tgz:10862.got - 2010.06.03 22:34:06.
