data_PCOD9311419
_publ_section_title
;
Structure prediction by ZEFSAII (Michael W. Deem and Ramdas Pophale) SiO2 
 PCOD9311419
Probable space group: P 2 2 21
;
_chemical_formula_sum "Si O2"
_cell_formula_units_Z 22
_cell_length_a 5.164860
_cell_length_b 10.836410
_cell_length_c 14.274686
_cell_angle_alpha 90.000000
_cell_angle_beta 90.000000
_cell_angle_gamma 90.000000
_cell_volume 798.933342
_symmetry_space_group_name_H-M "P 2 2 21"
_symmetry_group_IT_number 17
_symmetry_cell_setting 'orthorhombic'
loop_
_space_group_symop_operation_xyz
x,y,z
-x,-y,1/2+z
x,-y,-z
-x,y,1/2-z
loop_
_atom_site_type_symbol
_atom_site_label
_atom_site_fract_x
_atom_site_fract_y
_atom_site_fract_z
Si Si1 0.799075 0.500000 0.000000
Si Si2 0.957364 0.734904 0.080997
Si Si3 0.387654 0.401281 0.147697
Si Si4 0.000000 0.115830 0.250000
Si Si5 0.000000 0.582641 0.250000
Si Si6 0.353488 0.830281 0.589085
Si Si7 0.699627 0.955714 0.398249
O O1 0.985287 0.615798 0.014729
O O2 0.600000 0.471755 0.084216
O O3 0.855409 0.677726 0.178919
O O4 0.211799 0.814153 0.103867
O O5 0.758918 0.808624 0.014336
O O6 0.500000 0.379760 0.250000
O O7 0.402169 0.262356 0.103291
O O8 0.844957 0.493296 0.321857
O O9 0.845601 0.195710 0.173380
O O10 0.830380 0.024156 0.312026
O O11 0.425874 0.973253 0.603520
O O12 0.802470 0.000000 0.500000
#
# Coordination Sequence:
#
# PCOD9311419 Si02
#       7
#     2   4   4   2   2   4   4
#     4  10  24  50  84 118 168 230 272 346 442 494
#     4  11  26  54  79 123 174 215 282 354 424 522
#     4  11  24  50  79 119 162 213 283 347 412 524
#     4  12  25  55  78 126 160 216 284 352 436 504
#     4  12  27  51  82 126 168 220 286 356 438 500
#     4  11  28  52  84 123 167 227 286 354 435 510
#     4  12  27  49  83 121 163 220 279 357 430 505
#
# _framework density 27.536715000000001
#
# number of rings (size 3 to 8) (size 9 to 14) (size 15 to 20)
#    0.000    0.727    3.636    2.182    2.545    8.000 
#    6.545    0.000    0.000    0.000    0.000    0.000 
#    0.000    0.000    0.000    0.000    0.000    0.000 
#
# Total GULP energy -122860.895752 kJ/mol
# GULP energy per Si atom -5584.586171 kJ/mol
# Density = 2.747404 g / cm^3
# Si number density = 27.536715 Si / 1000 Ang^3
#
#
#
# Elastic Constant Matrix: (Units=GPa)
#
#
# Indices 1 2 3 4 5 6 
#
# 1 100.5784 64.6605 50.6201 0.0000 0.0000 0.0000
# 2 64.6605 162.2007 52.3327 0.0000 0.0000 0.0000
# 3 50.6201 52.3327 193.3773 0.0000 0.0000 0.0000
# 4 0.0000 0.0000 0.0000 47.2433 0.0000 0.0000
# 5 0.0000 0.0000 0.0000 0.0000 51.9470 0.0000
# 6 0.0000 0.0000 0.0000 0.0000 0.0000 23.8822
#
#
#
# Elastic Compliance Matrix: (Units=1/GPa)
#
#
# Indices 1 2 3 4 5 6 
#
# 1 0.014330 -0.004933 -0.002416 0.000000 0.000000 0.000000
# 2 -0.004933 0.008453 -0.000996 0.000000 0.000000 0.000000
# 3 -0.002416 -0.000996 0.006073 0.000000 0.000000 0.000000
# 4 0.000000 0.000000 0.000000 0.021167 0.000000 0.000000
# 5 0.000000 0.000000 0.000000 0.000000 0.019250 0.000000
# 6 0.000000 0.000000 0.000000 0.000000 0.000000 0.041872
#
#
# Mechanical properties :
#
#
# Convention : Reuss Voigt Hill
#
# Bulk Modulus (GPa) = 82.19980 87.93144 85.06562
# Shear Modulus (GPa) = 37.90984 43.85073 40.88028
#
# Velocity S-wave (km/s) = 3.71442 3.99488 3.85720
# Velocity P-wave (km/s) = 6.95066 7.29935 7.12714
#
# Compressibility (1/GPa) = 0.01216548
#
# Stress axis : x y z
#
# Youngs Moduli (GPa) = 69.78447 118.29886 164.65417
#
# Poissons Ratio (x) = 0.58357 0.39782
# Poissons Ratio (y) = 0.34425 0.16405
# Poissons Ratio (z) = 0.16861 0.11787
#
# Static dielectric constant tensor:
#      x y z
#    x 2.248230 0.000000 0.000000 
#    y 0.000000 2.294550 0.000000 
#    z 0.000000 0.000000 2.157000 
# 
# From -- ./inp_files/7664.got.cif
#   From: 2010.05.17/outbox.cif.g08.bks.cpg/sg17_4_cif.got.tgz:7664.got - 2010.06.03 22:34:06.
