data_PCOD9311666
_publ_section_title
;
Structure prediction by ZEFSAII (Michael W. Deem and Ramdas Pophale) SiO2 
 PCOD9311666
Probable space group: P 21 21 2
;
_chemical_formula_sum "Si O2"
_cell_formula_units_Z 30
_cell_length_a 12.886103
_cell_length_b 11.331303
_cell_length_c 8.574849
_cell_angle_alpha 90.000000
_cell_angle_beta 90.000000
_cell_angle_gamma 90.000000
_cell_volume 1252.068046
_symmetry_space_group_name_H-M "P 21 21 2"
_symmetry_group_IT_number 18
_symmetry_cell_setting 'orthorhombic'
loop_
_space_group_symop_operation_xyz
x,y,z
-x,-y,z
1/2+x,1/2-y,-z
1/2-x,1/2+y,-z
loop_
_atom_site_type_symbol
_atom_site_label
_atom_site_fract_x
_atom_site_fract_y
_atom_site_fract_z
Si Si1 0.819916 0.150512 0.633992
Si Si2 0.840336 0.389273 0.827779
Si Si3 0.933782 0.278506 0.384499
Si Si4 0.686492 0.987961 0.483168
Si Si5 0.507142 0.135386 0.929205
Si Si6 0.363768 0.650584 0.955683
Si Si7 0.410674 0.597141 0.598889
Si Si8 0.000000 0.000000 0.808130
O O1 0.813929 0.270815 0.730963
O O2 0.849866 0.188968 0.456717
O O3 0.709047 0.089672 0.608031
O O4 0.910922 0.072286 0.713551
O O5 0.834975 0.495821 0.702790
O O6 0.755457 0.390730 0.966144
O O7 0.950192 0.370265 0.905730
O O8 0.902357 0.403167 0.453729
O O9 0.944355 0.288513 0.199627
O O10 0.040033 0.222179 0.448387
O O11 0.802321 0.928554 0.483833
O O12 0.613429 0.208741 0.950915
O O13 0.500000 0.000000 0.873986
O O14 0.392116 0.601601 0.784004
O O15 0.436890 0.591558 0.083779
O O16 0.500000 0.500000 0.574592
#
# Coordination Sequence:
#
# PCOD9311666 Si02
#       8
#     4   4   4   4   4   4   4   2
#     4  11  22  41  66 100 139 174 232 292 340 419
#     4  10  24  44  67 100 142 174 235 283 345 417
#     4  10  23  41  65  98 135 178 227 274 355 415
#     4  10  22  40  65  98 130 181 227 288 343 403
#     4  11  25  48  68 100 145 183 227 285 352 416
#     4  10  23  40  68 102 131 179 230 290 337 408
#     4  10  17  38  65  91 131 177 224 286 342 403
#     4  12  22  38  74 104 132 176 246 286 336 406
#
# _framework density 23.960359
#
# number of rings (size 3 to 8) (size 9 to 14) (size 15 to 20)
#    0.000    1.600    3.333    0.800    3.733    0.000 
#    2.400    2.667    0.000    0.000    0.000    0.000 
#    0.000    0.000    0.000    0.000    0.000    0.000 
#
# Total GULP energy -167363.123509 kJ/mol
# GULP energy per Si atom -5578.770784 kJ/mol
# Density = 2.390582 g / cm^3
# Si number density = 23.960359 Si / 1000 Ang^3
#
#
#
# Elastic Constant Matrix: (Units=GPa)
#
#
# Indices 1 2 3 4 5 6 
#
# 1 41.9864 14.4139 9.9646 0.0000 0.0000 0.0000
# 2 14.4139 79.1259 16.7595 0.0000 0.0000 0.0000
# 3 9.9646 16.7595 68.4402 0.0000 0.0000 0.0000
# 4 0.0000 0.0000 0.0000 42.2361 0.0000 0.0000
# 5 0.0000 0.0000 0.0000 0.0000 28.4151 0.0000
# 6 0.0000 0.0000 0.0000 0.0000 0.0000 45.4193
#
#
#
# Elastic Compliance Matrix: (Units=1/GPa)
#
#
# Indices 1 2 3 4 5 6 
#
# 1 0.025890 -0.004132 -0.002758 0.000000 0.000000 0.000000
# 2 -0.004132 0.013989 -0.002824 0.000000 0.000000 0.000000
# 3 -0.002758 -0.002824 0.015704 0.000000 0.000000 0.000000
# 4 0.000000 0.000000 0.000000 0.023676 0.000000 0.000000
# 5 0.000000 0.000000 0.000000 0.000000 0.035193 0.000000
# 6 0.000000 0.000000 0.000000 0.000000 0.000000 0.022017
#
#
# Mechanical properties :
#
#
# Convention : Reuss Voigt Hill
#
# Bulk Modulus (GPa) = 27.65794 30.20318 28.93056
# Shear Modulus (GPa) = 29.77093 33.10842 31.43967
#
# Velocity S-wave (km/s) = 3.52875 3.72129 3.62630
# Velocity P-wave (km/s) = 5.30764 5.57645 5.44370
#
# Compressibility (1/GPa) = 0.03615598
#
# Stress axis : x y z
#
# Youngs Moduli (GPa) = 38.62456 71.48498 63.67676
#
# Poissons Ratio (x) = 0.29539 0.17560
# Poissons Ratio (y) = 0.15960 0.17982
# Poissons Ratio (z) = 0.10651 0.20187
#
# Static dielectric constant tensor:
#      x y z
#    x 1.948880 0.000000 0.000000 
#    y 0.000000 2.013200 0.000000 
#    z 0.000000 0.000000 1.911110 
# 
# From -- ./inp_files/4271.got.cif
#   From: 2010.05.17/outbox.cif.g08.bks.cpg/sg18_3_cif.got.tgz:4271.got - 2010.06.03 22:40:56.
