data_PCOD9311282
_publ_section_title
;
Structure prediction by ZEFSAII (Michael W. Deem and Ramdas Pophale) SiO2 
 PCOD9311282
Probable space group: P 2 2 21
;
_chemical_formula_sum "Si O2"
_cell_formula_units_Z 24
_cell_length_a 12.562197
_cell_length_b 9.498492
_cell_length_c 7.721182
_cell_angle_alpha 90.000000
_cell_angle_beta 90.000000
_cell_angle_gamma 90.000000
_cell_volume 921.306320
_symmetry_space_group_name_H-M "P 2 2 21"
_symmetry_group_IT_number 17
_symmetry_cell_setting 'orthorhombic'
loop_
_space_group_symop_operation_xyz
x,y,z
-x,-y,1/2+z
x,-y,-z
-x,y,1/2-z
loop_
_atom_site_type_symbol
_atom_site_label
_atom_site_fract_x
_atom_site_fract_y
_atom_site_fract_z
Si Si1 0.919117 0.200705 0.910311
Si Si2 0.325091 0.155850 0.476572
Si Si3 0.663829 0.846875 0.573943
Si Si4 0.386477 0.628808 0.229866
Si Si5 0.891578 0.258828 0.411239
Si Si6 0.155843 0.465586 0.761114
O O1 0.894584 0.367013 0.883613
O O2 0.000000 0.157073 0.750000
O O3 0.800115 0.147772 0.956692
O O4 0.998875 0.178820 0.067207
O O5 0.353353 0.186292 0.276614
O O6 0.376117 0.264855 0.608671
O O7 0.368686 0.000000 0.500000
O O8 0.625196 0.724559 0.443187
O O9 0.792798 0.844145 0.574522
O O10 0.629895 0.000000 0.500000
O O11 0.500000 0.556325 0.250000
O O12 0.283486 0.530960 0.242454
O O13 0.882027 0.375641 0.263527
O O14 0.872993 0.366991 0.573888
#
# Coordination Sequence:
#
# PCOD9311282 Si02
#       6
#     4   4   4   4   4   4
#     4   9  19  37  58  93 130 176 220 267 335 400
#     4  11  23  42  62  93 137 172 223 281 328 397
#     4  11  23  41  65  93 132 173 218 276 329 396
#     4  10  22  43  71  94 127 169 218 278 349 399
#     4   9  18  37  60  89 127 169 214 260 323 394
#     4   8  17  38  62  87 127 165 211 273 323 392
#
# _framework density 26.049968
#
# number of rings (size 3 to 8) (size 9 to 14) (size 15 to 20)
#    0.000    2.333    1.667    1.000    0.000    2.667 
#   21.000    2.500   14.667    0.000    0.000    0.000 
#    0.000    0.000    0.000    0.000    0.000    0.000 
#
# Total GULP energy -134044.592650 kJ/mol
# GULP energy per Si atom -5585.191360 kJ/mol
# Density = 2.599068 g / cm^3
# Si number density = 26.049968 Si / 1000 Ang^3
#
#
#
# Elastic Constant Matrix: (Units=GPa)
#
#
# Indices 1 2 3 4 5 6 
#
# 1 157.2456 -3.7041 9.5801 0.0000 0.0000 0.0000
# 2 -3.7041 63.3040 14.7797 0.0000 0.0000 0.0000
# 3 9.5801 14.7797 194.8876 0.0000 0.0000 0.0000
# 4 0.0000 0.0000 0.0000 20.7509 0.0000 0.0000
# 5 0.0000 0.0000 0.0000 0.0000 -11.6739 0.0000
# 6 0.0000 0.0000 0.0000 0.0000 0.0000 180.9061
#
#
#
# Elastic Compliance Matrix: (Units=1/GPa)
#
#
# Indices 1 2 3 4 5 6 
#
# 1 0.006391 0.000455 -0.000349 0.000000 0.000000 0.000000
# 2 0.000455 0.016114 -0.001244 0.000000 0.000000 0.000000
# 3 -0.000349 -0.001244 0.005243 0.000000 0.000000 0.000000
# 4 0.000000 0.000000 0.000000 0.048191 0.000000 0.000000
# 5 0.000000 0.000000 0.000000 0.000000 -0.085661 0.000000
# 6 0.000000 0.000000 0.000000 0.000000 0.000000 0.005528
#
#
# Mechanical properties :
#
#
# Convention : Reuss Voigt Hill
#
# Bulk Modulus (GPa) = 39.25786 50.74985 45.00386
# Shear Modulus (GPa) = 760.84296 64.31539 412.57918
#
# Velocity S-wave (km/s) = 17.10861 4.97422 12.59856
# Velocity P-wave (km/s) = 20.13395 7.24669 15.13093
#
# Compressibility (1/GPa) = 0.02547261
#
# Stress axis : x y z
#
# Youngs Moduli (GPa) = 156.45903 62.05797 190.74224
#
# Poissons Ratio (x) = -0.02826 0.06652
# Poissons Ratio (y) = -0.07125 0.23736
# Poissons Ratio (z) = 0.05456 0.07723
#
# Static dielectric constant tensor:
#      x y z
#    x 2.053000 0.000000 0.000000 
#    y 0.000000 1.972430 0.000000 
#    z 0.000000 0.000000 0.542860 
# 
# From -- ./inp_files/4757.got.cif
#   From: 2010.05.17/outbox.cif.g08.bks.cpg/sg17_3_cif.got.tgz:4757.got - 2010.06.03 22:34:06.
