data_PCOD9311762
_publ_section_title
;
Structure prediction by ZEFSAII (Michael W. Deem and Ramdas Pophale) SiO2 
 PCOD9311762
Probable space group: P 21 21 2
;
_chemical_formula_sum "Si O2"
_cell_formula_units_Z 24
_cell_length_a 13.569472
_cell_length_b 9.599830
_cell_length_c 9.739815
_cell_angle_alpha 90.000000
_cell_angle_beta 90.000000
_cell_angle_gamma 90.000000
_cell_volume 1268.753343
_symmetry_space_group_name_H-M "P 21 21 2"
_symmetry_group_IT_number 18
_symmetry_cell_setting 'orthorhombic'
loop_
_space_group_symop_operation_xyz
x,y,z
-x,-y,z
1/2+x,1/2-y,-z
1/2-x,1/2+y,-z
loop_
_atom_site_type_symbol
_atom_site_label
_atom_site_fract_x
_atom_site_fract_y
_atom_site_fract_z
Si Si1 0.771970 0.077743 0.873690
Si Si2 0.672490 0.354083 0.925783
Si Si3 0.000000 0.500000 0.808154
Si Si4 0.500000 0.500000 0.341578
Si Si5 0.292917 0.055982 0.339735
Si Si6 0.005965 0.807724 0.905720
Si Si7 0.696840 0.627832 0.433628
O O1 0.696926 0.191553 0.928135
O O2 0.760019 0.069668 0.710594
O O3 0.880238 0.145718 0.902489
O O4 0.768941 0.934818 0.954692
O O5 0.715030 0.416129 0.784221
O O6 0.558140 0.363462 0.967623
O O7 0.899742 0.484323 0.720012
O O8 0.997380 0.642682 0.893458
O O9 0.464180 0.620163 0.234576
O O10 0.585922 0.567544 0.430462
O O11 0.301744 0.205052 0.418026
O O12 0.254287 0.935818 0.439271
#
# Coordination Sequence:
#
# PCOD9311762 Si02
#       7
#     4   4   2   2   4   4   4
#     4  10  21  39  61  92 120 163 210 248 327 379
#     4  11  20  38  63  95 120 160 208 264 308 382
#     4  12  22  42  64 100 120 176 208 260 322 396
#     4  10  18  42  64  82 118 172 204 246 318 388
#     4  11  25  39  66  93 127 162 223 259 318 377
#     4  11  20  38  67  86 123 166 209 251 313 388
#     4  10  22  41  61  91 120 170 210 258 313 386
#
# _framework density 18.916207
#
# number of rings (size 3 to 8) (size 9 to 14) (size 15 to 20)
#    0.000    1.333    8.333    1.000    2.333    1.333 
#    3.000    0.000    7.333    0.000    0.000    0.000 
#    0.000    0.000    0.000    0.000    0.000    0.000 
#
# Total GULP energy -133832.053119 kJ/mol
# GULP energy per Si atom -5576.335547 kJ/mol
# Density = 1.887315 g / cm^3
# Si number density = 18.916207 Si / 1000 Ang^3
#
#
#
# Elastic Constant Matrix: (Units=GPa)
#
#
# Indices 1 2 3 4 5 6 
#
# 1 96.5282 5.9178 46.4697 0.0000 0.0000 0.0000
# 2 5.9178 57.1772 16.0432 0.0000 0.0000 0.0000
# 3 46.4697 16.0432 58.2452 0.0000 0.0000 0.0000
# 4 0.0000 0.0000 0.0000 31.0261 0.0000 0.0000
# 5 0.0000 0.0000 0.0000 0.0000 30.3068 0.0000
# 6 0.0000 0.0000 0.0000 0.0000 0.0000 30.0473
#
#
#
# Elastic Compliance Matrix: (Units=1/GPa)
#
#
# Indices 1 2 3 4 5 6 
#
# 1 0.017078 0.002228 -0.014239 0.000000 0.000000 0.000000
# 2 0.002228 0.019245 -0.007078 0.000000 0.000000 0.000000
# 3 -0.014239 -0.007078 0.030479 0.000000 0.000000 0.000000
# 4 0.000000 0.000000 0.000000 0.032231 0.000000 0.000000
# 5 0.000000 0.000000 0.000000 0.000000 0.032996 0.000000
# 6 0.000000 0.000000 0.000000 0.000000 0.000000 0.033281
#
#
# Mechanical properties :
#
#
# Convention : Reuss Voigt Hill
#
# Bulk Modulus (GPa) = 34.93722 38.75686 36.84704
# Shear Modulus (GPa) = 23.47105 27.84402 25.65753
#
# Velocity S-wave (km/s) = 3.52631 3.84078 3.68690
# Velocity P-wave (km/s) = 5.92363 6.34051 6.13561
#
# Compressibility (1/GPa) = 0.02862277
#
# Stress axis : x y z
#
# Youngs Moduli (GPa) = 58.55564 51.96167 32.81001
#
# Poissons Ratio (x) = -0.11575 0.46717
# Poissons Ratio (y) = -0.13044 0.23223
# Poissons Ratio (z) = 0.83376 0.36779
#
# Static dielectric constant tensor:
#      x y z
#    x 1.693490 0.000000 0.000000 
#    y 0.000000 1.684200 0.000000 
#    z 0.000000 0.000000 1.649910 
# 
# From -- ./inp_files/3204.got.cif
#   From: 2010.05.17/outbox.cif.g08.bks.cpg/sg18_2_cif.got.tgz:3204.got - 2010.06.03 22:40:56.
