data_PCOD9311561
_publ_section_title
;
Structure prediction by ZEFSAII (Michael W. Deem and Ramdas Pophale) SiO2 
 PCOD9311561
Probable space group: P 2 2 21
;
_chemical_formula_sum "Si O2"
_cell_formula_units_Z 10
_cell_length_a 8.672472
_cell_length_b 11.166123
_cell_length_c 4.698022
_cell_angle_alpha 90.000000
_cell_angle_beta 90.000000
_cell_angle_gamma 90.000000
_cell_volume 454.946533
_symmetry_space_group_name_H-M "P 2 2 21"
_symmetry_group_IT_number 17
_symmetry_cell_setting 'orthorhombic'
loop_
_space_group_symop_operation_xyz
x,y,z
-x,-y,1/2+z
x,-y,-z
-x,y,1/2-z
loop_
_atom_site_type_symbol
_atom_site_label
_atom_site_fract_x
_atom_site_fract_y
_atom_site_fract_z
Si Si1 0.848708 0.365789 0.097756
Si Si2 0.343985 0.709653 0.087670
Si Si3 0.500000 0.918545 0.750000
O O1 0.715288 0.373497 0.334352
O O2 0.000000 0.314345 0.250000
O O3 0.885435 0.500000 0.000000
O O4 0.785751 0.290968 0.831268
O O5 0.500000 0.673167 0.250000
O O6 0.383188 0.833069 0.922973
O O7 0.428558 0.000000 0.500000
#
# Coordination Sequence:
#
# PCOD9311561 Si02
#       3
#     4   4   2
#     4  12  25  44  65  98 147 191 219 262 341 415
#     4  12  23  44  67 107 128 180 234 287 327 397
#     4  12  22  44  72 102 132 174 228 296 362 392
#
# _framework density 21.980602999999999
#
# number of rings (size 3 to 8) (size 9 to 14) (size 15 to 20)
#    0.000    0.000    6.000    4.800    0.000    3.200 
#    3.600    0.000    0.000    7.200   10.400    0.000 
#    0.000    0.000    0.000    0.000    0.000    0.000 
#
# Total GULP energy -55884.591167 kJ/mol
# GULP energy per Si atom -5588.459117 kJ/mol
# Density = 2.193057 g / cm^3
# Si number density = 21.980603 Si / 1000 Ang^3
#
#
#
# Elastic Constant Matrix: (Units=GPa)
#
#
# Indices 1 2 3 4 5 6 
#
# 1 88.8950 33.2515 71.8729 0.0000 0.0000 0.0000
# 2 33.2515 59.6961 53.4808 0.0000 0.0000 0.0000
# 3 71.8729 53.4808 208.3911 0.0000 0.0000 0.0000
# 4 0.0000 0.0000 0.0000 63.9530 0.0000 0.0000
# 5 0.0000 0.0000 0.0000 0.0000 79.7399 0.0000
# 6 0.0000 0.0000 0.0000 0.0000 0.0000 2099.6276
#
#
#
# Elastic Compliance Matrix: (Units=1/GPa)
#
#
# Indices 1 2 3 4 5 6 
#
# 1 0.016853 -0.005428 -0.004419 0.000000 0.000000 0.000000
# 2 -0.005428 0.023501 -0.004159 0.000000 0.000000 0.000000
# 3 -0.004419 -0.004159 0.007390 0.000000 0.000000 0.000000
# 4 0.000000 0.000000 0.000000 0.015636 0.000000 0.000000
# 5 0.000000 0.000000 0.000000 0.000000 0.012541 0.000000
# 6 0.000000 0.000000 0.000000 0.000000 0.000000 0.000476
#
#
# Mechanical properties :
#
#
# Convention : Reuss Voigt Hill
#
# Bulk Modulus (GPa) = 50.68144 74.91029 62.79587
# Shear Modulus (GPa) = 45.05010 461.88924 253.46967
#
# Velocity S-wave (km/s) = 4.53209 14.51176 10.75014
# Velocity P-wave (km/s) = 7.10591 17.74661 13.51733
#
# Compressibility (1/GPa) = 0.01973109
#
# Stress axis : x y z
#
# Youngs Moduli (GPa) = 59.33772 42.55130 135.31260
#
# Poissons Ratio (x) = 0.23096 0.59800
# Poissons Ratio (y) = 0.32208 0.56279
# Poissons Ratio (z) = 0.26224 0.17698
#
# Static dielectric constant tensor:
#      x y z
#    x 1.854470 0.000000 0.000000 
#    y 0.000000 1.824940 0.000000 
#    z 0.000000 0.000000 1.658380 
# 
# From -- ./inp_files/446.got.cif
#   From: 2010.05.17/outbox.cif.g08.bks.cpg/sg17_1_cif.got.tgz:446.got - 2010.06.03 22:34:06.
