data_PCOD9311823
_publ_section_title
;
Structure prediction by ZEFSAII (Michael W. Deem and Ramdas Pophale) SiO2 
 PCOD9311823
Probable space group: P 21 21 2
;
_chemical_formula_sum "Si O2"
_cell_formula_units_Z 28
_cell_length_a 25.964618
_cell_length_b 5.189860
_cell_length_c 9.861849
_cell_angle_alpha 90.000000
_cell_angle_beta 90.000000
_cell_angle_gamma 90.000000
_cell_volume 1328.911099
_symmetry_space_group_name_H-M "P 21 21 2"
_symmetry_group_IT_number 18
_symmetry_cell_setting 'orthorhombic'
loop_
_space_group_symop_operation_xyz
x,y,z
-x,-y,z
1/2+x,1/2-y,-z
1/2-x,1/2+y,-z
loop_
_atom_site_type_symbol
_atom_site_label
_atom_site_fract_x
_atom_site_fract_y
_atom_site_fract_z
Si Si1 0.888186 0.564848 0.852777
Si Si2 0.804411 0.476839 0.655393
Si Si3 0.841250 0.064198 0.989860
Si Si4 0.839026 0.544331 0.363955
Si Si5 0.389883 0.457700 0.717680
Si Si6 0.000000 0.500000 0.955714
Si Si7 0.000000 0.000000 0.148407
Si Si8 0.757919 0.976889 0.792315
O O1 0.862665 0.528844 0.706177
O O2 0.859614 0.346445 0.942768
O O3 0.873634 0.846468 0.908906
O O4 0.948469 0.518712 0.867492
O O5 0.803336 0.501650 0.494653
O O6 0.771203 0.695755 0.732027
O O7 0.787023 0.196530 0.704702
O O8 0.782728 0.012111 0.941196
O O9 0.855797 0.034821 0.145175
O O10 0.867220 0.815314 0.373112
O O11 0.801820 0.529868 0.232607
O O12 0.880020 0.316629 0.349974
O O13 0.448341 0.503959 0.762439
O O14 0.002342 0.749380 0.052607
#
# Coordination Sequence:
#
# PCOD9311823 Si02
#       8
#     4   4   4   4   4   2   2   4
#     4  10  19  34  59  87 109 140 195 255 292 332
#     4  10  21  39  60  86 121 154 201 241 289 347
#     4  10  20  37  56  88 118 149 188 252 292 336
#     4  12  24  38  60  88 122 166 194 233 291 369
#     4  12  24  39  58  86 121 154 201 238 298 354
#     4  12  18  36  64  86 104 142 202 246 306 336
#     4  12  24  40  62  84 114 158 196 242 284 372
#     4  10  21  38  64  86 118 158 202 245 291 340
#
# _framework density 21.069883000000001
#
# number of rings (size 3 to 8) (size 9 to 14) (size 15 to 20)
#    0.000    1.143    2.857    4.286    0.000    1.143 
#    0.000    1.429    0.000    0.000    0.000    0.000 
#    0.000    0.000    0.000    0.000    0.000    0.000 
#
# Total GULP energy -156643.773950 kJ/mol
# GULP energy per Si atom -5594.420498 kJ/mol
# Density = 2.102193 g / cm^3
# Si number density = 21.069883 Si / 1000 Ang^3
#
#
#
# Elastic Constant Matrix: (Units=GPa)
#
#
# Indices 1 2 3 4 5 6 
#
# 1 81.7493 1.9683 -1.5041 0.0000 0.0000 0.0000
# 2 1.9683 43.2053 6.6157 0.0000 0.0000 0.0000
# 3 -1.5041 6.6157 39.3608 0.0000 0.0000 0.0000
# 4 0.0000 0.0000 0.0000 20.9462 0.0000 0.0000
# 5 0.0000 0.0000 0.0000 0.0000 20.8912 0.0000
# 6 0.0000 0.0000 0.0000 0.0000 0.0000 26.4247
#
#
#
# Elastic Compliance Matrix: (Units=1/GPa)
#
#
# Indices 1 2 3 4 5 6 
#
# 1 0.012259 -0.000647 0.000577 0.000000 0.000000 0.000000
# 2 -0.000647 0.023791 -0.004023 0.000000 0.000000 0.000000
# 3 0.000577 -0.004023 0.026104 0.000000 0.000000 0.000000
# 4 0.000000 0.000000 0.000000 0.047741 0.000000 0.000000
# 5 0.000000 0.000000 0.000000 0.000000 0.047867 0.000000
# 6 0.000000 0.000000 0.000000 0.000000 0.000000 0.037843
#
#
# Mechanical properties :
#
#
# Convention : Reuss Voigt Hill
#
# Bulk Modulus (GPa) = 18.52963 19.83058 19.18010
# Shear Modulus (GPa) = 22.54475 24.13479 23.33977
#
# Velocity S-wave (km/s) = 3.27463 3.38814 3.33187
# Velocity P-wave (km/s) = 4.80740 4.97376 4.89129
#
# Compressibility (1/GPa) = 0.05396761
#
# Stress axis : x y z
#
# Youngs Moduli (GPa) = 81.57464 42.03295 38.30783
#
# Poissons Ratio (x) = 0.02719 -0.02211
# Poissons Ratio (y) = 0.05277 0.15413
# Poissons Ratio (z) = -0.04708 0.16912
#
# Static dielectric constant tensor:
#      x y z
#    x 1.748020 0.000000 0.000000 
#    y 0.000000 1.757000 0.000000 
#    z 0.000000 0.000000 1.733020 
# 
# From -- ./inp_files/4818.got.cif
#   From: 2010.05.17/outbox.cif.g08.bks.cpg/sg18_3_cif.got.tgz:4818.got - 2010.06.03 22:40:56.
