data_PCOD9311049
_publ_section_title
;
Structure prediction by ZEFSAII (Michael W. Deem and Ramdas Pophale) SiO2 
 PCOD9311049
Probable space group: P 2 2 21
;
_chemical_formula_sum "Si O2"
_cell_formula_units_Z 20
_cell_length_a 9.658838
_cell_length_b 10.419755
_cell_length_c 10.186171
_cell_angle_alpha 90.000000
_cell_angle_beta 90.000000
_cell_angle_gamma 90.000000
_cell_volume 1025.164012
_symmetry_space_group_name_H-M "P 2 2 21"
_symmetry_group_IT_number 17
_symmetry_cell_setting 'orthorhombic'
loop_
_space_group_symop_operation_xyz
x,y,z
-x,-y,1/2+z
x,-y,-z
-x,y,1/2-z
loop_
_atom_site_type_symbol
_atom_site_label
_atom_site_fract_x
_atom_site_fract_y
_atom_site_fract_z
Si Si1 0.651232 0.500000 0.000000
Si Si2 0.112706 0.848686 0.024750
Si Si3 0.340220 0.104833 0.759192
Si Si4 0.183369 0.762726 0.471786
Si Si5 0.263087 0.188124 0.232972
Si Si6 0.500000 0.605672 0.750000
O O1 0.748179 0.377849 0.968687
O O2 0.554606 0.526736 0.874236
O O3 0.242885 0.839376 0.124261
O O4 0.975537 0.776768 0.071887
O O5 0.153881 0.797025 0.882671
O O6 0.081009 0.000000 0.000000
O O7 0.500000 0.146151 0.750000
O O8 0.270370 0.144999 0.622883
O O9 0.332699 0.951744 0.780691
O O10 0.197369 0.805540 0.622961
O O11 0.374669 0.299377 0.215013
#
# Coordination Sequence:
#
# PCOD9311049 Si02
#       6
#     2   4   4   4   4   2
#     4  10  26  42  64  84 128 172 222 250 312 360
#     4  10  22  39  62  96 130 163 201 256 327 383
#     4  11  23  36  64  99 130 158 204 262 325 381
#     4  11  23  41  62  87 129 169 212 258 305 376
#     4  10  21  38  66  92 126 162 205 260 331 374
#     4  10  22  42  62  94 124 164 212 270 308 372
#
# _framework density 19.509073000000001
#
# number of rings (size 3 to 8) (size 9 to 14) (size 15 to 20)
#    0.000    1.600    1.000    3.000    7.000    4.800 
#    0.000    9.000    0.000    0.000    0.000    0.000 
#    0.000    0.000    0.000    0.000    0.000    0.000 
#
# Total GULP energy -111704.449130 kJ/mol
# GULP energy per Si atom -5585.222457 kJ/mol
# Density = 1.946467 g / cm^3
# Si number density = 19.509073 Si / 1000 Ang^3
#
#
#
# Elastic Constant Matrix: (Units=GPa)
#
#
# Indices 1 2 3 4 5 6 
#
# 1 160.0879 40.4392 79.8346 0.0000 0.0000 0.0000
# 2 40.4392 46.2834 41.0381 0.0000 0.0000 0.0000
# 3 79.8346 41.0381 127.1107 0.0000 0.0000 0.0000
# 4 0.0000 0.0000 0.0000 24.0949 0.0000 0.0000
# 5 0.0000 0.0000 0.0000 0.0000 20.1025 0.0000
# 6 0.0000 0.0000 0.0000 0.0000 0.0000 19.2266
#
#
#
# Elastic Compliance Matrix: (Units=1/GPa)
#
#
# Indices 1 2 3 4 5 6 
#
# 1 0.009668 -0.004292 -0.004686 0.000000 0.000000 0.000000
# 2 -0.004292 0.032177 -0.007693 0.000000 0.000000 0.000000
# 3 -0.004686 -0.007693 0.013294 0.000000 0.000000 0.000000
# 4 0.000000 0.000000 0.000000 0.041503 0.000000 0.000000
# 5 0.000000 0.000000 0.000000 0.000000 0.049745 0.000000
# 6 0.000000 0.000000 0.000000 0.000000 0.000000 0.052011
#
#
# Mechanical properties :
#
#
# Convention : Reuss Voigt Hill
#
# Bulk Modulus (GPa) = 45.87833 72.90064 59.38948
# Shear Modulus (GPa) = 20.92002 24.16282 22.54142
#
# Velocity S-wave (km/s) = 3.27819 3.52311 3.40285
# Velocity P-wave (km/s) = 6.15598 7.34836 6.77844
#
# Compressibility (1/GPa) = 0.02179678
#
# Stress axis : x y z
#
# Youngs Moduli (GPa) = 103.43643 31.07825 75.22036
#
# Poissons Ratio (x) = 0.13338 0.35252
# Poissons Ratio (y) = 0.44391 0.57866
# Poissons Ratio (z) = 0.48475 0.23908
#
# Static dielectric constant tensor:
#      x y z
#    x 1.691600 0.000000 0.000000 
#    y 0.000000 1.671600 0.000000 
#    z 0.000000 0.000000 1.677480 
# 
# From -- ./inp_files/4054.got.cif
#   From: 2010.05.17/outbox.cif.g08.bks.cpg/sg17_3_cif.got.tgz:4054.got - 2010.06.03 22:34:06.
