data_PCOD9311532
_publ_section_title
;
Structure prediction by ZEFSAII (Michael W. Deem and Ramdas Pophale) SiO2 
 PCOD9311532
Probable space group: P 2 2 21
;
_chemical_formula_sum "Si O2"
_cell_formula_units_Z 20
_cell_length_a 8.328166
_cell_length_b 8.328158
_cell_length_c 11.951564
_cell_angle_alpha 90.000000
_cell_angle_beta 90.000000
_cell_angle_gamma 90.000000
_cell_volume 828.939950
_symmetry_space_group_name_H-M "P 2 2 21"
_symmetry_group_IT_number 17
_symmetry_cell_setting 'orthorhombic'
loop_
_space_group_symop_operation_xyz
x,y,z
-x,-y,1/2+z
x,-y,-z
-x,y,1/2-z
loop_
_atom_site_type_symbol
_atom_site_label
_atom_site_fract_x
_atom_site_fract_y
_atom_site_fract_z
Si Si1 0.285020 0.816991 0.005366
Si Si2 0.816991 0.285021 0.744634
Si Si3 0.391101 0.500000 0.500000
Si Si4 0.500000 0.391100 0.250000
Si Si5 0.334557 0.830394 0.461339
Si Si6 0.830394 0.334557 0.288661
O O1 0.192507 0.703862 0.918712
O O2 0.249326 0.750674 0.125000
O O3 0.479467 0.821495 0.998903
O O4 0.227692 0.000000 0.000000
O O5 0.703863 0.192507 0.831288
O O6 0.821496 0.479468 0.751097
O O7 0.000000 0.227693 0.750000
O O8 0.486032 0.486031 0.375000
O O9 0.277164 0.655918 0.502611
O O10 0.655918 0.277163 0.247389
O O11 0.266659 0.000000 0.500000
O O12 0.000000 0.266658 0.250000
#
# Coordination Sequence:
#
# PCOD9311532 Si02
#       6
#     4   4   2   2   4   4
#     4  11  25  46  73 109 151 204 257 327 401 471
#     4  11  25  46  73 109 151 204 257 327 401 471
#     4  12  24  44  76 110 154 206 256 326 404 468
#     4  12  24  44  76 110 154 206 256 326 404 468
#     4  11  25  45  75 111 148 200 261 322 383 482
#     4  11  25  45  75 111 148 200 261 322 383 482
#
# _framework density 24.127199000000001
#
# number of rings (size 3 to 8) (size 9 to 14) (size 15 to 20)
#    0.000    0.800    4.000    2.400    0.000    4.800 
#    0.000    0.000    0.000    0.000    0.000    0.000 
#    0.000    0.000    0.000    0.000    0.000    0.000 
#
# Total GULP energy -111367.315032 kJ/mol
# GULP energy per Si atom -5568.365752 kJ/mol
# Density = 2.407228 g / cm^3
# Si number density = 24.127199 Si / 1000 Ang^3
#
#
#
# Elastic Constant Matrix: (Units=GPa)
#
#
# Indices 1 2 3 4 5 6 
#
# 1 100.4493 33.4302 34.0502 0.0000 0.0000 0.0000
# 2 33.4302 100.4480 34.0499 0.0000 0.0000 0.0000
# 3 34.0502 34.0499 175.1165 0.0000 0.0000 0.0000
# 4 0.0000 0.0000 0.0000 57.1252 0.0000 0.0000
# 5 0.0000 0.0000 0.0000 0.0000 57.1290 0.0000
# 6 0.0000 0.0000 0.0000 0.0000 0.0000 7.0560
#
#
#
# Elastic Compliance Matrix: (Units=1/GPa)
#
#
# Indices 1 2 3 4 5 6 
#
# 1 0.011605 -0.003316 -0.001612 0.000000 0.000000 0.000000
# 2 -0.003316 0.011605 -0.001612 0.000000 0.000000 0.000000
# 3 -0.001612 -0.001612 0.006337 0.000000 0.000000 0.000000
# 4 0.000000 0.000000 0.000000 0.017505 0.000000 0.000000
# 5 0.000000 0.000000 0.000000 0.000000 0.017504 0.000000
# 6 0.000000 0.000000 0.000000 0.000000 0.000000 0.141722
#
#
# Mechanical properties :
#
#
# Convention : Reuss Voigt Hill
#
# Bulk Modulus (GPa) = 60.72113 64.34161 62.53137
# Shear Modulus (GPa) = 22.23718 42.56095 32.39907
#
# Velocity S-wave (km/s) = 3.03919 4.20458 3.66846
# Velocity P-wave (km/s) = 6.12677 7.09203 6.62700
#
# Compressibility (1/GPa) = 0.01646873
#
# Stress axis : x y z
#
# Youngs Moduli (GPa) = 86.16817 86.16711 157.79623
#
# Poissons Ratio (x) = 0.28573 0.25433
# Poissons Ratio (y) = 0.28573 0.25433
# Poissons Ratio (z) = 0.13889 0.13888
#
# Static dielectric constant tensor:
#      x y z
#    x 1.993900 0.000000 0.000000 
#    y 0.000000 1.993900 0.000000 
#    z 0.000000 0.000000 18.531010 
# 
# From -- ./inp_files/6426.got.cif
#   From: 2010.05.17/outbox.cif.g08.bks.cpg/sg17_4_cif.got.tgz:6426.got - 2010.06.03 22:34:06.
