data_PCOD9311040
_publ_section_title
;
Structure prediction by ZEFSAII (Michael W. Deem and Ramdas Pophale) SiO2 
 PCOD9311040
Probable space group: P 2 2 21
;
_chemical_formula_sum "Si O2"
_cell_formula_units_Z 24
_cell_length_a 9.803628
_cell_length_b 8.687571
_cell_length_c 14.918752
_cell_angle_alpha 90.000000
_cell_angle_beta 90.000000
_cell_angle_gamma 90.000000
_cell_volume 1270.625846
_symmetry_space_group_name_H-M "P 2 2 21"
_symmetry_group_IT_number 17
_symmetry_cell_setting 'orthorhombic'
loop_
_space_group_symop_operation_xyz
x,y,z
-x,-y,1/2+z
x,-y,-z
-x,y,1/2-z
loop_
_atom_site_type_symbol
_atom_site_label
_atom_site_fract_x
_atom_site_fract_y
_atom_site_fract_z
Si Si1 0.779290 0.316364 0.498240
Si Si2 0.537515 0.682582 0.016714
Si Si3 0.636844 0.152815 0.802785
Si Si4 0.251551 0.116129 0.417389
Si Si5 0.884704 0.813805 0.319664
Si Si6 0.960466 0.825865 0.651828
O O1 0.780183 0.500000 0.500000
O O2 0.620949 0.265823 0.509933
O O3 0.869394 0.257406 0.581936
O O4 0.844163 0.256342 0.405776
O O5 0.599688 0.739087 0.112186
O O6 0.542576 0.500000 0.000000
O O7 0.631418 0.763706 0.942149
O O8 0.500000 0.119567 0.750000
O O9 0.744822 0.219572 0.732808
O O10 0.703467 0.993933 0.836642
O O11 0.102930 0.183750 0.401201
O O12 0.240240 0.000000 0.500000
O O13 0.000000 0.757924 0.250000
O O14 0.915700 0.995487 0.335520
O O15 0.000000 0.763644 0.750000
#
# Coordination Sequence:
#
# PCOD9311040 Si02
#       6
#     4   4   4   4   4   4
#     4  11  25  43  61  89 131 169 207 253 313 378
#     4  10  24  43  60  90 129 172 206 254 315 374
#     4  11  21  39  65  94 121 161 215 258 310 372
#     4  10  21  38  63  90 122 156 205 254 309 365
#     4  11  22  41  67  93 125 161 206 267 312 363
#     4  11  23  41  64  94 122 159 207 261 307 370
#
# _framework density 18.88833
#
# number of rings (size 3 to 8) (size 9 to 14) (size 15 to 20)
#    0.000    1.333    5.000    1.500    4.667    2.667 
#    3.000    0.833    0.000    0.000    0.000    0.000 
#    0.000    0.000    0.000    0.000    0.000    0.000 
#
# Total GULP energy -133919.497671 kJ/mol
# GULP energy per Si atom -5579.979070 kJ/mol
# Density = 1.884534 g / cm^3
# Si number density = 18.888330 Si / 1000 Ang^3
#
#
#
# Elastic Constant Matrix: (Units=GPa)
#
#
# Indices 1 2 3 4 5 6 
#
# 1 106.4767 15.9110 28.7815 0.0000 0.0000 0.0000
# 2 15.9110 40.7956 23.3478 0.0000 0.0000 0.0000
# 3 28.7815 23.3478 82.1548 0.0000 0.0000 0.0000
# 4 0.0000 0.0000 0.0000 4.6288 0.0000 0.0000
# 5 0.0000 0.0000 0.0000 0.0000 43.7097 0.0000
# 6 0.0000 0.0000 0.0000 0.0000 0.0000 23.1879
#
#
#
# Elastic Compliance Matrix: (Units=1/GPa)
#
#
# Indices 1 2 3 4 5 6 
#
# 1 0.010566 -0.002391 -0.003022 0.000000 0.000000 0.000000
# 2 -0.002391 0.029815 -0.007635 0.000000 0.000000 0.000000
# 3 -0.003022 -0.007635 0.015401 0.000000 0.000000 0.000000
# 4 0.000000 0.000000 0.000000 0.216038 0.000000 0.000000
# 5 0.000000 0.000000 0.000000 0.000000 0.022878 0.000000
# 6 0.000000 0.000000 0.000000 0.000000 0.000000 0.043126
#
#
# Mechanical properties :
#
#
# Convention : Reuss Voigt Hill
#
# Bulk Modulus (GPa) = 33.68808 40.61199 37.15003
# Shear Modulus (GPa) = 13.37557 25.06440 19.21998
#
# Velocity S-wave (km/s) = 2.66398 3.64672 3.19338
# Velocity P-wave (km/s) = 5.22843 6.26731 5.77130
#
# Compressibility (1/GPa) = 0.02968409
#
# Stress axis : x y z
#
# Youngs Moduli (GPa) = 94.64375 33.54019 64.93174
#
# Poissons Ratio (x) = 0.08021 0.19622
# Poissons Ratio (y) = 0.22633 0.49578
# Poissons Ratio (z) = 0.28601 0.25609
#
# Static dielectric constant tensor:
#      x y z
#    x 1.687690 0.000000 0.000000 
#    y 0.000000 1.635470 0.000000 
#    z 0.000000 0.000000 1.697850 
# 
# From -- ./inp_files/8091.got.cif
#   From: 2010.05.17/outbox.cif.g08.bks.cpg/sg17_5_cif.got.tgz:8091.got - 2010.06.03 22:34:06.
