data_PCOD9311217
_publ_section_title
;
Structure prediction by ZEFSAII (Michael W. Deem and Ramdas Pophale) SiO2 
 PCOD9311217
Probable space group: P 2 2 21
;
_chemical_formula_sum "Si O2"
_cell_formula_units_Z 16
_cell_length_a 5.503988
_cell_length_b 10.713780
_cell_length_c 11.839951
_cell_angle_alpha 90.000000
_cell_angle_beta 90.000000
_cell_angle_gamma 90.000000
_cell_volume 698.184347
_symmetry_space_group_name_H-M "P 2 2 21"
_symmetry_group_IT_number 17
_symmetry_cell_setting 'orthorhombic'
loop_
_space_group_symop_operation_xyz
x,y,z
-x,-y,1/2+z
x,-y,-z
-x,y,1/2-z
loop_
_atom_site_type_symbol
_atom_site_label
_atom_site_fract_x
_atom_site_fract_y
_atom_site_fract_z
Si Si1 0.588820 0.256450 0.873172
Si Si2 0.745590 0.535059 0.816526
Si Si3 0.661713 0.130746 0.437338
Si Si4 0.833135 0.794991 0.921366
O O1 0.500000 0.213226 0.750000
O O2 0.669489 0.399327 0.861019
O O3 0.374091 0.236570 0.964484
O O4 0.801110 0.184019 0.942257
O O5 0.500000 0.575943 0.750000
O O6 0.801884 0.648174 0.900354
O O7 0.000000 0.518780 0.750000
O O8 0.405516 0.137468 0.373584
O O9 0.910426 0.161019 0.376732
O O10 0.680967 0.000000 0.500000
#
# Coordination Sequence:
#
# PCOD9311217 Si02
#       4
#     4   4   4   4
#     4   9  23  39  65  93 126 165 214 262 320 383
#     4  11  23  39  63  97 134 163 211 262 326 391
#     4  10  22  40  66  87 128 167 219 257 316 373
#     4  10  22  40  65  89 129 164 215 260 328 368
#
# _framework density 22.916581999999998
#
# number of rings (size 3 to 8) (size 9 to 14) (size 15 to 20)
#    1.500    0.500    0.000    3.000    7.000    0.000 
#    4.500    3.750    5.500    0.000    0.000    0.000 
#    0.000    0.000    0.000    0.000    0.000    0.000 
#
# Total GULP energy -89074.360647 kJ/mol
# GULP energy per Si atom -5567.147540 kJ/mol
# Density = 2.286442 g / cm^3
# Si number density = 22.916582 Si / 1000 Ang^3
#
#
#
# Elastic Constant Matrix: (Units=GPa)
#
#
# Indices 1 2 3 4 5 6 
#
# 1 212.6530 39.1705 46.5188 0.0000 0.0000 0.0000
# 2 39.1705 53.9402 25.2620 0.0000 0.0000 0.0000
# 3 46.5188 25.2620 59.4931 0.0000 0.0000 0.0000
# 4 0.0000 0.0000 0.0000 -0.2135 0.0000 0.0000
# 5 0.0000 0.0000 0.0000 0.0000 20.4094 0.0000
# 6 0.0000 0.0000 0.0000 0.0000 0.0000 30.9900
#
#
#
# Elastic Compliance Matrix: (Units=1/GPa)
#
#
# Indices 1 2 3 4 5 6 
#
# 1 0.005968 -0.002682 -0.003528 0.000000 0.000000 0.000000
# 2 -0.002682 0.024346 -0.008241 0.000000 0.000000 0.000000
# 3 -0.003528 -0.008241 0.023066 0.000000 0.000000 0.000000
# 4 0.000000 0.000000 0.000000 -4.682911 0.000000 0.000000
# 5 0.000000 0.000000 0.000000 0.000000 0.048997 0.000000
# 6 0.000000 0.000000 0.000000 0.000000 0.000000 0.032268
#
#
# Mechanical properties :
#
#
# Convention : Reuss Voigt Hill
#
# Bulk Modulus (GPa) = 40.85046 60.88763 50.86904
# Shear Modulus (GPa) = -1.10835 24.57952 11.73558
#
# Velocity S-wave (km/s) = -0.69620 3.27856 2.26542
# Velocity P-wave (km/s) = 4.14948 6.39991 5.39338
#
# Compressibility (1/GPa) = 0.02447953
#
# Stress axis : x y z
#
# Youngs Moduli (GPa) = 167.55385 41.07455 43.35298
#
# Poissons Ratio (x) = 0.11015 0.15295
# Poissons Ratio (y) = 0.44934 0.35727
# Poissons Ratio (z) = 0.59112 0.33849
#
# Static dielectric constant tensor:
#      x y z
#    x 1.980730 0.000000 0.000000 
#    y 0.000000 1.811600 0.000000 
#    z 0.000000 0.000000 1.569590 
# 
# From -- ./inp_files/5781.got.cif
#   From: 2010.05.17/outbox.cif.g08.bks.cpg/sg17_3_cif.got.tgz:5781.got - 2010.06.03 22:34:06.
