data_PCOD9311496
_publ_section_title
;
Structure prediction by ZEFSAII (Michael W. Deem and Ramdas Pophale) SiO2 
 PCOD9311496
Probable space group: P 2 2 21
;
_chemical_formula_sum "Si O2"
_cell_formula_units_Z 28
_cell_length_a 7.927643
_cell_length_b 15.303260
_cell_length_c 9.604116
_cell_angle_alpha 90.000000
_cell_angle_beta 90.000000
_cell_angle_gamma 90.000000
_cell_volume 1165.159655
_symmetry_space_group_name_H-M "P 2 2 21"
_symmetry_group_IT_number 17
_symmetry_cell_setting 'orthorhombic'
loop_
_space_group_symop_operation_xyz
x,y,z
-x,-y,1/2+z
x,-y,-z
-x,y,1/2-z
loop_
_atom_site_type_symbol
_atom_site_label
_atom_site_fract_x
_atom_site_fract_y
_atom_site_fract_z
Si Si1 0.939129 0.253042 0.390155
Si Si2 0.172676 0.985895 0.167531
Si Si3 0.463189 0.729853 0.888966
Si Si4 0.879948 0.349449 0.647645
Si Si5 0.248585 0.128874 0.403952
Si Si6 0.465621 0.581466 0.088343
Si Si7 0.692450 0.180837 0.777415
O O1 0.985811 0.307889 0.523701
O O2 0.058740 0.167788 0.389866
O O3 0.000000 0.299483 0.250000
O O4 0.735124 0.244177 0.397093
O O5 0.275165 0.896325 0.167978
O O6 0.000000 0.967078 0.250000
O O7 0.255138 0.055891 0.279126
O O8 0.146304 0.000000 0.000000
O O9 0.500000 0.673940 0.750000
O O10 0.405021 0.807816 0.627292
O O11 0.523164 0.671724 0.018035
O O12 0.735894 0.407444 0.580952
O O13 0.800674 0.266148 0.732847
O O14 0.000000 0.400776 0.750000
O O15 0.270564 0.131318 0.574197
O O16 0.500000 0.574169 0.250000
O O17 0.526968 0.500000 0.000000
O O18 0.500000 0.204993 0.750000
#
# Coordination Sequence:
#
# PCOD9311496 Si02
#       7
#     4   4   4   4   4   4   4
#     4  11  23  40  69 109 141 189 244 311 375 456
#     4  12  30  49  70 101 149 202 257 329 399 462
#     4  11  24  43  75 110 144 191 252 309 376 468
#     4  11  23  44  77 106 147 195 256 311 379 472
#     4  12  25  47  76 105 148 195 252 320 390 463
#     4  11  25  47  74 113 155 198 248 316 391 468
#     4  12  26  47  72 108 145 197 259 321 392 467
#
# _framework density 24.031040999999998
#
# number of rings (size 3 to 8) (size 9 to 14) (size 15 to 20)
#    0.000    0.571    2.857    5.571    4.000    2.857 
#    0.000    3.571    0.000    0.000    0.000    0.000 
#    0.000    0.000    0.000    0.000    0.000    0.000 
#
# Total GULP energy -156093.400254 kJ/mol
# GULP energy per Si atom -5574.764295 kJ/mol
# Density = 2.397635 g / cm^3
# Si number density = 24.031041 Si / 1000 Ang^3
#
#
#
# Elastic Constant Matrix: (Units=GPa)
#
#
# Indices 1 2 3 4 5 6 
#
# 1 62.6988 39.6685 33.1664 0.0000 0.0000 0.0000
# 2 39.6685 71.1857 33.1203 0.0000 0.0000 0.0000
# 3 33.1664 33.1203 192.8410 0.0000 0.0000 0.0000
# 4 0.0000 0.0000 0.0000 -9.7378 0.0000 0.0000
# 5 0.0000 0.0000 0.0000 0.0000 44.0860 0.0000
# 6 0.0000 0.0000 0.0000 0.0000 0.0000 -240.0841
#
#
#
# Elastic Compliance Matrix: (Units=1/GPa)
#
#
# Indices 1 2 3 4 5 6 
#
# 1 0.025398 -0.013173 -0.002106 0.000000 0.000000 0.000000
# 2 -0.013173 0.022101 -0.001530 0.000000 0.000000 0.000000
# 3 -0.002106 -0.001530 0.005811 0.000000 0.000000 0.000000
# 4 0.000000 0.000000 0.000000 -0.102693 0.000000 0.000000
# 5 0.000000 0.000000 0.000000 0.000000 0.022683 0.000000
# 6 0.000000 0.000000 0.000000 0.000000 0.000000 -0.004165
#
#
# Mechanical properties :
#
#
# Convention : Reuss Voigt Hill
#
# Bulk Modulus (GPa) = 50.78523 59.84844 55.31683
# Shear Modulus (GPa) = 536.75501 -26.42916 255.16292
#
# Velocity S-wave (km/s) = 14.96141 -3.31991 10.31557
# Velocity P-wave (km/s) = 17.87841 3.20359 12.84330
#
# Compressibility (1/GPa) = 0.01969077
#
# Stress axis : x y z
#
# Youngs Moduli (GPa) = 39.37381 45.24783 172.10068
#
# Poissons Ratio (x) = 0.59606 0.36238
# Poissons Ratio (y) = 0.51868 0.26333
# Poissons Ratio (z) = 0.08291 0.06923
#
# Static dielectric constant tensor:
#      x y z
#    x 2.020620 0.000000 0.000000 
#    y 0.000000 1.959670 0.000000 
#    z 0.000000 0.000000 3.374750 
# 
# From -- ./inp_files/4400.got.cif
#   From: 2010.05.17/outbox.cif.g08.bks.cpg/sg17_3_cif.got.tgz:4400.got - 2010.06.03 22:34:06.
