data_PCOD9311567
_publ_section_title
;
Structure prediction by ZEFSAII (Michael W. Deem and Ramdas Pophale) SiO2 
 PCOD9311567
Probable space group: P 2 2 21
;
_chemical_formula_sum "Si O2"
_cell_formula_units_Z 12
_cell_length_a 6.667548
_cell_length_b 3.373714
_cell_length_c 18.012967
_cell_angle_alpha 90.000000
_cell_angle_beta 90.000000
_cell_angle_gamma 90.000000
_cell_volume 405.190885
_symmetry_space_group_name_H-M "P 2 2 21"
_symmetry_group_IT_number 17
_symmetry_cell_setting 'orthorhombic'
loop_
_space_group_symop_operation_xyz
x,y,z
-x,-y,1/2+z
x,-y,-z
-x,y,1/2-z
loop_
_atom_site_type_symbol
_atom_site_label
_atom_site_fract_x
_atom_site_fract_y
_atom_site_fract_z
Si Si1 0.306717 0.002922 0.824173
Si Si2 0.525003 0.499589 0.088704
Si Si3 0.880618 0.759346 0.819718
O O1 0.363722 0.498455 0.833955
O O2 0.285988 0.982091 0.732711
O O3 0.000000 0.555662 0.750000
O O4 0.073355 0.981495 0.854211
O O5 0.467442 0.997510 0.100635
O O6 0.754159 0.470091 0.119325
O O7 0.508567 0.500000 0.000000
#
# Coordination Sequence:
#
# PCOD9311567 Si02
#       3
#     4   4   4
#     4   9  24  43  68 100 137 190 242 292 348 436
#     4  12  23  43  72 106 145 186 234 305 366 411
#     4   8  23  46  71  99 140 192 243 286 343 437
#
# _framework density 29.615669
#
# number of rings (size 3 to 8) (size 9 to 14) (size 15 to 20)
#    2.000    0.000    0.000    2.000    0.000   14.667 
#    0.000    3.333    0.000    0.000    0.000    0.000 
#    0.000    0.000    0.000    0.000    0.000    0.000 
#
# Total GULP energy -66927.181353 kJ/mol
# GULP energy per Si atom -5577.265113 kJ/mol
# Density = 2.954826 g / cm^3
# Si number density = 29.615669 Si / 1000 Ang^3
#
#
#
# Elastic Constant Matrix: (Units=GPa)
#
#
# Indices 1 2 3 4 5 6 
#
# 1 188.8968 55.4777 99.6572 0.0000 0.0000 0.0000
# 2 55.4777 254.1276 122.6598 0.0000 0.0000 0.0000
# 3 99.6572 122.6598 214.7185 0.0000 0.0000 0.0000
# 4 0.0000 0.0000 0.0000 102.5965 0.0000 0.0000
# 5 0.0000 0.0000 0.0000 0.0000 19.6348 0.0000
# 6 0.0000 0.0000 0.0000 0.0000 0.0000 98.8662
#
#
#
# Elastic Compliance Matrix: (Units=1/GPa)
#
#
# Indices 1 2 3 4 5 6 
#
# 1 0.007011 0.000055 -0.003286 0.000000 0.000000 0.000000
# 2 0.000055 0.005434 -0.003130 0.000000 0.000000 0.000000
# 3 -0.003286 -0.003130 0.007970 0.000000 0.000000 0.000000
# 4 0.000000 0.000000 0.000000 0.009747 0.000000 0.000000
# 5 0.000000 0.000000 0.000000 0.000000 0.050930 0.000000
# 6 0.000000 0.000000 0.000000 0.000000 0.000000 0.010115
#
#
# Mechanical properties :
#
#
# Convention : Reuss Voigt Hill
#
# Bulk Modulus (GPa) = 129.95875 134.81468 132.38671
# Shear Modulus (GPa) = 46.95234 69.54940 58.25087
#
# Velocity S-wave (km/s) = 3.98601 4.85129 4.43978
# Velocity P-wave (km/s) = 8.07226 8.77497 8.43094
#
# Compressibility (1/GPa) = 0.00769475
#
# Stress axis : x y z
#
# Youngs Moduli (GPa) = 142.63157 184.04232 125.46965
#
# Poissons Ratio (x) = -0.01018 0.41225
# Poissons Ratio (y) = -0.00789 0.39267
# Poissons Ratio (z) = 0.46864 0.57598
#
# Static dielectric constant tensor:
#      x y z
#    x 2.278090 0.000000 0.000000 
#    y 0.000000 3.052650 0.000000 
#    z 0.000000 0.000000 1.951400 
# 
# From -- ./inp_files/8763.got.cif
#   From: 2010.05.17/outbox.cif.g08.bks.cpg/sg17_5_cif.got.tgz:8763.got - 2010.06.03 22:34:06.
