data_PCOD9311393
_publ_section_title
;
Structure prediction by ZEFSAII (Michael W. Deem and Ramdas Pophale) SiO2 
 PCOD9311393
Probable space group: P 2 2 21
;
_chemical_formula_sum "Si O2"
_cell_formula_units_Z 18
_cell_length_a 6.829431
_cell_length_b 8.065989
_cell_length_c 15.098105
_cell_angle_alpha 90.000000
_cell_angle_beta 90.000000
_cell_angle_gamma 90.000000
_cell_volume 831.695953
_symmetry_space_group_name_H-M "P 2 2 21"
_symmetry_group_IT_number 17
_symmetry_cell_setting 'orthorhombic'
loop_
_space_group_symop_operation_xyz
x,y,z
-x,-y,1/2+z
x,-y,-z
-x,y,1/2-z
loop_
_atom_site_type_symbol
_atom_site_label
_atom_site_fract_x
_atom_site_fract_y
_atom_site_fract_z
Si Si1 0.332563 0.168807 0.544898
Si Si2 0.354020 0.781373 0.174054
Si Si3 0.000000 0.439894 0.750000
Si Si4 0.949475 0.631023 0.928929
Si Si5 0.026988 0.021829 0.143720
O O1 0.491370 0.270860 0.600191
O O2 0.244672 0.296083 0.474320
O O3 0.411197 0.000000 0.500000
O O4 0.151722 0.091078 0.604478
O O5 0.500000 0.845065 0.250000
O O6 0.189633 0.661324 0.215301
O O7 0.224772 0.923272 0.131879
O O8 0.071792 0.541781 0.664953
O O9 0.052864 0.804253 0.905752
O O10 0.035789 0.500000 0.000000
O O11 0.000000 0.045236 0.250000
#
# Coordination Sequence:
#
# PCOD9311393 Si02
#       5
#     4   4   2   4   4
#     4  10  24  44  73 102 138 185 247 298 347 423
#     4  12  22  42  73 104 133 186 244 297 347 419
#     4  12  26  44  74 106 152 194 232 296 366 430
#     4  11  24  46  70 102 148 187 228 295 366 426
#     4  11  21  44  75 101 135 189 240 297 353 426
#
# _framework density 21.642524999999999
#
# number of rings (size 3 to 8) (size 9 to 14) (size 15 to 20)
#    0.000    0.889    4.444    2.667    0.000    4.444 
#    0.000   20.000    0.000    0.000    0.000    0.000 
#    0.000    0.000    0.000    0.000    0.000    0.000 
#
# Total GULP energy -100405.123868 kJ/mol
# GULP energy per Si atom -5578.062437 kJ/mol
# Density = 2.159327 g / cm^3
# Si number density = 21.642525 Si / 1000 Ang^3
#
#
#
# Elastic Constant Matrix: (Units=GPa)
#
#
# Indices 1 2 3 4 5 6 
#
# 1 117.1595 64.2962 62.5109 0.0000 0.0000 0.0000
# 2 64.2962 130.9949 68.0333 0.0000 0.0000 0.0000
# 3 62.5109 68.0333 152.3831 0.0000 0.0000 0.0000
# 4 0.0000 0.0000 0.0000 50.3696 0.0000 0.0000
# 5 0.0000 0.0000 0.0000 0.0000 39.5605 0.0000
# 6 0.0000 0.0000 0.0000 0.0000 0.0000 4.7130
#
#
#
# Elastic Compliance Matrix: (Units=1/GPa)
#
#
# Indices 1 2 3 4 5 6 
#
# 1 0.012762 -0.004615 -0.003175 0.000000 0.000000 0.000000
# 2 -0.004615 0.011607 -0.003289 0.000000 0.000000 0.000000
# 3 -0.003175 -0.003289 0.009333 0.000000 0.000000 0.000000
# 4 0.000000 0.000000 0.000000 0.019853 0.000000 0.000000
# 5 0.000000 0.000000 0.000000 0.000000 0.025278 0.000000
# 6 0.000000 0.000000 0.000000 0.000000 0.000000 0.212178
#
#
# Mechanical properties :
#
#
# Convention : Reuss Voigt Hill
#
# Bulk Modulus (GPa) = 86.61985 87.80202 87.21093
# Shear Modulus (GPa) = 15.77199 32.64176 24.20687
#
# Velocity S-wave (km/s) = 2.70247 3.88780 3.34801
# Velocity P-wave (km/s) = 7.06029 7.79811 7.43835
#
# Compressibility (1/GPa) = 0.01154470
#
# Stress axis : x y z
#
# Youngs Moduli (GPa) = 78.35728 86.15265 107.14458
#
# Poissons Ratio (x) = 0.39761 0.34016
# Poissons Ratio (y) = 0.36163 0.35240
# Poissons Ratio (z) = 0.24877 0.28335
#
# Static dielectric constant tensor:
#      x y z
#    x 1.780730 0.000000 0.000000 
#    y 0.000000 1.813910 0.000000 
#    z 0.000000 0.000000 1.871400 
# 
# From -- ./inp_files/8868.got.cif
#   From: 2010.05.17/outbox.cif.g08.bks.cpg/sg17_5_cif.got.tgz:8868.got - 2010.06.03 22:34:06.
