data_PCOD9311504
_publ_section_title
;
Structure prediction by ZEFSAII (Michael W. Deem and Ramdas Pophale) SiO2 
 PCOD9311504
Probable space group: P 2 2 21
;
_chemical_formula_sum "Si O2"
_cell_formula_units_Z 22
_cell_length_a 5.304385
_cell_length_b 15.543505
_cell_length_c 11.748519
_cell_angle_alpha 90.000000
_cell_angle_beta 90.000000
_cell_angle_gamma 90.000000
_cell_volume 968.650527
_symmetry_space_group_name_H-M "P 2 2 21"
_symmetry_group_IT_number 17
_symmetry_cell_setting 'orthorhombic'
loop_
_space_group_symop_operation_xyz
x,y,z
-x,-y,1/2+z
x,-y,-z
-x,y,1/2-z
loop_
_atom_site_type_symbol
_atom_site_label
_atom_site_fract_x
_atom_site_fract_y
_atom_site_fract_z
Si Si1 0.004465 0.675155 0.121157
Si Si2 0.500000 0.063982 0.750000
Si Si3 0.819680 0.849027 0.452205
Si Si4 0.421860 0.759302 0.623492
Si Si5 0.529828 0.401313 0.968137
Si Si6 0.856231 0.933555 0.865212
O O1 0.989432 0.768581 0.062659
O O2 0.267009 0.633153 0.082233
O O3 0.000000 0.700711 0.250000
O O4 0.772489 0.609973 0.111155
O O5 0.310280 0.120584 0.832081
O O6 0.627693 0.001892 0.847509
O O7 0.610220 0.810635 0.538000
O O8 0.975495 0.920384 0.521457
O O9 0.500000 0.734981 0.750000
O O10 0.386334 0.666531 0.565423
O O11 0.226788 0.834948 0.650586
O O12 0.499063 0.500000 0.000000
O O13 0.000000 0.957521 0.750000
#
# Coordination Sequence:
#
# PCOD9311504 Si02
#       6
#     4   2   4   4   4   4
#     4  11  25  46  76 108 156 203 249 316 397 472
#     4  12  30  46  76 114 156 206 274 342 392 476
#     4  11  27  47  73 108 153 209 265 321 403 478
#     4  11  23  45  72 104 151 201 255 319 398 472
#     4  11  25  47  77 117 151 197 262 323 389 480
#     4  12  24  48  71 106 148 204 260 326 399 467
#
# _framework density 22.712008999999998
#
# number of rings (size 3 to 8) (size 9 to 14) (size 15 to 20)
#    0.000    0.727    4.545    1.091    5.091    8.000 
#    0.000    2.727    0.000    0.000    0.000    0.000 
#    0.000    0.000    0.000    0.000    0.000    0.000 
#
# Total GULP energy -122556.207740 kJ/mol
# GULP energy per Si atom -5570.736715 kJ/mol
# Density = 2.266032 g / cm^3
# Si number density = 22.712009 Si / 1000 Ang^3
#
#
#
# Elastic Constant Matrix: (Units=GPa)
#
#
# Indices 1 2 3 4 5 6 
#
# 1 100.3033 20.6886 9.6044 0.0000 0.0000 0.0000
# 2 20.6886 155.8727 18.9537 0.0000 0.0000 0.0000
# 3 9.6044 18.9537 71.8712 0.0000 0.0000 0.0000
# 4 0.0000 0.0000 0.0000 24.2646 0.0000 0.0000
# 5 0.0000 0.0000 0.0000 0.0000 37.3136 0.0000
# 6 0.0000 0.0000 0.0000 0.0000 0.0000 -19.3230
#
#
#
# Elastic Compliance Matrix: (Units=1/GPa)
#
#
# Indices 1 2 3 4 5 6 
#
# 1 0.010327 -0.001243 -0.001052 0.000000 0.000000 0.000000
# 2 -0.001243 0.006778 -0.001621 0.000000 0.000000 0.000000
# 3 -0.001052 -0.001621 0.014482 0.000000 0.000000 0.000000
# 4 0.000000 0.000000 0.000000 0.041212 0.000000 0.000000
# 5 0.000000 0.000000 0.000000 0.000000 0.026800 0.000000
# 6 0.000000 0.000000 0.000000 0.000000 0.000000 -0.051752
#
#
# Mechanical properties :
#
#
# Convention : Reuss Voigt Hill
#
# Bulk Modulus (GPa) = 42.09854 47.39341 44.74597
# Shear Modulus (GPa) = 78.61974 27.03774 52.82874
#
# Velocity S-wave (km/s) = 5.88991 3.45405 4.82812
# Velocity P-wave (km/s) = 8.05176 6.06792 7.12918
#
# Compressibility (1/GPa) = 0.02375380
#
# Stress axis : x y z
#
# Youngs Moduli (GPa) = 96.83506 147.54536 69.05137
#
# Poissons Ratio (x) = 0.18335 0.07266
# Poissons Ratio (y) = 0.12034 0.11195
# Poissons Ratio (z) = 0.10190 0.23922
#
# Static dielectric constant tensor:
#      x y z
#    x 1.956100 0.000000 0.000000 
#    y 0.000000 1.833640 0.000000 
#    z 0.000000 0.000000 1.979970 
# 
# From -- ./inp_files/5975.got.cif
#   From: 2010.05.17/outbox.cif.g08.bks.cpg/sg17_3_cif.got.tgz:5975.got - 2010.06.03 22:34:06.
