data_PCOD9311745
_publ_section_title
;
Structure prediction by ZEFSAII (Michael W. Deem and Ramdas Pophale) SiO2 
 PCOD9311745
Probable space group: P 21 21 2
;
_chemical_formula_sum "Si O2"
_cell_formula_units_Z 24
_cell_length_a 13.141999
_cell_length_b 14.230940
_cell_length_c 5.066155
_cell_angle_alpha 90.000000
_cell_angle_beta 90.000000
_cell_angle_gamma 90.000000
_cell_volume 947.487503
_symmetry_space_group_name_H-M "P 21 21 2"
_symmetry_group_IT_number 18
_symmetry_cell_setting 'orthorhombic'
loop_
_space_group_symop_operation_xyz
x,y,z
-x,-y,z
1/2+x,1/2-y,-z
1/2-x,1/2+y,-z
loop_
_atom_site_type_symbol
_atom_site_label
_atom_site_fract_x
_atom_site_fract_y
_atom_site_fract_z
Si Si1 0.000000 0.500000 0.663019
Si Si2 0.564086 0.676158 0.242293
Si Si3 0.028162 0.327449 0.037482
Si Si4 0.640487 0.853211 0.577652
Si Si5 0.500000 0.500000 0.592342
Si Si6 0.769574 0.588196 0.205579
Si Si7 0.218430 0.026347 0.282248
O O1 0.915173 0.451976 0.488437
O O2 0.962172 0.588081 0.829513
O O3 0.596094 0.762763 0.429744
O O4 0.523313 0.588752 0.406915
O O5 0.670406 0.646061 0.105845
O O6 0.474305 0.721979 0.068786
O O7 0.126514 0.351267 0.214428
O O8 0.910934 0.336972 0.138551
O O9 0.747551 0.878886 0.440174
O O10 0.598311 0.475568 0.763033
O O11 0.739770 0.554493 0.498283
O O12 0.771940 0.500941 0.995276
#
# Coordination Sequence:
#
# PCOD9311745 Si02
#       7
#     2   4   4   4   2   4   4
#     4  10  18  38  64 102 144 174 234 302 390 428
#     4  10  27  46  69 105 150 196 262 300 383 458
#     4  11  23  40  74 105 149 196 246 326 377 450
#     4  11  23  41  69 114 142 193 246 318 371 453
#     4  10  26  54  70 100 150 210 246 310 378 474
#     4  11  25  48  70 108 149 197 249 317 376 462
#     4  11  25  47  77 104 149 198 251 307 386 453
#
# _framework density 25.330148000000001
#
# number of rings (size 3 to 8) (size 9 to 14) (size 15 to 20)
#    0.000    1.333    1.667    2.500    9.333    5.333 
#    3.000    0.000    0.000    0.000    0.000    0.000 
#    0.000    0.000    0.000    0.000    0.000    0.000 
#
# Total GULP energy -133875.377960 kJ/mol
# GULP energy per Si atom -5578.140748 kJ/mol
# Density = 2.527250 g / cm^3
# Si number density = 25.330148 Si / 1000 Ang^3
#
#
#
# Elastic Constant Matrix: (Units=GPa)
#
#
# Indices 1 2 3 4 5 6 
#
# 1 110.2633 23.8250 2.5057 0.0000 0.0000 0.0000
# 2 23.8250 130.3960 11.0256 0.0000 0.0000 0.0000
# 3 2.5057 11.0256 66.1170 0.0000 0.0000 0.0000
# 4 0.0000 0.0000 0.0000 29.4654 0.0000 0.0000
# 5 0.0000 0.0000 0.0000 0.0000 28.1885 0.0000
# 6 0.0000 0.0000 0.0000 0.0000 0.0000 44.3770
#
#
#
# Elastic Compliance Matrix: (Units=1/GPa)
#
#
# Indices 1 2 3 4 5 6 
#
# 1 0.009442 -0.001719 -0.000071 0.000000 0.000000 0.000000
# 2 -0.001719 0.008092 -0.001284 0.000000 0.000000 0.000000
# 3 -0.000071 -0.001284 0.015342 0.000000 0.000000 0.000000
# 4 0.000000 0.000000 0.000000 0.033938 0.000000 0.000000
# 5 0.000000 0.000000 0.000000 0.000000 0.035475 0.000000
# 6 0.000000 0.000000 0.000000 0.000000 0.000000 0.022534
#
#
# Mechanical properties :
#
#
# Convention : Reuss Voigt Hill
#
# Bulk Modulus (GPa) = 37.41622 42.38765 39.90193
# Shear Modulus (GPa) = 35.74463 38.36752 37.05608
#
# Velocity S-wave (km/s) = 3.76060 3.89613 3.82897
# Velocity P-wave (km/s) = 5.80169 6.08360 5.94432
#
# Compressibility (1/GPa) = 0.02672638
#
# Stress axis : x y z
#
# Youngs Moduli (GPa) = 105.90648 123.58417 65.18248
#
# Poissons Ratio (x) = 0.21247 0.00464
# Poissons Ratio (y) = 0.18208 0.08371
# Poissons Ratio (z) = 0.00753 0.15871
#
# Static dielectric constant tensor:
#      x y z
#    x 2.293440 0.000000 0.000000 
#    y 0.000000 2.057180 0.000000 
#    z 0.000000 0.000000 2.069110 
# 
# From -- ./inp_files/1497.got.cif
#   From: 2010.05.17/outbox.cif.g08.bks.cpg/sg18_1_cif.got.tgz:1497.got - 2010.06.03 22:40:56.
