data_PCOD9311221
_publ_section_title
;
Structure prediction by ZEFSAII (Michael W. Deem and Ramdas Pophale) SiO2 
 PCOD9311221
Probable space group: P 2 2 21
;
_chemical_formula_sum "Si O2"
_cell_formula_units_Z 24
_cell_length_a 8.891281
_cell_length_b 5.365596
_cell_length_c 22.098767
_cell_angle_alpha 90.000000
_cell_angle_beta 90.000000
_cell_angle_gamma 90.000000
_cell_volume 1054.266358
_symmetry_space_group_name_H-M "P 2 2 21"
_symmetry_group_IT_number 17
_symmetry_cell_setting 'orthorhombic'
loop_
_space_group_symop_operation_xyz
x,y,z
-x,-y,1/2+z
x,-y,-z
-x,y,1/2-z
loop_
_atom_site_type_symbol
_atom_site_label
_atom_site_fract_x
_atom_site_fract_y
_atom_site_fract_z
Si Si1 0.219987 0.614920 0.935029
Si Si2 0.000000 0.408365 0.250000
Si Si3 0.500000 0.142878 0.750000
Si Si4 0.423104 0.415476 0.430881
Si Si5 0.016075 0.927539 0.860042
Si Si6 0.233021 0.706598 0.182659
Si Si7 0.307820 0.920661 0.365130
O O1 0.399370 0.669273 0.930485
O O2 0.093512 0.821047 0.920223
O O3 0.200752 0.416963 0.881343
O O4 0.193173 0.500000 0.000000
O O5 0.956594 0.267641 0.188880
O O6 0.139858 0.575000 0.233697
O O7 0.599291 0.299365 0.703995
O O8 0.618590 0.022109 0.798213
O O9 0.389605 0.500000 0.500000
O O10 0.339791 0.168356 0.405826
O O11 0.380694 0.666226 0.392733
O O12 0.874384 0.109513 0.866457
O O13 0.164759 0.021719 0.824537
#
# Coordination Sequence:
#
# PCOD9311221 Si02
#       7
#     4   2   2   4   4   4   4
#     4  10  24  46  74 101 143 196 249 307 368 451
#     4  10  22  40  66  92 144 184 236 294 376 444
#     4  12  24  42  74 106 148 192 252 306 384 452
#     4  11  26  51  74 107 148 200 254 311 370 442
#     4  11  25  43  68 105 145 192 239 307 377 448
#     4  11  23  43  66 102 139 190 242 304 371 449
#     4  12  27  45  76 112 150 195 247 313 376 453
#
# _framework density 22.764648000000001
#
# number of rings (size 3 to 8) (size 9 to 14) (size 15 to 20)
#    0.000    1.000    1.667    4.000    7.000    3.333 
#    3.000    0.000    0.000    0.000    0.000    0.000 
#    0.000    0.000    0.000    0.000    0.000    0.000 
#
# Total GULP energy -133792.223874 kJ/mol
# GULP energy per Si atom -5574.675995 kJ/mol
# Density = 2.271283 g / cm^3
# Si number density = 22.764648 Si / 1000 Ang^3
#
#
#
# Elastic Constant Matrix: (Units=GPa)
#
#
# Indices 1 2 3 4 5 6 
#
# 1 107.7042 7.7910 37.8742 0.0000 0.0000 0.0000
# 2 7.7910 50.6141 20.1681 0.0000 0.0000 0.0000
# 3 37.8742 20.1681 96.4982 0.0000 0.0000 0.0000
# 4 0.0000 0.0000 0.0000 20.6617 0.0000 0.0000
# 5 0.0000 0.0000 0.0000 0.0000 32.0405 0.0000
# 6 0.0000 0.0000 0.0000 0.0000 0.0000 21.5873
#
#
#
# Elastic Compliance Matrix: (Units=1/GPa)
#
#
# Indices 1 2 3 4 5 6 
#
# 1 0.010771 0.000029 -0.004234 0.000000 0.000000 0.000000
# 2 0.000029 0.021552 -0.004516 0.000000 0.000000 0.000000
# 3 -0.004234 -0.004516 0.012968 0.000000 0.000000 0.000000
# 4 0.000000 0.000000 0.000000 0.048399 0.000000 0.000000
# 5 0.000000 0.000000 0.000000 0.000000 0.031211 0.000000
# 6 0.000000 0.000000 0.000000 0.000000 0.000000 0.046324
#
#
# Mechanical properties :
#
#
# Convention : Reuss Voigt Hill
#
# Bulk Modulus (GPa) = 35.90537 42.94257 39.42397
# Shear Modulus (GPa) = 25.25898 27.45678 26.35788
#
# Velocity S-wave (km/s) = 3.33464 3.47668 3.40640
# Velocity P-wave (km/s) = 5.53471 5.91786 5.72949
#
# Compressibility (1/GPa) = 0.02785099
#
# Stress axis : x y z
#
# Youngs Moduli (GPa) = 92.83878 46.39883 77.11088
#
# Poissons Ratio (x) = -0.00134 0.32646
# Poissons Ratio (y) = -0.00269 0.34822
# Poissons Ratio (z) = 0.39305 0.20953
#
# Static dielectric constant tensor:
#      x y z
#    x 1.931810 0.000000 0.000000 
#    y 0.000000 1.904090 0.000000 
#    z 0.000000 0.000000 1.846020 
# 
# From -- ./inp_files/10563.got.cif
#   From: 2010.05.17/outbox.cif.g08.bks.cpg/sg17_6_cif.got.tgz:10563.got - 2010.06.03 22:34:06.
