data_PCOD9311041
_publ_section_title
;
Structure prediction by ZEFSAII (Michael W. Deem and Ramdas Pophale) SiO2 
 PCOD9311041
Probable space group: P 2 2 21
;
_chemical_formula_sum "Si O2"
_cell_formula_units_Z 26
_cell_length_a 5.228090
_cell_length_b 24.288495
_cell_length_c 9.232451
_cell_angle_alpha 90.000000
_cell_angle_beta 90.000000
_cell_angle_gamma 90.000000
_cell_volume 1172.359135
_symmetry_space_group_name_H-M "P 2 2 21"
_symmetry_group_IT_number 17
_symmetry_cell_setting 'orthorhombic'
loop_
_space_group_symop_operation_xyz
x,y,z
-x,-y,1/2+z
x,-y,-z
-x,y,1/2-z
loop_
_atom_site_type_symbol
_atom_site_label
_atom_site_fract_x
_atom_site_fract_y
_atom_site_fract_z
Si Si1 0.641214 0.705286 0.447491
Si Si2 0.752819 0.140342 0.330318
Si Si3 0.268782 0.175260 0.839729
Si Si4 0.881872 0.555693 0.087499
Si Si5 0.750918 0.008757 0.328879
Si Si6 0.108348 0.665848 0.589300
Si Si7 0.500000 0.612981 0.250000
O O1 0.612689 0.764861 0.380401
O O2 0.398248 0.684862 0.545900
O O3 0.682501 0.658226 0.324230
O O4 0.910267 0.709744 0.527525
O O5 0.500000 0.163062 0.250000
O O6 0.768097 0.148780 0.502166
O O7 0.752131 0.074653 0.306070
O O8 0.000000 0.164221 0.250000
O O9 0.500000 0.147339 0.750000
O O10 0.000000 0.178246 0.750000
O O11 0.590446 0.572067 0.125202
O O12 0.000000 0.553741 0.250000
O O13 0.916855 0.500000 0.000000
O O14 0.951689 0.607754 0.989387
O O15 0.500000 0.986793 0.250000
O O16 0.000000 0.985002 0.250000
O O17 0.751651 0.000000 0.500000
O O18 0.000000 0.658227 0.750000
#
# Coordination Sequence:
#
# PCOD9311041 Si02
#       7
#     4   4   4   4   4   4   2
#     4  11  23  41  68  88 126 161 205 249 320 362
#     4  10  23  43  62  91 139 178 215 274 343 391
#     4  12  25  40  67  98 125 170 225 272 319 390
#     4  11  23  41  64  89 118 160 196 247 306 370
#     4  10  21  38  63  93 129 178 225 277 334 392
#     4  11  24  43  64  95 123 158 201 252 301 380
#     4  10  22  42  62  86 122 160 192 250 302 368
#
# _framework density 22.177503000000002
#
# number of rings (size 3 to 8) (size 9 to 14) (size 15 to 20)
#    0.000    1.231    2.308    3.231    2.154    3.692 
#    5.538    0.000    0.000    0.000    0.000    0.000 
#    0.000    0.000    0.000    0.000    0.000    0.000 
#
# Total GULP energy -144899.542052 kJ/mol
# GULP energy per Si atom -5573.059310 kJ/mol
# Density = 2.212703 g / cm^3
# Si number density = 22.177503 Si / 1000 Ang^3
#
#
#
# Elastic Constant Matrix: (Units=GPa)
#
#
# Indices 1 2 3 4 5 6 
#
# 1 142.9325 10.0427 58.2888 0.0000 0.0000 0.0000
# 2 10.0427 37.7950 -13.6605 0.0000 0.0000 0.0000
# 3 58.2888 -13.6605 124.8420 0.0000 0.0000 0.0000
# 4 0.0000 0.0000 0.0000 24.9210 0.0000 0.0000
# 5 0.0000 0.0000 0.0000 0.0000 36.1351 0.0000
# 6 0.0000 0.0000 0.0000 0.0000 0.0000 7.0251
#
#
#
# Elastic Compliance Matrix: (Units=1/GPa)
#
#
# Indices 1 2 3 4 5 6 
#
# 1 0.009235 -0.004177 -0.004769 0.000000 0.000000 0.000000
# 2 -0.004177 0.029438 0.005172 0.000000 0.000000 0.000000
# 3 -0.004769 0.005172 0.010803 0.000000 0.000000 0.000000
# 4 0.000000 0.000000 0.000000 0.040127 0.000000 0.000000
# 5 0.000000 0.000000 0.000000 0.000000 0.027674 0.000000
# 6 0.000000 0.000000 0.000000 0.000000 0.000000 0.142346
#
#
# Mechanical properties :
#
#
# Convention : Reuss Voigt Hill
#
# Bulk Modulus (GPa) = 23.85168 46.10126 34.97647
# Shear Modulus (GPa) = 17.78436 30.34282 24.06359
#
# Velocity S-wave (km/s) = 2.83487 3.70290 3.29758
# Velocity P-wave (km/s) = 4.63612 6.25416 5.50491
#
# Compressibility (1/GPa) = 0.04192576
#
# Stress axis : x y z
#
# Youngs Moduli (GPa) = 108.28933 33.97006 92.57099
#
# Poissons Ratio (x) = 0.14190 0.44144
# Poissons Ratio (y) = 0.45236 -0.47874
# Poissons Ratio (z) = 0.51640 -0.17568
#
# Static dielectric constant tensor:
#      x y z
#    x 2.110610 0.000000 0.000000 
#    y 0.000000 1.780130 0.000000 
#    z 0.000000 0.000000 1.936130 
# 
# From -- ./inp_files/3594.got.cif
#   From: 2010.05.17/outbox.cif.g08.bks.cpg/sg17_2_cif.got.tgz:3594.got - 2010.06.03 22:34:06.
