data_PCOD9311935
_publ_section_title
;
Structure prediction by ZEFSAII (Michael W. Deem and Ramdas Pophale) SiO2 
 PCOD9311935
Probable space group: P 21 21 2
;
_chemical_formula_sum "Si O2"
_cell_formula_units_Z 28
_cell_length_a 14.782895
_cell_length_b 9.083120
_cell_length_c 8.741548
_cell_angle_alpha 90.000000
_cell_angle_beta 90.000000
_cell_angle_gamma 90.000000
_cell_volume 1173.769690
_symmetry_space_group_name_H-M "P 21 21 2"
_symmetry_group_IT_number 18
_symmetry_cell_setting 'orthorhombic'
loop_
_space_group_symop_operation_xyz
x,y,z
-x,-y,z
1/2+x,1/2-y,-z
1/2-x,1/2+y,-z
loop_
_atom_site_type_symbol
_atom_site_label
_atom_site_fract_x
_atom_site_fract_y
_atom_site_fract_z
Si Si1 0.114960 0.870819 0.071502
Si Si2 0.813784 0.655175 0.769160
Si Si3 0.172657 0.665015 0.818159
Si Si4 0.640378 0.301555 0.955276
Si Si5 0.479969 0.329339 0.623603
Si Si6 0.902997 0.582261 0.314113
Si Si7 0.698614 0.811500 0.523819
O O1 0.216620 0.864110 0.143380
O O2 0.052746 0.797392 0.201192
O O3 0.092611 0.043772 0.072892
O O4 0.112933 0.786177 0.908133
O O5 0.863571 0.497390 0.776829
O O6 0.777487 0.733258 0.618098
O O7 0.875198 0.759299 0.870812
O O8 0.254956 0.652766 0.936172
O O9 0.220952 0.694018 0.655225
O O10 0.628205 0.158944 0.845244
O O11 0.500000 0.500000 0.604967
O O12 0.564310 0.224656 0.589008
O O13 0.392909 0.284351 0.528053
O O14 0.833306 0.466916 0.395046
O O15 0.000000 0.500000 0.294284
#
# Coordination Sequence:
#
# PCOD9311935 Si02
#       7
#     4   4   4   4   4   4   4
#     4   9  19  36  60  87 113 149 204 254 301 348
#     4   9  21  34  57  88 119 154 195 249 309 362
#     4  10  22  37  60  87 129 153 198 264 313 371
#     4  10  20  36  61  91 116 156 201 262 306 356
#     4  10  19  40  64  84 114 159 218 250 298 366
#     4  10  22  36  63  83 122 167 207 248 295 376
#     4  10  23  38  58  90 124 166 200 242 320 378
#
# _framework density 23.854762999999998
#
# number of rings (size 3 to 8) (size 9 to 14) (size 15 to 20)
#    0.000    2.286    1.429    0.000   14.000    0.000 
#    0.000    2.143    9.429    0.000    0.000    0.000 
#    0.000    0.000    0.000    0.000    0.000    0.000 
#
# Total GULP energy -155894.461957 kJ/mol
# GULP energy per Si atom -5567.659356 kJ/mol
# Density = 2.380047 g / cm^3
# Si number density = 23.854763 Si / 1000 Ang^3
#
#
#
# Elastic Constant Matrix: (Units=GPa)
#
#
# Indices 1 2 3 4 5 6 
#
# 1 39.1047 14.3830 -15.1551 0.0000 0.0000 0.0000
# 2 14.3830 141.0520 30.4104 0.0000 0.0000 0.0000
# 3 -15.1551 30.4104 53.9484 0.0000 0.0000 0.0000
# 4 0.0000 0.0000 0.0000 25.9522 0.0000 0.0000
# 5 0.0000 0.0000 0.0000 0.0000 20.9241 0.0000
# 6 0.0000 0.0000 0.0000 0.0000 0.0000 19.3830
#
#
#
# Elastic Compliance Matrix: (Units=1/GPa)
#
#
# Indices 1 2 3 4 5 6 
#
# 1 0.032674 -0.006045 0.012586 0.000000 0.000000 0.000000
# 2 -0.006045 0.009189 -0.006878 0.000000 0.000000 0.000000
# 3 0.012586 -0.006878 0.025949 0.000000 0.000000 0.000000
# 4 0.000000 0.000000 0.000000 0.038532 0.000000 0.000000
# 5 0.000000 0.000000 0.000000 0.000000 0.047792 0.000000
# 6 0.000000 0.000000 0.000000 0.000000 0.000000 0.051592
#
#
# Mechanical properties :
#
#
# Convention : Reuss Voigt Hill
#
# Bulk Modulus (GPa) = 14.89471 32.59795 23.74633
# Shear Modulus (GPa) = 21.85501 26.88299 24.36900
#
# Velocity S-wave (km/s) = 3.03011 3.36064 3.19965
# Velocity P-wave (km/s) = 4.30111 5.36222 4.86071
#
# Compressibility (1/GPa) = 0.06713794
#
# Stress axis : x y z
#
# Youngs Moduli (GPa) = 30.60558 108.82715 38.53709
#
# Poissons Ratio (x) = 0.65789 -0.48504
# Poissons Ratio (y) = 0.18502 0.26506
# Poissons Ratio (z) = -0.38521 0.74851
#
# Static dielectric constant tensor:
#      x y z
#    x 2.061030 0.000000 0.000000 
#    y 0.000000 2.013740 0.000000 
#    z 0.000000 0.000000 1.969500 
# 
# From -- ./inp_files/4533.got.cif
#   From: 2010.05.17/outbox.cif.g08.bks.cpg/sg18_3_cif.got.tgz:4533.got - 2010.06.03 22:40:56.
