data_PCOD9311687
_publ_section_title
;
Structure prediction by ZEFSAII (Michael W. Deem and Ramdas Pophale) SiO2 
 PCOD9311687
Probable space group: P 21 21 2
;
_chemical_formula_sum "Si O2"
_cell_formula_units_Z 30
_cell_length_a 15.416218
_cell_length_b 14.465785
_cell_length_c 5.716274
_cell_angle_alpha 90.000000
_cell_angle_beta 90.000000
_cell_angle_gamma 90.000000
_cell_volume 1274.773089
_symmetry_space_group_name_H-M "P 21 21 2"
_symmetry_group_IT_number 18
_symmetry_cell_setting 'orthorhombic'
loop_
_space_group_symop_operation_xyz
x,y,z
-x,-y,z
1/2+x,1/2-y,-z
1/2-x,1/2+y,-z
loop_
_atom_site_type_symbol
_atom_site_label
_atom_site_fract_x
_atom_site_fract_y
_atom_site_fract_z
Si Si1 0.500000 0.500000 0.639050
Si Si2 0.208954 0.633318 0.622664
Si Si3 0.680428 0.512058 0.904302
Si Si4 0.574883 0.769802 0.019781
Si Si5 0.431096 0.914900 0.093549
Si Si6 0.705636 0.703093 0.658348
Si Si7 0.597295 0.598101 0.289999
Si Si8 0.101631 0.471469 0.402132
O O1 0.588455 0.496912 0.776139
O O2 0.517402 0.582666 0.460325
O O3 0.262062 0.570451 0.805786
O O4 0.257676 0.711968 0.466277
O O5 0.160729 0.558989 0.459588
O O6 0.136086 0.682655 0.784653
O O7 0.719595 0.615297 0.837091
O O8 0.648854 0.513931 0.172062
O O9 0.486661 0.825720 0.023884
O O10 0.628499 0.761734 0.781739
O O11 0.561554 0.664000 0.089892
O O12 0.375399 0.935260 0.858465
O O13 0.500000 0.000000 0.112985
O O14 0.392986 0.909279 0.358886
O O15 0.670736 0.647561 0.438086
O O16 0.000000 0.500000 0.384292
#
# Coordination Sequence:
#
# PCOD9311687 Si02
#       8
#     2   4   4   4   4   4   4   4
#     4  10  20  42  66  88 116 164 224 276 332 384
#     4  11  21  36  63  92 128 173 212 264 339 391
#     4  10  22  40  66  93 126 167 219 281 329 392
#     4  10  19  34  60  92 125 170 210 263 324 402
#     4  10  18  31  53  85 130 166 214 249 308 385
#     4   9  20  38  61  91 120 166 217 258 325 405
#     4   9  20  38  63  89 119 157 222 269 325 393
#     4  10  19  33  54  90 129 170 209 253 305 404
#
# _framework density 23.533601999999998
#
# number of rings (size 3 to 8) (size 9 to 14) (size 15 to 20)
#    0.000    2.133    2.667    2.000    1.867    2.133 
#    0.000    1.333    2.933    0.000    0.000    0.000 
#    0.000    0.000    0.000    0.000    0.000    0.000 
#
# Total GULP energy -167036.656234 kJ/mol
# GULP energy per Si atom -5567.888541 kJ/mol
# Density = 2.348004 g / cm^3
# Si number density = 23.533602 Si / 1000 Ang^3
#
#
#
# Elastic Constant Matrix: (Units=GPa)
#
#
# Indices 1 2 3 4 5 6 
#
# 1 43.1767 21.4293 14.5995 0.0000 0.0000 0.0000
# 2 21.4293 29.1830 16.0818 0.0000 0.0000 0.0000
# 3 14.5995 16.0818 135.1411 0.0000 0.0000 0.0000
# 4 0.0000 0.0000 0.0000 30.9971 0.0000 0.0000
# 5 0.0000 0.0000 0.0000 0.0000 15.7467 0.0000
# 6 0.0000 0.0000 0.0000 0.0000 0.0000 21.6631
#
#
#
# Elastic Compliance Matrix: (Units=1/GPa)
#
#
# Indices 1 2 3 4 5 6 
#
# 1 0.036524 -0.026375 -0.000807 0.000000 0.000000 0.000000
# 2 -0.026375 0.055717 -0.003781 0.000000 0.000000 0.000000
# 3 -0.000807 -0.003781 0.007937 0.000000 0.000000 0.000000
# 4 0.000000 0.000000 0.000000 0.032261 0.000000 0.000000
# 5 0.000000 0.000000 0.000000 0.000000 0.063506 0.000000
# 6 0.000000 0.000000 0.000000 0.000000 0.000000 0.046161
#
#
# Mechanical properties :
#
#
# Convention : Reuss Voigt Hill
#
# Bulk Modulus (GPa) = 26.14250 34.63577 30.38913
# Shear Modulus (GPa) = 15.78367 24.04073 19.91220
#
# Velocity S-wave (km/s) = 2.59257 3.19964 2.91197
# Velocity P-wave (km/s) = 4.48270 5.32914 4.92414
#
# Compressibility (1/GPa) = 0.03825189
#
# Stress axis : x y z
#
# Youngs Moduli (GPa) = 27.37931 17.94770 125.99522
#
# Poissons Ratio (x) = 0.47337 0.10169
# Poissons Ratio (y) = 0.72213 0.47639
# Poissons Ratio (z) = 0.02210 0.06786
#
# Static dielectric constant tensor:
#      x y z
#    x 2.044430 0.000000 0.000000 
#    y 0.000000 1.983390 0.000000 
#    z 0.000000 0.000000 1.943590 
# 
# From -- ./inp_files/1846.got.cif
#   From: 2010.05.17/outbox.cif.g08.bks.cpg/sg18_1_cif.got.tgz:1846.got - 2010.06.03 22:40:56.
