data_PCOD9311836
_publ_section_title
;
Structure prediction by ZEFSAII (Michael W. Deem and Ramdas Pophale) SiO2 
 PCOD9311836
Probable space group: P 21 21 2
;
_chemical_formula_sum "Si O2"
_cell_formula_units_Z 30
_cell_length_a 15.423754
_cell_length_b 7.903379
_cell_length_c 11.261417
_cell_angle_alpha 90.000000
_cell_angle_beta 90.000000
_cell_angle_gamma 90.000000
_cell_volume 1372.764181
_symmetry_space_group_name_H-M "P 21 21 2"
_symmetry_group_IT_number 18
_symmetry_cell_setting 'orthorhombic'
loop_
_space_group_symop_operation_xyz
x,y,z
-x,-y,z
1/2+x,1/2-y,-z
1/2-x,1/2+y,-z
loop_
_atom_site_type_symbol
_atom_site_label
_atom_site_fract_x
_atom_site_fract_y
_atom_site_fract_z
Si Si1 0.112630 0.326491 0.400899
Si Si2 0.685602 0.389138 0.017291
Si Si3 0.689853 0.042351 0.163827
Si Si4 0.063426 0.709683 0.476120
Si Si5 0.500000 0.500000 0.078769
Si Si6 0.071056 0.721616 0.747734
Si Si7 0.248029 0.924890 0.753995
Si Si8 0.251284 0.269940 0.604118
O O1 0.087611 0.517902 0.439403
O O2 0.161863 0.334279 0.276147
O O3 0.182819 0.268952 0.497541
O O4 0.021447 0.230979 0.405269
O O5 0.681401 0.205127 0.078362
O O6 0.588241 0.463564 0.007226
O O7 0.735413 0.501671 0.115778
O O8 0.743841 0.414079 0.901061
O O9 0.725454 0.099969 0.292145
O O10 0.598429 0.952734 0.190133
O O11 0.036232 0.708424 0.614479
O O12 0.152424 0.805707 0.445689
O O13 0.516034 0.659125 0.166376
O O14 0.164249 0.812628 0.729122
O O15 0.246882 0.087284 0.666946
#
# Coordination Sequence:
#
# PCOD9311836 Si02
#       8
#     4   4   4   4   2   4   4   4
#     4  10  19  35  57  92 127 165 212 263 321 395
#     4  10  22  42  64  92 123 171 218 276 323 389
#     4  11  23  42  69  89 126 176 221 261 341 393
#     4  10  21  33  61  93 130 166 211 264 329 392
#     4  10  24  38  62  96 128 156 220 282 314 384
#     4  11  21  37  61  93 127 166 209 272 327 393
#     4   9  20  36  57  83 127 165 211 263 323 378
#     4  10  20  38  60  94 127 171 216 270 325 401
#
# _framework density 21.853718000000001
#
# number of rings (size 3 to 8) (size 9 to 14) (size 15 to 20)
#    0.000    1.867    2.667    1.600    5.600    0.533 
#    0.000    2.667    0.000    8.000    0.000    0.000 
#    0.000    0.000    0.000    0.000    0.000    0.000 
#
# Total GULP energy -167617.584676 kJ/mol
# GULP energy per Si atom -5587.252823 kJ/mol
# Density = 2.180398 g / cm^3
# Si number density = 21.853718 Si / 1000 Ang^3
#
#
#
# Elastic Constant Matrix: (Units=GPa)
#
#
# Indices 1 2 3 4 5 6 
#
# 1 143.8518 12.4700 35.5274 0.0000 0.0000 0.0000
# 2 12.4700 55.9371 21.0359 0.0000 0.0000 0.0000
# 3 35.5274 21.0359 42.1862 0.0000 0.0000 0.0000
# 4 0.0000 0.0000 0.0000 26.2291 0.0000 0.0000
# 5 0.0000 0.0000 0.0000 0.0000 27.6138 0.0000
# 6 0.0000 0.0000 0.0000 0.0000 0.0000 30.7765
#
#
#
# Elastic Compliance Matrix: (Units=1/GPa)
#
#
# Indices 1 2 3 4 5 6 
#
# 1 0.008824 0.001018 -0.007939 0.000000 0.000000 0.000000
# 2 0.001018 0.022121 -0.011888 0.000000 0.000000 0.000000
# 3 -0.007939 -0.011888 0.036318 0.000000 0.000000 0.000000
# 4 0.000000 0.000000 0.000000 0.038126 0.000000 0.000000
# 5 0.000000 0.000000 0.000000 0.000000 0.036214 0.000000
# 6 0.000000 0.000000 0.000000 0.000000 0.000000 0.032492
#
#
# Mechanical properties :
#
#
# Convention : Reuss Voigt Hill
#
# Bulk Modulus (GPa) = 33.73164 42.22683 37.97924
# Shear Modulus (GPa) = 22.56376 28.45334 25.50855
#
# Velocity S-wave (km/s) = 3.21673 3.61223 3.42020
# Velocity P-wave (km/s) = 5.40973 6.06317 5.74574
#
# Compressibility (1/GPa) = 0.02964575
#
# Stress axis : x y z
#
# Youngs Moduli (GPa) = 113.32675 45.20623 27.53430
#
# Poissons Ratio (x) = -0.04604 0.21860
# Poissons Ratio (y) = -0.11542 0.32733
# Poissons Ratio (z) = 0.89971 0.53742
#
# Static dielectric constant tensor:
#      x y z
#    x 1.810850 0.000000 0.000000 
#    y 0.000000 1.869730 0.000000 
#    z 0.000000 0.000000 1.760110 
# 
# From -- ./inp_files/6087.got.cif
#   From: 2010.05.17/outbox.cif.g08.bks.cpg/sg18_4_cif.got.tgz:6087.got - 2010.06.03 22:40:56.
