data_PCOD9311369
_publ_section_title
;
Structure prediction by ZEFSAII (Michael W. Deem and Ramdas Pophale) SiO2 
 PCOD9311369
Probable space group: P 2 2 21
;
_chemical_formula_sum "Si O2"
_cell_formula_units_Z 20
_cell_length_a 4.881989
_cell_length_b 8.054418
_cell_length_c 19.322628
_cell_angle_alpha 90.000000
_cell_angle_beta 90.000000
_cell_angle_gamma 90.000000
_cell_volume 759.796264
_symmetry_space_group_name_H-M "P 2 2 21"
_symmetry_group_IT_number 17
_symmetry_cell_setting 'orthorhombic'
loop_
_space_group_symop_operation_xyz
x,y,z
-x,-y,1/2+z
x,-y,-z
-x,y,1/2-z
loop_
_atom_site_type_symbol
_atom_site_label
_atom_site_fract_x
_atom_site_fract_y
_atom_site_fract_z
Si Si1 0.619393 0.872358 0.469887
Si Si2 0.893238 0.134990 0.374349
Si Si3 0.687235 0.178873 0.683726
Si Si4 0.383759 0.639351 0.640584
Si Si5 0.000000 0.533276 0.250000
Si Si6 0.457783 0.500000 0.000000
O O1 0.783821 0.946472 0.554082
O O2 0.534902 0.826147 0.389660
O O3 0.688196 0.680352 0.492816
O O4 0.382277 0.000000 0.500000
O O5 0.685177 0.281309 0.350848
O O6 0.190762 0.207165 0.378131
O O7 0.878438 0.981782 0.322344
O O8 0.500000 0.163265 0.750000
O O9 0.854930 0.346909 0.694037
O O10 0.380828 0.525389 0.572007
O O11 0.235760 0.560294 0.706869
#
# Coordination Sequence:
#
# PCOD9311369 Si02
#       6
#     4   4   4   4   2   2
#     4  10  23  48  81 113 160 207 274 321 408 469
#     4  10  28  50  76 110 158 207 260 327 396 478
#     4  10  25  46  77 105 158 205 263 323 404 466
#     4  12  29  48  79 116 157 207 269 330 402 479
#     4  12  30  44  78 122 154 210 268 338 396 486
#     4  12  24  50  82 114 160 208 274 332 398 474
#
# _framework density 26.322842999999999
#
# number of rings (size 3 to 8) (size 9 to 14) (size 15 to 20)
#    1.200    0.000    2.000    1.200   11.200    2.400 
#    3.600    0.000    0.000    0.000    0.000    0.000 
#    0.000    0.000    0.000    0.000    0.000    0.000 
#
# Total GULP energy -111467.548372 kJ/mol
# GULP energy per Si atom -5573.377419 kJ/mol
# Density = 2.626293 g / cm^3
# Si number density = 26.322843 Si / 1000 Ang^3
#
#
#
# Elastic Constant Matrix: (Units=GPa)
#
#
# Indices 1 2 3 4 5 6 
#
# 1 54.3484 7.1775 12.8566 0.0000 0.0000 0.0000
# 2 7.1775 158.1761 85.8330 0.0000 0.0000 0.0000
# 3 12.8566 85.8330 168.3798 0.0000 0.0000 0.0000
# 4 0.0000 0.0000 0.0000 71.0002 0.0000 0.0000
# 5 0.0000 0.0000 0.0000 0.0000 15.9243 0.0000
# 6 0.0000 0.0000 0.0000 0.0000 0.0000 55.3581
#
#
#
# Elastic Compliance Matrix: (Units=1/GPa)
#
#
# Indices 1 2 3 4 5 6 
#
# 1 0.018739 -0.000102 -0.001379 0.000000 0.000000 0.000000
# 2 -0.000102 0.008740 -0.004448 0.000000 0.000000 0.000000
# 3 -0.001379 -0.004448 0.008311 0.000000 0.000000 0.000000
# 4 0.000000 0.000000 0.000000 0.014084 0.000000 0.000000
# 5 0.000000 0.000000 0.000000 0.000000 0.062797 0.000000
# 6 0.000000 0.000000 0.000000 0.000000 0.000000 0.018064
#
#
# Mechanical properties :
#
#
# Convention : Reuss Voigt Hill
#
# Bulk Modulus (GPa) = 41.78149 65.84872 53.81511
# Shear Modulus (GPa) = 33.20676 46.79233 39.99955
#
# Velocity S-wave (km/s) = 3.55564 4.22077 3.90240
# Velocity P-wave (km/s) = 5.72398 6.98737 6.38699
#
# Compressibility (1/GPa) = 0.02393404
#
# Stress axis : x y z
#
# Youngs Moduli (GPa) = 53.36332 114.41469 120.31651
#
# Poissons Ratio (x) = 0.01169 0.16589
# Poissons Ratio (y) = 0.00545 0.53511
# Poissons Ratio (z) = 0.07358 0.50887
#
# Static dielectric constant tensor:
#      x y z
#    x 2.036810 0.000000 0.000000 
#    y 0.000000 2.087780 0.000000 
#    z 0.000000 0.000000 2.466890 
# 
# From -- ./inp_files/8958.got.cif
#   From: 2010.05.17/outbox.cif.g08.bks.cpg/sg17_5_cif.got.tgz:8958.got - 2010.06.03 22:34:06.
