data_PCOD9311007
_publ_section_title
;
Structure prediction by ZEFSAII (Michael W. Deem and Ramdas Pophale) SiO2 
 PCOD9311007
Probable space group: P 2 2 21
;
_chemical_formula_sum "Si O2"
_cell_formula_units_Z 14
_cell_length_a 6.973191
_cell_length_b 17.999187
_cell_length_c 5.027865
_cell_angle_alpha 90.000000
_cell_angle_beta 90.000000
_cell_angle_gamma 90.000000
_cell_volume 631.056229
_symmetry_space_group_name_H-M "P 2 2 21"
_symmetry_group_IT_number 17
_symmetry_cell_setting 'orthorhombic'
loop_
_space_group_symop_operation_xyz
x,y,z
-x,-y,1/2+z
x,-y,-z
-x,y,1/2-z
loop_
_atom_site_type_symbol
_atom_site_label
_atom_site_fract_x
_atom_site_fract_y
_atom_site_fract_z
Si Si1 0.731860 0.771940 0.235277
Si Si2 0.643247 0.919627 0.003926
Si Si3 0.000000 0.449461 0.250000
Si Si4 0.269830 0.316780 0.239763
O O1 0.500000 0.772544 0.250000
O O2 0.787169 0.747960 0.530868
O O3 0.774813 0.850469 0.092937
O O4 0.792162 0.707884 0.033258
O O5 0.500000 0.904164 0.750000
O O6 0.500000 0.930050 0.250000
O O7 0.745292 0.000000 0.000000
O O8 0.172250 0.394100 0.170007
O O9 0.053412 0.500000 0.500000
O O10 0.500000 0.322670 0.250000
#
# Coordination Sequence:
#
# PCOD9311007 Si02
#       4
#     4   4   2   4
#     4   9  16  30  51  77 109 145 183 221 261 315
#     4   9  15  23  40  72 113 149 183 228 271 306
#     4  12  26  42  60  84 110 136 176 226 280 342
#     4  10  21  37  58  81 108 142 179 219 268 324
#
# _framework density 22.185025
#
# number of rings (size 3 to 8) (size 9 to 14) (size 15 to 20)
#    0.000    2.286    0.000    6.000    0.000    1.143 
#    0.000    0.000    0.000    0.000    0.000    4.000 
#    0.000    9.143    0.000    0.000    0.000    0.000 
#
# Total GULP energy -78030.946418 kJ/mol
# GULP energy per Si atom -5573.639030 kJ/mol
# Density = 2.213453 g / cm^3
# Si number density = 22.185025 Si / 1000 Ang^3
#
#
#
# Elastic Constant Matrix: (Units=GPa)
#
#
# Indices 1 2 3 4 5 6 
#
# 1 77.8723 13.8124 -1.5908 0.0000 0.0000 0.0000
# 2 13.8124 141.1886 32.1446 0.0000 0.0000 0.0000
# 3 -1.5908 32.1446 131.2230 0.0000 0.0000 0.0000
# 4 0.0000 0.0000 0.0000 42.5031 0.0000 0.0000
# 5 0.0000 0.0000 0.0000 0.0000 3.5596 0.0000
# 6 0.0000 0.0000 0.0000 0.0000 0.0000 -112.3963
#
#
#
# Elastic Compliance Matrix: (Units=1/GPa)
#
#
# Indices 1 2 3 4 5 6 
#
# 1 0.013099 -0.001395 0.000501 0.000000 0.000000 0.000000
# 2 -0.001395 0.007650 -0.001891 0.000000 0.000000 0.000000
# 3 0.000501 -0.001891 0.008090 0.000000 0.000000 0.000000
# 4 0.000000 0.000000 0.000000 0.023528 0.000000 0.000000
# 5 0.000000 0.000000 0.000000 0.000000 0.280933 0.000000
# 6 0.000000 0.000000 0.000000 0.000000 0.000000 -0.008897
#
#
# Mechanical properties :
#
#
# Convention : Reuss Voigt Hill
#
# Bulk Modulus (GPa) = 42.97826 48.77960 45.87893
# Shear Modulus (GPa) = 14.80476 7.12780 10.96628
#
# Velocity S-wave (km/s) = 2.58608 1.79440 2.22572
# Velocity P-wave (km/s) = 5.32276 5.13113 5.22782
#
# Compressibility (1/GPa) = 0.02326758
#
# Stress axis : x y z
#
# Youngs Moduli (GPa) = 76.34003 130.72369 123.61158
#
# Poissons Ratio (x) = 0.18242 -0.06188
# Poissons Ratio (y) = 0.10653 0.23373
# Poissons Ratio (z) = -0.03822 0.24717
#
# Static dielectric constant tensor:
#      x y z
#    x 1.842540 0.000000 0.000000 
#    y 0.000000 1.892170 0.000000 
#    z 0.000000 0.000000 1.802800 
# 
# From -- ./inp_files/624.got.cif
#   From: 2010.05.17/outbox.cif.g08.bks.cpg/sg17_1_cif.got.tgz:624.got - 2010.06.03 22:34:06.
