data_PCOD9311168
_publ_section_title
;
Structure prediction by ZEFSAII (Michael W. Deem and Ramdas Pophale) SiO2 
 PCOD9311168
Probable space group: P 2 2 21
;
_chemical_formula_sum "Si O2"
_cell_formula_units_Z 28
_cell_length_a 20.173896
_cell_length_b 7.294401
_cell_length_c 10.172639
_cell_angle_alpha 90.000000
_cell_angle_beta 90.000000
_cell_angle_gamma 90.000000
_cell_volume 1496.969820
_symmetry_space_group_name_H-M "P 2 2 21"
_symmetry_group_IT_number 17
_symmetry_cell_setting 'orthorhombic'
loop_
_space_group_symop_operation_xyz
x,y,z
-x,-y,1/2+z
x,-y,-z
-x,y,1/2-z
loop_
_atom_site_type_symbol
_atom_site_label
_atom_site_fract_x
_atom_site_fract_y
_atom_site_fract_z
Si Si1 0.943295 0.223256 0.150935
Si Si2 0.678082 0.218383 0.652347
Si Si3 0.056705 0.776743 0.349065
Si Si4 0.678082 0.218386 0.347654
Si Si5 0.562387 0.500001 0.345342
Si Si6 0.793587 0.222789 0.150778
Si Si7 0.793587 0.222789 0.849223
O O1 0.868387 0.279932 0.186715
O O2 0.000000 0.285627 0.250000
O O3 0.943713 0.999999 0.152866
O O4 0.955821 0.277708 1.000000
O O5 0.696295 0.253992 0.500001
O O6 0.610334 0.326098 0.678466
O O7 0.736642 0.279807 0.749116
O O8 0.668838 0.999999 0.667536
O O9 0.131613 0.720067 0.313285
O O10 0.000000 0.714372 0.250000
O O11 0.610335 0.326103 0.321534
O O12 0.736643 0.279809 0.250886
O O13 0.543282 0.500000 0.500000
O O14 0.500000 0.499999 0.250000
O O15 0.793747 0.000000 0.151960
O O16 0.780690 0.278783 0.000000
#
# Coordination Sequence:
#
# PCOD9311168 Si02
#       7
#     4   4   4   4   4   4   4
#     4   8  13  20  31  52  85 122 158 197 238 278
#     4   9  18  33  52  73  98 128 160 195 236 281
#     4   8  13  20  31  52  85 122 158 197 238 278
#     4   9  18  33  52  73  98 128 160 195 236 281
#     4  10  22  38  54  76 103 126 155 194 233 282
#     4   8  14  25  41  63  92 125 162 202 240 281
#     4   8  14  25  41  63  92 125 162 202 240 281
#
# _framework density 18.704452
#
# number of rings (size 3 to 8) (size 9 to 14) (size 15 to 20)
#    0.000    3.429    0.000    1.714    0.000    2.857 
#    0.000    5.714    0.000    0.000    0.000    1.000 
#    0.000    0.000    0.000    0.000    0.000    0.000 
#
# Total GULP energy -156149.430900 kJ/mol
# GULP energy per Si atom -5576.765389 kJ/mol
# Density = 1.866188 g / cm^3
# Si number density = 18.704452 Si / 1000 Ang^3
#
#
#
# Elastic Constant Matrix: (Units=GPa)
#
#
# Indices 1 2 3 4 5 6 
#
# 1 196.6015 38.0211 149.9352 0.0000 0.0000 0.0000
# 2 38.0211 80.0318 33.6105 0.0000 0.0000 0.0000
# 3 149.9352 33.6105 137.2046 0.0000 0.0000 0.0000
# 4 0.0000 0.0000 0.0000 -0.0585 0.0000 0.0000
# 5 0.0000 0.0000 0.0000 0.0000 49.3304 0.0000
# 6 0.0000 0.0000 0.0000 0.0000 0.0000 47.2848
#
#
#
# Elastic Compliance Matrix: (Units=1/GPa)
#
#
# Indices 1 2 3 4 5 6 
#
# 1 0.030552 -0.000550 -0.033252 0.000000 0.000000 0.000000
# 2 -0.000550 0.013938 -0.002813 0.000000 0.000000 0.000000
# 3 -0.033252 -0.002813 0.044315 0.000000 0.000000 0.000000
# 4 0.000000 0.000000 0.000000-17.107197 0.000000 0.000000
# 5 0.000000 0.000000 0.000000 0.000000 0.020271 0.000000
# 6 0.000000 0.000000 0.000000 0.000000 0.000000 0.021148
#
#
# Mechanical properties :
#
#
# Convention : Reuss Voigt Hill
#
# Bulk Modulus (GPa) = 64.20940 95.21906 79.71423
# Shear Modulus (GPa) = -0.29588 32.12942 15.91677
#
# Velocity S-wave (km/s) = -0.39816 4.14906 2.92029
# Velocity P-wave (km/s) = 5.84735 8.60062 7.35398
#
# Compressibility (1/GPa) = 0.01557404
#
# Stress axis : x y z
#
# Youngs Moduli (GPa) = 32.73113 71.74743 22.56574
#
# Poissons Ratio (x) = 0.03945 0.75036
# Poissons Ratio (y) = 0.01800 0.06349
# Poissons Ratio (z) = 1.08838 0.20186
#
# Static dielectric constant tensor:
#      x y z
#    x 1.602120 0.000000 0.000000 
#    y 0.000000 1.738220 0.000000 
#    z 0.000000 0.000000 1.621050 
# 
# From -- ./inp_files/5524.got.cif
#   From: 2010.05.17/outbox.cif.g08.bks.cpg/sg17_3_cif.got.tgz:5524.got - 2010.06.03 22:34:06.
