data_PCOD9311826
_publ_section_title
;
Structure prediction by ZEFSAII (Michael W. Deem and Ramdas Pophale) SiO2 
 PCOD9311826
Probable space group: P 21 21 2
;
_chemical_formula_sum "Si O2"
_cell_formula_units_Z 22
_cell_length_a 15.402708
_cell_length_b 5.204376
_cell_length_c 12.919420
_cell_angle_alpha 90.000000
_cell_angle_beta 90.000000
_cell_angle_gamma 90.000000
_cell_volume 1035.639878
_symmetry_space_group_name_H-M "P 21 21 2"
_symmetry_group_IT_number 18
_symmetry_cell_setting 'orthorhombic'
loop_
_space_group_symop_operation_xyz
x,y,z
-x,-y,z
1/2+x,1/2-y,-z
1/2-x,1/2+y,-z
loop_
_atom_site_type_symbol
_atom_site_label
_atom_site_fract_x
_atom_site_fract_y
_atom_site_fract_z
Si Si1 0.741268 0.176549 0.931094
Si Si2 0.444040 0.737090 0.822070
Si Si3 0.107956 0.676156 0.529280
Si Si4 0.000000 0.000000 0.378402
Si Si5 0.270883 0.818189 0.394888
Si Si6 0.814898 0.186395 0.718589
O O1 0.648041 0.218636 0.875754
O O2 0.814180 0.185312 0.841110
O O3 0.756491 0.404655 0.011816
O O4 0.500000 0.500000 0.870734
O O5 0.435313 0.637913 0.703224
O O6 0.500000 0.000000 0.822913
O O7 0.196175 0.794984 0.479295
O O8 0.137518 0.380766 0.546750
O O9 0.099135 0.782117 0.646598
O O10 0.038168 0.777579 0.450455
O O11 0.271774 0.573197 0.322082
O O12 0.262927 0.064117 0.320923
#
# Coordination Sequence:
#
# PCOD9311826 Si02
#       6
#     4   4   4   2   4   4
#     4  12  25  43  72  98 131 183 250 293 337 398
#     4  10  24  42  67 101 144 172 219 291 364 409
#     4  10  20  35  60  95 130 177 203 260 323 421
#     4  10  24  38  68 104 144 168 214 268 362 418
#     4  10  19  34  61  87 134 167 213 249 329 402
#     4  10  21  36  61  88 127 165 227 264 317 385
#
# _framework density 21.242905
#
# number of rings (size 3 to 8) (size 9 to 14) (size 15 to 20)
#    1.636    0.000    1.818    3.273    2.545    1.455 
#    0.000    0.000    6.000    0.000    0.000    0.000 
#    0.000    0.000    0.000    0.000    0.000    0.000 
#
# Total GULP energy -122528.710988 kJ/mol
# GULP energy per Si atom -5569.486863 kJ/mol
# Density = 2.119456 g / cm^3
# Si number density = 21.242905 Si / 1000 Ang^3
#
#
#
# Elastic Constant Matrix: (Units=GPa)
#
#
# Indices 1 2 3 4 5 6 
#
# 1 58.6706 -12.2359 0.1253 0.0000 0.0000 0.0000
# 2 -12.2359 100.9369 -15.7467 0.0000 0.0000 0.0000
# 3 0.1253 -15.7467 70.6666 0.0000 0.0000 0.0000
# 4 0.0000 0.0000 0.0000 24.7237 0.0000 0.0000
# 5 0.0000 0.0000 0.0000 0.0000 16.3816 0.0000
# 6 0.0000 0.0000 0.0000 0.0000 0.0000 22.4072
#
#
#
# Elastic Compliance Matrix: (Units=1/GPa)
#
#
# Indices 1 2 3 4 5 6 
#
# 1 0.017501 0.002193 0.000458 0.000000 0.000000 0.000000
# 2 0.002193 0.010539 0.002344 0.000000 0.000000 0.000000
# 3 0.000458 0.002344 0.014673 0.000000 0.000000 0.000000
# 4 0.000000 0.000000 0.000000 0.040447 0.000000 0.000000
# 5 0.000000 0.000000 0.000000 0.000000 0.061044 0.000000
# 6 0.000000 0.000000 0.000000 0.000000 0.000000 0.044629
#
#
# Mechanical properties :
#
#
# Convention : Reuss Voigt Hill
#
# Bulk Modulus (GPa) = 18.97464 19.39550 19.18507
# Shear Modulus (GPa) = 25.45710 29.91127 27.68418
#
# Velocity S-wave (km/s) = 3.46552 3.75648 3.61393
# Velocity P-wave (km/s) = 4.99647 5.28820 5.14440
#
# Compressibility (1/GPa) = 0.05270191
#
# Stress axis : x y z
#
# Youngs Moduli (GPa) = 57.14074 94.88783 68.15435
#
# Poissons Ratio (x) = -0.20808 -0.03119
# Poissons Ratio (y) = -0.12530 -0.15979
# Poissons Ratio (z) = -0.02615 -0.22246
#
# Static dielectric constant tensor:
#      x y z
#    x 1.845300 0.000000 0.000000 
#    y 0.000000 1.819720 0.000000 
#    z 0.000000 0.000000 1.778620 
# 
# From -- ./inp_files/6020.got.cif
#   From: 2010.05.17/outbox.cif.g08.bks.cpg/sg18_4_cif.got.tgz:6020.got - 2010.06.03 22:40:56.
