data_PCOD9311110
_publ_section_title
;
Structure prediction by ZEFSAII (Michael W. Deem and Ramdas Pophale) SiO2 
 PCOD9311110
Probable space group: P 2 2 21
;
_chemical_formula_sum "Si O2"
_cell_formula_units_Z 16
_cell_length_a 5.607766
_cell_length_b 10.865826
_cell_length_c 11.109188
_cell_angle_alpha 90.000000
_cell_angle_beta 90.000000
_cell_angle_gamma 90.000000
_cell_volume 676.916259
_symmetry_space_group_name_H-M "P 2 2 21"
_symmetry_group_IT_number 17
_symmetry_cell_setting 'orthorhombic'
loop_
_space_group_symop_operation_xyz
x,y,z
-x,-y,1/2+z
x,-y,-z
-x,y,1/2-z
loop_
_atom_site_type_symbol
_atom_site_label
_atom_site_fract_x
_atom_site_fract_y
_atom_site_fract_z
Si Si1 0.173922 0.127064 0.430493
Si Si2 0.064113 0.723418 0.117726
Si Si3 0.350794 0.487269 0.132569
Si Si4 0.320084 0.795578 0.899591
O O1 0.422222 0.153996 0.367590
O O2 0.142778 0.239917 0.525508
O O3 0.915118 0.127791 0.367269
O O4 0.195509 0.000000 0.500000
O O5 0.127834 0.579781 0.124510
O O6 0.287735 0.785820 0.046944
O O7 0.000000 0.768782 0.250000
O O8 0.500000 0.525020 0.250000
O O9 0.471473 0.500000 0.000000
O O10 0.287491 0.343984 0.145963
#
# Coordination Sequence:
#
# PCOD9311110 Si02
#       4
#     4   4   4   4
#     4  10  21  41  67  93 136 183 232 283 337 411
#     4   9  22  37  64 100 131 177 229 277 346 415
#     4  10  22  42  67 107 139 182 223 293 350 426
#     4   9  22  40  65  94 136 170 232 277 350 395
#
# _framework density 23.636597999999999
#
# number of rings (size 3 to 8) (size 9 to 14) (size 15 to 20)
#    1.500    1.000    0.000    0.750    7.000    2.000 
#    4.500    2.500    0.000    0.000    0.000    0.000 
#    0.000    0.000    0.000    0.000    0.000    0.000 
#
# Total GULP energy -89144.336851 kJ/mol
# GULP energy per Si atom -5571.521053 kJ/mol
# Density = 2.358280 g / cm^3
# Si number density = 23.636598 Si / 1000 Ang^3
#
#
#
# Elastic Constant Matrix: (Units=GPa)
#
#
# Indices 1 2 3 4 5 6 
#
# 1 185.2751 67.4526 47.8470 0.0000 0.0000 0.0000
# 2 67.4526 116.2413 10.1540 0.0000 0.0000 0.0000
# 3 47.8470 10.1540 116.0483 0.0000 0.0000 0.0000
# 4 0.0000 0.0000 0.0000 10.4292 0.0000 0.0000
# 5 0.0000 0.0000 0.0000 0.0000 4.4767 0.0000
# 6 0.0000 0.0000 0.0000 0.0000 0.0000 52.3160
#
#
#
# Elastic Compliance Matrix: (Units=1/GPa)
#
#
# Indices 1 2 3 4 5 6 
#
# 1 0.007642 -0.004192 -0.002784 0.000000 0.000000 0.000000
# 2 -0.004192 0.010968 0.000769 0.000000 0.000000 0.000000
# 3 -0.002784 0.000769 0.009698 0.000000 0.000000 0.000000
# 4 0.000000 0.000000 0.000000 0.095884 0.000000 0.000000
# 5 0.000000 0.000000 0.000000 0.000000 0.223379 0.000000
# 6 0.000000 0.000000 0.000000 0.000000 0.000000 0.019115
#
#
# Mechanical properties :
#
#
# Convention : Reuss Voigt Hill
#
# Bulk Modulus (GPa) = 62.91831 74.27466 68.59649
# Shear Modulus (GPa) = 13.00733 32.91846 22.96290
#
# Velocity S-wave (km/s) = 2.34840 3.73593 3.12027
# Velocity P-wave (km/s) = 5.83354 7.07823 6.48581
#
# Compressibility (1/GPa) = 0.01589362
#
# Stress axis : x y z
#
# Youngs Moduli (GPa) = 130.84892 91.17493 103.11613
#
# Poissons Ratio (x) = 0.38216 0.28710
# Poissons Ratio (y) = 0.54846 -0.07925
# Poissons Ratio (z) = 0.36431 -0.07007
#
# Static dielectric constant tensor:
#      x y z
#    x 1.926050 0.000000 0.000000 
#    y 0.000000 1.851840 0.000000 
#    z 0.000000 0.000000 1.995190 
# 
# From -- ./inp_files/5711.got.cif
#   From: 2010.05.17/outbox.cif.g08.bks.cpg/sg17_3_cif.got.tgz:5711.got - 2010.06.03 22:34:06.
