data_PCOD9311830
_publ_section_title
;
Structure prediction by ZEFSAII (Michael W. Deem and Ramdas Pophale) SiO2 
 PCOD9311830
Probable space group: P 21 21 2
;
_chemical_formula_sum "Si O2"
_cell_formula_units_Z 16
_cell_length_a 9.699052
_cell_length_b 5.021326
_cell_length_c 17.708400
_cell_angle_alpha 90.000000
_cell_angle_beta 90.000000
_cell_angle_gamma 90.000000
_cell_volume 862.436303
_symmetry_space_group_name_H-M "P 21 21 2"
_symmetry_group_IT_number 18
_symmetry_cell_setting 'orthorhombic'
loop_
_space_group_symop_operation_xyz
x,y,z
-x,-y,z
1/2+x,1/2-y,-z
1/2-x,1/2+y,-z
loop_
_atom_site_type_symbol
_atom_site_label
_atom_site_fract_x
_atom_site_fract_y
_atom_site_fract_z
Si Si1 0.158276 0.463981 0.976883
Si Si2 0.500000 0.000000 0.169931
Si Si3 0.500000 0.500000 0.273920
Si Si4 0.869468 0.829518 0.427112
Si Si5 0.290352 0.678173 0.400176
O O1 0.124329 0.429799 0.887804
O O2 0.000000 0.500000 0.008531
O O3 0.244670 0.217127 0.008513
O O4 0.536004 0.748585 0.220961
O O5 0.378750 0.588937 0.329719
O O6 0.840077 0.524271 0.406342
O O7 0.863463 0.850982 0.518280
O O8 0.744872 0.010509 0.395857
O O9 0.000000 0.000000 0.400908
#
# Coordination Sequence:
#
# PCOD9311830 Si02
#       5
#     4   2   2   4   4
#     4  10  20  38  64  96 122 154 196 244 286 338
#     4  10  24  34  66  86 122 148 186 236 282 366
#     4  12  20  40  52  90 116 152 188 230 296 344
#     4  10  19  35  50  79 100 139 207 236 287 319
#     4  10  21  31  56  74 107 148 181 250 278 335
#
# _framework density 18.552094
#
# number of rings (size 3 to 8) (size 9 to 14) (size 15 to 20)
#    0.750    1.000    1.250    4.500    0.000    0.000 
#    0.000    0.000    0.000   30.000    0.000    0.000 
#    0.000    0.000    0.000    0.000    0.000    0.000 
#
# Total GULP energy -89112.095158 kJ/mol
# GULP energy per Si atom -5569.505947 kJ/mol
# Density = 1.850987 g / cm^3
# Si number density = 18.552094 Si / 1000 Ang^3
#
#
#
# Elastic Constant Matrix: (Units=GPa)
#
#
# Indices 1 2 3 4 5 6 
#
# 1 58.4585 -2.1776 13.9831 0.0000 0.0000 0.0000
# 2 -2.1776 88.4982 8.9334 0.0000 0.0000 0.0000
# 3 13.9831 8.9334 82.5760 0.0000 0.0000 0.0000
# 4 0.0000 0.0000 0.0000 23.9876 0.0000 0.0000
# 5 0.0000 0.0000 0.0000 0.0000 15.7399 0.0000
# 6 0.0000 0.0000 0.0000 0.0000 0.0000 23.1029
#
#
#
# Elastic Compliance Matrix: (Units=1/GPa)
#
#
# Indices 1 2 3 4 5 6 
#
# 1 0.017878 0.000754 -0.003109 0.000000 0.000000 0.000000
# 2 0.000754 0.011456 -0.001367 0.000000 0.000000 0.000000
# 3 -0.003109 -0.001367 0.012784 0.000000 0.000000 0.000000
# 4 0.000000 0.000000 0.000000 0.041688 0.000000 0.000000
# 5 0.000000 0.000000 0.000000 0.000000 0.063533 0.000000
# 6 0.000000 0.000000 0.000000 0.000000 0.000000 0.043285
#
#
# Mechanical properties :
#
#
# Convention : Reuss Voigt Hill
#
# Bulk Modulus (GPa) = 28.83999 30.11229 29.47614
# Shear Modulus (GPa) = 23.85196 26.48568 25.16882
#
# Velocity S-wave (km/s) = 3.58952 3.78251 3.68728
# Velocity P-wave (km/s) = 5.72352 5.94499 5.83531
#
# Compressibility (1/GPa) = 0.03467408
#
# Stress axis : x y z
#
# Youngs Moduli (GPa) = 55.93509 87.28899 78.22041
#
# Poissons Ratio (x) = -0.06579 0.24318
# Poissons Ratio (y) = -0.04216 0.10693
# Poissons Ratio (z) = 0.17390 0.11932
#
# Static dielectric constant tensor:
#      x y z
#    x 1.705900 0.000000 0.000000 
#    y 0.000000 1.643100 0.000000 
#    z 0.000000 0.000000 1.599940 
# 
# From -- ./inp_files/7256.got.cif
#   From: 2010.05.17/outbox.cif.g08.bks.cpg/sg18_4_cif.got.tgz:7256.got - 2010.06.03 22:40:56.
