data_PCOD9311194
_publ_section_title
;
Structure prediction by ZEFSAII (Michael W. Deem and Ramdas Pophale) SiO2 
 PCOD9311194
Probable space group: P 2 2 21
;
_chemical_formula_sum "Si O2"
_cell_formula_units_Z 14
_cell_length_a 5.425990
_cell_length_b 4.518423
_cell_length_c 22.081882
_cell_angle_alpha 90.000000
_cell_angle_beta 90.000000
_cell_angle_gamma 90.000000
_cell_volume 541.379691
_symmetry_space_group_name_H-M "P 2 2 21"
_symmetry_group_IT_number 17
_symmetry_cell_setting 'orthorhombic'
loop_
_space_group_symop_operation_xyz
x,y,z
-x,-y,1/2+z
x,-y,-z
-x,y,1/2-z
loop_
_atom_site_type_symbol
_atom_site_label
_atom_site_fract_x
_atom_site_fract_y
_atom_site_fract_z
Si Si1 0.615694 0.913474 0.434779
Si Si2 0.000000 0.730555 0.750000
Si Si3 0.029606 0.234054 0.834369
Si Si4 0.728844 0.419839 0.065522
O O1 0.541131 0.571595 0.434870
O O2 0.782432 0.946677 0.376464
O O3 0.724733 0.000000 0.500000
O O4 0.351820 0.080992 0.430612
O O5 0.851446 0.485273 0.710334
O O6 0.110953 0.975719 0.703581
O O7 0.871638 0.438219 0.879221
O O8 0.841152 0.500000 0.000000
#
# Coordination Sequence:
#
# PCOD9311194 Si02
#       4
#     4   2   4   4
#     4  10  22  39  64  99 129 160 210 267 330 394
#     4  10  24  40  62  92 124 176 232 248 298 398
#     4  11  22  43  64  89 132 173 212 270 318 369
#     4  10  22  39  64  99 129 160 210 267 330 394
#
# _framework density 25.859857000000002
#
# number of rings (size 3 to 8) (size 9 to 14) (size 15 to 20)
#    0.000    1.714    0.000    3.429    0.000    9.143 
#    0.000   21.429    0.000    0.000    0.000    0.000 
#    0.000    0.000    0.000    0.000    0.000    0.000 
#
# Total GULP energy -78018.380910 kJ/mol
# GULP energy per Si atom -5572.741494 kJ/mol
# Density = 2.580100 g / cm^3
# Si number density = 25.859857 Si / 1000 Ang^3
#
#
#
# Elastic Constant Matrix: (Units=GPa)
#
#
# Indices 1 2 3 4 5 6 
#
# 1 35.3020 17.2921 30.4451 0.0000 0.0000 0.0000
# 2 17.2921 148.6714 70.3635 0.0000 0.0000 0.0000
# 3 30.4451 70.3635 158.7464 0.0000 0.0000 0.0000
# 4 0.0000 0.0000 0.0000 74.4401 0.0000 0.0000
# 5 0.0000 0.0000 0.0000 0.0000 27.9302 0.0000
# 6 0.0000 0.0000 0.0000 0.0000 0.0000 41.3541
#
#
#
# Elastic Compliance Matrix: (Units=1/GPa)
#
#
# Indices 1 2 3 4 5 6 
#
# 1 0.034083 -0.001102 -0.006048 0.000000 0.000000 0.000000
# 2 -0.001102 0.008547 -0.003577 0.000000 0.000000 0.000000
# 3 -0.006048 -0.003577 0.009045 0.000000 0.000000 0.000000
# 4 0.000000 0.000000 0.000000 0.013434 0.000000 0.000000
# 5 0.000000 0.000000 0.000000 0.000000 0.035803 0.000000
# 6 0.000000 0.000000 0.000000 0.000000 0.000000 0.024181
#
#
# Mechanical properties :
#
#
# Convention : Reuss Voigt Hill
#
# Bulk Modulus (GPa) = 33.08989 64.32457 48.70723
# Shear Modulus (GPa) = 31.92403 43.71948 37.82176
#
# Velocity S-wave (km/s) = 3.51736 4.11619 3.82850
# Velocity P-wave (km/s) = 5.41474 6.89340 6.19832
#
# Compressibility (1/GPa) = 0.03022071
#
# Stress axis : x y z
#
# Youngs Moduli (GPa) = 29.34030 116.99368 110.55889
#
# Poissons Ratio (x) = 0.12889 0.66869
# Poissons Ratio (y) = 0.03232 0.39551
# Poissons Ratio (z) = 0.17746 0.41853
#
# Static dielectric constant tensor:
#      x y z
#    x 2.001540 0.000000 0.000000 
#    y 0.000000 1.956960 0.000000 
#    z 0.000000 0.000000 2.132180 
# 
# From -- ./inp_files/9772.got.cif
#   From: 2010.05.17/outbox.cif.g08.bks.cpg/sg17_5_cif.got.tgz:9772.got - 2010.06.03 22:34:06.
