data_PCOD9311309
_publ_section_title
;
Structure prediction by ZEFSAII (Michael W. Deem and Ramdas Pophale) SiO2 
 PCOD9311309
Probable space group: P 2 2 21
;
_chemical_formula_sum "Si O2"
_cell_formula_units_Z 18
_cell_length_a 5.624072
_cell_length_b 11.020155
_cell_length_c 13.013396
_cell_angle_alpha 90.000000
_cell_angle_beta 90.000000
_cell_angle_gamma 90.000000
_cell_volume 806.546146
_symmetry_space_group_name_H-M "P 2 2 21"
_symmetry_group_IT_number 17
_symmetry_cell_setting 'orthorhombic'
loop_
_space_group_symop_operation_xyz
x,y,z
-x,-y,1/2+z
x,-y,-z
-x,y,1/2-z
loop_
_atom_site_type_symbol
_atom_site_label
_atom_site_fract_x
_atom_site_fract_y
_atom_site_fract_z
Si Si1 0.500000 0.671136 0.750000
Si Si2 0.000000 0.353814 0.750000
Si Si3 0.087558 0.000000 0.000000
Si Si4 0.748976 0.118121 0.700171
Si Si5 0.877694 0.793523 0.863148
Si Si6 0.871426 0.451563 0.395348
O O1 0.609395 0.759757 0.835752
O O2 0.313098 0.586295 0.807356
O O3 0.213219 0.262054 0.779860
O O4 0.967601 0.441975 0.847069
O O5 0.929135 0.905105 0.936217
O O6 0.240007 0.075415 0.917229
O O7 0.500000 0.078440 0.750000
O O8 0.000000 0.071322 0.750000
O O9 0.000000 0.806090 0.750000
O O10 0.984396 0.671709 0.913370
O O11 0.760641 0.500000 0.500000
#
# Coordination Sequence:
#
# PCOD9311309 Si02
#       6
#     2   2   2   4   4   4
#     4  10  22  46  70 106 150 196 250 318 370 454
#     4  10  22  46  70 106 156 186 252 320 372 446
#     4  12  24  52  76 104 156 204 258 310 390 460
#     4  10  26  49  74 114 154 202 255 319 378 446
#     4  10  23  47  68 106 143 197 247 311 376 446
#     4  11  22  43  72 105 147 193 246 300 387 453
#
# _framework density 22.317383
#
# number of rings (size 3 to 8) (size 9 to 14) (size 15 to 20)
#    0.667    0.889    3.333    2.000    1.556    1.778 
#   34.000    0.000    0.000    0.000    0.000    0.000 
#    0.000    0.000    0.000    0.000    0.000    0.000 
#
# Total GULP energy -100414.386458 kJ/mol
# GULP energy per Si atom -5578.577025 kJ/mol
# Density = 2.226659 g / cm^3
# Si number density = 22.317383 Si / 1000 Ang^3
#
#
#
# Elastic Constant Matrix: (Units=GPa)
#
#
# Indices 1 2 3 4 5 6 
#
# 1 90.5787 36.7109 44.2646 0.0000 0.0000 0.0000
# 2 36.7109 142.8612 68.9425 0.0000 0.0000 0.0000
# 3 44.2646 68.9425 136.9276 0.0000 0.0000 0.0000
# 4 0.0000 0.0000 0.0000 56.1600 0.0000 0.0000
# 5 0.0000 0.0000 0.0000 0.0000 17.2810 0.0000
# 6 0.0000 0.0000 0.0000 0.0000 0.0000 -37.6790
#
#
#
# Elastic Compliance Matrix: (Units=1/GPa)
#
#
# Indices 1 2 3 4 5 6 
#
# 1 0.013451 -0.001794 -0.003445 0.000000 0.000000 0.000000
# 2 -0.001794 0.009486 -0.004196 0.000000 0.000000 0.000000
# 3 -0.003445 -0.004196 0.010530 0.000000 0.000000 0.000000
# 4 0.000000 0.000000 0.000000 0.017806 0.000000 0.000000
# 5 0.000000 0.000000 0.000000 0.000000 0.057867 0.000000
# 6 0.000000 0.000000 0.000000 0.000000 0.000000 -0.026540
#
#
# Mechanical properties :
#
#
# Convention : Reuss Voigt Hill
#
# Bulk Modulus (GPa) = 68.51221 74.46706 71.48964
# Shear Modulus (GPa) = 47.02139 21.84903 34.43521
#
# Velocity S-wave (km/s) = 4.59512 3.13231 3.93234
# Velocity P-wave (km/s) = 7.67588 6.82067 7.26088
#
# Compressibility (1/GPa) = 0.01459594
#
# Stress axis : x y z
#
# Youngs Moduli (GPa) = 74.34556 105.42113 94.97111
#
# Poissons Ratio (x) = 0.18912 0.32717
# Poissons Ratio (y) = 0.13337 0.39851
# Poissons Ratio (z) = 0.25612 0.44236
#
# Static dielectric constant tensor:
#      x y z
#    x 1.895200 0.000000 0.000000 
#    y 0.000000 1.857930 0.000000 
#    z 0.000000 0.000000 1.823740 
# 
# From -- ./inp_files/5860.got.cif
#   From: 2010.05.17/outbox.cif.g08.bks.cpg/sg17_3_cif.got.tgz:5860.got - 2010.06.03 22:34:06.
