data_PCOD9311697
_publ_section_title
;
Structure prediction by ZEFSAII (Michael W. Deem and Ramdas Pophale) SiO2 
 PCOD9311697
Probable space group: P 21 21 2
;
_chemical_formula_sum "Si O2"
_cell_formula_units_Z 30
_cell_length_a 20.363744
_cell_length_b 7.351006
_cell_length_c 9.746512
_cell_angle_alpha 90.000000
_cell_angle_beta 90.000000
_cell_angle_gamma 90.000000
_cell_volume 1458.994409
_symmetry_space_group_name_H-M "P 21 21 2"
_symmetry_group_IT_number 18
_symmetry_cell_setting 'orthorhombic'
loop_
_space_group_symop_operation_xyz
x,y,z
-x,-y,z
1/2+x,1/2-y,-z
1/2-x,1/2+y,-z
loop_
_atom_site_type_symbol
_atom_site_label
_atom_site_fract_x
_atom_site_fract_y
_atom_site_fract_z
Si Si1 0.000000 0.000000 0.699314
Si Si2 0.680750 0.905463 0.852187
Si Si3 0.273778 0.575881 0.371750
Si Si4 0.059601 0.646640 0.666397
Si Si5 0.283009 0.679747 0.926247
Si Si6 0.622576 0.316452 0.154045
Si Si7 0.710810 0.852608 0.345848
Si Si8 0.429178 0.062304 0.035642
O O1 0.966096 0.160616 0.610408
O O2 0.056881 0.091142 0.791220
O O3 0.704877 0.870364 0.700142
O O4 0.693440 0.122062 0.875548
O O5 0.727416 0.801331 0.958402
O O6 0.609072 0.864316 0.905664
O O7 0.328314 0.684280 0.284881
O O8 0.291837 0.366991 0.341747
O O9 0.260494 0.598911 0.531499
O O10 0.134395 0.591513 0.627779
O O11 0.065434 0.686625 0.830589
O O12 0.000000 0.500000 0.648810
O O13 0.245905 0.588550 0.796995
O O14 0.341549 0.595438 0.020121
O O15 0.605905 0.114544 0.102183
O O16 0.500000 0.000000 0.991029
#
# Coordination Sequence:
#
# PCOD9311697 Si02
#       8
#     2   4   4   4   4   4   4   4
#     4  12  20  36  60  88 122 146 204 250 288 364
#     4   9  18  34  52  81 109 143 186 234 287 343
#     4  10  23  36  57  85 119 155 197 246 299 354
#     4  11  22  36  59  90 115 157 200 247 294 358
#     4   9  19  32  55  80 115 143 184 239 289 343
#     4  10  20  36  56  89 115 149 194 248 298 350
#     4  11  22  38  57  87 119 158 200 244 302 354
#     4  10  18  32  57  84 112 148 189 241 297 351
#
# _framework density 20.562106
#
# number of rings (size 3 to 8) (size 9 to 14) (size 15 to 20)
#    0.000    1.867    5.333    0.000    1.867    1.067 
#    0.000    0.667    0.000    2.400    0.000    0.000 
#    0.000    0.000    0.000    0.000    0.000    0.000 
#
# Total GULP energy -167075.543554 kJ/mol
# GULP energy per Si atom -5569.184785 kJ/mol
# Density = 2.051531 g / cm^3
# Si number density = 20.562106 Si / 1000 Ang^3
#
#
#
# Elastic Constant Matrix: (Units=GPa)
#
#
# Indices 1 2 3 4 5 6 
#
# 1 117.3883 6.6469 38.3979 0.0000 0.0000 0.0000
# 2 6.6469 44.2891 6.7408 0.0000 0.0000 0.0000
# 3 38.3979 6.7408 85.6477 0.0000 0.0000 0.0000
# 4 0.0000 0.0000 0.0000 13.5666 0.0000 0.0000
# 5 0.0000 0.0000 0.0000 0.0000 20.4351 0.0000
# 6 0.0000 0.0000 0.0000 0.0000 0.0000 22.1620
#
#
#
# Elastic Compliance Matrix: (Units=1/GPa)
#
#
# Indices 1 2 3 4 5 6 
#
# 1 0.010013 -0.000829 -0.004424 0.000000 0.000000 0.000000
# 2 -0.000829 0.022921 -0.001432 0.000000 0.000000 0.000000
# 3 -0.004424 -0.001432 0.013772 0.000000 0.000000 0.000000
# 4 0.000000 0.000000 0.000000 0.073710 0.000000 0.000000
# 5 0.000000 0.000000 0.000000 0.000000 0.048936 0.000000
# 6 0.000000 0.000000 0.000000 0.000000 0.000000 0.045122
#
#
# Mechanical properties :
#
#
# Convention : Reuss Voigt Hill
#
# Bulk Modulus (GPa) = 29.99821 38.98847 34.49334
# Shear Modulus (GPa) = 20.92434 24.26870 22.59652
#
# Velocity S-wave (km/s) = 3.19347 3.43922 3.31862
# Velocity P-wave (km/s) = 5.31210 5.89691 5.61213
#
# Compressibility (1/GPa) = 0.03333532
#
# Stress axis : x y z
#
# Youngs Moduli (GPa) = 99.87336 43.62737 72.61284
#
# Poissons Ratio (x) = 0.03619 0.32121
# Poissons Ratio (y) = 0.08284 0.10399
# Poissons Ratio (z) = 0.44180 0.06248
#
# Static dielectric constant tensor:
#      x y z
#    x 1.787820 0.000000 0.000000 
#    y 0.000000 1.841620 0.000000 
#    z 0.000000 0.000000 1.713910 
# 
# From -- ./inp_files/4688.got.cif
#   From: 2010.05.17/outbox.cif.g08.bks.cpg/sg18_3_cif.got.tgz:4688.got - 2010.06.03 22:40:56.
