data_PCOD9311236
_publ_section_title
;
Structure prediction by ZEFSAII (Michael W. Deem and Ramdas Pophale) SiO2 
 PCOD9311236
Probable space group: P 2 2 21
;
_chemical_formula_sum "Si O2"
_cell_formula_units_Z 30
_cell_length_a 6.393558
_cell_length_b 11.537075
_cell_length_c 18.444564
_cell_angle_alpha 90.000000
_cell_angle_beta 90.000000
_cell_angle_gamma 90.000000
_cell_volume 1360.525603
_symmetry_space_group_name_H-M "P 2 2 21"
_symmetry_group_IT_number 17
_symmetry_cell_setting 'orthorhombic'
loop_
_space_group_symop_operation_xyz
x,y,z
-x,-y,1/2+z
x,-y,-z
-x,y,1/2-z
loop_
_atom_site_type_symbol
_atom_site_label
_atom_site_fract_x
_atom_site_fract_y
_atom_site_fract_z
Si Si1 0.834574 0.894239 0.366504
Si Si2 0.555696 0.264496 0.130907
Si Si3 0.482844 0.132380 0.515310
Si Si4 0.150349 0.519299 0.585853
Si Si5 0.923006 0.888513 0.831778
Si Si6 0.787835 0.263040 0.868056
Si Si7 0.500000 0.855450 0.250000
Si Si8 0.870461 0.341499 0.325383
O O1 0.691191 0.876894 0.436279
O O2 0.669404 0.919865 0.301221
O O3 0.976790 0.781315 0.353321
O O4 0.003721 0.997259 0.372414
O O5 0.699899 0.373601 0.107741
O O6 0.687588 0.158793 0.166342
O O7 0.373212 0.316892 0.180237
O O8 0.475389 0.204785 0.057156
O O9 0.304946 0.199621 0.560621
O O10 0.416687 0.000000 0.500000
O O11 0.139367 0.500000 0.500000
O O12 0.222524 0.399538 0.620955
O O13 0.928719 0.554758 0.621351
O O14 0.000000 0.904719 0.750000
O O15 0.046855 0.777585 0.861018
O O16 0.639653 0.220537 0.803688
O O17 0.000000 0.355566 0.250000
#
# Coordination Sequence:
#
# PCOD9311236 Si02
#       8
#     4   4   4   4   4   4   2   4
#     4  11  24  41  69 101 143 181 229 287 349 416
#     4  11  24  45  71  98 141 182 234 285 353 414
#     4  11  24  40  65 101 133 179 230 281 351 420
#     4  11  25  45  70 102 139 189 239 293 346 412
#     4  10  22  41  67 100 135 181 228 285 348 413
#     4  11  24  43  67  97 140 179 236 287 347 410
#     4  10  24  44  68 106 134 188 232 286 344 414
#     4  10  25  43  70 104 137 183 235 292 345 413
#
# _framework density 22.0503
#
# number of rings (size 3 to 8) (size 9 to 14) (size 15 to 20)
#    0.000    1.333    1.333    2.800    1.867   14.400 
#    0.000    0.000    0.000    0.000    0.000    0.000 
#    0.000    0.000    0.000    0.000    0.000    0.000 
#
# Total GULP energy -167633.173902 kJ/mol
# GULP energy per Si atom -5587.772463 kJ/mol
# Density = 2.200011 g / cm^3
# Si number density = 22.050300 Si / 1000 Ang^3
#
#
#
# Elastic Constant Matrix: (Units=GPa)
#
#
# Indices 1 2 3 4 5 6 
#
# 1 136.0828 42.4001 64.7472 0.0000 0.0000 0.0000
# 2 42.4001 124.4124 26.7687 0.0000 0.0000 0.0000
# 3 64.7472 26.7687 91.2603 0.0000 0.0000 0.0000
# 4 0.0000 0.0000 0.0000 13.6632 0.0000 0.0000
# 5 0.0000 0.0000 0.0000 0.0000 23.3350 0.0000
# 6 0.0000 0.0000 0.0000 0.0000 0.0000 3.6063
#
#
#
# Elastic Compliance Matrix: (Units=1/GPa)
#
#
# Indices 1 2 3 4 5 6 
#
# 1 0.011703 -0.002350 -0.007614 0.000000 0.000000 0.000000
# 2 -0.002350 0.009051 -0.000987 0.000000 0.000000 0.000000
# 3 -0.007614 -0.000987 0.016649 0.000000 0.000000 0.000000
# 4 0.000000 0.000000 0.000000 0.073190 0.000000 0.000000
# 5 0.000000 0.000000 0.000000 0.000000 0.042854 0.000000
# 6 0.000000 0.000000 0.000000 0.000000 0.000000 0.277293
#
#
# Mechanical properties :
#
#
# Convention : Reuss Voigt Hill
#
# Bulk Modulus (GPa) = 64.51396 68.84306 66.67851
# Shear Modulus (GPa) = 10.92156 22.64353 16.78255
#
# Velocity S-wave (km/s) = 2.22795 3.20801 2.76180
# Velocity P-wave (km/s) = 5.99496 6.70898 6.36200
#
# Compressibility (1/GPa) = 0.01550052
#
# Stress axis : x y z
#
# Youngs Moduli (GPa) = 85.44518 110.48207 60.06301
#
# Poissons Ratio (x) = 0.25967 0.45731
# Poissons Ratio (y) = 0.20083 0.05931
# Poissons Ratio (z) = 0.65057 0.10909
#
# Static dielectric constant tensor:
#      x y z
#    x 1.871580 0.000000 0.000000 
#    y 0.000000 1.783310 0.000000 
#    z 0.000000 0.000000 1.827180 
# 
# From -- ./inp_files/9946.got.cif
#   From: 2010.05.17/outbox.cif.g08.bks.cpg/sg17_5_cif.got.tgz:9946.got - 2010.06.03 22:34:06.
