data_PCOD9311001
_publ_section_title
;
Structure prediction by ZEFSAII (Michael W. Deem and Ramdas Pophale) SiO2 
 PCOD9311001
Probable space group: P 2 2 21
;
_chemical_formula_sum "Si O2"
_cell_formula_units_Z 16
_cell_length_a 13.200258
_cell_length_b 13.202629
_cell_length_c 5.060852
_cell_angle_alpha 90.000000
_cell_angle_beta 90.000000
_cell_angle_gamma 90.000000
_cell_volume 881.995717
_symmetry_space_group_name_H-M "P 2 2 21"
_symmetry_group_IT_number 17
_symmetry_cell_setting 'orthorhombic'
loop_
_space_group_symop_operation_xyz
x,y,z
-x,-y,1/2+z
x,-y,-z
-x,y,1/2-z
loop_
_atom_site_type_symbol
_atom_site_label
_atom_site_fract_x
_atom_site_fract_y
_atom_site_fract_z
Si Si1 0.384561 0.426463 0.249651
Si Si2 0.881313 0.072102 0.246980
Si Si3 0.889270 0.396814 0.636087
Si Si4 0.194063 0.290162 0.336607
O O1 0.369418 0.500000 0.500000
O O2 0.500000 0.386584 0.250000
O O3 0.301280 0.338652 0.252876
O O4 0.375811 0.500000 0.000000
O O5 0.812063 0.169578 0.188362
O O6 0.000000 0.105159 0.250000
O O7 0.861546 0.000000 0.500000
O O8 0.870345 0.000000 0.000000
O O9 0.848131 0.500000 0.500000
O O10 0.886956 0.323952 0.385354
O O11 0.000000 0.420145 0.750000
O O12 0.832462 0.341533 0.879944
#
# Coordination Sequence:
#
# PCOD9311001 Si02
#       4
#     4   4   4   4
#     4  10  21  37  57  82 111 143 182 226 272 329
#     4  10  21  37  55  77 106 142 187 234 277 326
#     4  12  23  34  50  80 117 148 178 217 271 341
#     4  12  22  36  58  79 108 149 189 227 278 330
#
# _framework density 18.140675999999999
#
# number of rings (size 3 to 8) (size 9 to 14) (size 15 to 20)
#    0.000    1.000    0.000    9.750    0.000    2.000 
#    0.000    0.000    0.000    1.500    0.000    0.000 
#    0.000    0.000    0.000    0.000    0.000    0.000 
#
# Total GULP energy -89261.192589 kJ/mol
# GULP energy per Si atom -5578.824537 kJ/mol
# Density = 1.809939 g / cm^3
# Si number density = 18.140676 Si / 1000 Ang^3
#
#
#
# Elastic Constant Matrix: (Units=GPa)
#
#
# Indices 1 2 3 4 5 6 
#
# 1 113.9390 70.2002 32.5953 0.0000 0.0000 0.0000
# 2 70.2002 142.1663 55.8639 0.0000 0.0000 0.0000
# 3 32.5953 55.8639 159.4480 0.0000 0.0000 0.0000
# 4 0.0000 0.0000 0.0000 -20.3621 0.0000 0.0000
# 5 0.0000 0.0000 0.0000 0.0000 19.6832 0.0000
# 6 0.0000 0.0000 0.0000 0.0000 0.0000 31.2478
#
#
#
# Elastic Compliance Matrix: (Units=1/GPa)
#
#
# Indices 1 2 3 4 5 6 
#
# 1 0.012643 -0.006062 -0.000461 0.000000 0.000000 0.000000
# 2 -0.006062 0.011064 -0.002637 0.000000 0.000000 0.000000
# 3 -0.000461 -0.002637 0.007290 0.000000 0.000000 0.000000
# 4 0.000000 0.000000 0.000000 -0.049111 0.000000 0.000000
# 5 0.000000 0.000000 0.000000 0.000000 0.050805 0.000000
# 6 0.000000 0.000000 0.000000 0.000000 0.000000 0.032002
#
#
# Mechanical properties :
#
#
# Convention : Reuss Voigt Hill
#
# Bulk Modulus (GPa) = 78.88249 81.43024 80.15636
# Shear Modulus (GPa) = 57.31432 23.24004 40.27718
#
# Velocity S-wave (km/s) = 5.62698 3.58313 4.71709
# Velocity P-wave (km/s) = 9.26258 7.88061 8.59940
#
# Compressibility (1/GPa) = 0.01267708
#
# Stress axis : x y z
#
# Youngs Moduli (GPa) = 79.09230 90.38612 137.17968
#
# Poissons Ratio (x) = 0.54794 0.06320
# Poissons Ratio (y) = 0.47947 0.36174
# Poissons Ratio (z) = 0.03644 0.23835
#
# Static dielectric constant tensor:
#      x y z
#    x 1.661190 0.000000 0.000000 
#    y 0.000000 1.627980 0.000000 
#    z 0.000000 0.000000 1.623910 
# 
# From -- ./inp_files/1949.got.cif
#   From: 2010.05.17/outbox.cif.g08.bks.cpg/sg17_1_cif.got.tgz:1949.got - 2010.06.03 22:34:06.
