data_PCOD9311241
_publ_section_title
;
Structure prediction by ZEFSAII (Michael W. Deem and Ramdas Pophale) SiO2 
 PCOD9311241
Probable space group: P 2 2 21
;
_chemical_formula_sum "Si O2"
_cell_formula_units_Z 30
_cell_length_a 13.334761
_cell_length_b 18.662248
_cell_length_c 5.569648
_cell_angle_alpha 90.000000
_cell_angle_beta 90.000000
_cell_angle_gamma 90.000000
_cell_volume 1386.043758
_symmetry_space_group_name_H-M "P 2 2 21"
_symmetry_group_IT_number 17
_symmetry_cell_setting 'orthorhombic'
loop_
_space_group_symop_operation_xyz
x,y,z
-x,-y,1/2+z
x,-y,-z
-x,y,1/2-z
loop_
_atom_site_type_symbol
_atom_site_label
_atom_site_fract_x
_atom_site_fract_y
_atom_site_fract_z
Si Si1 0.388243 0.951125 0.296174
Si Si2 0.500000 0.455796 0.250000
Si Si3 0.702566 0.163385 0.556651
Si Si4 0.885713 0.766630 0.244359
Si Si5 0.612812 0.307966 0.781103
Si Si6 0.605204 0.814396 0.879977
Si Si7 0.710165 0.582191 0.929469
Si Si8 0.115936 0.678005 0.755054
O O1 0.500000 0.979725 0.250000
O O2 0.333950 0.920644 0.064427
O O3 0.397905 0.870610 0.404555
O O4 0.340814 0.000000 0.500000
O O5 0.507451 0.500000 0.500000
O O6 0.394549 0.415022 0.281193
O O7 0.801692 0.173470 0.711255
O O8 0.641586 0.240155 0.611200
O O9 0.703994 0.171519 0.271445
O O10 0.872283 0.716886 0.485130
O O11 0.000000 0.792975 0.250000
O O12 0.872554 0.727447 0.986848
O O13 0.500000 0.335004 0.750000
O O14 0.609037 0.265564 0.031906
O O15 0.688870 0.372094 0.826307
O O16 0.500000 0.828514 0.750000
O O17 0.800895 0.617273 0.784393
O O18 0.728760 0.500000 0.000000
O O19 0.000000 0.652266 0.750000
#
# Coordination Sequence:
#
# PCOD9311241 Si02
#       8
#     4   2   4   4   4   4   4   4
#     4  11  23  36  55  89 132 173 211 253 309 376
#     4  10  26  46  60  84 124 170 218 258 318 402
#     4  11  21  37  62  90 125 163 215 260 324 378
#     4  10  22  41  69  99 127 159 215 279 339 390
#     4  11  22  35  58  86 121 162 210 264 315 377
#     4  11  19  35  55  88 120 163 210 257 306 372
#     4  11  25  42  63  90 132 171 221 270 338 404
#     4  10  22  44  69  96 124 165 217 281 343 400
#
# _framework density 21.64434
#
# number of rings (size 3 to 8) (size 9 to 14) (size 15 to 20)
#    0.000    1.333    4.000    2.000    6.533    3.200 
#    0.000    2.667    0.000    0.000    3.467    0.000 
#    0.000    0.000    0.000    0.000    0.000    0.000 
#
# Total GULP energy -167108.384611 kJ/mol
# GULP energy per Si atom -5570.279487 kJ/mol
# Density = 2.159508 g / cm^3
# Si number density = 21.644340 Si / 1000 Ang^3
#
#
#
# Elastic Constant Matrix: (Units=GPa)
#
#
# Indices 1 2 3 4 5 6 
#
# 1 115.1084 10.6432 5.5290 0.0000 0.0000 0.0000
# 2 10.6432 73.1455 12.2816 0.0000 0.0000 0.0000
# 3 5.5290 12.2816 70.0629 0.0000 0.0000 0.0000
# 4 0.0000 0.0000 0.0000 24.4694 0.0000 0.0000
# 5 0.0000 0.0000 0.0000 0.0000 37.6802 0.0000
# 6 0.0000 0.0000 0.0000 0.0000 0.0000 22.5848
#
#
#
# Elastic Compliance Matrix: (Units=1/GPa)
#
#
# Indices 1 2 3 4 5 6 
#
# 1 0.008822 -0.001202 -0.000485 0.000000 0.000000 0.000000
# 2 -0.001202 0.014250 -0.002403 0.000000 0.000000 0.000000
# 3 -0.000485 -0.002403 0.014732 0.000000 0.000000 0.000000
# 4 0.000000 0.000000 0.000000 0.040867 0.000000 0.000000
# 5 0.000000 0.000000 0.000000 0.000000 0.026539 0.000000
# 6 0.000000 0.000000 0.000000 0.000000 0.000000 0.044277
#
#
# Mechanical properties :
#
#
# Convention : Reuss Voigt Hill
#
# Bulk Modulus (GPa) = 33.75768 35.02494 34.39131
# Shear Modulus (GPa) = 29.84296 32.27109 31.05703
#
# Velocity S-wave (km/s) = 3.71723 3.86550 3.79209
# Velocity P-wave (km/s) = 5.83559 6.01165 5.92428
#
# Compressibility (1/GPa) = 0.02962289
#
# Stress axis : x y z
#
# Youngs Moduli (GPa) = 113.35385 70.17647 67.87740
#
# Poissons Ratio (x) = 0.08436 0.03295
# Poissons Ratio (y) = 0.13627 0.16311
# Poissons Ratio (z) = 0.05503 0.16864
#
# Static dielectric constant tensor:
#      x y z
#    x 1.727330 0.000000 0.000000 
#    y 0.000000 1.828330 0.000000 
#    z 0.000000 0.000000 1.778200 
# 
# From -- ./inp_files/2302.got.cif
#   From: 2010.05.17/outbox.cif.g08.bks.cpg/sg17_2_cif.got.tgz:2302.got - 2010.06.03 22:34:06.
