data_PCOD9311590
_publ_section_title
;
Structure prediction by ZEFSAII (Michael W. Deem and Ramdas Pophale) SiO2 
 PCOD9311590
Probable space group: P 2 2 21
;
_chemical_formula_sum "Si O2"
_cell_formula_units_Z 18
_cell_length_a 10.862453
_cell_length_b 12.356990
_cell_length_c 6.074214
_cell_angle_alpha 90.000000
_cell_angle_beta 90.000000
_cell_angle_gamma 90.000000
_cell_volume 815.324878
_symmetry_space_group_name_H-M "P 2 2 21"
_symmetry_group_IT_number 17
_symmetry_cell_setting 'orthorhombic'
loop_
_space_group_symop_operation_xyz
x,y,z
-x,-y,1/2+z
x,-y,-z
-x,y,1/2-z
loop_
_atom_site_type_symbol
_atom_site_label
_atom_site_fract_x
_atom_site_fract_y
_atom_site_fract_z
Si Si1 0.500000 0.861897 0.750000
Si Si2 0.697551 0.000000 0.000000
Si Si3 0.691649 0.290812 0.445923
Si Si4 0.132748 0.821026 0.278205
Si Si5 0.560960 0.500000 0.500000
Si Si6 0.877312 0.619699 0.901810
O O1 0.392803 0.938265 0.664004
O O2 0.429013 0.782579 0.915838
O O3 0.780014 0.093007 0.894680
O O4 0.795637 0.220263 0.564139
O O5 0.644414 0.397628 0.566902
O O6 0.757592 0.338990 0.230115
O O7 0.106622 0.712317 0.416712
O O8 0.000000 0.874266 0.250000
O O9 0.500000 0.526564 0.750000
O O10 0.000000 0.616678 0.750000
O O11 0.859984 0.500000 0.000000
#
# Coordination Sequence:
#
# PCOD9311590 Si02
#       6
#     2   2   4   4   2   4
#     4  12  26  50  74 110 146 212 258 330 394 464
#     4  12  28  48  78 110 152 198 272 326 390 480
#     4  12  27  47  77 108 159 203 262 326 398 488
#     4  12  27  49  77 111 152 203 256 328 402 477
#     4  12  30  48  76 120 162 214 264 330 410 494
#     4  12  26  47  75 115 153 202 256 319 403 480
#
# _framework density 22.077089000000001
#
# number of rings (size 3 to 8) (size 9 to 14) (size 15 to 20)
#    0.000    0.000    5.556    3.333    9.333    2.667 
#    0.000    0.000    0.000    0.000    0.000    0.000 
#    0.000    0.000    0.000    0.000    0.000    0.000 
#
# Total GULP energy -100537.276658 kJ/mol
# GULP energy per Si atom -5585.404259 kJ/mol
# Density = 2.202684 g / cm^3
# Si number density = 22.077089 Si / 1000 Ang^3
#
#
#
# Elastic Constant Matrix: (Units=GPa)
#
#
# Indices 1 2 3 4 5 6 
#
# 1 136.2899 47.0350 36.0684 0.0000 0.0000 0.0000
# 2 47.0350 138.5686 27.2916 0.0000 0.0000 0.0000
# 3 36.0684 27.2916 57.8413 0.0000 0.0000 0.0000
# 4 0.0000 0.0000 0.0000 65.1779 0.0000 0.0000
# 5 0.0000 0.0000 0.0000 0.0000 28.8779 0.0000
# 6 0.0000 0.0000 0.0000 0.0000 0.0000 -58.2488
#
#
#
# Elastic Compliance Matrix: (Units=1/GPa)
#
#
# Indices 1 2 3 4 5 6 
#
# 1 0.009378 -0.002240 -0.004791 0.000000 0.000000 0.000000
# 2 -0.002240 0.008491 -0.002610 0.000000 0.000000 0.000000
# 3 -0.004791 -0.002610 0.021508 0.000000 0.000000 0.000000
# 4 0.000000 0.000000 0.000000 0.015343 0.000000 0.000000
# 5 0.000000 0.000000 0.000000 0.000000 0.034629 0.000000
# 6 0.000000 0.000000 0.000000 0.000000 0.000000 -0.017168
#
#
# Mechanical properties :
#
#
# Convention : Reuss Voigt Hill
#
# Bulk Modulus (GPa) = 49.76220 61.49887 55.63053
# Shear Modulus (GPa) = 50.93725 21.98171 36.45948
#
# Velocity S-wave (km/s) = 4.80859 3.15886 4.06823
# Velocity P-wave (km/s) = 7.30884 6.42039 6.87898
#
# Compressibility (1/GPa) = 0.02009558
#
# Stress axis : x y z
#
# Youngs Moduli (GPa) = 106.63013 117.77399 46.49485
#
# Poissons Ratio (x) = 0.26377 0.22277
# Poissons Ratio (y) = 0.23881 0.12134
# Poissons Ratio (z) = 0.51090 0.30735
#
# Static dielectric constant tensor:
#      x y z
#    x 1.807960 0.000000 0.000000 
#    y 0.000000 2.195560 0.000000 
#    z 0.000000 0.000000 1.900870 
# 
# From -- ./inp_files/1376.got.cif
#   From: 2010.05.17/outbox.cif.g08.bks.cpg/sg17_1_cif.got.tgz:1376.got - 2010.06.03 22:34:06.
