data_PCOD9311470
_publ_section_title
;
Structure prediction by ZEFSAII (Michael W. Deem and Ramdas Pophale) SiO2 
 PCOD9311470
Probable space group: P 2 2 21
;
_chemical_formula_sum "Si O2"
_cell_formula_units_Z 20
_cell_length_a 10.891768
_cell_length_b 10.295002
_cell_length_c 8.545137
_cell_angle_alpha 90.000000
_cell_angle_beta 90.000000
_cell_angle_gamma 90.000000
_cell_volume 958.172820
_symmetry_space_group_name_H-M "P 2 2 21"
_symmetry_group_IT_number 17
_symmetry_cell_setting 'orthorhombic'
loop_
_space_group_symop_operation_xyz
x,y,z
-x,-y,1/2+z
x,-y,-z
-x,y,1/2-z
loop_
_atom_site_type_symbol
_atom_site_label
_atom_site_fract_x
_atom_site_fract_y
_atom_site_fract_z
Si Si1 0.970977 0.308539 0.918888
Si Si2 0.366017 0.614843 0.761619
Si Si3 0.626533 0.086557 0.341131
Si Si4 0.182874 0.500000 0.000000
Si Si5 0.776035 0.500000 0.000000
Si Si6 0.880597 0.909342 0.851867
O O1 0.000000 0.244516 0.750000
O O2 0.870721 0.421158 0.890413
O O3 0.916374 0.225681 0.061920
O O4 0.095027 0.376564 0.976846
O O5 0.500000 0.555038 0.750000
O O6 0.381232 0.755058 0.846040
O O7 0.308041 0.605518 0.588501
O O8 0.273392 0.530034 0.859864
O O9 0.500000 0.047491 0.250000
O O10 0.755895 0.075415 0.247797
O O11 0.632633 0.000000 0.500000
O O12 0.000000 0.942047 0.750000
O O13 0.865873 0.000000 0.000000
#
# Coordination Sequence:
#
# PCOD9311470 Si02
#       6
#     4   4   4   2   2   4
#     4  11  23  39  67  96 136 181 229 293 365 438
#     4  11  23  42  68  98 140 182 232 297 353 435
#     4  11  25  48  73 103 142 195 247 297 364 433
#     4  11  23  40  64 100 135 181 230 290 376 435
#     4  11  21  42  64 100 133 177 232 286 362 425
#     4  12  25  43  69 100 140 186 246 308 355 426
#
# _framework density 20.873059999999999
#
# number of rings (size 3 to 8) (size 9 to 14) (size 15 to 20)
#    0.000    0.800    4.000    3.600    0.000    1.600 
#    0.000    1.000    0.000    0.000    0.000    0.000 
#    0.000    0.000    0.000    0.000    0.000    0.000 
#
# Total GULP energy -111436.909445 kJ/mol
# GULP energy per Si atom -5571.845472 kJ/mol
# Density = 2.082555 g / cm^3
# Si number density = 20.873060 Si / 1000 Ang^3
#
#
#
# Elastic Constant Matrix: (Units=GPa)
#
#
# Indices 1 2 3 4 5 6 
#
# 1 216.4661 44.5735 85.3965 0.0000 0.0000 0.0000
# 2 44.5735 77.8677 39.5737 0.0000 0.0000 0.0000
# 3 85.3965 39.5737 114.2192 0.0000 0.0000 0.0000
# 4 0.0000 0.0000 0.0000 21.6740 0.0000 0.0000
# 5 0.0000 0.0000 0.0000 0.0000 41.2627 0.0000
# 6 0.0000 0.0000 0.0000 0.0000 0.0000 8.5061
#
#
#
# Elastic Compliance Matrix: (Units=1/GPa)
#
#
# Indices 1 2 3 4 5 6 
#
# 1 0.006706 -0.001566 -0.004471 0.000000 0.000000 0.000000
# 2 -0.001566 0.015953 -0.004356 0.000000 0.000000 0.000000
# 3 -0.004471 -0.004356 0.013607 0.000000 0.000000 0.000000
# 4 0.000000 0.000000 0.000000 0.046138 0.000000 0.000000
# 5 0.000000 0.000000 0.000000 0.000000 0.024235 0.000000
# 6 0.000000 0.000000 0.000000 0.000000 0.000000 0.117562
#
#
# Mechanical properties :
#
#
# Convention : Reuss Voigt Hill
#
# Bulk Modulus (GPa) = 64.60415 83.07118 73.83767
# Shear Modulus (GPa) = 19.98812 30.22251 25.10532
#
# Velocity S-wave (km/s) = 3.09787 3.80928 3.47185
# Velocity P-wave (km/s) = 6.61921 7.69624 7.17796
#
# Compressibility (1/GPa) = 0.01547888
#
# Stress axis : x y z
#
# Youngs Moduli (GPa) = 149.11845 62.68505 73.49066
#
# Poissons Ratio (x) = 0.09819 0.32858
# Poissons Ratio (y) = 0.23359 0.32013
# Poissons Ratio (z) = 0.66672 0.27306
#
# Static dielectric constant tensor:
#      x y z
#    x 1.794630 0.000000 0.000000 
#    y 0.000000 1.826670 0.000000 
#    z 0.000000 0.000000 1.831520 
# 
# From -- ./inp_files/4098.got.cif
#   From: 2010.05.17/outbox.cif.g08.bks.cpg/sg17_3_cif.got.tgz:4098.got - 2010.06.03 22:34:06.
