data_PCOD9311795
_publ_section_title
;
Structure prediction by ZEFSAII (Michael W. Deem and Ramdas Pophale) SiO2 
 PCOD9311795
Probable space group: P 21 21 2
;
_chemical_formula_sum "Si O2"
_cell_formula_units_Z 28
_cell_length_a 10.923532
_cell_length_b 4.986794
_cell_length_c 22.494949
_cell_angle_alpha 90.000000
_cell_angle_beta 90.000000
_cell_angle_gamma 90.000000
_cell_volume 1225.376441
_symmetry_space_group_name_H-M "P 21 21 2"
_symmetry_group_IT_number 18
_symmetry_cell_setting 'orthorhombic'
loop_
_space_group_symop_operation_xyz
x,y,z
-x,-y,z
1/2+x,1/2-y,-z
1/2-x,1/2+y,-z
loop_
_atom_site_type_symbol
_atom_site_label
_atom_site_fract_x
_atom_site_fract_y
_atom_site_fract_z
Si Si1 0.326698 0.569995 0.010739
Si Si2 0.388367 0.672549 0.885497
Si Si3 0.500000 0.000000 0.698287
Si Si4 0.500000 0.500000 0.612606
Si Si5 0.240199 0.053688 0.459772
Si Si6 0.231613 0.122305 0.731334
Si Si7 0.864648 0.384961 0.663580
Si Si8 0.727745 0.326221 0.136402
O O1 0.357121 0.604414 0.079853
O O2 0.292564 0.263160 0.997418
O O3 0.407528 0.680211 0.956896
O O4 0.500000 0.500000 0.858482
O O5 0.273467 0.477873 0.871856
O O6 0.344391 0.968724 0.868477
O O7 0.524023 0.249161 0.654953
O O8 0.624419 0.951382 0.734304
O O9 0.616799 0.549161 0.571421
O O10 0.286768 0.820695 0.502922
O O11 0.331960 0.118926 0.405972
O O12 0.160867 0.902634 0.692356
O O13 0.221991 0.404506 0.697817
O O14 0.178134 0.138788 0.797510
O O15 0.000000 0.500000 0.672267
#
# Coordination Sequence:
#
# PCOD9311795 Si02
#       8
#     4   4   2   2   4   4   4   4
#     4   8  16  32  51  73 111 155 189 246 312 366
#     4  10  19  32  52  86 120 155 203 260 323 384
#     4  12  22  42  66  96 140 172 208 262 338 388
#     4  12  24  46  66 100 142 168 216 268 322 390
#     4  12  26  44  69 101 130 172 215 265 322 377
#     4  12  24  44  67  98 130 177 218 270 323 390
#     4  12  27  49  69  95 134 177 219 266 321 381
#     4  10  21  36  58  84 121 160 211 257 316 380
#
# _framework density 22.850121999999999
#
# number of rings (size 3 to 8) (size 9 to 14) (size 15 to 20)
#    0.000    1.143    2.857    3.429    4.000    0.000 
#    0.000    1.429    0.000    0.000    0.000    0.000 
#    0.000    0.000    0.000    0.000    0.000    0.000 
#
# Total GULP energy -156499.977362 kJ/mol
# GULP energy per Si atom -5589.284906 kJ/mol
# Density = 2.279811 g / cm^3
# Si number density = 22.850122 Si / 1000 Ang^3
#
#
#
# Elastic Constant Matrix: (Units=GPa)
#
#
# Indices 1 2 3 4 5 6 
#
# 1 44.6115 -21.7237 -7.6666 0.0000 0.0000 0.0000
# 2 -21.7237 109.5987 29.0770 0.0000 0.0000 0.0000
# 3 -7.6666 29.0770 155.4312 0.0000 0.0000 0.0000
# 4 0.0000 0.0000 0.0000 27.8103 0.0000 0.0000
# 5 0.0000 0.0000 0.0000 0.0000 10.0106 0.0000
# 6 0.0000 0.0000 0.0000 0.0000 0.0000 22.4208
#
#
#
# Elastic Compliance Matrix: (Units=1/GPa)
#
#
# Indices 1 2 3 4 5 6 
#
# 1 0.024826 0.004836 0.000320 0.000000 0.000000 0.000000
# 2 0.004836 0.010543 -0.001734 0.000000 0.000000 0.000000
# 3 0.000320 -0.001734 0.006774 0.000000 0.000000 0.000000
# 4 0.000000 0.000000 0.000000 0.035958 0.000000 0.000000
# 5 0.000000 0.000000 0.000000 0.000000 0.099894 0.000000
# 6 0.000000 0.000000 0.000000 0.000000 0.000000 0.044601
#
#
# Mechanical properties :
#
#
# Convention : Reuss Voigt Hill
#
# Bulk Modulus (GPa) = 20.41402 34.33498 27.37450
# Shear Modulus (GPa) = 21.54425 32.71198 27.12811
#
# Velocity S-wave (km/s) = 3.07392 3.78774 3.44934
# Velocity P-wave (km/s) = 4.64240 5.84706 5.27920
#
# Compressibility (1/GPa) = 0.04898595
#
# Stress axis : x y z
#
# Youngs Moduli (GPa) = 40.28113 94.85257 147.62710
#
# Poissons Ratio (x) = -0.45869 -0.04722
# Poissons Ratio (y) = -0.19479 0.25594
# Poissons Ratio (z) = -0.01288 0.16445
#
# Static dielectric constant tensor:
#      x y z
#    x 1.906800 0.000000 0.000000 
#    y 0.000000 1.769430 0.000000 
#    z 0.000000 0.000000 1.837710 
# 
# From -- ./inp_files/7557.got.cif
#   From: 2010.05.17/outbox.cif.g08.bks.cpg/sg18_4_cif.got.tgz:7557.got - 2010.06.03 22:40:56.
