data_PCOD9311947
_publ_section_title
;
Structure prediction by ZEFSAII (Michael W. Deem and Ramdas Pophale) SiO2 
 PCOD9311947
Probable space group: P 21 21 2
;
_chemical_formula_sum "Si O2"
_cell_formula_units_Z 32
_cell_length_a 13.525186
_cell_length_b 7.179529
_cell_length_c 12.971692
_cell_angle_alpha 90.000000
_cell_angle_beta 90.000000
_cell_angle_gamma 90.000000
_cell_volume 1259.609213
_symmetry_space_group_name_H-M "P 21 21 2"
_symmetry_group_IT_number 18
_symmetry_cell_setting 'orthorhombic'
loop_
_space_group_symop_operation_xyz
x,y,z
-x,-y,z
1/2+x,1/2-y,-z
1/2-x,1/2+y,-z
loop_
_atom_site_type_symbol
_atom_site_label
_atom_site_fract_x
_atom_site_fract_y
_atom_site_fract_z
Si Si1 0.304222 0.731774 0.189550
Si Si2 0.833784 0.696767 0.592894
Si Si3 0.823726 0.187947 0.749951
Si Si4 0.910578 0.286037 0.124358
Si Si5 0.044590 0.324175 0.417416
Si Si6 0.005313 0.719456 0.899635
Si Si7 0.118460 0.288092 0.207358
Si Si8 0.364312 0.375535 0.479083
O O1 0.346587 0.845281 0.287359
O O2 0.291977 0.529262 0.242015
O O3 0.196720 0.795641 0.152905
O O4 0.391083 0.715975 0.105492
O O5 0.900192 0.583041 0.513784
O O6 0.722607 0.663518 0.559144
O O7 0.863477 0.907231 0.555894
O O8 0.927621 0.203138 0.808156
O O9 0.731576 0.278868 0.813304
O O10 0.843191 0.227929 0.629709
O O11 0.894109 0.507636 0.151236
O O12 0.008992 0.210634 0.181265
O O13 0.937860 0.248425 0.006100
O O14 0.120953 0.257674 0.331875
O O15 0.000000 0.500000 0.356803
O O16 0.961077 0.190174 0.460212
O O17 0.000000 0.500000 0.887276
#
# Coordination Sequence:
#
# PCOD9311947 Si02
#       8
#     4   4   4   4   4   4   4   4
#     4  10  24  43  67  96 134 179 222 268 343 413
#     4  11  23  41  62  99 135 179 221 270 330 401
#     4  10  23  43  68  94 135 178 223 269 335 413
#     4  10  21  40  70  93 127 170 227 275 332 411
#     4  12  22  37  68  98 132 180 223 266 332 407
#     4  12  25  41  67 101 129 167 224 295 334 384
#     4  10  19  42  67  94 125 179 223 261 339 414
#     4  11  23  39  65  97 137 178 219 268 331 401
#
# _framework density 25.404705
#
# number of rings (size 3 to 8) (size 9 to 14) (size 15 to 20)
#    0.000    1.250    3.750    3.000    3.500    5.000 
#    0.000    0.000    0.000    0.000    0.000    0.000 
#    0.000    0.000    0.000    0.000    0.000    0.000 
#
# Total GULP energy -178585.328306 kJ/mol
# GULP energy per Si atom -5580.791510 kJ/mol
# Density = 2.534688 g / cm^3
# Si number density = 25.404705 Si / 1000 Ang^3
#
#
#
# Elastic Constant Matrix: (Units=GPa)
#
#
# Indices 1 2 3 4 5 6 
#
# 1 130.9453 -20.6473 14.1352 0.0000 0.0000 0.0000
# 2 -20.6473 56.0423 -14.4446 0.0000 0.0000 0.0000
# 3 14.1352 -14.4446 108.7040 0.0000 0.0000 0.0000
# 4 0.0000 0.0000 0.0000 12.3638 0.0000 0.0000
# 5 0.0000 0.0000 0.0000 0.0000 27.6280 0.0000
# 6 0.0000 0.0000 0.0000 0.0000 0.0000 14.7280
#
#
#
# Elastic Compliance Matrix: (Units=1/GPa)
#
#
# Indices 1 2 3 4 5 6 
#
# 1 0.008157 0.002829 -0.000685 0.000000 0.000000 0.000000
# 2 0.002829 0.019457 0.002218 0.000000 0.000000 0.000000
# 3 -0.000685 0.002218 0.009583 0.000000 0.000000 0.000000
# 4 0.000000 0.000000 0.000000 0.080882 0.000000 0.000000
# 5 0.000000 0.000000 0.000000 0.000000 0.036195 0.000000
# 6 0.000000 0.000000 0.000000 0.000000 0.000000 0.067898
#
#
# Mechanical properties :
#
#
# Convention : Reuss Voigt Hill
#
# Bulk Modulus (GPa) = 21.77690 28.19756 24.98723
# Shear Modulus (GPa) = 21.85739 32.05384 26.95562
#
# Velocity S-wave (km/s) = 2.93639 3.55594 3.26091
# Velocity P-wave (km/s) = 4.48186 5.28990 4.90255
#
# Compressibility (1/GPa) = 0.04592022
#
# Stress axis : x y z
#
# Youngs Moduli (GPa) = 122.59842 51.39435 104.35114
#
# Poissons Ratio (x) = -0.14538 0.07146
# Poissons Ratio (y) = -0.34678 -0.23142
# Poissons Ratio (z) = 0.08395 -0.11398
#
# Static dielectric constant tensor:
#      x y z
#    x 1.969900 0.000000 0.000000 
#    y 0.000000 2.232480 0.000000 
#    z 0.000000 0.000000 1.981660 
# 
# From -- ./inp_files/6146.got.cif
#   From: 2010.05.17/outbox.cif.g08.bks.cpg/sg18_4_cif.got.tgz:6146.got - 2010.06.03 22:40:56.
