data_PCOD9311839
_publ_section_title
;
Structure prediction by ZEFSAII (Michael W. Deem and Ramdas Pophale) SiO2 
 PCOD9311839
Probable space group: P 21 21 2
;
_chemical_formula_sum "Si O2"
_cell_formula_units_Z 32
_cell_length_a 5.300757
_cell_length_b 28.134186
_cell_length_c 11.207047
_cell_angle_alpha 90.000000
_cell_angle_beta 90.000000
_cell_angle_gamma 90.000000
_cell_volume 1671.334750
_symmetry_space_group_name_H-M "P 21 21 2"
_symmetry_group_IT_number 18
_symmetry_cell_setting 'orthorhombic'
loop_
_space_group_symop_operation_xyz
x,y,z
-x,-y,z
1/2+x,1/2-y,-z
1/2-x,1/2+y,-z
loop_
_atom_site_type_symbol
_atom_site_label
_atom_site_fract_x
_atom_site_fract_y
_atom_site_fract_z
Si Si1 0.527836 0.553093 0.435251
Si Si2 0.329140 0.696403 0.089376
Si Si3 0.525639 0.947137 0.404266
Si Si4 0.552629 0.225654 0.704125
Si Si5 0.612039 0.152391 0.335303
Si Si6 0.923349 0.288495 0.868254
Si Si7 0.444654 0.349870 0.303367
Si Si8 0.394034 0.690885 0.540942
O O1 0.500000 0.500000 0.383357
O O2 0.800937 0.555184 0.498033
O O3 0.519679 0.596433 0.343405
O O4 0.297249 0.558220 0.530605
O O5 0.476173 0.744265 0.054962
O O6 0.490778 0.659126 0.165304
O O7 0.150513 0.716125 0.194401
O O8 0.208029 0.678721 0.967304
O O9 0.464142 0.902567 0.320456
O O10 0.500000 0.000000 0.350477
O O11 0.520562 0.256475 0.583775
O O12 0.747969 0.260915 0.773552
O O13 0.672915 0.174318 0.678465
O O14 0.616158 0.181374 0.211423
O O15 0.376457 0.174145 0.409968
O O16 0.878255 0.159012 0.402491
O O17 0.601935 0.318047 0.399429
#
# Coordination Sequence:
#
# PCOD9311839 Si02
#       8
#     4   4   4   4   4   4   4   4
#     4  10  21  38  59  85 119 153 188 239 299 371
#     4  11  21  37  53  79 111 157 203 244 281 346
#     4  10  19  35  58  86 115 147 187 239 302 360
#     4  10  23  34  53  77 111 154 188 239 285 341
#     4  11  20  37  59  84 111 154 186 245 284 348
#     4  10  21  37  56  75 110 155 208 235 283 339
#     4  11  24  34  56  85 117 154 193 245 295 366
#     4  11  23  36  54  83 124 150 186 225 302 357
#
# _framework density 19.146374000000002
#
# number of rings (size 3 to 8) (size 9 to 14) (size 15 to 20)
#    0.000    1.500    5.000    0.000    5.250    0.000 
#    0.000    0.000    0.000    0.000    3.250    0.000 
#    0.000    0.000    0.000    0.000    0.000    0.000 
#
# Total GULP energy -178370.874052 kJ/mol
# GULP energy per Si atom -5574.089814 kJ/mol
# Density = 1.910280 g / cm^3
# Si number density = 19.146374 Si / 1000 Ang^3
#
#
#
# Elastic Constant Matrix: (Units=GPa)
#
#
# Indices 1 2 3 4 5 6 
#
# 1 60.2185 -6.2768 3.1706 0.0000 0.0000 0.0000
# 2 -6.2768 105.0333 10.5474 0.0000 0.0000 0.0000
# 3 3.1706 10.5474 68.2779 0.0000 0.0000 0.0000
# 4 0.0000 0.0000 0.0000 9.3208 0.0000 0.0000
# 5 0.0000 0.0000 0.0000 0.0000 27.7520 0.0000
# 6 0.0000 0.0000 0.0000 0.0000 0.0000 22.7897
#
#
#
# Elastic Compliance Matrix: (Units=1/GPa)
#
#
# Indices 1 2 3 4 5 6 
#
# 1 0.016771 0.001097 -0.000948 0.000000 0.000000 0.000000
# 2 0.001097 0.009743 -0.001556 0.000000 0.000000 0.000000
# 3 -0.000948 -0.001556 0.014930 0.000000 0.000000 0.000000
# 4 0.000000 0.000000 0.000000 0.107287 0.000000 0.000000
# 5 0.000000 0.000000 0.000000 0.000000 0.036033 0.000000
# 6 0.000000 0.000000 0.000000 0.000000 0.000000 0.043879
#
#
# Mechanical properties :
#
#
# Convention : Reuss Voigt Hill
#
# Bulk Modulus (GPa) = 25.88670 27.60135 26.74403
# Shear Modulus (GPa) = 20.46379 27.04506 23.75443
#
# Velocity S-wave (km/s) = 3.27281 3.76246 3.52614
# Velocity P-wave (km/s) = 5.27555 5.77253 5.52963
#
# Compressibility (1/GPa) = 0.03862987
#
# Stress axis : x y z
#
# Youngs Moduli (GPa) = 59.62848 102.64181 66.97732
#
# Poissons Ratio (x) = -0.11264 0.06351
# Poissons Ratio (y) = -0.06544 0.10422
# Poissons Ratio (z) = 0.05655 0.15971
#
# Static dielectric constant tensor:
#      x y z
#    x 1.826220 0.000000 0.000000 
#    y 0.000000 1.693120 0.000000 
#    z 0.000000 0.000000 1.696050 
# 
# From -- ./inp_files/5306.got.cif
#   From: 2010.05.17/outbox.cif.g08.bks.cpg/sg18_3_cif.got.tgz:5306.got - 2010.06.03 22:40:56.
