data_PCOD9311755
_publ_section_title
;
Structure prediction by ZEFSAII (Michael W. Deem and Ramdas Pophale) SiO2 
 PCOD9311755
Probable space group: P 21 21 2
;
_chemical_formula_sum "Si O2"
_cell_formula_units_Z 30
_cell_length_a 12.807332
_cell_length_b 12.290061
_cell_length_c 8.739046
_cell_angle_alpha 90.000000
_cell_angle_beta 90.000000
_cell_angle_gamma 90.000000
_cell_volume 1375.551110
_symmetry_space_group_name_H-M "P 21 21 2"
_symmetry_group_IT_number 18
_symmetry_cell_setting 'orthorhombic'
loop_
_space_group_symop_operation_xyz
x,y,z
-x,-y,z
1/2+x,1/2-y,-z
1/2-x,1/2+y,-z
loop_
_atom_site_type_symbol
_atom_site_label
_atom_site_fract_x
_atom_site_fract_y
_atom_site_fract_z
Si Si1 0.134418 0.925150 0.607865
Si Si2 0.038451 0.261251 0.567582
Si Si3 0.744381 0.797079 0.732317
Si Si4 0.154016 0.130576 0.031340
Si Si5 0.850406 0.402520 0.565521
Si Si6 0.796320 0.046852 0.288903
Si Si7 0.000000 0.000000 0.872552
Si Si8 0.688437 0.227471 0.701877
O O1 0.137719 0.983201 0.443097
O O2 0.247460 0.878335 0.652139
O O3 0.048349 0.831714 0.587029
O O4 0.096002 0.985418 0.757745
O O5 0.138898 0.230882 0.669135
O O6 0.085370 0.264461 0.398286
O O7 0.968846 0.368223 0.592864
O O8 0.683550 0.873627 0.610092
O O9 0.693215 0.676012 0.738412
O O10 0.762561 0.852596 0.895735
O O11 0.159587 0.242384 0.126362
O O12 0.177834 0.027212 0.142840
O O13 0.037583 0.102360 0.971254
O O14 0.817930 0.515796 0.643570
O O15 0.772214 0.319966 0.654278
#
# Coordination Sequence:
#
# PCOD9311755 Si02
#       8
#     4   4   4   4   4   4   2   4
#     4  11  22  41  67  94 126 172 225 277 318 387
#     4  10  18  40  66  91 120 171 225 268 320 401
#     4  11  21  43  61  96 141 170 211 287 340 377
#     4  11  26  39  60 101 135 168 219 271 343 406
#     4   9  20  39  65  94 116 169 234 266 316 407
#     4  11  23  41  69  91 130 178 220 275 334 386
#     4  12  26  36  66 102 130 172 222 280 334 398
#     4   9  21  41  60  90 130 166 212 276 328 383
#
# _framework density 21.809439999999999
#
# number of rings (size 3 to 8) (size 9 to 14) (size 15 to 20)
#    0.000    1.600    5.333    0.800    7.467    0.533 
#    0.000    0.000    0.000    0.000    0.000    0.000 
#    0.000    0.000    0.000    0.000    0.000    0.000 
#
# Total GULP energy -167229.114655 kJ/mol
# GULP energy per Si atom -5574.303822 kJ/mol
# Density = 2.175980 g / cm^3
# Si number density = 21.809440 Si / 1000 Ang^3
#
#
#
# Elastic Constant Matrix: (Units=GPa)
#
#
# Indices 1 2 3 4 5 6 
#
# 1 67.4176 11.7051 10.2711 0.0000 0.0000 0.0000
# 2 11.7051 75.7442 27.6072 0.0000 0.0000 0.0000
# 3 10.2711 27.6072 106.4195 0.0000 0.0000 0.0000
# 4 0.0000 0.0000 0.0000 34.7521 0.0000 0.0000
# 5 0.0000 0.0000 0.0000 0.0000 17.7627 0.0000
# 6 0.0000 0.0000 0.0000 0.0000 0.0000 28.3588
#
#
#
# Elastic Compliance Matrix: (Units=1/GPa)
#
#
# Indices 1 2 3 4 5 6 
#
# 1 0.015329 -0.002021 -0.000955 0.000000 0.000000 0.000000
# 2 -0.002021 0.014847 -0.003657 0.000000 0.000000 0.000000
# 3 -0.000955 -0.003657 0.010438 0.000000 0.000000 0.000000
# 4 0.000000 0.000000 0.000000 0.028775 0.000000 0.000000
# 5 0.000000 0.000000 0.000000 0.000000 0.056298 0.000000
# 6 0.000000 0.000000 0.000000 0.000000 0.000000 0.035262
#
#
# Mechanical properties :
#
#
# Convention : Reuss Voigt Hill
#
# Bulk Modulus (GPa) = 36.56454 38.74980 37.65717
# Shear Modulus (GPa) = 27.27300 29.50789 28.39044
#
# Velocity S-wave (km/s) = 3.54010 3.68229 3.61189
# Velocity P-wave (km/s) = 5.78892 5.99041 5.89053
#
# Compressibility (1/GPa) = 0.02734890
#
# Stress axis : x y z
#
# Youngs Moduli (GPa) = 65.23453 67.35199 95.80767
#
# Poissons Ratio (x) = 0.13610 0.09152
# Poissons Ratio (y) = 0.13182 0.35034
# Poissons Ratio (z) = 0.06232 0.24628
#
# Static dielectric constant tensor:
#      x y z
#    x 1.802440 0.000000 0.000000 
#    y 0.000000 1.930210 0.000000 
#    z 0.000000 0.000000 1.838380 
# 
# From -- ./inp_files/3897.got.cif
#   From: 2010.05.17/outbox.cif.g08.bks.cpg/sg18_2_cif.got.tgz:3897.got - 2010.06.03 22:40:56.
