data_PCOD9311674
_publ_section_title
;
Structure prediction by ZEFSAII (Michael W. Deem and Ramdas Pophale) SiO2 
 PCOD9311674
Probable space group: P 21 21 2
;
_chemical_formula_sum "Si O2"
_cell_formula_units_Z 24
_cell_length_a 17.940659
_cell_length_b 7.553707
_cell_length_c 8.225983
_cell_angle_alpha 90.000000
_cell_angle_beta 90.000000
_cell_angle_gamma 90.000000
_cell_volume 1114.772725
_symmetry_space_group_name_H-M "P 21 21 2"
_symmetry_group_IT_number 18
_symmetry_cell_setting 'orthorhombic'
loop_
_space_group_symop_operation_xyz
x,y,z
-x,-y,z
1/2+x,1/2-y,-z
1/2-x,1/2+y,-z
loop_
_atom_site_type_symbol
_atom_site_label
_atom_site_fract_x
_atom_site_fract_y
_atom_site_fract_z
Si Si1 0.318254 0.866554 0.528045
Si Si2 0.345295 0.693096 0.013234
Si Si3 0.331768 0.490642 0.336454
Si Si4 0.749397 0.544967 0.780614
Si Si5 0.552869 0.244231 0.738916
Si Si6 0.901216 0.143652 0.365460
O O1 0.322756 0.674934 0.438757
O O2 0.248818 0.898931 0.648107
O O3 0.300254 0.995275 0.376373
O O4 0.394120 0.877947 0.628403
O O5 0.355483 0.546650 0.155728
O O6 0.300778 0.851207 0.095410
O O7 0.292217 0.609198 0.875693
O O8 0.419866 0.761236 0.925004
O O9 0.389539 0.372835 0.440739
O O10 0.681052 0.666816 0.711449
O O11 0.465793 0.230317 0.700596
O O12 0.574135 0.446123 0.688491
#
# Coordination Sequence:
#
# PCOD9311674 Si02
#       6
#     4   4   4   4   4   4
#     4   9  17  30  49  70  95 128 162 193 237 293
#     4  10  18  29  50  77  98 122 162 209 242 273
#     4   9  17  30  50  73  95 127 163 198 238 286
#     4   9  18  31  48  73  98 126 161 200 243 286
#     4   9  16  29  48  71  98 126 159 202 242 283
#     4   8  16  31  47  68  98 127 159 196 244 293
#
# _framework density 21.529053999999999
#
# number of rings (size 3 to 8) (size 9 to 14) (size 15 to 20)
#    0.000    3.000    0.000    2.000    0.000    0.000 
#    0.000   20.000    0.000   16.000    0.000   25.667 
#    0.000    0.000    0.000    0.000    0.000    0.000 
#
# Total GULP energy -133751.994198 kJ/mol
# GULP energy per Si atom -5572.999758 kJ/mol
# Density = 2.148005 g / cm^3
# Si number density = 21.529054 Si / 1000 Ang^3
#
#
#
# Elastic Constant Matrix: (Units=GPa)
#
#
# Indices 1 2 3 4 5 6 
#
# 1 81.6383 40.5589 35.6800 0.0000 0.0000 0.0000
# 2 40.5589 34.8991 40.2952 0.0000 0.0000 0.0000
# 3 35.6800 40.2952 120.9627 0.0000 0.0000 0.0000
# 4 0.0000 0.0000 0.0000 19.4753 0.0000 0.0000
# 5 0.0000 0.0000 0.0000 0.0000 25.3942 0.0000
# 6 0.0000 0.0000 0.0000 0.0000 0.0000 26.4379
#
#
#
# Elastic Compliance Matrix: (Units=1/GPa)
#
#
# Indices 1 2 3 4 5 6 
#
# 1 0.030459 -0.040666 0.004562 0.000000 0.000000 0.000000
# 2 -0.040666 0.100858 -0.021603 0.000000 0.000000 0.000000
# 3 0.004562 -0.021603 0.014118 0.000000 0.000000 0.000000
# 4 0.000000 0.000000 0.000000 0.051347 0.000000 0.000000
# 5 0.000000 0.000000 0.000000 0.000000 0.039379 0.000000
# 6 0.000000 0.000000 0.000000 0.000000 0.000000 0.037825
#
#
# Mechanical properties :
#
#
# Convention : Reuss Voigt Hill
#
# Bulk Modulus (GPa) = 33.30951 52.28537 42.79744
# Shear Modulus (GPa) = 12.51862 22.32587 17.42224
#
# Velocity S-wave (km/s) = 2.41400 3.22376 2.84781
# Velocity P-wave (km/s) = 4.82445 6.18025 5.54395
#
# Compressibility (1/GPa) = 0.03002146
#
# Stress axis : x y z
#
# Youngs Moduli (GPa) = 32.83151 9.91491 70.83369
#
# Poissons Ratio (x) = 0.40320 -0.32317
# Poissons Ratio (y) = 1.33513 1.53020
# Poissons Ratio (z) = -0.14979 0.21419
#
# Static dielectric constant tensor:
#      x y z
#    x 1.794000 0.000000 0.000000 
#    y 0.000000 1.880010 0.000000 
#    z 0.000000 0.000000 1.814830 
# 
# From -- ./inp_files/3314.got.cif
#   From: 2010.05.17/outbox.cif.g08.bks.cpg/sg18_2_cif.got.tgz:3314.got - 2010.06.03 22:40:56.
