data_PCOD9311715
_publ_section_title
;
Structure prediction by ZEFSAII (Michael W. Deem and Ramdas Pophale) SiO2 
 PCOD9311715
Probable space group: P 21 21 2
;
_chemical_formula_sum "Si O2"
_cell_formula_units_Z 30
_cell_length_a 18.287961
_cell_length_b 5.135020
_cell_length_c 16.323032
_cell_angle_alpha 90.000000
_cell_angle_beta 90.000000
_cell_angle_gamma 90.000000
_cell_volume 1532.880355
_symmetry_space_group_name_H-M "P 21 21 2"
_symmetry_group_IT_number 18
_symmetry_cell_setting 'orthorhombic'
loop_
_space_group_symop_operation_xyz
x,y,z
-x,-y,z
1/2+x,1/2-y,-z
1/2-x,1/2+y,-z
loop_
_atom_site_type_symbol
_atom_site_label
_atom_site_fract_x
_atom_site_fract_y
_atom_site_fract_z
Si Si1 0.500000 0.500000 0.640999
Si Si2 0.212869 0.070327 0.900154
Si Si3 0.580587 0.870977 0.535038
Si Si4 0.683543 0.429459 0.920735
Si Si5 0.920473 0.365978 0.656784
Si Si6 0.152315 0.135430 0.720826
Si Si7 0.879196 0.935360 0.244809
Si Si8 0.186825 0.541002 0.324192
O O1 0.562258 0.598906 0.579138
O O2 0.452140 0.659586 0.707467
O O3 0.266589 0.318202 0.903729
O O4 0.169284 0.081825 0.815791
O O5 0.264386 0.818106 0.905468
O O6 0.164574 0.072370 0.983086
O O7 0.597970 0.861614 0.439949
O O8 0.645014 0.989647 0.589560
O O9 0.500000 0.000000 0.545294
O O10 0.619766 0.430672 0.853254
O O11 0.870594 0.568051 0.706031
O O12 0.000000 0.500000 0.662981
O O13 0.907054 0.074629 0.689311
O O14 0.227701 0.098848 0.670767
O O15 0.820223 0.725148 0.273954
O O16 0.854115 0.222038 0.275799
#
# Coordination Sequence:
#
# PCOD9311715 Si02
#       8
#     2   4   4   4   4   4   4   4
#     4  10  22  34  64  82 122 160 202 240 296 364
#     4  10  20  33  60  89 117 151 192 241 298 353
#     4  10  22  40  58  86 119 160 203 237 300 360
#     4  10  18  34  57  91 121 150 191 238 293 367
#     4  11  27  41  64  80 116 160 212 252 298 369
#     4  12  22  41  61  92 116 157 200 261 305 342
#     4  11  19  35  56  92 119 156 189 237 300 362
#     4  11  22  35  62  89 123 150 194 251 300 355
#
# _framework density 19.570997999999999
#
# number of rings (size 3 to 8) (size 9 to 14) (size 15 to 20)
#    0.000    1.333    4.000    2.000    3.733    1.067 
#    0.000    0.000    2.933    0.000    0.000    0.000 
#    0.000    0.000    0.000    0.000    0.000    0.000 
#
# Total GULP energy -167204.111159 kJ/mol
# GULP energy per Si atom -5573.470372 kJ/mol
# Density = 1.952645 g / cm^3
# Si number density = 19.570998 Si / 1000 Ang^3
#
#
#
# Elastic Constant Matrix: (Units=GPa)
#
#
# Indices 1 2 3 4 5 6 
#
# 1 32.7243 -5.3742 23.9196 0.0000 0.0000 0.0000
# 2 -5.3742 84.2732 16.0885 0.0000 0.0000 0.0000
# 3 23.9196 16.0885 151.3266 0.0000 0.0000 0.0000
# 4 0.0000 0.0000 0.0000 23.9287 0.0000 0.0000
# 5 0.0000 0.0000 0.0000 0.0000 26.8210 0.0000
# 6 0.0000 0.0000 0.0000 0.0000 0.0000 26.1338
#
#
#
# Elastic Compliance Matrix: (Units=1/GPa)
#
#
# Indices 1 2 3 4 5 6 
#
# 1 0.035481 0.003402 -0.005970 0.000000 0.000000 0.000000
# 2 0.003402 0.012438 -0.001860 0.000000 0.000000 0.000000
# 3 -0.005970 -0.001860 0.007750 0.000000 0.000000 0.000000
# 4 0.000000 0.000000 0.000000 0.041791 0.000000 0.000000
# 5 0.000000 0.000000 0.000000 0.000000 0.037284 0.000000
# 6 0.000000 0.000000 0.000000 0.000000 0.000000 0.038265
#
#
# Mechanical properties :
#
#
# Convention : Reuss Voigt Hill
#
# Bulk Modulus (GPa) = 21.36159 37.51024 29.43592
# Shear Modulus (GPa) = 25.32051 30.95605 28.13828
#
# Velocity S-wave (km/s) = 3.60081 3.98141 3.79589
# Velocity P-wave (km/s) = 5.31285 6.35164 5.85533
#
# Compressibility (1/GPa) = 0.04681300
#
# Stress axis : x y z
#
# Youngs Moduli (GPa) = 28.18424 80.39707 129.03797
#
# Poissons Ratio (x) = -0.27354 0.77036
# Poissons Ratio (y) = -0.09589 0.24004
# Poissons Ratio (z) = 0.16826 0.14955
#
# Static dielectric constant tensor:
#      x y z
#    x 1.716460 0.000000 0.000000 
#    y 0.000000 1.751200 0.000000 
#    z 0.000000 0.000000 1.695190 
# 
# From -- ./inp_files/7014.got.cif
#   From: 2010.05.17/outbox.cif.g08.bks.cpg/sg18_4_cif.got.tgz:7014.got - 2010.06.03 22:40:56.
