data_PCOD9311523
_publ_section_title
;
Structure prediction by ZEFSAII (Michael W. Deem and Ramdas Pophale) SiO2 
 PCOD9311523
Probable space group: P 2 2 21
;
_chemical_formula_sum "Si O2"
_cell_formula_units_Z 18
_cell_length_a 5.864487
_cell_length_b 5.024222
_cell_length_c 21.389962
_cell_angle_alpha 90.000000
_cell_angle_beta 90.000000
_cell_angle_gamma 90.000000
_cell_volume 630.244206
_symmetry_space_group_name_H-M "P 2 2 21"
_symmetry_group_IT_number 17
_symmetry_cell_setting 'orthorhombic'
loop_
_space_group_symop_operation_xyz
x,y,z
-x,-y,1/2+z
x,-y,-z
-x,y,1/2-z
loop_
_atom_site_type_symbol
_atom_site_label
_atom_site_fract_x
_atom_site_fract_y
_atom_site_fract_z
Si Si1 0.433557 0.006074 0.316265
Si Si2 0.906049 0.512026 0.183183
Si Si3 0.965389 0.000000 0.000000
Si Si4 0.718693 0.258330 0.605704
Si Si5 0.383237 0.708746 0.581337
O O1 0.500000 0.141482 0.250000
O O2 0.522569 0.033544 0.395921
O O3 0.220148 0.797234 0.317144
O O4 0.655789 0.801626 0.319461
O O5 0.716538 0.298123 0.155157
O O6 0.000000 0.430468 0.250000
O O7 0.090051 0.508221 0.128706
O O8 0.115924 0.119407 0.945480
O O9 0.796644 0.785309 0.968994
O O10 0.529391 0.453147 0.572896
#
# Coordination Sequence:
#
# PCOD9311523 Si02
#       5
#     4   4   2   4   4
#     4  11  24  47  77 115 158 205 269 334 412 486
#     4  11  24  48  77 114 160 204 268 335 416 480
#     4  12  28  60  78 114 168 216 278 322 408 496
#     4  11  27  52  76 111 155 216 260 340 401 469
#     4  11  29  49  77 120 152 215 277 329 407 487
#
# _framework density 28.560362000000001
#
# number of rings (size 3 to 8) (size 9 to 14) (size 15 to 20)
#    0.000    0.889    4.444    0.000    6.222    2.667 
#    8.000    0.000    0.000    0.000    0.000    0.000 
#    0.000    0.000    0.000    0.000    0.000    0.000 
#
# Total GULP energy -100548.437924 kJ/mol
# GULP energy per Si atom -5586.024329 kJ/mol
# Density = 2.849536 g / cm^3
# Si number density = 28.560362 Si / 1000 Ang^3
#
#
#
# Elastic Constant Matrix: (Units=GPa)
#
#
# Indices 1 2 3 4 5 6 
#
# 1 175.0562 88.4869 119.9155 0.0000 0.0000 0.0000
# 2 88.4869 193.5928 60.6350 0.0000 0.0000 0.0000
# 3 119.9155 60.6350 160.4255 0.0000 0.0000 0.0000
# 4 0.0000 0.0000 0.0000 38.6732 0.0000 0.0000
# 5 0.0000 0.0000 0.0000 0.0000 72.4841 0.0000
# 6 0.0000 0.0000 0.0000 0.0000 0.0000 73.6976
#
#
#
# Elastic Compliance Matrix: (Units=1/GPa)
#
#
# Indices 1 2 3 4 5 6 
#
# 1 0.013422 -0.003394 -0.008750 0.000000 0.000000 0.000000
# 2 -0.003394 0.006718 -0.000002 0.000000 0.000000 0.000000
# 3 -0.008750 -0.000002 0.012774 0.000000 0.000000 0.000000
# 4 0.000000 0.000000 0.000000 0.025858 0.000000 0.000000
# 5 0.000000 0.000000 0.000000 0.000000 0.013796 0.000000
# 6 0.000000 0.000000 0.000000 0.000000 0.000000 0.013569
#
#
# Mechanical properties :
#
#
# Convention : Reuss Voigt Hill
#
# Bulk Modulus (GPa) = 115.98058 118.57212 117.27635
# Shear Modulus (GPa) = 44.12984 54.30681 49.21832
#
# Velocity S-wave (km/s) = 3.93510 4.36532 4.15578
# Velocity P-wave (km/s) = 7.83222 8.18624 8.01119
#
# Compressibility (1/GPa) = 0.00862213
#
# Stress axis : x y z
#
# Youngs Moduli (GPa) = 74.50544 148.86468 78.28204
#
# Poissons Ratio (x) = 0.50530 0.68494
# Poissons Ratio (y) = 0.25290 0.00014
# Poissons Ratio (z) = 0.65190 0.00026
#
# Static dielectric constant tensor:
#      x y z
#    x 2.451960 0.000000 0.000000 
#    y 0.000000 2.158840 0.000000 
#    z 0.000000 0.000000 2.377370 
# 
# From -- ./inp_files/10333.got.cif
#   From: 2010.05.17/outbox.cif.g08.bks.cpg/sg17_6_cif.got.tgz:10333.got - 2010.06.03 22:34:06.
