data_PCOD9311019
_publ_section_title
;
Structure prediction by ZEFSAII (Michael W. Deem and Ramdas Pophale) SiO2 
 PCOD9311019
Probable space group: P 2 2 21
;
_chemical_formula_sum "Si O2"
_cell_formula_units_Z 24
_cell_length_a 12.318766
_cell_length_b 12.489648
_cell_length_c 7.890976
_cell_angle_alpha 90.000000
_cell_angle_beta 90.000000
_cell_angle_gamma 90.000000
_cell_volume 1214.082298
_symmetry_space_group_name_H-M "P 2 2 21"
_symmetry_group_IT_number 17
_symmetry_cell_setting 'orthorhombic'
loop_
_space_group_symop_operation_xyz
x,y,z
-x,-y,1/2+z
x,-y,-z
-x,y,1/2-z
loop_
_atom_site_type_symbol
_atom_site_label
_atom_site_fract_x
_atom_site_fract_y
_atom_site_fract_z
Si Si1 0.000000 0.393112 0.750000
Si Si2 0.965330 0.888476 0.945520
Si Si3 0.149888 0.754398 0.009201
Si Si4 0.608425 0.875837 0.024757
Si Si5 0.210526 0.274629 0.377335
Si Si6 0.164051 0.500000 0.500000
Si Si7 0.637234 0.119875 0.570982
O O1 0.918385 0.327545 0.624381
O O2 0.916765 0.465706 0.852190
O O3 0.884068 0.790372 0.976354
O O4 0.000000 0.895123 0.750000
O O5 0.078103 0.861933 0.035461
O O6 0.915476 0.000000 0.000000
O O7 0.159862 0.719257 0.811997
O O8 0.272162 0.791096 0.039241
O O9 0.480685 0.858498 0.988524
O O10 0.623494 0.868670 0.226959
O O11 0.684370 0.799097 0.911986
O O12 0.635107 0.000000 0.000000
O O13 0.228280 0.393473 0.447275
O O14 0.667714 0.000000 0.500000
#
# Coordination Sequence:
#
# PCOD9311019 Si02
#       7
#     2   4   4   4   4   2   4
#     4  12  24  40  64  86 126 164 214 264 318 384
#     4  10  22  35  53  85 123 156 194 242 306 371
#     4  11  23  39  60  91 124 161 207 255 320 380
#     4  10  21  39  64  93 129 165 208 257 316 379
#     4  11  23  41  60  90 121 164 209 262 312 373
#     4  12  24  40  64  86 120 162 214 258 316 374
#     4  10  21  37  62  96 128 167 206 254 316 385
#
# _framework density 19.768018999999999
#
# number of rings (size 3 to 8) (size 9 to 14) (size 15 to 20)
#    0.000    1.333    1.667    4.000    2.333    4.667 
#    0.000    0.000    0.000    9.000    0.000    0.000 
#    0.000    0.000    0.000    0.000    0.000    0.000 
#
# Total GULP energy -133743.697815 kJ/mol
# GULP energy per Si atom -5572.654076 kJ/mol
# Density = 1.972303 g / cm^3
# Si number density = 19.768019 Si / 1000 Ang^3
#
#
#
# Elastic Constant Matrix: (Units=GPa)
#
#
# Indices 1 2 3 4 5 6 
#
# 1 99.8690 55.8328 24.9386 0.0000 0.0000 0.0000
# 2 55.8328 124.6680 26.5046 0.0000 0.0000 0.0000
# 3 24.9386 26.5046 45.1345 0.0000 0.0000 0.0000
# 4 0.0000 0.0000 0.0000 31.4640 0.0000 0.0000
# 5 0.0000 0.0000 0.0000 0.0000 27.4708 0.0000
# 6 0.0000 0.0000 0.0000 0.0000 0.0000 27.4649
#
#
#
# Elastic Compliance Matrix: (Units=1/GPa)
#
#
# Indices 1 2 3 4 5 6 
#
# 1 0.014176 -0.005352 -0.004690 0.000000 0.000000 0.000000
# 2 -0.005352 0.011186 -0.003612 0.000000 0.000000 0.000000
# 3 -0.004690 -0.003612 0.026868 0.000000 0.000000 0.000000
# 4 0.000000 0.000000 0.000000 0.031782 0.000000 0.000000
# 5 0.000000 0.000000 0.000000 0.000000 0.036402 0.000000
# 6 0.000000 0.000000 0.000000 0.000000 0.000000 0.036410
#
#
# Mechanical properties :
#
#
# Convention : Reuss Voigt Hill
#
# Bulk Modulus (GPa) = 40.12311 53.80262 46.96286
# Shear Modulus (GPa) = 25.98205 28.10631 27.04418
#
# Velocity S-wave (km/s) = 3.62933 3.77478 3.70277
# Velocity P-wave (km/s) = 6.15660 6.80255 6.48762
#
# Compressibility (1/GPa) = 0.02492329
#
# Stress axis : x y z
#
# Youngs Moduli (GPa) = 70.54047 89.39794 37.21835
#
# Poissons Ratio (x) = 0.47843 0.17456
# Poissons Ratio (y) = 0.37751 0.13442
# Poissons Ratio (z) = 0.33085 0.32288
#
# Static dielectric constant tensor:
#      x y z
#    x 1.699040 0.000000 0.000000 
#    y 0.000000 1.719690 0.000000 
#    z 0.000000 0.000000 1.973010 
# 
# From -- ./inp_files/4815.got.cif
#   From: 2010.05.17/outbox.cif.g08.bks.cpg/sg17_3_cif.got.tgz:4815.got - 2010.06.03 22:34:06.
