data_PCOD9311874
_publ_section_title
;
Structure prediction by ZEFSAII (Michael W. Deem and Ramdas Pophale) SiO2 
 PCOD9311874
Probable space group: P 21 21 2
;
_chemical_formula_sum "Si O2"
_cell_formula_units_Z 30
_cell_length_a 15.456938
_cell_length_b 11.989046
_cell_length_c 7.516051
_cell_angle_alpha 90.000000
_cell_angle_beta 90.000000
_cell_angle_gamma 90.000000
_cell_volume 1392.829029
_symmetry_space_group_name_H-M "P 21 21 2"
_symmetry_group_IT_number 18
_symmetry_cell_setting 'orthorhombic'
loop_
_space_group_symop_operation_xyz
x,y,z
-x,-y,z
1/2+x,1/2-y,-z
1/2-x,1/2+y,-z
loop_
_atom_site_type_symbol
_atom_site_label
_atom_site_fract_x
_atom_site_fract_y
_atom_site_fract_z
Si Si1 0.882447 0.683325 0.495715
Si Si2 0.330748 0.784786 0.911760
Si Si3 0.000000 0.500000 0.643975
Si Si4 0.571729 0.421790 0.521185
Si Si5 0.473950 0.622944 0.935856
Si Si6 0.782631 0.070664 0.324706
Si Si7 0.145258 0.750846 0.065959
Si Si8 0.350692 0.021001 0.078234
O O1 0.855186 0.702595 0.293129
O O2 0.906151 0.805243 0.570138
O O3 0.800463 0.625830 0.586578
O O4 0.961628 0.599439 0.525675
O O5 0.383460 0.679433 0.988678
O O6 0.227914 0.776736 0.940498
O O7 0.364517 0.897200 0.004569
O O8 0.076831 0.543249 0.772438
O O9 0.500000 0.500000 0.433210
O O10 0.534570 0.390229 0.719265
O O11 0.656642 0.496390 0.552463
O O12 0.500000 0.500000 0.999391
O O13 0.551437 0.705241 0.989795
O O14 0.834357 0.173691 0.238264
O O15 0.742981 0.988843 0.173445
O O16 0.144460 0.616910 0.069831
#
# Coordination Sequence:
#
# PCOD9311874 Si02
#       8
#     4   4   2   4   4   4   4   4
#     4  10  23  41  65  95 133 169 216 265 339 403
#     4  10  23  38  61  98 131 163 224 271 325 403
#     4  10  22  42  62  88 126 176 210 272 326 378
#     4  10  19  40  63  89 124 167 215 263 320 392
#     4  10  19  36  64  90 121 170 215 261 323 385
#     4  10  21  41  64  92 128 173 208 270 328 398
#     4  11  21  37  68  92 122 175 209 270 331 382
#     4  10  21  38  62  89 130 161 219 266 324 381
#
# _framework density 21.538893999999999
#
# number of rings (size 3 to 8) (size 9 to 14) (size 15 to 20)
#    0.000    1.867    2.667    2.400    1.867    3.733 
#    7.200    0.000    2.933    0.000    0.000    0.000 
#    0.000    0.000    0.000    0.000    0.000    0.000 
#
# Total GULP energy -167441.208450 kJ/mol
# GULP energy per Si atom -5581.373615 kJ/mol
# Density = 2.148987 g / cm^3
# Si number density = 21.538894 Si / 1000 Ang^3
#
#
#
# Elastic Constant Matrix: (Units=GPa)
#
#
# Indices 1 2 3 4 5 6 
#
# 1 114.6417 59.5668 5.0657 0.0000 0.0000 0.0000
# 2 59.5668 152.3274 10.3441 0.0000 0.0000 0.0000
# 3 5.0657 10.3441 30.7684 0.0000 0.0000 0.0000
# 4 0.0000 0.0000 0.0000 239.0578 0.0000 0.0000
# 5 0.0000 0.0000 0.0000 0.0000 24.6433 0.0000
# 6 0.0000 0.0000 0.0000 0.0000 0.0000 41.3127
#
#
#
# Elastic Compliance Matrix: (Units=1/GPa)
#
#
# Indices 1 2 3 4 5 6 
#
# 1 0.010951 -0.004257 -0.000372 0.000000 0.000000 0.000000
# 2 -0.004257 0.008373 -0.002114 0.000000 0.000000 0.000000
# 3 -0.000372 -0.002114 0.033273 0.000000 0.000000 0.000000
# 4 0.000000 0.000000 0.000000 0.004183 0.000000 0.000000
# 5 0.000000 0.000000 0.000000 0.000000 0.040579 0.000000
# 6 0.000000 0.000000 0.000000 0.000000 0.000000 0.024206
#
#
# Mechanical properties :
#
#
# Convention : Reuss Voigt Hill
#
# Bulk Modulus (GPa) = 25.56819 49.74340 37.65580
# Shear Modulus (GPa) = 33.76375 75.85351 54.80863
#
# Velocity S-wave (km/s) = 3.96355 5.94083 5.04991
# Velocity P-wave (km/s) = 5.73086 8.37871 7.17794
#
# Compressibility (1/GPa) = 0.03911109
#
# Stress axis : x y z
#
# Youngs Moduli (GPa) = 91.31382 119.42993 30.05461
#
# Poissons Ratio (x) = 0.50843 0.01117
# Poissons Ratio (y) = 0.38874 0.06354
# Poissons Ratio (z) = 0.03395 0.25248
#
# Static dielectric constant tensor:
#      x y z
#    x 1.776970 0.000000 0.000000 
#    y 0.000000 1.796210 0.000000 
#    z 0.000000 0.000000 1.833290 
# 
# From -- ./inp_files/4288.got.cif
#   From: 2010.05.17/outbox.cif.g08.bks.cpg/sg18_3_cif.got.tgz:4288.got - 2010.06.03 22:40:56.
