data_PCOD9311932
_publ_section_title
;
Structure prediction by ZEFSAII (Michael W. Deem and Ramdas Pophale) SiO2 
 PCOD9311932
Probable space group: P 21 21 2
;
_chemical_formula_sum "Si O2"
_cell_formula_units_Z 20
_cell_length_a 13.817299
_cell_length_b 7.120878
_cell_length_c 7.079499
_cell_angle_alpha 90.000000
_cell_angle_beta 90.000000
_cell_angle_gamma 90.000000
_cell_volume 696.561113
_symmetry_space_group_name_H-M "P 21 21 2"
_symmetry_group_IT_number 18
_symmetry_cell_setting 'orthorhombic'
loop_
_space_group_symop_operation_xyz
x,y,z
-x,-y,z
1/2+x,1/2-y,-z
1/2-x,1/2+y,-z
loop_
_atom_site_type_symbol
_atom_site_label
_atom_site_fract_x
_atom_site_fract_y
_atom_site_fract_z
Si Si1 0.632169 0.306727 0.039880
Si Si2 0.557499 0.808175 0.856914
Si Si3 0.344987 0.956391 0.383702
Si Si4 0.234607 0.440596 0.217440
Si Si5 0.469430 0.298268 0.455722
O O1 0.672677 0.151956 0.189587
O O2 0.665436 0.506319 0.117932
O O3 0.517745 0.275102 0.008860
O O4 0.685741 0.253781 0.844864
O O5 0.663419 0.897905 0.871974
O O6 0.562367 0.678017 0.673658
O O7 0.500000 0.000000 0.805099
O O8 0.434034 0.827939 0.457021
O O9 0.268843 0.961859 0.555729
O O10 0.388341 0.165423 0.360180
O O11 0.500000 0.500000 0.382029
#
# Coordination Sequence:
#
# PCOD9311932 Si02
#       5
#     4   4   4   4   4
#     4  11  23  42  73  97 140 192 227 282 355 417
#     4   9  18  42  68  92 138 182 219 285 355 388
#     4  10  22  44  66  98 149 179 225 296 347 411
#     4  10  23  44  65 102 140 186 228 288 354 402
#     4  10  19  39  72 102 131 182 233 283 353 415
#
# _framework density 28.712488
#
# number of rings (size 3 to 8) (size 9 to 14) (size 15 to 20)
#    0.000    2.000    6.000    0.000    8.400    4.800 
#   10.800    1.000    0.000    0.000    0.000    0.000 
#    0.000    0.000    0.000    0.000    0.000    0.000 
#
# Total GULP energy -111967.651539 kJ/mol
# GULP energy per Si atom -5598.382577 kJ/mol
# Density = 2.864714 g / cm^3
# Si number density = 28.712488 Si / 1000 Ang^3
#
#
#
# Elastic Constant Matrix: (Units=GPa)
#
#
# Indices 1 2 3 4 5 6 
#
# 1 114.0927 25.5385 33.3660 0.0000 0.0000 0.0000
# 2 25.5385 143.4705 18.2394 0.0000 0.0000 0.0000
# 3 33.3660 18.2394 113.2707 0.0000 0.0000 0.0000
# 4 0.0000 0.0000 0.0000 37.5106 0.0000 0.0000
# 5 0.0000 0.0000 0.0000 0.0000 44.7906 0.0000
# 6 0.0000 0.0000 0.0000 0.0000 0.0000 56.1811
#
#
#
# Elastic Compliance Matrix: (Units=1/GPa)
#
#
# Indices 1 2 3 4 5 6 
#
# 1 0.009865 -0.001416 -0.002678 0.000000 0.000000 0.000000
# 2 -0.001416 0.007319 -0.000762 0.000000 0.000000 0.000000
# 3 -0.002678 -0.000762 0.009740 0.000000 0.000000 0.000000
# 4 0.000000 0.000000 0.000000 0.026659 0.000000 0.000000
# 5 0.000000 0.000000 0.000000 0.000000 0.022326 0.000000
# 6 0.000000 0.000000 0.000000 0.000000 0.000000 0.017800
#
#
# Mechanical properties :
#
#
# Convention : Reuss Voigt Hill
#
# Bulk Modulus (GPa) = 58.09388 58.34685 58.22037
# Shear Modulus (GPa) = 45.80593 47.27581 46.54087
#
# Velocity S-wave (km/s) = 3.99849 4.06214 4.03044
# Velocity P-wave (km/s) = 6.44935 6.50896 6.47922
#
# Compressibility (1/GPa) = 0.01721352
#
# Stress axis : x y z
#
# Youngs Moduli (GPa) = 101.37054 136.63323 102.67078
#
# Poissons Ratio (x) = 0.19341 0.27494
# Poissons Ratio (y) = 0.14349 0.07819
# Poissons Ratio (z) = 0.27146 0.10405
#
# Static dielectric constant tensor:
#      x y z
#    x 2.271040 0.000000 0.000000 
#    y 0.000000 2.194030 0.000000 
#    z 0.000000 0.000000 2.240390 
# 
# From -- ./inp_files/4119.got.cif
#   From: 2010.05.17/outbox.cif.g08.bks.cpg/sg18_3_cif.got.tgz:4119.got - 2010.06.03 22:40:56.
