data_PCOD9311155
_publ_section_title
;
Structure prediction by ZEFSAII (Michael W. Deem and Ramdas Pophale) SiO2 
 PCOD9311155
Probable space group: P 2 2 21
;
_chemical_formula_sum "Si O2"
_cell_formula_units_Z 24
_cell_length_a 5.913405
_cell_length_b 11.566483
_cell_length_c 17.624667
_cell_angle_alpha 90.000000
_cell_angle_beta 90.000000
_cell_angle_gamma 90.000000
_cell_volume 1205.479608
_symmetry_space_group_name_H-M "P 2 2 21"
_symmetry_group_IT_number 17
_symmetry_cell_setting 'orthorhombic'
loop_
_space_group_symop_operation_xyz
x,y,z
-x,-y,1/2+z
x,-y,-z
-x,y,1/2-z
loop_
_atom_site_type_symbol
_atom_site_label
_atom_site_fract_x
_atom_site_fract_y
_atom_site_fract_z
Si Si1 0.500000 0.296350 0.250000
Si Si2 0.817986 0.532754 0.386739
Si Si3 0.146343 0.296613 0.539817
Si Si4 0.520012 0.306465 0.419249
Si Si5 0.526850 0.253955 0.662191
Si Si6 0.000000 0.585159 0.750000
Si Si7 0.230473 0.128735 0.970126
O O1 0.490978 0.249771 0.336180
O O2 0.247542 0.354627 0.247613
O O3 0.655780 0.427704 0.411970
O O4 0.669427 0.627637 0.342291
O O5 0.953673 0.607648 0.447867
O O6 0.999952 0.485345 0.327575
O O7 0.290749 0.327693 0.465874
O O8 0.301808 0.284407 0.614441
O O9 0.026871 0.172629 0.530994
O O10 0.650684 0.215823 0.471325
O O11 0.500000 0.221267 0.750000
O O12 0.658233 0.157919 0.611621
O O13 0.255543 0.000000 0.000000
#
# Coordination Sequence:
#
# PCOD9311155 Si02
#       7
#     2   4   4   4   4   2   4
#     4  10  24  42  62  96 138 186 220 272 332 412
#     4  10  22  36  61  98 137 172 213 266 333 424
#     4  10  23  39  64  93 128 174 218 276 339 411
#     4  10  24  41  64  94 135 175 219 275 340 403
#     4  10  22  40  68  97 132 172 214 274 344 415
#     4  10  22  38  60  94 144 184 210 274 332 406
#     4  10  24  46  65  90 126 170 233 289 340 398
#
# _framework density 19.909087
#
# number of rings (size 3 to 8) (size 9 to 14) (size 15 to 20)
#    0.000    2.000    0.000    1.000   14.000   12.000 
#    1.500    0.000    3.667    0.000    0.000    0.000 
#    0.000    0.000    0.000    0.000    0.000    0.000 
#
# Total GULP energy -133778.340573 kJ/mol
# GULP energy per Si atom -5574.097524 kJ/mol
# Density = 1.986377 g / cm^3
# Si number density = 19.909087 Si / 1000 Ang^3
#
#
#
# Elastic Constant Matrix: (Units=GPa)
#
#
# Indices 1 2 3 4 5 6 
#
# 1 85.3896 26.2331 45.9835 0.0000 0.0000 0.0000
# 2 26.2331 84.9499 40.8644 0.0000 0.0000 0.0000
# 3 45.9835 40.8644 186.4323 0.0000 0.0000 0.0000
# 4 0.0000 0.0000 0.0000 18.9603 0.0000 0.0000
# 5 0.0000 0.0000 0.0000 0.0000 26.8946 0.0000
# 6 0.0000 0.0000 0.0000 0.0000 0.0000 8.1116
#
#
#
# Elastic Compliance Matrix: (Units=1/GPa)
#
#
# Indices 1 2 3 4 5 6 
#
# 1 0.014162 -0.003010 -0.002833 0.000000 0.000000 0.000000
# 2 -0.003010 0.013799 -0.002282 0.000000 0.000000 0.000000
# 3 -0.002833 -0.002282 0.006563 0.000000 0.000000 0.000000
# 4 0.000000 0.000000 0.000000 0.052742 0.000000 0.000000
# 5 0.000000 0.000000 0.000000 0.000000 0.037182 0.000000
# 6 0.000000 0.000000 0.000000 0.000000 0.000000 0.123281
#
#
# Mechanical properties :
#
#
# Convention : Reuss Voigt Hill
#
# Bulk Modulus (GPa) = 54.72756 64.77039 59.74898
# Shear Modulus (GPa) = 18.51373 27.03936 22.77655
#
# Velocity S-wave (km/s) = 3.05276 3.68930 3.38602
# Velocity P-wave (km/s) = 6.32251 7.12401 6.73520
#
# Compressibility (1/GPa) = 0.01827233
#
# Stress axis : x y z
#
# Youngs Moduli (GPa) = 70.61392 72.46874 152.37206
#
# Poissons Ratio (x) = 0.21815 0.43168
# Poissons Ratio (y) = 0.21257 0.34773
# Poissons Ratio (z) = 0.20006 0.16538
#
# Static dielectric constant tensor:
#      x y z
#    x 1.826600 0.000000 0.000000 
#    y 0.000000 1.674590 0.000000 
#    z 0.000000 0.000000 1.772450 
# 
# From -- ./inp_files/9059.got.cif
#   From: 2010.05.17/outbox.cif.g08.bks.cpg/sg17_5_cif.got.tgz:9059.got - 2010.06.03 22:34:06.
