data_PCOD9311860
_publ_section_title
;
Structure prediction by ZEFSAII (Michael W. Deem and Ramdas Pophale) SiO2 
 PCOD9311860
Probable space group: P 21 21 2
;
_chemical_formula_sum "Si O2"
_cell_formula_units_Z 20
_cell_length_a 12.419812
_cell_length_b 9.588160
_cell_length_c 6.984416
_cell_angle_alpha 90.000000
_cell_angle_beta 90.000000
_cell_angle_gamma 90.000000
_cell_volume 831.726221
_symmetry_space_group_name_H-M "P 21 21 2"
_symmetry_group_IT_number 18
_symmetry_cell_setting 'orthorhombic'
loop_
_space_group_symop_operation_xyz
x,y,z
-x,-y,z
1/2+x,1/2-y,-z
1/2-x,1/2+y,-z
loop_
_atom_site_type_symbol
_atom_site_label
_atom_site_fract_x
_atom_site_fract_y
_atom_site_fract_z
Si Si1 0.111852 0.259058 0.720160
Si Si2 0.579480 0.700044 0.999950
Si Si3 0.628368 0.998533 0.030393
Si Si4 0.212489 0.971725 0.726871
Si Si5 0.057295 0.847865 0.444282
O O1 0.022459 0.259830 0.552126
O O2 0.192987 0.133306 0.677494
O O3 0.162577 0.403617 0.792681
O O4 0.036717 0.217157 0.902153
O O5 0.571302 0.689647 0.774355
O O6 0.653013 0.834688 0.053553
O O7 0.634058 0.567136 0.095790
O O8 0.673037 0.048227 0.825740
O O9 0.500000 0.000000 0.026987
O O10 0.168557 0.872173 0.560003
O O11 0.000000 0.000000 0.460687
#
# Coordination Sequence:
#
# PCOD9311860 Si02
#       5
#     4   4   4   4   4
#     4   9  19  36  58  82 112 144 182 234 284 338
#     4  10  19  36  60  84 113 146 186 234 285 340
#     4  10  21  37  53  79 118 151 181 227 284 333
#     4  10  19  36  59  82 110 148 194 233 275 335
#     4   9  18  35  61  87 108 143 195 240 280 332
#
# _framework density 24.046374
#
# number of rings (size 3 to 8) (size 9 to 14) (size 15 to 20)
#    0.000    2.400    0.000    4.200    0.000    0.000 
#    0.000   35.000    0.000    0.000    0.000    0.000 
#    0.000    0.000    0.000    0.000    0.000    0.000 
#
# Total GULP energy -111711.358430 kJ/mol
# GULP energy per Si atom -5585.567921 kJ/mol
# Density = 2.399164 g / cm^3
# Si number density = 24.046374 Si / 1000 Ang^3
#
#
#
# Elastic Constant Matrix: (Units=GPa)
#
#
# Indices 1 2 3 4 5 6 
#
# 1 18.2758 1.1147 8.7972 0.0000 0.0000 0.0000
# 2 1.1147 96.2500 32.1126 0.0000 0.0000 0.0000
# 3 8.7972 32.1126 151.1395 0.0000 0.0000 0.0000
# 4 0.0000 0.0000 0.0000 22.4810 0.0000 0.0000
# 5 0.0000 0.0000 0.0000 0.0000 16.1136 0.0000
# 6 0.0000 0.0000 0.0000 0.0000 0.0000 18.0463
#
#
#
# Elastic Compliance Matrix: (Units=1/GPa)
#
#
# Indices 1 2 3 4 5 6 
#
# 1 0.056315 0.000475 -0.003379 0.000000 0.000000 0.000000
# 2 0.000475 0.011186 -0.002404 0.000000 0.000000 0.000000
# 3 -0.003379 -0.002404 0.007324 0.000000 0.000000 0.000000
# 4 0.000000 0.000000 0.000000 0.044482 0.000000 0.000000
# 5 0.000000 0.000000 0.000000 0.000000 0.062059 0.000000
# 6 0.000000 0.000000 0.000000 0.000000 0.000000 0.055413
#
#
# Mechanical properties :
#
#
# Convention : Reuss Voigt Hill
#
# Bulk Modulus (GPa) = 15.57425 38.85715 27.21570
# Shear Modulus (GPa) = 18.60129 26.23755 22.41942
#
# Velocity S-wave (km/s) = 2.78431 3.30680 3.05674
# Velocity P-wave (km/s) = 4.10211 5.54745 4.87860
#
# Compressibility (1/GPa) = 0.06420856
#
# Stress axis : x y z
#
# Youngs Moduli (GPa) = 17.75740 89.39503 136.53868
#
# Poissons Ratio (x) = -0.04247 0.46133
# Poissons Ratio (y) = -0.00844 0.32829
# Poissons Ratio (z) = 0.06000 0.21494
#
# Static dielectric constant tensor:
#      x y z
#    x 1.960890 0.000000 0.000000 
#    y 0.000000 2.045330 0.000000 
#    z 0.000000 0.000000 1.873060 
# 
# From -- ./inp_files/1017.got.cif
#   From: 2010.05.17/outbox.cif.g08.bks.cpg/sg18_1_cif.got.tgz:1017.got - 2010.06.03 22:40:56.
