data_PCOD9311827
_publ_section_title
;
Structure prediction by ZEFSAII (Michael W. Deem and Ramdas Pophale) SiO2 
 PCOD9311827
Probable space group: P 21 21 2
;
_chemical_formula_sum "Si O2"
_cell_formula_units_Z 30
_cell_length_a 13.805117
_cell_length_b 11.728045
_cell_length_c 8.991458
_cell_angle_alpha 90.000000
_cell_angle_beta 90.000000
_cell_angle_gamma 90.000000
_cell_volume 1455.780291
_symmetry_space_group_name_H-M "P 21 21 2"
_symmetry_group_IT_number 18
_symmetry_cell_setting 'orthorhombic'
loop_
_space_group_symop_operation_xyz
x,y,z
-x,-y,z
1/2+x,1/2-y,-z
1/2-x,1/2+y,-z
loop_
_atom_site_type_symbol
_atom_site_label
_atom_site_fract_x
_atom_site_fract_y
_atom_site_fract_z
Si Si1 0.589337 0.879525 0.818330
Si Si2 0.141114 0.503922 0.880415
Si Si3 0.346552 0.467923 0.813432
Si Si4 0.729043 0.729936 0.636606
Si Si5 0.000000 0.500000 0.421610
Si Si6 0.071921 0.258280 0.790727
Si Si7 0.599104 0.822442 0.376332
Si Si8 0.536606 0.326480 0.886278
O O1 0.677301 0.801049 0.768075
O O2 0.585376 0.981023 0.697692
O O3 0.495500 0.795474 0.818120
O O4 0.600303 0.929935 0.979773
O O5 0.251513 0.469215 0.915407
O O6 0.081553 0.391365 0.838951
O O7 0.143050 0.587175 0.738714
O O8 0.306346 0.399678 0.669384
O O9 0.435677 0.397184 0.882890
O O10 0.388005 0.595557 0.795102
O O11 0.841535 0.752111 0.670578
O O12 0.680335 0.771043 0.483914
O O13 0.019619 0.608101 0.524876
O O14 0.967501 0.236506 0.717218
O O15 0.076770 0.190646 0.946568
#
# Coordination Sequence:
#
# PCOD9311827 Si02
#       8
#     4   4   4   4   2   4   4   4
#     4  10  19  34  61  94 118 153 215 260 313 380
#     4  11  20  37  64  98 123 159 210 274 319 373
#     4   9  21  39  59  84 133 161 208 259 315 373
#     4   9  22  39  57  89 126 167 210 260 317 386
#     4  10  20  34  54  84 124 158 190 266 314 372
#     4  11  20  37  66  86 127 167 210 266 321 382
#     4  11  21  39  60  91 127 163 209 261 325 386
#     4  10  19  37  62  89 120 169 205 259 316 372
#
# _framework density 20.607506000000001
#
# number of rings (size 3 to 8) (size 9 to 14) (size 15 to 20)
#    0.000    1.867    2.667    1.600    0.000    0.000 
#    9.600    1.333   11.733    0.000    0.000    0.000 
#    0.000    0.000    0.000    0.000    0.000    0.000 
#
# Total GULP energy -167075.761007 kJ/mol
# GULP energy per Si atom -5569.192034 kJ/mol
# Density = 2.056060 g / cm^3
# Si number density = 20.607506 Si / 1000 Ang^3
#
#
#
# Elastic Constant Matrix: (Units=GPa)
#
#
# Indices 1 2 3 4 5 6 
#
# 1 68.3556 -3.1875 3.0779 0.0000 0.0000 0.0000
# 2 -3.1875 45.7525 12.9065 0.0000 0.0000 0.0000
# 3 3.0779 12.9065 63.3632 0.0000 0.0000 0.0000
# 4 0.0000 0.0000 0.0000 21.2156 0.0000 0.0000
# 5 0.0000 0.0000 0.0000 0.0000 23.1549 0.0000
# 6 0.0000 0.0000 0.0000 0.0000 0.0000 19.9552
#
#
#
# Elastic Compliance Matrix: (Units=1/GPa)
#
#
# Indices 1 2 3 4 5 6 
#
# 1 0.014734 0.001303 -0.000981 0.000000 0.000000 0.000000
# 2 0.001303 0.023304 -0.004810 0.000000 0.000000 0.000000
# 3 -0.000981 -0.004810 0.016810 0.000000 0.000000 0.000000
# 4 0.000000 0.000000 0.000000 0.047135 0.000000 0.000000
# 5 0.000000 0.000000 0.000000 0.000000 0.043187 0.000000
# 6 0.000000 0.000000 0.000000 0.000000 0.000000 0.050112
#
#
# Mechanical properties :
#
#
# Convention : Reuss Voigt Hill
#
# Bulk Modulus (GPa) = 21.79973 22.56277 22.18125
# Shear Modulus (GPa) = 22.77387 23.84345 23.30866
#
# Velocity S-wave (km/s) = 3.32795 3.40520 3.36680
# Velocity P-wave (km/s) = 5.03671 5.14131 5.08928
#
# Compressibility (1/GPa) = 0.04587212
#
# Stress axis : x y z
#
# Youngs Moduli (GPa) = 67.86864 42.91022 59.49015
#
# Poissons Ratio (x) = -0.05593 0.05837
# Poissons Ratio (y) = -0.08845 0.28616
# Poissons Ratio (z) = 0.06659 0.20641
#
# Static dielectric constant tensor:
#      x y z
#    x 1.786180 0.000000 0.000000 
#    y 0.000000 1.824290 0.000000 
#    z 0.000000 0.000000 1.736180 
# 
# From -- ./inp_files/4282.got.cif
#   From: 2010.05.17/outbox.cif.g08.bks.cpg/sg18_3_cif.got.tgz:4282.got - 2010.06.03 22:40:56.
