data_PCOD9311003
_publ_section_title
;
Structure prediction by ZEFSAII (Michael W. Deem and Ramdas Pophale) SiO2 
 PCOD9311003
Probable space group: P 2 2 21
;
_chemical_formula_sum "Si O2"
_cell_formula_units_Z 24
_cell_length_a 12.024987
_cell_length_b 11.733557
_cell_length_c 8.980406
_cell_angle_alpha 90.000000
_cell_angle_beta 90.000000
_cell_angle_gamma 90.000000
_cell_volume 1267.098201
_symmetry_space_group_name_H-M "P 2 2 21"
_symmetry_group_IT_number 17
_symmetry_cell_setting 'orthorhombic'
loop_
_space_group_symop_operation_xyz
x,y,z
-x,-y,1/2+z
x,-y,-z
-x,y,1/2-z
loop_
_atom_site_type_symbol
_atom_site_label
_atom_site_fract_x
_atom_site_fract_y
_atom_site_fract_z
Si Si1 0.500000 0.729418 0.750000
Si Si2 0.914918 0.897719 0.882155
Si Si3 0.332084 0.873321 0.555026
Si Si4 0.720124 0.348855 0.918117
Si Si5 0.030247 0.307450 0.593276
Si Si6 0.857910 0.500000 0.500000
Si Si7 0.320523 0.444542 0.248234
O O1 0.431358 0.812355 0.642560
O O2 0.586596 0.638497 0.678373
O O3 0.783082 0.880228 0.849221
O O4 0.000000 0.921635 0.750000
O O5 0.955758 0.783216 0.963074
O O6 0.917942 0.000000 0.000000
O O7 0.304633 0.785659 0.419963
O O8 0.358300 0.000000 0.500000
O O9 0.850050 0.366345 0.885679
O O10 0.651652 0.426568 0.802912
O O11 0.704585 0.388273 0.089916
O O12 0.000000 0.249684 0.750000
O O13 0.937440 0.399297 0.555175
O O14 0.780021 0.545212 0.633300
#
# Coordination Sequence:
#
# PCOD9311003 Si02
#       7
#     2   4   4   4   4   2   4
#     4  10  22  40  64  82 120 160 220 254 312 360
#     4  10  22  40  67  93 125 163 203 251 314 376
#     4   9  20  40  64  87 120 163 208 249 312 383
#     4   9  19  37  59  81 119 166 199 237 319 381
#     4  11  22  34  57  88 127 161 198 247 312 380
#     4  12  24  32  56  92 126 150 210 260 308 358
#     4  10  21  37  56  83 116 160 205 257 301 366
#
# _framework density 18.940915
#
# number of rings (size 3 to 8) (size 9 to 14) (size 15 to 20)
#    0.000    2.000    1.667    1.500    7.000    2.667 
#    0.000    3.333    0.000    0.000    0.000    0.000 
#    0.000    0.000    0.000    0.000    0.000    0.000 
#
# Total GULP energy -133717.000042 kJ/mol
# GULP energy per Si atom -5571.541668 kJ/mol
# Density = 1.889780 g / cm^3
# Si number density = 18.940915 Si / 1000 Ang^3
#
#
#
# Elastic Constant Matrix: (Units=GPa)
#
#
# Indices 1 2 3 4 5 6 
#
# 1 121.3699 64.8211 40.8792 0.0000 0.0000 0.0000
# 2 64.8211 134.8323 26.0889 0.0000 0.0000 0.0000
# 3 40.8792 26.0889 54.3025 0.0000 0.0000 0.0000
# 4 0.0000 0.0000 0.0000 19.4613 0.0000 0.0000
# 5 0.0000 0.0000 0.0000 0.0000 1.0478 0.0000
# 6 0.0000 0.0000 0.0000 0.0000 0.0000 45.7435
#
#
#
# Elastic Compliance Matrix: (Units=1/GPa)
#
#
# Indices 1 2 3 4 5 6 
#
# 1 0.013531 -0.004999 -0.007785 0.000000 0.000000 0.000000
# 2 -0.004999 0.010023 -0.001053 0.000000 0.000000 0.000000
# 3 -0.007785 -0.001053 0.024781 0.000000 0.000000 0.000000
# 4 0.000000 0.000000 0.000000 0.051384 0.000000 0.000000
# 5 0.000000 0.000000 0.000000 0.000000 0.954342 0.000000
# 6 0.000000 0.000000 0.000000 0.000000 0.000000 0.021861
#
#
# Mechanical properties :
#
#
# Convention : Reuss Voigt Hill
#
# Bulk Modulus (GPa) = 48.39345 63.78702 56.09023
# Shear Modulus (GPa) = 4.50255 25.16488 14.83371
#
# Velocity S-wave (km/s) = 1.54347 3.64895 2.80153
# Velocity P-wave (km/s) = 5.36485 7.17656 6.33580
#
# Compressibility (1/GPa) = 0.02066395
#
# Stress axis : x y z
#
# Youngs Moduli (GPa) = 73.90428 99.76573 40.35296
#
# Poissons Ratio (x) = 0.49871 0.31413
# Poissons Ratio (y) = 0.36944 0.04247
# Poissons Ratio (z) = 0.57532 0.10500
#
# Static dielectric constant tensor:
#      x y z
#    x 1.694900 0.000000 0.000000 
#    y 0.000000 1.697870 0.000000 
#    z 0.000000 0.000000 1.660070 
# 
# From -- ./inp_files/4821.got.cif
#   From: 2010.05.17/outbox.cif.g08.bks.cpg/sg17_3_cif.got.tgz:4821.got - 2010.06.03 22:34:06.
