data_PCOD9311548
_publ_section_title
;
Structure prediction by ZEFSAII (Michael W. Deem and Ramdas Pophale) SiO2 
 PCOD9311548
Probable space group: P 2 2 21
;
_chemical_formula_sum "Si O2"
_cell_formula_units_Z 12
_cell_length_a 7.910803
_cell_length_b 7.911015
_cell_length_c 8.875518
_cell_angle_alpha 90.000000
_cell_angle_beta 90.000000
_cell_angle_gamma 90.000000
_cell_volume 555.451938
_symmetry_space_group_name_H-M "P 2 2 21"
_symmetry_group_IT_number 17
_symmetry_cell_setting 'orthorhombic'
loop_
_space_group_symop_operation_xyz
x,y,z
-x,-y,1/2+z
x,-y,-z
-x,y,1/2-z
loop_
_atom_site_type_symbol
_atom_site_label
_atom_site_fract_x
_atom_site_fract_y
_atom_site_fract_z
Si Si1 0.067942 0.850143 0.910955
Si Si2 0.350141 0.567946 0.839046
Si Si3 0.855176 0.355177 0.875001
O O1 0.190818 0.690822 0.875001
O O2 0.000000 0.907051 0.750000
O O3 0.909851 0.801625 0.020070
O O4 0.161242 0.000000 0.000000
O O5 0.500000 0.661249 0.750000
O O6 0.301627 0.409862 0.729928
O O7 0.407049 0.500000 0.000000
O O8 0.000000 0.362794 0.750000
O O9 0.862807 0.500000 0.000000
#
# Coordination Sequence:
#
# PCOD9311548 Si02
#       3
#     4   4   4
#     4  12  25  43  71 102 139 177 231 285 341 404
#     4  12  25  43  71 102 139 177 231 285 341 404
#     4  12  18  40  70 102 130 170 230 282 326 400
#
# _framework density 21.604032
#
# number of rings (size 3 to 8) (size 9 to 14) (size 15 to 20)
#    0.000    0.000   10.000    2.000    0.000    0.000 
#    0.000    3.333    0.000    0.000    0.000    0.000 
#    0.000    0.000    0.000    0.000    0.000    0.000 
#
# Total GULP energy -66814.350658 kJ/mol
# GULP energy per Si atom -5567.862555 kJ/mol
# Density = 2.155486 g / cm^3
# Si number density = 21.604032 Si / 1000 Ang^3
#
#
#
# Elastic Constant Matrix: (Units=GPa)
#
#
# Indices 1 2 3 4 5 6 
#
# 1 64.3755 23.0907 42.5651 0.0000 0.0000 0.0000
# 2 23.0907 64.3710 42.5658 0.0000 0.0000 0.0000
# 3 42.5651 42.5658 216.7688 0.0000 0.0000 0.0000
# 4 0.0000 0.0000 0.0000 41.6132 0.0000 0.0000
# 5 0.0000 0.0000 0.0000 0.0000 41.6116 0.0000
# 6 0.0000 0.0000 0.0000 0.0000 0.0000 4.9233
#
#
#
# Elastic Compliance Matrix: (Units=1/GPa)
#
#
# Indices 1 2 3 4 5 6 
#
# 1 0.019178 -0.005044 -0.002775 0.000000 0.000000 0.000000
# 2 -0.005044 0.019180 -0.002776 0.000000 0.000000 0.000000
# 3 -0.002775 -0.002776 0.005703 0.000000 0.000000 0.000000
# 4 0.000000 0.000000 0.000000 0.024031 0.000000 0.000000
# 5 0.000000 0.000000 0.000000 0.000000 0.024032 0.000000
# 6 0.000000 0.000000 0.000000 0.000000 0.000000 0.203117
#
#
# Mechanical properties :
#
#
# Convention : Reuss Voigt Hill
#
# Bulk Modulus (GPa) = 43.72421 62.43985 53.08203
# Shear Modulus (GPa) = 15.42945 33.44919 24.43932
#
# Velocity S-wave (km/s) = 2.67534 3.93909 3.36704
# Velocity P-wave (km/s) = 5.46133 7.04651 6.30394
#
# Compressibility (1/GPa) = 0.02287062
#
# Stress axis : x y z
#
# Youngs Moduli (GPa) = 52.14237 52.13791 175.33872
#
# Poissons Ratio (x) = 0.26300 0.48663
# Poissons Ratio (y) = 0.26302 0.48670
# Poissons Ratio (z) = 0.14471 0.14472
#
# Static dielectric constant tensor:
#      x y z
#    x 1.859960 0.000000 0.000000 
#    y 0.000000 1.859910 0.000000 
#    z 0.000000 0.000000 1.909820 
# 
# From -- ./inp_files/3621.got.cif
#   From: 2010.05.17/outbox.cif.g08.bks.cpg/sg17_2_cif.got.tgz:3621.got - 2010.06.03 22:34:06.
