data_PCOD9311390
_publ_section_title
;
Structure prediction by ZEFSAII (Michael W. Deem and Ramdas Pophale) SiO2 
 PCOD9311390
Probable space group: P 2 2 21
;
_chemical_formula_sum "Si O2"
_cell_formula_units_Z 18
_cell_length_a 7.345969
_cell_length_b 12.554268
_cell_length_c 10.017380
_cell_angle_alpha 90.000000
_cell_angle_beta 90.000000
_cell_angle_gamma 90.000000
_cell_volume 923.835476
_symmetry_space_group_name_H-M "P 2 2 21"
_symmetry_group_IT_number 17
_symmetry_cell_setting 'orthorhombic'
loop_
_space_group_symop_operation_xyz
x,y,z
-x,-y,1/2+z
x,-y,-z
-x,y,1/2-z
loop_
_atom_site_type_symbol
_atom_site_label
_atom_site_fract_x
_atom_site_fract_y
_atom_site_fract_z
Si Si1 0.000000 0.381775 0.750000
Si Si2 0.174219 0.231204 0.348004
Si Si3 0.500000 0.914752 0.750000
Si Si4 0.040863 0.176151 0.898233
Si Si5 0.686775 0.000000 0.500000
Si Si6 0.329416 0.529840 0.649588
O O1 0.084352 0.299175 0.859219
O O2 0.162985 0.452518 0.692407
O O3 0.331027 0.158051 0.289666
O O4 0.248604 0.351155 0.353038
O O5 0.000000 0.227362 0.250000
O O6 0.120657 0.188503 0.495050
O O7 0.561712 0.984364 0.626841
O O8 0.189018 0.103063 0.969720
O O9 0.000000 0.128358 0.750000
O O10 0.388650 0.500000 0.500000
O O11 0.500000 0.522455 0.750000
#
# Coordination Sequence:
#
# PCOD9311390 Si02
#       6
#     2   4   2   4   2   4
#     4  10  24  44  72 100 142 182 230 280 350 418
#     4  12  24  46  73 100 143 182 233 281 351 416
#     4  12  30  46  70 108 136 180 236 296 344 418
#     4  10  25  47  70  98 139 185 234 286 346 411
#     4  12  28  46  74 102 138 188 236 294 350 404
#     4  12  25  43  71 107 142 187 224 283 351 422
#
# _framework density 19.483988
#
# number of rings (size 3 to 8) (size 9 to 14) (size 15 to 20)
#    0.667    0.000    6.667    0.000    6.222    4.444 
#    2.000    0.000    0.000    0.000    0.000    0.000 
#    0.000    0.000    0.000    0.000    0.000    0.000 
#
# Total GULP energy -100490.257372 kJ/mol
# GULP energy per Si atom -5582.792076 kJ/mol
# Density = 1.943964 g / cm^3
# Si number density = 19.483988 Si / 1000 Ang^3
#
#
#
# Elastic Constant Matrix: (Units=GPa)
#
#
# Indices 1 2 3 4 5 6 
#
# 1 118.0757 60.8858 78.0839 0.0000 0.0000 0.0000
# 2 60.8858 94.5862 44.7486 0.0000 0.0000 0.0000
# 3 78.0839 44.7486 168.9069 0.0000 0.0000 0.0000
# 4 0.0000 0.0000 0.0000 19.5697 0.0000 0.0000
# 5 0.0000 0.0000 0.0000 0.0000 49.9399 0.0000
# 6 0.0000 0.0000 0.0000 0.0000 0.0000 -1.1956
#
#
#
# Elastic Compliance Matrix: (Units=1/GPa)
#
#
# Indices 1 2 3 4 5 6 
#
# 1 0.016014 -0.007781 -0.005342 0.000000 0.000000 0.000000
# 2 -0.007781 0.015868 -0.000607 0.000000 0.000000 0.000000
# 3 -0.005342 -0.000607 0.008551 0.000000 0.000000 0.000000
# 4 0.000000 0.000000 0.000000 0.051099 0.000000 0.000000
# 5 0.000000 0.000000 0.000000 0.000000 0.020024 0.000000
# 6 0.000000 0.000000 0.000000 0.000000 0.000000 -0.836417
#
#
# Mechanical properties :
#
#
# Convention : Reuss Voigt Hill
#
# Bulk Modulus (GPa) = 77.08006 83.22283 80.15144
# Shear Modulus (GPa) = -7.21420 26.85285 9.81932
#
# Velocity S-wave (km/s) = -1.92631 3.71644 2.24736
# Velocity P-wave (km/s) = 5.89059 7.82445 6.92536
#
# Compressibility (1/GPa) = 0.01297352
#
# Stress axis : x y z
#
# Youngs Moduli (GPa) = 62.44566 63.01897 116.95139
#
# Poissons Ratio (x) = 0.49036 0.62471
# Poissons Ratio (y) = 0.48590 0.07097
# Poissons Ratio (z) = 0.33356 0.03824
#
# Static dielectric constant tensor:
#      x y z
#    x 1.633930 0.000000 0.000000 
#    y 0.000000 1.663520 0.000000 
#    z 0.000000 0.000000 1.717080 
# 
# From -- ./inp_files/5867.got.cif
#   From: 2010.05.17/outbox.cif.g08.bks.cpg/sg17_3_cif.got.tgz:5867.got - 2010.06.03 22:34:06.
