data_PCOD9311604
_publ_section_title
;
Structure prediction by ZEFSAII (Michael W. Deem and Ramdas Pophale) SiO2 
 PCOD9311604
Probable space group: P 2 2 21
;
_chemical_formula_sum "Si O2"
_cell_formula_units_Z 32
_cell_length_a 12.000000
_cell_length_b 15.000000
_cell_length_c 9.000000
_cell_angle_alpha 90.000000
_cell_angle_beta 90.000000
_cell_angle_gamma 90.000000
_cell_volume 1620.000000
_symmetry_space_group_name_H-M "P 2 2 21"
_symmetry_group_IT_number 17
_symmetry_cell_setting 'orthorhombic'
loop_
_space_group_symop_operation_xyz
x,y,z
-x,-y,1/2+z
x,-y,-z
-x,y,1/2-z
loop_
_atom_site_type_symbol
_atom_site_label
_atom_site_fract_x
_atom_site_fract_y
_atom_site_fract_z
Si Si1 0.624052 0.013031 0.823679
Si Si2 0.835246 0.605935 0.994893
Si Si3 0.080584 0.398569 0.940620
Si Si4 0.383225 0.817798 0.169559
Si Si5 0.778017 0.329924 0.322504
Si Si6 0.586901 0.533523 0.651064
Si Si7 0.620443 0.162622 0.325211
Si Si8 0.710729 0.364831 0.751034
O O1 0.500000 0.017238 0.750000
O O2 0.672730 0.925467 0.747780
O O3 0.675375 0.105932 0.768264
O O4 0.619412 0.000000 0.000000
O O5 0.734064 0.654295 0.077688
O O6 0.814378 0.500000 0.000000
O O7 0.834551 0.636240 0.826810
O O8 0.952194 0.625302 0.073985
O O9 0.127224 0.326596 0.055913
O O10 0.077775 0.500000 0.000000
O O11 0.172905 0.400126 0.813820
O O12 0.500000 0.798116 0.250000
O O13 0.321935 0.723902 0.167111
O O14 0.398481 0.850160 0.001262
O O15 0.693673 0.406978 0.379595
O O16 0.704093 0.243557 0.301824
O O17 0.534393 0.500000 0.500000
O O18 0.500000 0.586213 0.750000
O O19 0.624951 0.444721 0.734709
O O20 0.500000 0.178576 0.250000
#
# Coordination Sequence:
#
# PCOD9311604 Si02
#       8
#     4   4   4   4   4   4   4   4
#     4  10  20  36  58  86 117 148 189 235 277 334
#     4  11  24  36  62  85 110 153 197 250 289 341
#     4  11  20  42  60  81 114 151 197 246 295 325
#     4  11  22  37  59  85 119 155 190 232 280 342
#     4  12  22  38  56  85 116 151 191 236 287 341
#     4  12  24  38  53  77 118 156 191 225 273 340
#     4  11  22  37  59  85 119 155 190 232 280 342
#     4  12  22  38  56  85 116 151 191 236 287 341
#
# _framework density 19.753086
#
# number of rings (size 3 to 8) (size 9 to 14) (size 15 to 20)
#    0.000    0.750    5.000    4.875    5.250    2.000 
#    0.000    0.000    0.000    0.000    0.000    5.250 
#    0.000    0.000    0.000    0.000    0.000    0.000 
#
# Total GULP energy -178409.274953 kJ/mol
# GULP energy per Si atom -5575.289842 kJ/mol
# Density = 1.970813 g / cm^3
# Si number density = 19.753086 Si / 1000 Ang^3
#
#
#
# Elastic Constant Matrix: (Units=GPa)
#
#
# Indices 1 2 3 4 5 6 
#
# 1 32.8649 25.1021 72.3272 0.0000 0.0000 0.0000
# 2 25.1021 92.4893 4.6512 0.0000 0.0000 0.0000
# 3 72.3272 4.6512 34.7631 0.0000 0.0000 0.0000
# 4 0.0000 0.0000 0.0000 22.9837 0.0000 0.0000
# 5 0.0000 0.0000 0.0000 0.0000 28.6765 0.0000
# 6 0.0000 0.0000 0.0000 0.0000 0.0000 -31.0177
#
#
#
# Elastic Compliance Matrix: (Units=1/GPa)
#
#
# Indices 1 2 3 4 5 6 
#
# 1 -0.008319 0.001397 0.017121 0.000000 0.000000 0.000000
# 2 0.001397 0.010651 -0.004331 0.000000 0.000000 0.000000
# 3 0.017121 -0.004331 -0.006277 0.000000 0.000000 0.000000
# 4 0.000000 0.000000 0.000000 0.043509 0.000000 0.000000
# 5 0.000000 0.000000 0.000000 0.000000 0.034872 0.000000
# 6 0.000000 0.000000 0.000000 0.000000 0.000000 -0.032240
#
#
# Mechanical properties :
#
#
# Convention : Reuss Voigt Hill
#
# Bulk Modulus (GPa) = 40.93473 40.47536 40.70505
# Shear Modulus (GPa) = 227.63004 7.99762 117.81383
#
# Velocity S-wave (km/s) = 10.74653 2.01435 7.73128
# Velocity P-wave (km/s) = 13.21938 5.09365 10.01742
#
# Compressibility (1/GPa) = 0.02442913
#
# Stress axis : x y z
#
# Youngs Moduli (GPa) = -120.20717 93.88985 -159.32181
#
# Poissons Ratio (x) = -0.13115 2.72780
# Poissons Ratio (y) = 0.16791 -0.69005
# Poissons Ratio (z) = 2.05811 0.40665
#
# Static dielectric constant tensor:
#      x y z
#    x 1.729440 0.000000 0.000000 
#    y 0.000000 1.723860 0.000000 
#    z 0.000000 0.000000 1.900890 
# 
# From -- ./inp_files/4945.got.cif
#   From: 2010.05.17/outbox.ucp.g08.bks.cvg/sg17_3_cif.got.tgz:4945.got - 2010.06.11 13:12:59.
