data_PCOD9311779
_publ_section_title
;
Structure prediction by ZEFSAII (Michael W. Deem and Ramdas Pophale) SiO2 
 PCOD9311779
Probable space group: P 21 21 2
;
_chemical_formula_sum "Si O2"
_cell_formula_units_Z 24
_cell_length_a 12.851183
_cell_length_b 8.031084
_cell_length_c 8.119539
_cell_angle_alpha 90.000000
_cell_angle_beta 90.000000
_cell_angle_gamma 90.000000
_cell_volume 838.008934
_symmetry_space_group_name_H-M "P 21 21 2"
_symmetry_group_IT_number 18
_symmetry_cell_setting 'orthorhombic'
loop_
_space_group_symop_operation_xyz
x,y,z
-x,-y,z
1/2+x,1/2-y,-z
1/2-x,1/2+y,-z
loop_
_atom_site_type_symbol
_atom_site_label
_atom_site_fract_x
_atom_site_fract_y
_atom_site_fract_z
Si Si1 0.797974 0.690419 0.776332
Si Si2 0.585241 0.838755 0.722960
Si Si3 0.545735 0.681408 0.403315
Si Si4 0.961883 0.187895 0.959231
Si Si5 0.299077 0.829528 0.604778
Si Si6 0.249690 0.152073 0.093596
O O1 0.672515 0.698762 0.746341
O O2 0.831058 0.702785 0.584807
O O3 0.814952 0.513343 0.864648
O O4 0.811692 0.829016 0.921145
O O5 0.523828 0.798274 0.558169
O O6 0.651220 0.003697 0.681887
O O7 0.519960 0.814801 0.889862
O O8 0.500000 0.500000 0.431092
O O9 0.497553 0.259798 0.225011
O O10 0.671933 0.663261 0.399389
O O11 0.837106 0.204840 0.930123
O O12 0.000000 0.000000 0.995047
O O13 0.316023 0.688254 0.742666
#
# Coordination Sequence:
#
# PCOD9311779 Si02
#       6
#     4   4   4   4   4   4
#     4  10  19  31  48  75 106 137 175 221 272 319
#     4  10  19  31  51  79 107 136 176 227 273 318
#     4   9  18  32  51  78 110 145 183 225 269 322
#     4   9  17  29  46  71 100 134 175 217 262 312
#     4  10  19  32  51  79 108 138 181 229 271 319
#     4  10  19  31  49  74 102 134 174 221 268 316
#
# _framework density 28.639309999999998
#
# number of rings (size 3 to 8) (size 9 to 14) (size 15 to 20)
#    0.000    2.333    0.000    5.500    0.000    0.000 
#    0.000    0.000    0.000    0.000    0.000  156.333 
#    0.000    0.000    0.000    0.000    0.000    0.000 
#
# Total GULP energy -134164.576064 kJ/mol
# GULP energy per Si atom -5590.190669 kJ/mol
# Density = 2.857413 g / cm^3
# Si number density = 28.639310 Si / 1000 Ang^3
#
#
#
# Elastic Constant Matrix: (Units=GPa)
#
#
# Indices 1 2 3 4 5 6 
#
# 1 82.0134 17.4378 54.2424 0.0000 0.0000 0.0000
# 2 17.4378 131.2874 64.1533 0.0000 0.0000 0.0000
# 3 54.2424 64.1533 313.3629 0.0000 0.0000 0.0000
# 4 0.0000 0.0000 0.0000 35.9036 0.0000 0.0000
# 5 0.0000 0.0000 0.0000 0.0000 52.8138 0.0000
# 6 0.0000 0.0000 0.0000 0.0000 0.0000 57.2376
#
#
#
# Elastic Compliance Matrix: (Units=1/GPa)
#
#
# Indices 1 2 3 4 5 6 
#
# 1 0.013834 -0.000742 -0.002243 0.000000 0.000000 0.000000
# 2 -0.000742 0.008503 -0.001612 0.000000 0.000000 0.000000
# 3 -0.002243 -0.001612 0.003910 0.000000 0.000000 0.000000
# 4 0.000000 0.000000 0.000000 0.027852 0.000000 0.000000
# 5 0.000000 0.000000 0.000000 0.000000 0.018934 0.000000
# 6 0.000000 0.000000 0.000000 0.000000 0.000000 0.017471
#
#
# Mechanical properties :
#
#
# Convention : Reuss Voigt Hill
#
# Bulk Modulus (GPa) = 58.63965 88.70344 73.67154
# Shear Modulus (GPa) = 47.44597 55.24634 51.34616
#
# Velocity S-wave (km/s) = 4.07464 4.39685 4.23881
# Velocity P-wave (km/s) = 6.53120 7.53765 7.05240
#
# Compressibility (1/GPa) = 0.01705331
#
# Stress axis : x y z
#
# Youngs Moduli (GPa) = 72.28468 117.60135 255.78459
#
# Poissons Ratio (x) = 0.08720 0.57369
# Poissons Ratio (y) = 0.05360 0.41245
# Poissons Ratio (z) = 0.16212 0.18963
#
# Static dielectric constant tensor:
#      x y z
#    x 2.418980 0.000000 0.000000 
#    y 0.000000 2.111760 0.000000 
#    z 0.000000 0.000000 2.307510 
# 
# From -- ./inp_files/4455.got.cif
#   From: 2010.05.17/outbox.cif.g08.bks.cpg/sg18_3_cif.got.tgz:4455.got - 2010.06.03 22:40:56.
