data_PCOD9311683
_publ_section_title
;
Structure prediction by ZEFSAII (Michael W. Deem and Ramdas Pophale) SiO2 
 PCOD9311683
Probable space group: P 21 21 2
;
_chemical_formula_sum "Si O2"
_cell_formula_units_Z 32
_cell_length_a 8.774915
_cell_length_b 30.792197
_cell_length_c 5.457731
_cell_angle_alpha 90.000000
_cell_angle_beta 90.000000
_cell_angle_gamma 90.000000
_cell_volume 1474.672975
_symmetry_space_group_name_H-M "P 21 21 2"
_symmetry_group_IT_number 18
_symmetry_cell_setting 'orthorhombic'
loop_
_space_group_symop_operation_xyz
x,y,z
-x,-y,z
1/2+x,1/2-y,-z
1/2-x,1/2+y,-z
loop_
_atom_site_type_symbol
_atom_site_label
_atom_site_fract_x
_atom_site_fract_y
_atom_site_fract_z
Si Si1 0.622123 0.612224 0.091959
Si Si2 0.271354 0.808422 0.663282
Si Si3 0.236786 0.224640 0.053364
Si Si4 0.180111 0.987209 0.872736
Si Si5 0.376852 0.186574 0.555097
Si Si6 0.041281 0.818888 0.279421
Si Si7 0.831905 0.977739 0.370057
Si Si8 0.839147 0.883360 0.583937
O O1 0.686010 0.564073 0.081758
O O2 0.623894 0.640606 0.848120
O O3 0.716296 0.643075 0.274409
O O4 0.444528 0.608655 0.178164
O O5 0.257781 0.775994 0.893700
O O6 0.443358 0.807061 0.575927
O O7 0.155756 0.793062 0.451905
O O8 0.327521 0.203045 0.283834
O O9 0.062120 0.208466 0.092230
O O10 0.297697 0.209519 0.791426
O O11 0.242984 0.012197 0.109227
O O12 0.000000 0.000000 0.854075
O O13 0.245096 0.001215 0.610023
O O14 0.329751 0.135875 0.601493
O O15 0.921964 0.842698 0.457392
O O16 0.848002 0.926886 0.425502
O O17 0.000000 0.000000 0.352644
#
# Coordination Sequence:
#
# PCOD9311683 Si02
#       8
#     4   4   4   4   4   4   4   4
#     4  11  21  38  62  96 128 166 219 270 334 388
#     4  11  27  39  65  95 133 177 218 284 339 402
#     4  11  25  44  67  90 132 173 238 264 332 395
#     4  10  19  31  56  91 122 155 206 270 312 378
#     4  11  26  44  66  98 132 180 218 286 336 407
#     4  10  22  40  63  92 125 173 214 277 317 395
#     4  10  18  30  56  93 117 156 204 271 311 374
#     4  10  20  38  62  95 128 165 218 267 331 392
#
# _framework density 21.699728
#
# number of rings (size 3 to 8) (size 9 to 14) (size 15 to 20)
#    0.000    1.500    3.750    2.250    7.000    0.000 
#    0.000    0.000    0.000    0.750    0.000    0.000 
#    0.000    0.000    0.000    0.000    0.000    0.000 
#
# Total GULP energy -178640.127976 kJ/mol
# GULP energy per Si atom -5582.503999 kJ/mol
# Density = 2.165034 g / cm^3
# Si number density = 21.699728 Si / 1000 Ang^3
#
#
#
# Elastic Constant Matrix: (Units=GPa)
#
#
# Indices 1 2 3 4 5 6 
#
# 1 55.0031 20.8520 2.3895 0.0000 0.0000 0.0000
# 2 20.8520 99.3010 3.1314 0.0000 0.0000 0.0000
# 3 2.3895 3.1314 99.6953 0.0000 0.0000 0.0000
# 4 0.0000 0.0000 0.0000 14.0094 0.0000 0.0000
# 5 0.0000 0.0000 0.0000 0.0000 7.3293 0.0000
# 6 0.0000 0.0000 0.0000 0.0000 0.0000 17.7241
#
#
#
# Elastic Compliance Matrix: (Units=1/GPa)
#
#
# Indices 1 2 3 4 5 6 
#
# 1 0.019765 -0.004140 -0.000344 0.000000 0.000000 0.000000
# 2 -0.004140 0.010947 -0.000245 0.000000 0.000000 0.000000
# 3 -0.000344 -0.000245 0.010046 0.000000 0.000000 0.000000
# 4 0.000000 0.000000 0.000000 0.071381 0.000000 0.000000
# 5 0.000000 0.000000 0.000000 0.000000 0.136438 0.000000
# 6 0.000000 0.000000 0.000000 0.000000 0.000000 0.056420
#
#
# Mechanical properties :
#
#
# Convention : Reuss Voigt Hill
#
# Bulk Modulus (GPa) = 31.94575 34.08280 33.01428
# Shear Modulus (GPa) = 15.38989 22.98765 19.18877
#
# Velocity S-wave (km/s) = 2.66601 3.25830 2.97692
# Velocity P-wave (km/s) = 4.92245 5.46772 5.20223
#
# Compressibility (1/GPa) = 0.03130307
#
# Stress axis : x y z
#
# Youngs Moduli (GPa) = 50.59427 91.34609 99.53732
#
# Poissons Ratio (x) = 0.37814 0.03421
# Poissons Ratio (y) = 0.20944 0.02435
# Poissons Ratio (z) = 0.01739 0.02235
#
# Static dielectric constant tensor:
#      x y z
#    x 1.810410 0.000000 0.000000 
#    y 0.000000 1.818610 0.000000 
#    z 0.000000 0.000000 1.847920 
# 
# From -- ./inp_files/758.got.cif
#   From: 2010.05.17/outbox.cif.g08.bks.cpg/sg18_1_cif.got.tgz:758.got - 2010.06.03 22:40:56.
