data_PCOD9311420
_publ_section_title
;
Structure prediction by ZEFSAII (Michael W. Deem and Ramdas Pophale) SiO2 
 PCOD9311420
Probable space group: P 2 2 21
;
_chemical_formula_sum "Si O2"
_cell_formula_units_Z 18
_cell_length_a 5.524639
_cell_length_b 4.914806
_cell_length_c 27.331101
_cell_angle_alpha 90.000000
_cell_angle_beta 90.000000
_cell_angle_gamma 90.000000
_cell_volume 742.108510
_symmetry_space_group_name_H-M "P 2 2 21"
_symmetry_group_IT_number 17
_symmetry_cell_setting 'orthorhombic'
loop_
_space_group_symop_operation_xyz
x,y,z
-x,-y,1/2+z
x,-y,-z
-x,y,1/2-z
loop_
_atom_site_type_symbol
_atom_site_label
_atom_site_fract_x
_atom_site_fract_y
_atom_site_fract_z
Si Si1 0.000000 0.160591 0.250000
Si Si2 0.500000 0.160591 0.750000
Si Si3 0.991731 0.646798 0.640570
Si Si4 0.250000 1.000000 0.570717
Si Si5 0.749999 0.500000 0.000000
Si Si6 0.491731 0.646798 0.140570
O O1 0.035721 0.308804 0.198565
O O2 0.250000 1.000000 0.257304
O O3 0.535721 0.308804 0.698565
O O4 0.750000 0.500000 0.623524
O O5 0.035162 0.908518 0.606752
O O6 0.250000 0.500000 0.636082
O O7 0.337148 0.737297 0.538590
O O8 0.162853 0.262703 0.538590
O O9 0.464838 0.091482 0.606752
#
# Coordination Sequence:
#
# PCOD9311420 Si02
#       6
#     2   2   4   4   2   4
#     4  12  24  42  72 116 164 216 264 324 400 494
#     4  12  24  42  72 116 164 216 264 324 400 494
#     4  12  26  47  78 113 165 213 269 331 406 493
#     4  11  24  50  84 118 160 214 274 347 408 486
#     4  10  24  50  86 114 162 206 286 342 418 468
#     4  12  26  47  78 113 165 213 269 331 406 493
#
# _framework density 24.255215
#
# number of rings (size 3 to 8) (size 9 to 14) (size 15 to 20)
#    0.000    0.444    4.444    4.000    0.000    0.000 
#    0.000    1.111    9.778    0.000    0.000    0.000 
#    0.000    0.000    0.000    0.000    0.000    0.000 
#
# Total GULP energy -100298.067753 kJ/mol
# GULP energy per Si atom -5572.114875 kJ/mol
# Density = 2.420001 g / cm^3
# Si number density = 24.255215 Si / 1000 Ang^3
#
#
#
# Elastic Constant Matrix: (Units=GPa)
#
#
# Indices 1 2 3 4 5 6 
#
# 1 197.5551 86.5804 35.8048 0.0000 0.0000 0.0000
# 2 86.5804 160.7904 75.6090 0.0000 0.0000 0.0000
# 3 35.8048 75.6090 184.0397 0.0000 0.0000 0.0000
# 4 0.0000 0.0000 0.0000 90.5602 0.0000 0.0000
# 5 0.0000 0.0000 0.0000 0.0000 -2.9163 0.0000
# 6 0.0000 0.0000 0.0000 0.0000 0.0000 67.2375
#
#
#
# Elastic Compliance Matrix: (Units=1/GPa)
#
#
# Indices 1 2 3 4 5 6 
#
# 1 0.006633 -0.003674 0.000219 0.000000 0.000000 0.000000
# 2 -0.003674 0.009744 -0.003288 0.000000 0.000000 0.000000
# 3 0.000219 -0.003288 0.006742 0.000000 0.000000 0.000000
# 4 0.000000 0.000000 0.000000 0.011042 0.000000 0.000000
# 5 0.000000 0.000000 0.000000 0.000000 -0.342896 0.000000
# 6 0.000000 0.000000 0.000000 0.000000 0.000000 0.014873
#
#
# Mechanical properties :
#
#
# Convention : Reuss Voigt Hill
#
# Bulk Modulus (GPa) = 103.82674 104.26370 104.04522
# Shear Modulus (GPa) = -18.03982 53.93567 17.94793
#
# Velocity S-wave (km/s) = -2.73014 4.72070 2.72317
# Velocity P-wave (km/s) = 5.74114 8.53187 7.27164
#
# Compressibility (1/GPa) = 0.00963143
#
# Stress axis : x y z
#
# Youngs Moduli (GPa) = 150.77212 102.62572 148.32623
#
# Poissons Ratio (x) = 0.37710 -0.03252
# Poissons Ratio (y) = 0.55401 0.48774
# Poissons Ratio (z) = -0.03306 0.33747
#
# Static dielectric constant tensor:
#      x y z
#    x 1.848100 0.000000 0.000000 
#    y 0.000000 2.091360 0.000000 
#    z 0.000000 0.000000 2.110020 
# 
# From -- ./inp_files/10733.got.cif
#   From: 2010.05.17/outbox.cif.g08.bks.cpg/sg17_6_cif.got.tgz:10733.got - 2010.06.03 22:34:06.
