data_PCOD9311436
_publ_section_title
;
Structure prediction by ZEFSAII (Michael W. Deem and Ramdas Pophale) SiO2 
 PCOD9311436
Probable space group: P 2 2 21
;
_chemical_formula_sum "Si O2"
_cell_formula_units_Z 18
_cell_length_a 8.109244
_cell_length_b 4.941464
_cell_length_c 18.663066
_cell_angle_alpha 90.000000
_cell_angle_beta 90.000000
_cell_angle_gamma 90.000000
_cell_volume 747.857745
_symmetry_space_group_name_H-M "P 2 2 21"
_symmetry_group_IT_number 17
_symmetry_cell_setting 'orthorhombic'
loop_
_space_group_symop_operation_xyz
x,y,z
-x,-y,1/2+z
x,-y,-z
-x,y,1/2-z
loop_
_atom_site_type_symbol
_atom_site_label
_atom_site_fract_x
_atom_site_fract_y
_atom_site_fract_z
Si Si1 0.165845 0.831799 0.067055
Si Si2 0.602806 0.489472 0.083574
Si Si3 0.000000 0.778657 0.750000
Si Si4 0.181504 0.989553 0.385000
Si Si5 0.269408 0.329115 0.144684
O O1 0.201381 0.519856 0.080513
O O2 0.970985 0.874126 0.070255
O O3 0.243932 0.010063 0.131419
O O4 0.234386 0.000000 0.000000
O O5 0.671872 0.776389 0.108829
O O6 0.461699 0.395016 0.139187
O O7 0.749872 0.272916 0.086548
O O8 0.546277 0.500000 0.000000
O O9 0.857184 0.609159 0.709184
O O10 0.897640 0.952795 0.807533
#
# Coordination Sequence:
#
# PCOD9311436 Si02
#       5
#     4   4   2   4   4
#     4  11  21  40  66  97 129 179 228 277 339 399
#     4  12  24  43  69 106 135 171 223 290 359 394
#     4  10  26  50  66 100 136 192 242 258 336 414
#     4  11  25  42  69  96 139 179 224 286 330 412
#     4  11  25  42  69  96 139 179 224 286 330 412
#
# _framework density 24.068750000000001
#
# number of rings (size 3 to 8) (size 9 to 14) (size 15 to 20)
#    0.000    0.889    0.000    8.000    0.000    8.889 
#    0.000    4.444    0.000    0.000    0.000    0.000 
#    0.000    0.000    0.000    0.000    0.000    0.000 
#
# Total GULP energy -100590.774835 kJ/mol
# GULP energy per Si atom -5588.376380 kJ/mol
# Density = 2.401397 g / cm^3
# Si number density = 24.068750 Si / 1000 Ang^3
#
#
#
# Elastic Constant Matrix: (Units=GPa)
#
#
# Indices 1 2 3 4 5 6 
#
# 1 70.3935 8.2417 41.3417 0.0000 0.0000 0.0000
# 2 8.2417 101.1849 26.1330 0.0000 0.0000 0.0000
# 3 41.3417 26.1330 71.1665 0.0000 0.0000 0.0000
# 4 0.0000 0.0000 0.0000 27.3484 0.0000 0.0000
# 5 0.0000 0.0000 0.0000 0.0000 42.0390 0.0000
# 6 0.0000 0.0000 0.0000 0.0000 0.0000 32.8412
#
#
#
# Elastic Compliance Matrix: (Units=1/GPa)
#
#
# Indices 1 2 3 4 5 6 
#
# 1 0.021809 0.001652 -0.013276 0.000000 0.000000 0.000000
# 2 0.001652 0.011044 -0.005015 0.000000 0.000000 0.000000
# 3 -0.013276 -0.005015 0.023606 0.000000 0.000000 0.000000
# 4 0.000000 0.000000 0.000000 0.036565 0.000000 0.000000
# 5 0.000000 0.000000 0.000000 0.000000 0.023787 0.000000
# 6 0.000000 0.000000 0.000000 0.000000 0.000000 0.030450
#
#
# Mechanical properties :
#
#
# Convention : Reuss Voigt Hill
#
# Bulk Modulus (GPa) = 43.13965 43.79752 43.46858
# Shear Modulus (GPa) = 26.55820 31.58095 29.06957
#
# Velocity S-wave (km/s) = 3.32540 3.62624 3.47907
# Velocity P-wave (km/s) = 5.71898 5.98073 5.85132
#
# Compressibility (1/GPa) = 0.02318053
#
# Stress axis : x y z
#
# Youngs Moduli (GPa) = 45.85165 90.55037 42.36289
#
# Poissons Ratio (x) = -0.14963 0.56242
# Poissons Ratio (y) = -0.07577 0.21246
# Poissons Ratio (z) = 0.60874 0.45413
#
# Static dielectric constant tensor:
#      x y z
#    x 1.913940 0.000000 0.000000 
#    y 0.000000 1.856480 0.000000 
#    z 0.000000 0.000000 2.014410 
# 
# From -- ./inp_files/9215.got.cif
#   From: 2010.05.17/outbox.cif.g08.bks.cpg/sg17_5_cif.got.tgz:9215.got - 2010.06.03 22:34:06.
