data_PCOD9311514
_publ_section_title
;
Structure prediction by ZEFSAII (Michael W. Deem and Ramdas Pophale) SiO2 
 PCOD9311514
Probable space group: P 2 2 21
;
_chemical_formula_sum "Si O2"
_cell_formula_units_Z 16
_cell_length_a 5.355696
_cell_length_b 14.335861
_cell_length_c 9.772524
_cell_angle_alpha 90.000000
_cell_angle_beta 90.000000
_cell_angle_gamma 90.000000
_cell_volume 750.319865
_symmetry_space_group_name_H-M "P 2 2 21"
_symmetry_group_IT_number 17
_symmetry_cell_setting 'orthorhombic'
loop_
_space_group_symop_operation_xyz
x,y,z
-x,-y,1/2+z
x,-y,-z
-x,y,1/2-z
loop_
_atom_site_type_symbol
_atom_site_label
_atom_site_fract_x
_atom_site_fract_y
_atom_site_fract_z
Si Si1 0.927137 0.093062 0.410934
Si Si2 0.584489 0.208326 0.018352
Si Si3 0.500000 0.355864 0.250000
Si Si4 0.185368 0.524185 0.142277
Si Si5 0.500000 0.681438 0.250000
O O1 0.176034 0.143628 0.463498
O O2 0.000000 0.076272 0.250000
O O3 0.677522 0.155957 0.440580
O O4 0.889809 0.000000 0.500000
O O5 0.600937 0.291657 0.128853
O O6 0.604609 0.247765 0.864147
O O7 0.291648 0.427201 0.196287
O O8 0.389192 0.604916 0.140983
O O9 0.000000 0.566677 0.250000
O O10 0.061457 0.500000 0.000000
#
# Coordination Sequence:
#
# PCOD9311514 Si02
#       5
#     4   4   2   4   2
#     4  12  28  50  76 109 143 185 233 301 370 428
#     4  12  27  47  78 104 145 188 244 290 353 439
#     4  11  24  44  65 100 138 194 231 288 346 419
#     4  11  26  42  66  99 149 188 240 297 353 415
#     4  11  28  44  67 108 144 194 247 290 358 411
#
# _framework density 21.324238999999999
#
# number of rings (size 3 to 8) (size 9 to 14) (size 15 to 20)
#    0.000    0.500    5.000    0.750   14.000    0.000 
#    0.000    0.000    0.000    0.000    0.000    0.000 
#    0.000    0.000    0.000    0.000    0.000    0.000 
#
# Total GULP energy -89130.419053 kJ/mol
# GULP energy per Si atom -5570.651191 kJ/mol
# Density = 2.127570 g / cm^3
# Si number density = 21.324239 Si / 1000 Ang^3
#
#
#
# Elastic Constant Matrix: (Units=GPa)
#
#
# Indices 1 2 3 4 5 6 
#
# 1 81.0419 35.1672 4.1485 0.0000 0.0000 0.0000
# 2 35.1672 117.5425 42.5842 0.0000 0.0000 0.0000
# 3 4.1485 42.5842 137.8563 0.0000 0.0000 0.0000
# 4 0.0000 0.0000 0.0000 -31.5066 0.0000 0.0000
# 5 0.0000 0.0000 0.0000 0.0000 13.3338 0.0000
# 6 0.0000 0.0000 0.0000 0.0000 0.0000 394.4199
#
#
#
# Elastic Compliance Matrix: (Units=1/GPa)
#
#
# Indices 1 2 3 4 5 6 
#
# 1 0.014303 -0.004643 0.001004 0.000000 0.000000 0.000000
# 2 -0.004643 0.011087 -0.003285 0.000000 0.000000 0.000000
# 3 0.001004 -0.003285 0.008238 0.000000 0.000000 0.000000
# 4 0.000000 0.000000 0.000000 -0.031739 0.000000 0.000000
# 5 0.000000 0.000000 0.000000 0.000000 0.074997 0.000000
# 6 0.000000 0.000000 0.000000 0.000000 0.000000 0.002535
#
#
# Mechanical properties :
#
#
# Convention : Reuss Voigt Hill
#
# Bulk Modulus (GPa) = 50.55682 55.58229 53.06956
# Shear Modulus (GPa) = 50.06888 92.21880 71.14384
#
# Velocity S-wave (km/s) = 4.85085 6.58330 5.78233
# Velocity P-wave (km/s) = 7.42526 9.16015 8.33795
#
# Compressibility (1/GPa) = 0.01977972
#
# Stress axis : x y z
#
# Youngs Moduli (GPa) = 69.91732 90.19783 121.38177
#
# Poissons Ratio (x) = 0.41877 -0.12184
# Poissons Ratio (y) = 0.32461 0.39874
# Poissons Ratio (z) = -0.07018 0.29630
#
# Static dielectric constant tensor:
#      x y z
#    x 2.342300 0.000000 0.000000 
#    y 0.000000 1.777250 0.000000 
#    z 0.000000 0.000000 1.790130 
# 
# From -- ./inp_files/5741.got.cif
#   From: 2010.05.17/outbox.cif.g08.bks.cpg/sg17_3_cif.got.tgz:5741.got - 2010.06.03 22:34:06.
