data_PCOD9311955
_publ_section_title
;
Structure prediction by ZEFSAII (Michael W. Deem and Ramdas Pophale) SiO2 
 PCOD9311955
Probable space group: P 21 21 2
;
_chemical_formula_sum "Si O2"
_cell_formula_units_Z 30
_cell_length_a 19.778260
_cell_length_b 10.876793
_cell_length_c 5.376735
_cell_angle_alpha 90.000000
_cell_angle_beta 90.000000
_cell_angle_gamma 90.000000
_cell_volume 1156.664955
_symmetry_space_group_name_H-M "P 21 21 2"
_symmetry_group_IT_number 18
_symmetry_cell_setting 'orthorhombic'
loop_
_space_group_symop_operation_xyz
x,y,z
-x,-y,z
1/2+x,1/2-y,-z
1/2-x,1/2+y,-z
loop_
_atom_site_type_symbol
_atom_site_label
_atom_site_fract_x
_atom_site_fract_y
_atom_site_fract_z
Si Si1 0.000000 0.000000 0.835786
Si Si2 0.393279 0.402152 0.780672
Si Si3 0.514468 0.844861 0.784205
Si Si4 0.299132 0.156198 0.346661
Si Si5 0.662695 0.401285 0.436630
Si Si6 0.773997 0.098486 0.876986
Si Si7 0.646140 0.967514 0.848935
Si Si8 0.047510 0.259983 0.705787
O O1 0.991177 0.871359 0.696629
O O2 0.934819 0.019614 0.012906
O O3 0.434729 0.275591 0.761122
O O4 0.386650 0.495638 0.551604
O O5 0.317174 0.373513 0.877920
O O6 0.565342 0.957800 0.835424
O O7 0.478146 0.844423 0.517644
O O8 0.468601 0.811605 0.022619
O O9 0.219961 0.124809 0.360514
O O10 0.300472 0.302568 0.321776
O O11 0.331828 0.096259 0.589522
O O12 0.333792 0.104016 0.100473
O O13 0.701924 0.464541 0.210649
O O14 0.623989 0.280136 0.350934
O O15 0.692737 0.089498 0.877025
#
# Coordination Sequence:
#
# PCOD9311955 Si02
#       8
#     2   4   4   4   4   4   4   4
#     4  10  20  32  50  86 118 156 184 228 306 362
#     4  11  19  33  55  82 126 154 191 237 292 368
#     4  11  23  35  57  85 122 155 193 241 297 365
#     4  11  24  39  62  87 123 164 203 250 303 361
#     4  11  22  38  59  89 123 160 204 250 302 373
#     4  11  23  38  60  87 122 161 202 253 300 362
#     4  11  23  40  59  88 122 163 201 252 304 360
#     4  11  22  35  55  84 119 158 191 240 301 361
#
# _framework density 25.936637000000001
#
# number of rings (size 3 to 8) (size 9 to 14) (size 15 to 20)
#    0.000    1.067    4.000    4.000    3.733    0.533 
#    0.000    0.000    0.000    0.800    0.000    3.733 
#    0.000    0.000    0.000    0.000    0.000    0.000 
#
# Total GULP energy -167932.367201 kJ/mol
# GULP energy per Si atom -5597.745573 kJ/mol
# Density = 2.587760 g / cm^3
# Si number density = 25.936637 Si / 1000 Ang^3
#
#
#
# Elastic Constant Matrix: (Units=GPa)
#
#
# Indices 1 2 3 4 5 6 
#
# 1 79.6301 6.5338 30.0942 0.0000 0.0000 0.0000
# 2 6.5338 73.6781 32.5796 0.0000 0.0000 0.0000
# 3 30.0942 32.5796 144.0930 0.0000 0.0000 0.0000
# 4 0.0000 0.0000 0.0000 37.9057 0.0000 0.0000
# 5 0.0000 0.0000 0.0000 0.0000 35.1521 0.0000
# 6 0.0000 0.0000 0.0000 0.0000 0.0000 29.6965
#
#
#
# Elastic Compliance Matrix: (Units=1/GPa)
#
#
# Indices 1 2 3 4 5 6 
#
# 1 0.013634 0.000056 -0.002860 0.000000 0.000000 0.000000
# 2 0.000056 0.015080 -0.003421 0.000000 0.000000 0.000000
# 3 -0.002860 -0.003421 0.008311 0.000000 0.000000 0.000000
# 4 0.000000 0.000000 0.000000 0.026381 0.000000 0.000000
# 5 0.000000 0.000000 0.000000 0.000000 0.028448 0.000000
# 6 0.000000 0.000000 0.000000 0.000000 0.000000 0.033674
#
#
# Mechanical properties :
#
#
# Convention : Reuss Voigt Hill
#
# Bulk Modulus (GPa) = 40.69332 48.42404 44.55868
# Shear Modulus (GPa) = 34.20631 35.76379 34.98505
#
# Velocity S-wave (km/s) = 3.63553 3.71737 3.67668
# Velocity P-wave (km/s) = 5.77463 6.09391 5.93642
#
# Compressibility (1/GPa) = 0.02457406
#
# Stress axis : x y z
#
# Youngs Moduli (GPa) = 73.34377 66.31086 120.32425
#
# Poissons Ratio (x) = -0.00369 0.34415
# Poissons Ratio (y) = -0.00408 0.41167
# Poissons Ratio (z) = 0.20977 0.22687
#
# Static dielectric constant tensor:
#      x y z
#    x 2.121510 0.000000 0.000000 
#    y 0.000000 2.084190 0.000000 
#    z 0.000000 0.000000 1.939700 
# 
# From -- ./inp_files/1286.got.cif
#   From: 2010.05.17/outbox.cif.g08.bks.cpg/sg18_1_cif.got.tgz:1286.got - 2010.06.03 22:40:56.
