data_PCOD9311706
_publ_section_title
;
Structure prediction by ZEFSAII (Michael W. Deem and Ramdas Pophale) SiO2 
 PCOD9311706
Probable space group: P 21 21 2
;
_chemical_formula_sum "Si O2"
_cell_formula_units_Z 28
_cell_length_a 19.660179
_cell_length_b 8.706200
_cell_length_c 7.011761
_cell_angle_alpha 90.000000
_cell_angle_beta 90.000000
_cell_angle_gamma 90.000000
_cell_volume 1200.171230
_symmetry_space_group_name_H-M "P 21 21 2"
_symmetry_group_IT_number 18
_symmetry_cell_setting 'orthorhombic'
loop_
_space_group_symop_operation_xyz
x,y,z
-x,-y,z
1/2+x,1/2-y,-z
1/2-x,1/2+y,-z
loop_
_atom_site_type_symbol
_atom_site_label
_atom_site_fract_x
_atom_site_fract_y
_atom_site_fract_z
Si Si1 0.193240 0.132121 0.557189
Si Si2 0.670699 0.725544 0.481868
Si Si3 0.624409 0.149115 0.733989
Si Si4 0.149350 0.786461 0.063120
Si Si5 0.500725 0.683638 0.832942
Si Si6 0.549281 0.885993 0.493592
Si Si7 0.748358 0.962023 0.920903
O O1 0.263792 0.170812 0.452827
O O2 0.140934 0.235564 0.441762
O O3 0.178447 0.952319 0.558926
O O4 0.211471 0.155894 0.778624
O O5 0.655580 0.729611 0.707662
O O6 0.606919 0.800021 0.378662
O O7 0.572702 0.238280 0.877079
O O8 0.695374 0.082129 0.818177
O O9 0.585095 0.003701 0.643644
O O10 0.067617 0.781654 0.038707
O O11 0.194420 0.648816 0.975002
O O12 0.191331 0.941500 0.016596
O O13 0.500000 0.500000 0.821584
O O14 0.513637 0.756940 0.622967
O O15 0.500000 0.000000 0.381809
#
# Coordination Sequence:
#
# PCOD9311706 Si02
#       7
#     4   4   4   4   4   4   4
#     4  11  20  34  59  92 124 162 207 274 329 374
#     4  10  18  34  53  87 121 156 213 263 319 384
#     4  11  19  35  61  89 124 171 210 278 319 385
#     4  10  23  38  57  94 130 170 215 270 320 398
#     4  10  20  35  59  90 126 163 223 267 310 388
#     4   9  17  32  52  85 117 151 209 261 309 370
#     4  11  23  38  60  98 131 168 221 271 335 382
#
# _framework density 23.330002
#
# number of rings (size 3 to 8) (size 9 to 14) (size 15 to 20)
#    0.000    1.714    5.714    1.714    4.000    0.000 
#    0.000    0.000    0.000    6.000    7.429    0.000 
#    0.000    0.000    0.000    0.000    0.000    0.000 
#
# Total GULP energy -155963.552136 kJ/mol
# GULP energy per Si atom -5570.126862 kJ/mol
# Density = 2.327690 g / cm^3
# Si number density = 23.330002 Si / 1000 Ang^3
#
#
#
# Elastic Constant Matrix: (Units=GPa)
#
#
# Indices 1 2 3 4 5 6 
#
# 1 127.4567 46.8168 31.7661 0.0000 0.0000 0.0000
# 2 46.8168 116.6661 9.6329 0.0000 0.0000 0.0000
# 3 31.7661 9.6329 51.3778 0.0000 0.0000 0.0000
# 4 0.0000 0.0000 0.0000 19.7460 0.0000 0.0000
# 5 0.0000 0.0000 0.0000 0.0000 28.9346 0.0000
# 6 0.0000 0.0000 0.0000 0.0000 0.0000 45.0775
#
#
#
# Elastic Compliance Matrix: (Units=1/GPa)
#
#
# Indices 1 2 3 4 5 6 
#
# 1 0.010720 -0.003814 -0.005913 0.000000 0.000000 0.000000
# 2 -0.003814 0.010063 0.000471 0.000000 0.000000 0.000000
# 3 -0.005913 0.000471 0.023031 0.000000 0.000000 0.000000
# 4 0.000000 0.000000 0.000000 0.050643 0.000000 0.000000
# 5 0.000000 0.000000 0.000000 0.000000 0.034561 0.000000
# 6 0.000000 0.000000 0.000000 0.000000 0.000000 0.022184
#
#
# Mechanical properties :
#
#
# Convention : Reuss Voigt Hill
#
# Bulk Modulus (GPa) = 39.52046 52.43689 45.97868
# Shear Modulus (GPa) = 28.06649 32.57062 30.31855
#
# Velocity S-wave (km/s) = 3.47222 3.74047 3.60884
# Velocity P-wave (km/s) = 5.74906 6.41715 6.09227
#
# Compressibility (1/GPa) = 0.02530335
#
# Stress axis : x y z
#
# Youngs Moduli (GPa) = 93.28012 99.37429 43.41903
#
# Poissons Ratio (x) = 0.37899 0.25675
# Poissons Ratio (y) = 0.35575 -0.02046
# Poissons Ratio (z) = 0.55159 -0.04683
#
# Static dielectric constant tensor:
#      x y z
#    x 2.075640 0.000000 0.000000 
#    y 0.000000 1.875730 0.000000 
#    z 0.000000 0.000000 1.927830 
# 
# From -- ./inp_files/4653.got.cif
#   From: 2010.05.17/outbox.cif.g08.bks.cpg/sg18_3_cif.got.tgz:4653.got - 2010.06.03 22:40:56.
