data_PCOD9311256
_publ_section_title
;
Structure prediction by ZEFSAII (Michael W. Deem and Ramdas Pophale) SiO2 
 PCOD9311256
Probable space group: P 2 2 21
;
_chemical_formula_sum "Si O2"
_cell_formula_units_Z 12
_cell_length_a 9.283476
_cell_length_b 11.368639
_cell_length_c 4.959223
_cell_angle_alpha 90.000000
_cell_angle_beta 90.000000
_cell_angle_gamma 90.000000
_cell_volume 523.398812
_symmetry_space_group_name_H-M "P 2 2 21"
_symmetry_group_IT_number 17
_symmetry_cell_setting 'orthorhombic'
loop_
_space_group_symop_operation_xyz
x,y,z
-x,-y,1/2+z
x,-y,-z
-x,y,1/2-z
loop_
_atom_site_type_symbol
_atom_site_label
_atom_site_fract_x
_atom_site_fract_y
_atom_site_fract_z
Si Si1 0.660057 0.248452 0.134048
Si Si2 0.500000 0.416606 0.750000
Si Si3 0.607696 0.000000 0.000000
Si Si4 0.105123 0.361090 0.003017
O O1 0.500000 0.234207 0.250000
O O2 0.758108 0.290681 0.379900
O O3 0.629897 0.340588 0.888928
O O4 0.700039 0.118380 0.035122
O O5 0.544146 0.500000 0.500000
O O6 0.500000 0.021268 0.750000
O O7 0.000000 0.344166 0.250000
O O8 0.139882 0.500000 0.000000
O O9 0.000000 0.331379 0.750000
#
# Coordination Sequence:
#
# PCOD9311256 Si02
#       4
#     4   2   2   4
#     4  11  25  44  73 109 151 194 262 316 382 454
#     4  12  26  38  62 114 154 194 240 318 384 444
#     4  10  22  42  68 106 146 196 244 318 392 436
#     4  10  25  45  68 103 152 200 243 306 390 460
#
# _framework density 22.927068999999999
#
# number of rings (size 3 to 8) (size 9 to 14) (size 15 to 20)
#    0.000    1.333    3.333    0.000    9.333    1.333 
#    0.000    0.000    0.000   10.000    0.000    9.333 
#    0.000    0.000    0.000    0.000    0.000    0.000 
#
# Total GULP energy -66954.729925 kJ/mol
# GULP energy per Si atom -5579.560827 kJ/mol
# Density = 2.287489 g / cm^3
# Si number density = 22.927069 Si / 1000 Ang^3
#
#
#
# Elastic Constant Matrix: (Units=GPa)
#
#
# Indices 1 2 3 4 5 6 
#
# 1 118.8648 57.1712 52.3576 0.0000 0.0000 0.0000
# 2 57.1712 154.5675 76.6878 0.0000 0.0000 0.0000
# 3 52.3576 76.6878 220.3733 0.0000 0.0000 0.0000
# 4 0.0000 0.0000 0.0000 35.6524 0.0000 0.0000
# 5 0.0000 0.0000 0.0000 0.0000 44.8292 0.0000
# 6 0.0000 0.0000 0.0000 0.0000 0.0000 10.5083
#
#
#
# Elastic Compliance Matrix: (Units=1/GPa)
#
#
# Indices 1 2 3 4 5 6 
#
# 1 0.010575 -0.003221 -0.001392 0.000000 0.000000 0.000000
# 2 -0.003221 0.008801 -0.002297 0.000000 0.000000 0.000000
# 3 -0.001392 -0.002297 0.005668 0.000000 0.000000 0.000000
# 4 0.000000 0.000000 0.000000 0.028049 0.000000 0.000000
# 5 0.000000 0.000000 0.000000 0.000000 0.022307 0.000000
# 6 0.000000 0.000000 0.000000 0.000000 0.000000 0.095163
#
#
# Mechanical properties :
#
#
# Convention : Reuss Voigt Hill
#
# Bulk Modulus (GPa) = 89.09623 96.24876 92.67250
# Shear Modulus (GPa) = 26.57822 38.70391 32.64106
#
# Velocity S-wave (km/s) = 3.40847 4.11315 3.77728
# Velocity P-wave (km/s) = 7.37803 8.03921 7.71570
#
# Compressibility (1/GPa) = 0.01122382
#
# Stress axis : x y z
#
# Youngs Moduli (GPa) = 94.56124 113.62488 176.43436
#
# Poissons Ratio (x) = 0.36600 0.24553
# Poissons Ratio (y) = 0.30459 0.40533
# Poissons Ratio (z) = 0.13159 0.26103
#
# Static dielectric constant tensor:
#      x y z
#    x 1.813530 0.000000 0.000000 
#    y 0.000000 1.882460 0.000000 
#    z 0.000000 0.000000 1.856750 
# 
# From -- ./inp_files/546.got.cif
#   From: 2010.05.17/outbox.cif.g08.bks.cpg/sg17_1_cif.got.tgz:546.got - 2010.06.03 22:34:06.
