data_PCOD9311878
_publ_section_title
;
Structure prediction by ZEFSAII (Michael W. Deem and Ramdas Pophale) SiO2 
 PCOD9311878
Probable space group: P 21 21 2
;
_chemical_formula_sum "Si O2"
_cell_formula_units_Z 16
_cell_length_a 16.776412
_cell_length_b 5.274813
_cell_length_c 7.887175
_cell_angle_alpha 90.000000
_cell_angle_beta 90.000000
_cell_angle_gamma 90.000000
_cell_volume 697.955330
_symmetry_space_group_name_H-M "P 21 21 2"
_symmetry_group_IT_number 18
_symmetry_cell_setting 'orthorhombic'
loop_
_space_group_symop_operation_xyz
x,y,z
-x,-y,z
1/2+x,1/2-y,-z
1/2-x,1/2+y,-z
loop_
_atom_site_type_symbol
_atom_site_label
_atom_site_fract_x
_atom_site_fract_y
_atom_site_fract_z
Si Si1 0.472071 0.751159 0.509855
Si Si2 0.215413 0.321089 0.430879
Si Si3 0.220964 0.595462 0.075736
Si Si4 0.541397 0.750632 0.891621
O O1 0.500000 0.500000 0.417439
O O2 0.378853 0.765225 0.552222
O O3 0.523059 0.749943 0.687358
O O4 0.500000 0.000000 0.414628
O O5 0.241865 0.547474 0.558081
O O6 0.235231 0.461842 0.255684
O O7 0.134136 0.723414 0.077331
O O8 0.224215 0.342174 0.958368
O O9 0.500000 0.500000 0.958732
O O10 0.500000 0.000000 0.960194
#
# Coordination Sequence:
#
# PCOD9311878 Si02
#       4
#     4   4   4   4
#     4  10  19  36  67  95 122 177 249 265 305 411
#     4  12  25  42  68 108 145 179 229 296 355 408
#     4  12  25  42  68 108 145 179 229 296 355 408
#     4  10  19  36  67  95 122 177 249 265 305 411
#
# _framework density 22.924099999999999
#
# number of rings (size 3 to 8) (size 9 to 14) (size 15 to 20)
#    0.000    1.000    5.000    4.500    7.000    0.000 
#    0.000    0.000    0.000   22.500    0.000    0.000 
#    0.000    0.000    0.000    0.000    0.000    0.000 
#
# Total GULP energy -89326.772112 kJ/mol
# GULP energy per Si atom -5582.923257 kJ/mol
# Density = 2.287192 g / cm^3
# Si number density = 22.924100 Si / 1000 Ang^3
#
#
#
# Elastic Constant Matrix: (Units=GPa)
#
#
# Indices 1 2 3 4 5 6 
#
# 1 82.0025 33.0983 6.8577 0.0000 0.0000 0.0000
# 2 33.0983 212.9456 15.5045 0.0000 0.0000 0.0000
# 3 6.8577 15.5045 38.1789 0.0000 0.0000 0.0000
# 4 0.0000 0.0000 0.0000 8.8230 0.0000 0.0000
# 5 0.0000 0.0000 0.0000 0.0000 50.2329 0.0000
# 6 0.0000 0.0000 0.0000 0.0000 0.0000 53.3995
#
#
#
# Elastic Compliance Matrix: (Units=1/GPa)
#
#
# Indices 1 2 3 4 5 6 
#
# 1 0.013102 -0.001922 -0.001573 0.000000 0.000000 0.000000
# 2 -0.001922 0.005121 -0.001734 0.000000 0.000000 0.000000
# 3 -0.001573 -0.001734 0.027179 0.000000 0.000000 0.000000
# 4 0.000000 0.000000 0.000000 0.113340 0.000000 0.000000
# 5 0.000000 0.000000 0.000000 0.000000 0.019907 0.000000
# 6 0.000000 0.000000 0.000000 0.000000 0.000000 0.018727
#
#
# Mechanical properties :
#
#
# Convention : Reuss Voigt Hill
#
# Bulk Modulus (GPa) = 28.61730 49.33869 38.97799
# Shear Modulus (GPa) = 22.78085 41.00219 31.89152
#
# Velocity S-wave (km/s) = 3.15580 4.23378 3.73390
# Velocity P-wave (km/s) = 5.07832 6.74309 5.96903
#
# Compressibility (1/GPa) = 0.03494390
#
# Stress axis : x y z
#
# Youngs Moduli (GPa) = 76.32408 195.27252 36.79264
#
# Poissons Ratio (x) = 0.37530 0.05787
# Poissons Ratio (y) = 0.14669 0.06382
# Poissons Ratio (z) = 0.12005 0.33869
#
# Static dielectric constant tensor:
#      x y z
#    x 1.796800 0.000000 0.000000 
#    y 0.000000 1.872990 0.000000 
#    z 0.000000 0.000000 1.983980 
# 
# From -- ./inp_files/461.got.cif
#   From: 2010.05.17/outbox.cif.g08.bks.cpg/sg18_1_cif.got.tgz:461.got - 2010.06.03 22:40:56.
