data_PCOD9311232
_publ_section_title
;
Structure prediction by ZEFSAII (Michael W. Deem and Ramdas Pophale) SiO2 
 PCOD9311232
Probable space group: P 2 2 21
;
_chemical_formula_sum "Si O2"
_cell_formula_units_Z 14
_cell_length_a 14.731483
_cell_length_b 9.319516
_cell_length_c 4.965867
_cell_angle_alpha 90.000000
_cell_angle_beta 90.000000
_cell_angle_gamma 90.000000
_cell_volume 681.765328
_symmetry_space_group_name_H-M "P 2 2 21"
_symmetry_group_IT_number 17
_symmetry_cell_setting 'orthorhombic'
loop_
_space_group_symop_operation_xyz
x,y,z
-x,-y,1/2+z
x,-y,-z
-x,y,1/2-z
loop_
_atom_site_type_symbol
_atom_site_label
_atom_site_fract_x
_atom_site_fract_y
_atom_site_fract_z
Si Si1 0.941936 0.500000 0.000000
Si Si2 0.692241 0.257260 0.780092
Si Si3 0.223716 0.000000 0.000000
Si Si4 0.500000 0.604632 0.250000
Si Si5 0.803820 0.708568 0.706880
O O1 0.881252 0.382207 0.152725
O O2 0.000000 0.563670 0.250000
O O3 0.590469 0.301646 0.719231
O O4 0.763236 0.339600 0.581076
O O5 0.713971 0.092907 0.701539
O O6 0.720124 0.288379 0.084432
O O7 0.169203 0.124905 0.153052
O O8 0.487044 0.500000 0.500000
#
# Coordination Sequence:
#
# PCOD9311232 Si02
#       5
#     2   4   2   2   4
#     4  12  26  44  72 106 134 172 228 294 364 432
#     4  10  22  41  65  97 131 188 224 279 328 405
#     4   8  22  42  70  96 126 192 226 274 338 416
#     4  12  26  40  60 102 146 176 238 280 334 388
#     4  10  22  42  71  94 136 174 229 273 358 407
#
# _framework density 20.534924
#
# number of rings (size 3 to 8) (size 9 to 14) (size 15 to 20)
#    1.714    0.000    0.000    4.286    6.000    0.000 
#    5.143    0.000    6.286    0.000    0.000    0.000 
#    0.000    0.000    0.000    0.000    0.000    0.000 
#
# Total GULP energy -78037.209912 kJ/mol
# GULP energy per Si atom -5574.086422 kJ/mol
# Density = 2.048819 g / cm^3
# Si number density = 20.534924 Si / 1000 Ang^3
#
#
#
# Elastic Constant Matrix: (Units=GPa)
#
#
# Indices 1 2 3 4 5 6 
#
# 1 83.1176 46.5310 18.6780 0.0000 0.0000 0.0000
# 2 46.5310 110.4833 21.5120 0.0000 0.0000 0.0000
# 3 18.6780 21.5120 106.8101 0.0000 0.0000 0.0000
# 4 0.0000 0.0000 0.0000 35.2245 0.0000 0.0000
# 5 0.0000 0.0000 0.0000 0.0000 29.0385 0.0000
# 6 0.0000 0.0000 0.0000 0.0000 0.0000 -7.2908
#
#
#
# Elastic Compliance Matrix: (Units=1/GPa)
#
#
# Indices 1 2 3 4 5 6 
#
# 1 0.015970 -0.006434 -0.001497 0.000000 0.000000 0.000000
# 2 -0.006434 0.012013 -0.001294 0.000000 0.000000 0.000000
# 3 -0.001497 -0.001294 0.009885 0.000000 0.000000 0.000000
# 4 0.000000 0.000000 0.000000 0.028389 0.000000 0.000000
# 5 0.000000 0.000000 0.000000 0.000000 0.034437 0.000000
# 6 0.000000 0.000000 0.000000 0.000000 0.000000 -0.137159
#
#
# Mechanical properties :
#
#
# Convention : Reuss Voigt Hill
#
# Bulk Modulus (GPa) = 51.50189 52.65032 52.07611
# Shear Modulus (GPa) = -433.20017 25.64044 -203.77987
#
# Velocity S-wave (km/s) = -14.54014 3.53742 -9.97252
# Velocity P-wave (km/s) = 16.02352 6.50996 10.35310
#
# Compressibility (1/GPa) = 0.01941676
#
# Stress axis : x y z
#
# Youngs Moduli (GPa) = 62.61926 83.24310 101.16520
#
# Poissons Ratio (x) = 0.53561 0.15142
# Poissons Ratio (y) = 0.40291 0.13094
# Poissons Ratio (z) = 0.09372 0.10774
#
# Static dielectric constant tensor:
#      x y z
#    x 1.718880 0.000000 0.000000 
#    y 0.000000 1.768970 0.000000 
#    z 0.000000 0.000000 1.743000 
# 
# From -- ./inp_files/1930.got.cif
#   From: 2010.05.17/outbox.cif.g08.bks.cpg/sg17_1_cif.got.tgz:1930.got - 2010.06.03 22:34:06.
