data_PCOD9311056
_publ_section_title
;
Structure prediction by ZEFSAII (Michael W. Deem and Ramdas Pophale) SiO2 
 PCOD9311056
Probable space group: P 2 2 21
;
_chemical_formula_sum "Si O2"
_cell_formula_units_Z 30
_cell_length_a 14.376420
_cell_length_b 13.232047
_cell_length_c 7.647084
_cell_angle_alpha 90.000000
_cell_angle_beta 90.000000
_cell_angle_gamma 90.000000
_cell_volume 1454.700699
_symmetry_space_group_name_H-M "P 2 2 21"
_symmetry_group_IT_number 17
_symmetry_cell_setting 'orthorhombic'
loop_
_space_group_symop_operation_xyz
x,y,z
-x,-y,1/2+z
x,-y,-z
-x,y,1/2-z
loop_
_atom_site_type_symbol
_atom_site_label
_atom_site_fract_x
_atom_site_fract_y
_atom_site_fract_z
Si Si1 0.101338 0.119299 0.471824
Si Si2 0.817625 0.754984 0.701761
Si Si3 0.175682 0.635115 0.166485
Si Si4 0.895731 0.560389 0.819226
Si Si5 0.461845 0.111442 0.550500
Si Si6 0.285709 0.785484 0.348549
Si Si7 0.334027 0.881064 0.973679
Si Si8 0.000000 0.236065 0.750000
O O1 0.109550 0.161489 0.274279
O O2 0.197928 0.160042 0.560501
O O3 0.016306 0.167656 0.580238
O O4 0.098271 0.000000 0.500000
O O5 0.823136 0.689146 0.523032
O O6 0.835695 0.662507 0.836410
O O7 0.725730 0.822173 0.670704
O O8 0.155519 0.517555 0.188897
O O9 0.261056 0.672176 0.287156
O O10 0.086457 0.690518 0.245305
O O11 0.000000 0.585316 0.750000
O O12 0.905247 0.500000 0.000000
O O13 0.500000 0.105621 0.750000
O O14 0.379667 0.192651 0.545045
O O15 0.555842 0.132575 0.443201
O O16 0.425338 0.000000 0.500000
O O17 0.303681 0.837305 0.160884
O O18 0.316608 0.000000 0.000000
#
# Coordination Sequence:
#
# PCOD9311056 Si02
#       8
#     4   4   4   4   4   4   4   2
#     4  11  23  37  55  80 117 160 204 252 302 371
#     4  11  24  37  60  88 115 159 206 249 313 365
#     4  10  21  39  59  84 117 153 198 256 308 362
#     4  12  24  40  64  90 118 154 205 267 312 362
#     4   9  17  30  53  85 120 158 198 249 303 367
#     4   9  18  33  54  81 117 155 194 242 308 368
#     4   9  18  35  56  85 123 158 198 247 301 371
#     4  10  22  38  52  76 110 152 196 242 302 360
#
# _framework density 20.622800000000002
#
# number of rings (size 3 to 8) (size 9 to 14) (size 15 to 20)
#    0.000    1.867    0.667    4.000    1.867    3.200 
#    0.000    1.333    0.000    0.000    0.000   28.000 
#    0.000    0.000    0.000    0.000    0.000    0.000 
#
# Total GULP energy -167220.260882 kJ/mol
# GULP energy per Si atom -5574.008696 kJ/mol
# Density = 2.057586 g / cm^3
# Si number density = 20.622800 Si / 1000 Ang^3
#
#
#
# Elastic Constant Matrix: (Units=GPa)
#
#
# Indices 1 2 3 4 5 6 
#
# 1 90.5907 54.2702 24.3845 0.0000 0.0000 0.0000
# 2 54.2702 140.3659 25.0735 0.0000 0.0000 0.0000
# 3 24.3845 25.0735 80.9649 0.0000 0.0000 0.0000
# 4 0.0000 0.0000 0.0000 24.7057 0.0000 0.0000
# 5 0.0000 0.0000 0.0000 0.0000 31.9677 0.0000
# 6 0.0000 0.0000 0.0000 0.0000 0.0000 -2.5791
#
#
#
# Elastic Compliance Matrix: (Units=1/GPa)
#
#
# Indices 1 2 3 4 5 6 
#
# 1 0.014973 -0.005275 -0.002876 0.000000 0.000000 0.000000
# 2 -0.005275 0.009400 -0.001322 0.000000 0.000000 0.000000
# 3 -0.002876 -0.001322 0.013627 0.000000 0.000000 0.000000
# 4 0.000000 0.000000 0.000000 0.040477 0.000000 0.000000
# 5 0.000000 0.000000 0.000000 0.000000 0.031282 0.000000
# 6 0.000000 0.000000 0.000000 0.000000 0.000000 -0.387734
#
#
# Mechanical properties :
#
#
# Convention : Reuss Voigt Hill
#
# Bulk Modulus (GPa) = 52.48541 57.70866 55.09704
# Shear Modulus (GPa) = -19.78800 24.69840 2.45520
#
# Velocity S-wave (km/s) = -3.10097 3.46443 1.09230
# Velocity P-wave (km/s) = 3.56147 6.63677 5.32592
#
# Compressibility (1/GPa) = 0.01905291
#
# Stress axis : x y z
#
# Youngs Moduli (GPa) = 66.78649 106.38203 73.38580
#
# Poissons Ratio (x) = 0.56121 0.21104
# Poissons Ratio (y) = 0.35233 0.09703
# Poissons Ratio (z) = 0.19206 0.14066
#
# Static dielectric constant tensor:
#      x y z
#    x 1.757280 0.000000 0.000000 
#    y 0.000000 1.724740 0.000000 
#    z 0.000000 0.000000 1.891250 
# 
# From -- ./inp_files/5229.got.cif
#   From: 2010.05.17/outbox.cif.g08.bks.cpg/sg17_3_cif.got.tgz:5229.got - 2010.06.03 22:34:06.
