data_PCOD9311249
_publ_section_title
;
Structure prediction by ZEFSAII (Michael W. Deem and Ramdas Pophale) SiO2 
 PCOD9311249
Probable space group: P 2 2 21
;
_chemical_formula_sum "Si O2"
_cell_formula_units_Z 24
_cell_length_a 7.672192
_cell_length_b 10.295944
_cell_length_c 15.201638
_cell_angle_alpha 90.000000
_cell_angle_beta 90.000000
_cell_angle_gamma 90.000000
_cell_volume 1200.814769
_symmetry_space_group_name_H-M "P 2 2 21"
_symmetry_group_IT_number 17
_symmetry_cell_setting 'orthorhombic'
loop_
_space_group_symop_operation_xyz
x,y,z
-x,-y,1/2+z
x,-y,-z
-x,y,1/2-z
loop_
_atom_site_type_symbol
_atom_site_label
_atom_site_fract_x
_atom_site_fract_y
_atom_site_fract_z
Si Si1 0.500000 0.417151 0.750000
Si Si2 0.234456 0.134766 0.051792
Si Si3 0.478204 0.723260 0.067237
Si Si4 0.900944 0.140985 0.167849
Si Si5 0.840913 0.436443 0.189683
Si Si6 0.544309 0.002274 0.851734
Si Si7 0.736334 0.500000 0.000000
O O1 0.551111 0.335444 0.663855
O O2 0.336780 0.503480 0.723960
O O3 0.392974 0.097403 0.117672
O O4 0.052351 0.165244 0.097370
O O5 0.306366 0.250101 0.990537
O O6 0.206343 0.000000 0.000000
O O7 0.543641 0.869602 0.087368
O O8 0.612069 0.625841 0.018402
O O9 0.834108 0.281467 0.197852
O O10 0.734083 0.060328 0.139854
O O11 0.000000 0.074904 0.250000
O O12 0.000000 0.483217 0.250000
O O13 0.848946 0.474840 0.087150
O O14 0.500000 0.035066 0.750000
#
# Coordination Sequence:
#
# PCOD9311249 Si02
#       7
#     2   4   4   4   4   4   2
#     4  10  22  44  64  92 128 178 224 270 322 378
#     4  10  23  40  63  99 127 167 215 267 333 390
#     4  10  22  42  69  93 130 175 219 270 325 389
#     4  11  23  37  62  96 128 166 211 270 331 392
#     4  10  24  40  63  93 128 171 221 271 326 391
#     4  11  21  40  68  95 130 167 212 270 331 396
#     4  10  22  42  64  94 128 178 228 270 328 384
#
# _framework density 19.986428
#
# number of rings (size 3 to 8) (size 9 to 14) (size 15 to 20)
#    0.000    1.667    2.500    1.000    1.167   10.000 
#    0.000    9.167    0.000    0.000    0.000    0.000 
#    0.000    0.000    0.000    0.000    0.000    0.000 
#
# Total GULP energy -134014.918352 kJ/mol
# GULP energy per Si atom -5583.954931 kJ/mol
# Density = 1.994094 g / cm^3
# Si number density = 19.986428 Si / 1000 Ang^3
#
#
#
# Elastic Constant Matrix: (Units=GPa)
#
#
# Indices 1 2 3 4 5 6 
#
# 1 129.1247 49.9429 56.9282 0.0000 0.0000 0.0000
# 2 49.9429 73.5256 23.7441 0.0000 0.0000 0.0000
# 3 56.9282 23.7441 112.5381 0.0000 0.0000 0.0000
# 4 0.0000 0.0000 0.0000 14.8992 0.0000 0.0000
# 5 0.0000 0.0000 0.0000 0.0000 39.7268 0.0000
# 6 0.0000 0.0000 0.0000 0.0000 0.0000 21.0712
#
#
#
# Elastic Compliance Matrix: (Units=1/GPa)
#
#
# Indices 1 2 3 4 5 6 
#
# 1 0.012606 -0.006979 -0.004904 0.000000 0.000000 0.000000
# 2 -0.006979 0.018459 -0.000364 0.000000 0.000000 0.000000
# 3 -0.004904 -0.000364 0.011444 0.000000 0.000000 0.000000
# 4 0.000000 0.000000 0.000000 0.067118 0.000000 0.000000
# 5 0.000000 0.000000 0.000000 0.000000 0.025172 0.000000
# 6 0.000000 0.000000 0.000000 0.000000 0.000000 0.047458
#
#
# Mechanical properties :
#
#
# Convention : Reuss Voigt Hill
#
# Bulk Modulus (GPa) = 55.51423 64.04653 59.78038
# Shear Modulus (GPa) = 23.50114 27.44433 25.47274
#
# Velocity S-wave (km/s) = 3.43279 3.70962 3.57389
# Velocity P-wave (km/s) = 6.59912 7.10373 6.85607
#
# Compressibility (1/GPa) = 0.01801340
#
# Stress axis : x y z
#
# Youngs Moduli (GPa) = 79.32730 54.17455 87.38484
#
# Poissons Ratio (x) = 0.37808 0.42857
# Poissons Ratio (y) = 0.55362 0.03183
# Poissons Ratio (z) = 0.38905 0.01973
#
# Static dielectric constant tensor:
#      x y z
#    x 1.685590 0.000000 0.000000 
#    y 0.000000 1.682470 0.000000 
#    z 0.000000 0.000000 1.784210 
# 
# From -- ./inp_files/9049.got.cif
#   From: 2010.05.17/outbox.cif.g08.bks.cpg/sg17_5_cif.got.tgz:9049.got - 2010.06.03 22:34:06.
