data_PCOD9311644
_publ_section_title
;
Structure prediction by ZEFSAII (Michael W. Deem and Ramdas Pophale) SiO2 
 PCOD9311644
Probable space group: P 21 21 2
;
_chemical_formula_sum "Si O2"
_cell_formula_units_Z 32
_cell_length_a 24.968327
_cell_length_b 5.307790
_cell_length_c 9.355844
_cell_angle_alpha 90.000000
_cell_angle_beta 90.000000
_cell_angle_gamma 90.000000
_cell_volume 1239.898536
_symmetry_space_group_name_H-M "P 21 21 2"
_symmetry_group_IT_number 18
_symmetry_cell_setting 'orthorhombic'
loop_
_space_group_symop_operation_xyz
x,y,z
-x,-y,z
1/2+x,1/2-y,-z
1/2-x,1/2+y,-z
loop_
_atom_site_type_symbol
_atom_site_label
_atom_site_fract_x
_atom_site_fract_y
_atom_site_fract_z
Si Si1 0.783064 0.229040 0.533507
Si Si2 0.183182 0.666686 0.249427
Si Si3 0.227073 0.289940 0.927971
Si Si4 0.621093 0.752510 0.297050
Si Si5 0.641119 0.332387 0.887868
Si Si6 0.020799 0.751461 0.860770
Si Si7 0.935343 0.753286 0.597924
Si Si8 0.033375 0.252228 0.265625
O O1 0.742439 0.461009 0.508778
O O2 0.828506 0.285357 0.413836
O O3 0.815065 0.237971 0.683631
O O4 0.245575 0.736394 0.222257
O O5 0.173808 0.378060 0.206201
O O6 0.153147 0.879588 0.156538
O O7 0.243258 0.570847 0.977068
O O8 0.164845 0.230891 0.955265
O O9 0.584938 0.741281 0.152998
O O10 0.596764 0.510304 0.377137
O O11 0.600956 0.018164 0.357836
O O12 0.581979 0.267202 0.844197
O O13 0.986883 0.752061 0.707088
O O14 0.000000 0.500000 0.930159
O O15 0.000000 0.000000 0.934384
O O16 0.948706 0.731247 0.432091
O O17 0.000000 0.500000 0.239785
O O18 0.000000 0.000000 0.257260
#
# Coordination Sequence:
#
# PCOD9311644 Si02
#       8
#     4   4   4   4   4   4   4   4
#     4  12  24  35  46  67  99 135 171 205 246 304
#     4  10  19  35  54  71  95 132 173 217 255 288
#     4   8  16  30  52  76  94 116 162 215 248 283
#     4  10  18  30  44  58  84 120 155 193 232 270
#     4  10  19  33  52  75 100 133 168 201 249 299
#     4   8  14  23  38  57  76  98 138 178 212 263
#     4  10  17  28  44  64  85 117 158 189 223 283
#     4  12  21  28  40  66 105 137 155 184 227 296
#
# _framework density 25.808567
#
# number of rings (size 3 to 8) (size 9 to 14) (size 15 to 20)
#    0.000    2.000    0.000    6.750    0.000    0.000 
#    0.000    0.000    0.000    0.000    0.000    0.000 
#    0.000   18.000    0.000    0.000    0.000    0.000 
#
# Total GULP energy -178917.525800 kJ/mol
# GULP energy per Si atom -5591.172681 kJ/mol
# Density = 2.574983 g / cm^3
# Si number density = 25.808567 Si / 1000 Ang^3
#
#
#
# Elastic Constant Matrix: (Units=GPa)
#
#
# Indices 1 2 3 4 5 6 
#
# 1 75.3779 40.9903 16.5239 0.0000 0.0000 0.0000
# 2 40.9903 187.0721 8.9057 0.0000 0.0000 0.0000
# 3 16.5239 8.9057 71.2184 0.0000 0.0000 0.0000
# 4 0.0000 0.0000 0.0000 13.5699 0.0000 0.0000
# 5 0.0000 0.0000 0.0000 0.0000 23.3910 0.0000
# 6 0.0000 0.0000 0.0000 0.0000 0.0000 50.9916
#
#
#
# Elastic Compliance Matrix: (Units=1/GPa)
#
#
# Indices 1 2 3 4 5 6 
#
# 1 0.015774 -0.003302 -0.003247 0.000000 0.000000 0.000000
# 2 -0.003302 0.006069 0.000007 0.000000 0.000000 0.000000
# 3 -0.003247 0.000007 0.014794 0.000000 0.000000 0.000000
# 4 0.000000 0.000000 0.000000 0.073693 0.000000 0.000000
# 5 0.000000 0.000000 0.000000 0.000000 0.042752 0.000000
# 6 0.000000 0.000000 0.000000 0.000000 0.000000 0.019611
#
#
# Mechanical properties :
#
#
# Convention : Reuss Voigt Hill
#
# Bulk Modulus (GPa) = 42.45692 51.83423 47.14557
# Shear Modulus (GPa) = 25.82308 35.40706 30.61507
#
# Velocity S-wave (km/s) = 3.16660 3.70795 3.44792
# Velocity P-wave (km/s) = 5.46408 6.20158 5.84448
#
# Compressibility (1/GPa) = 0.02355329
#
# Stress axis : x y z
#
# Youngs Moduli (GPa) = 63.39667 164.78152 67.59612
#
# Poissons Ratio (x) = 0.54406 0.21948
# Poissons Ratio (y) = 0.20932 -0.00049
# Poissons Ratio (z) = 0.20584 -0.00118
#
# Static dielectric constant tensor:
#      x y z
#    x 2.087060 0.000000 0.000000 
#    y 0.000000 1.998580 0.000000 
#    z 0.000000 0.000000 2.009100 
# 
# From -- ./inp_files/6324.got.cif
#   From: 2010.05.17/outbox.cif.g08.bks.cpg/sg18_4_cif.got.tgz:6324.got - 2010.06.03 22:40:56.
