data_PCOD9311908
_publ_section_title
;
Structure prediction by ZEFSAII (Michael W. Deem and Ramdas Pophale) SiO2 
 PCOD9311908
Probable space group: P 21 21 2
;
_chemical_formula_sum "Si O2"
_cell_formula_units_Z 24
_cell_length_a 12.534999
_cell_length_b 5.702035
_cell_length_c 15.064256
_cell_angle_alpha 90.000000
_cell_angle_beta 90.000000
_cell_angle_gamma 90.000000
_cell_volume 1076.717743
_symmetry_space_group_name_H-M "P 21 21 2"
_symmetry_group_IT_number 18
_symmetry_cell_setting 'orthorhombic'
loop_
_space_group_symop_operation_xyz
x,y,z
-x,-y,z
1/2+x,1/2-y,-z
1/2-x,1/2+y,-z
loop_
_atom_site_type_symbol
_atom_site_label
_atom_site_fract_x
_atom_site_fract_y
_atom_site_fract_z
Si Si1 0.706026 0.627253 0.795739
Si Si2 0.804457 0.896163 0.386886
Si Si3 0.908663 0.313660 0.847944
Si Si4 0.157742 0.991098 0.701153
Si Si5 0.686716 0.604563 0.986960
Si Si6 0.600185 0.173024 0.452935
O O1 0.659494 0.532464 0.702529
O O2 0.799812 0.452526 0.826902
O O3 0.640037 0.635195 0.887043
O O4 0.768294 0.863597 0.769782
O O5 0.739691 0.671050 0.352622
O O6 0.893773 0.816484 0.455670
O O7 0.714281 0.042787 0.439955
O O8 0.920021 0.168313 0.758603
O O9 0.000000 0.500000 0.861724
O O10 0.894421 0.153288 0.933520
O O11 0.100889 0.158674 0.631619
O O12 0.734952 0.339741 0.003189
O O13 0.500000 0.000000 0.451634
#
# Coordination Sequence:
#
# PCOD9311908 Si02
#       6
#     4   4   4   4   4   4
#     4   9  20  35  62  89 125 174 219 271 339 413
#     4  10  21  39  62  96 129 174 228 290 349 423
#     4  10  21  35  60  98 133 166 214 281 349 415
#     4  10  20  39  59  89 135 168 216 287 342 420
#     4  10  19  38  61  96 126 179 221 265 341 419
#     4  11  23  39  64  99 132 179 230 290 360 425
#
# _framework density 22.289964999999999
#
# number of rings (size 3 to 8) (size 9 to 14) (size 15 to 20)
#    0.000    2.000    3.333    0.000    0.000    8.667 
#    0.000    0.000    0.000    1.000   17.333    1.167 
#    0.000    0.000    0.000    0.000    0.000    0.000 
#
# Total GULP energy -133981.930907 kJ/mol
# GULP energy per Si atom -5582.580454 kJ/mol
# Density = 2.223923 g / cm^3
# Si number density = 22.289965 Si / 1000 Ang^3
#
#
#
# Elastic Constant Matrix: (Units=GPa)
#
#
# Indices 1 2 3 4 5 6 
#
# 1 28.9251 15.8033 24.1847 0.0000 0.0000 0.0000
# 2 15.8033 73.1366 13.1001 0.0000 0.0000 0.0000
# 3 24.1847 13.1001 145.7343 0.0000 0.0000 0.0000
# 4 0.0000 0.0000 0.0000 28.6518 0.0000 0.0000
# 5 0.0000 0.0000 0.0000 0.0000 5.8714 0.0000
# 6 0.0000 0.0000 0.0000 0.0000 0.0000 34.2157
#
#
#
# Elastic Compliance Matrix: (Units=1/GPa)
#
#
# Indices 1 2 3 4 5 6 
#
# 1 0.044782 -0.008482 -0.006669 0.000000 0.000000 0.000000
# 2 -0.008482 0.015503 0.000014 0.000000 0.000000 0.000000
# 3 -0.006669 0.000014 0.007967 0.000000 0.000000 0.000000
# 4 0.000000 0.000000 0.000000 0.034902 0.000000 0.000000
# 5 0.000000 0.000000 0.000000 0.000000 0.170318 0.000000
# 6 0.000000 0.000000 0.000000 0.000000 0.000000 0.029226
#
#
# Mechanical properties :
#
#
# Convention : Reuss Voigt Hill
#
# Bulk Modulus (GPa) = 26.33063 39.33026 32.83044
# Shear Modulus (GPa) = 14.46619 26.72830 20.59724
#
# Velocity S-wave (km/s) = 2.55031 3.46659 3.04313
# Velocity P-wave (km/s) = 4.52886 5.80569 5.20656
#
# Compressibility (1/GPa) = 0.03797859
#
# Stress axis : x y z
#
# Youngs Moduli (GPa) = 22.33022 64.50228 125.51298
#
# Poissons Ratio (x) = 0.54711 0.83707
# Poissons Ratio (y) = 0.18940 -0.00176
# Poissons Ratio (z) = 0.14893 -0.00090
#
# Static dielectric constant tensor:
#      x y z
#    x 1.884040 0.000000 0.000000 
#    y 0.000000 1.916030 0.000000 
#    z 0.000000 0.000000 1.876020 
# 
# From -- ./inp_files/6972.got.cif
#   From: 2010.05.17/outbox.cif.g08.bks.cpg/sg18_4_cif.got.tgz:6972.got - 2010.06.03 22:40:56.
