data_PCOD9311165
_publ_section_title
;
Structure prediction by ZEFSAII (Michael W. Deem and Ramdas Pophale) SiO2 
 PCOD9311165
Probable space group: P 2 2 21
;
_chemical_formula_sum "Si O2"
_cell_formula_units_Z 22
_cell_length_a 5.138206
_cell_length_b 12.903881
_cell_length_c 14.736550
_cell_angle_alpha 90.000000
_cell_angle_beta 90.000000
_cell_angle_gamma 90.000000
_cell_volume 977.074509
_symmetry_space_group_name_H-M "P 2 2 21"
_symmetry_group_IT_number 17
_symmetry_cell_setting 'orthorhombic'
loop_
_space_group_symop_operation_xyz
x,y,z
-x,-y,1/2+z
x,-y,-z
-x,y,1/2-z
loop_
_atom_site_type_symbol
_atom_site_label
_atom_site_fract_x
_atom_site_fract_y
_atom_site_fract_z
Si Si1 0.500000 0.932950 0.250000
Si Si2 0.729788 0.638915 0.585026
Si Si3 0.625092 0.594499 0.380943
Si Si4 0.739127 0.214146 0.897881
Si Si5 0.000000 0.071615 0.250000
Si Si6 0.779708 0.767455 0.894848
Si Si7 0.000000 0.305444 0.750000
O O1 0.435021 0.862951 0.338377
O O2 0.248206 0.001446 0.225109
O O3 0.764468 0.626665 0.475957
O O4 0.611840 0.529187 0.615741
O O5 0.515050 0.724825 0.612959
O O6 0.013775 0.673445 0.618027
O O7 0.375214 0.668420 0.390771
O O8 0.774713 0.622094 0.289061
O O9 0.986544 0.226928 0.834511
O O10 0.790895 0.190659 0.001558
O O11 0.119705 0.144639 0.328055
#
# Coordination Sequence:
#
# PCOD9311165 Si02
#       7
#     2   4   4   4   2   4   2
#     4  12  26  48  76 104 138 180 244 324 366 420
#     4  10  23  41  70 100 146 190 228 273 348 425
#     4  10  22  37  65 106 145 181 227 281 341 435
#     4  11  24  43  71 105 142 181 233 299 365 416
#     4  12  29  51  72 102 140 184 255 303 364 440
#     4  11  25  49  71  99 142 194 233 291 352 428
#     4  12  19  39  64 102 148 180 229 291 340 416
#
# _framework density 22.516193000000001
#
# number of rings (size 3 to 8) (size 9 to 14) (size 15 to 20)
#    0.000    1.091    3.636    1.636    2.545    2.909 
#    3.273    3.636    0.000    0.000    0.000    0.000 
#    0.000    0.000    0.000    0.000    0.000    0.000 
#
# Total GULP energy -122702.536998 kJ/mol
# GULP energy per Si atom -5577.388045 kJ/mol
# Density = 2.246495 g / cm^3
# Si number density = 22.516193 Si / 1000 Ang^3
#
#
#
# Elastic Constant Matrix: (Units=GPa)
#
#
# Indices 1 2 3 4 5 6 
#
# 1 85.9669 34.7414 29.0377 0.0000 0.0000 0.0000
# 2 34.7414 101.7747 55.0176 0.0000 0.0000 0.0000
# 3 29.0377 55.0176 136.3615 0.0000 0.0000 0.0000
# 4 0.0000 0.0000 0.0000 18.5298 0.0000 0.0000
# 5 0.0000 0.0000 0.0000 0.0000 29.7922 0.0000
# 6 0.0000 0.0000 0.0000 0.0000 0.0000 13.5244
#
#
#
# Elastic Compliance Matrix: (Units=1/GPa)
#
#
# Indices 1 2 3 4 5 6 
#
# 1 0.013676 -0.003957 -0.001316 0.000000 0.000000 0.000000
# 2 -0.003957 0.013711 -0.004689 0.000000 0.000000 0.000000
# 3 -0.001316 -0.004689 0.009506 0.000000 0.000000 0.000000
# 4 0.000000 0.000000 0.000000 0.053967 0.000000 0.000000
# 5 0.000000 0.000000 0.000000 0.000000 0.033566 0.000000
# 6 0.000000 0.000000 0.000000 0.000000 0.000000 0.073940
#
#
# Mechanical properties :
#
#
# Convention : Reuss Voigt Hill
#
# Bulk Modulus (GPa) = 58.93267 62.41072 60.67169
# Shear Modulus (GPa) = 22.32668 26.05638 24.19153
#
# Velocity S-wave (km/s) = 3.15236 3.40550 3.28137
# Velocity P-wave (km/s) = 6.28332 6.57583 6.43124
#
# Compressibility (1/GPa) = 0.01696852
#
# Stress axis : x y z
#
# Youngs Moduli (GPa) = 73.12101 72.93162 105.20026
#
# Poissons Ratio (x) = 0.28860 0.13841
# Poissons Ratio (y) = 0.28935 0.49334
# Poissons Ratio (z) = 0.09620 0.34201
#
# Static dielectric constant tensor:
#      x y z
#    x 1.992000 0.000000 0.000000 
#    y 0.000000 1.883480 0.000000 
#    z 0.000000 0.000000 1.539870 
# 
# From -- ./inp_files/7686.got.cif
#   From: 2010.05.17/outbox.cif.g08.bks.cpg/sg17_4_cif.got.tgz:7686.got - 2010.06.03 22:34:06.
