data_PCOD9311627
_publ_section_title
;
Structure prediction by ZEFSAII (Michael W. Deem and Ramdas Pophale) SiO2 
 PCOD9311627
Probable space group: P 21 21 2
;
_chemical_formula_sum "Si O2"
_cell_formula_units_Z 16
_cell_length_a 6.678537
_cell_length_b 17.216931
_cell_length_c 5.444397
_cell_angle_alpha 90.000000
_cell_angle_beta 90.000000
_cell_angle_gamma 90.000000
_cell_volume 626.018059
_symmetry_space_group_name_H-M "P 21 21 2"
_symmetry_group_IT_number 18
_symmetry_cell_setting 'orthorhombic'
loop_
_space_group_symop_operation_xyz
x,y,z
-x,-y,z
1/2+x,1/2-y,-z
1/2-x,1/2+y,-z
loop_
_atom_site_type_symbol
_atom_site_label
_atom_site_fract_x
_atom_site_fract_y
_atom_site_fract_z
Si Si1 0.384694 0.159223 0.779434
Si Si2 0.337096 0.706897 0.721325
Si Si3 0.343793 0.427835 0.750832
Si Si4 0.258017 0.484259 0.250772
O O1 0.591927 0.205019 0.747619
O O2 0.348645 0.067050 0.762800
O O3 0.257687 0.190957 0.544503
O O4 0.300621 0.184489 0.046933
O O5 0.530236 0.650583 0.741846
O O6 0.500000 0.500000 0.754972
O O7 0.217260 0.441377 0.506589
O O8 0.223463 0.436926 0.001381
O O9 0.500000 0.500000 0.255152
#
# Coordination Sequence:
#
# PCOD9311627 Si02
#       4
#     4   4   4   4
#     4  12  23  38  60  92 121 154 193 248 296 348
#     4  12  23  38  60  92 121 154 193 248 296 348
#     4  10  16  32  59  83 101 147 213 231 255 341
#     4  10  16  32  59  83 101 147 213 231 255 341
#
# _framework density 25.558367000000001
#
# number of rings (size 3 to 8) (size 9 to 14) (size 15 to 20)
#    0.000    1.000   10.000    1.500    0.000    0.000 
#    0.000    0.000    0.000    9.000    0.000    0.000 
#    0.000    0.000    0.000    0.000    0.000    0.000 
#
# Total GULP energy -89682.591474 kJ/mol
# GULP energy per Si atom -5605.161967 kJ/mol
# Density = 2.550020 g / cm^3
# Si number density = 25.558367 Si / 1000 Ang^3
#
#
#
# Elastic Constant Matrix: (Units=GPa)
#
#
# Indices 1 2 3 4 5 6 
#
# 1 50.2683 10.2246 1.7994 0.0000 0.0000 0.0000
# 2 10.2246 160.5759 11.4963 0.0000 0.0000 0.0000
# 3 1.7994 11.4963 142.7078 0.0000 0.0000 0.0000
# 4 0.0000 0.0000 0.0000 51.6317 0.0000 0.0000
# 5 0.0000 0.0000 0.0000 0.0000 49.6947 0.0000
# 6 0.0000 0.0000 0.0000 0.0000 0.0000 41.9880
#
#
#
# Elastic Compliance Matrix: (Units=1/GPa)
#
#
# Indices 1 2 3 4 5 6 
#
# 1 0.020158 -0.001273 -0.000152 0.000000 0.000000 0.000000
# 2 -0.001273 0.006344 -0.000495 0.000000 0.000000 0.000000
# 3 -0.000152 -0.000495 0.007049 0.000000 0.000000 0.000000
# 4 0.000000 0.000000 0.000000 0.019368 0.000000 0.000000
# 5 0.000000 0.000000 0.000000 0.000000 0.020123 0.000000
# 6 0.000000 0.000000 0.000000 0.000000 0.000000 0.023816
#
#
# Mechanical properties :
#
#
# Convention : Reuss Voigt Hill
#
# Bulk Modulus (GPa) = 33.65639 44.51029 39.08334
# Shear Modulus (GPa) = 45.20773 50.66498 47.93635
#
# Velocity S-wave (km/s) = 4.21028 4.45716 4.33548
# Velocity P-wave (km/s) = 6.06896 6.62883 6.35506
#
# Compressibility (1/GPa) = 0.02971204
#
# Stress axis : x y z
#
# Youngs Moduli (GPa) = 49.60927 157.62769 141.86180
#
# Poissons Ratio (x) = 0.20061 0.02151
# Poissons Ratio (y) = 0.06314 0.07022
# Poissons Ratio (z) = 0.00752 0.07803
#
# Static dielectric constant tensor:
#      x y z
#    x 1.997420 0.000000 0.000000 
#    y 0.000000 1.941180 0.000000 
#    z 0.000000 0.000000 2.054960 
# 
# From -- ./inp_files/443.got.cif
#   From: 2010.05.17/outbox.cif.g08.bks.cpg/sg18_1_cif.got.tgz:443.got - 2010.06.03 22:40:56.
