data_PCOD9311685
_publ_section_title
;
Structure prediction by ZEFSAII (Michael W. Deem and Ramdas Pophale) SiO2 
 PCOD9311685
Probable space group: P 21 21 2
;
_chemical_formula_sum "Si O2"
_cell_formula_units_Z 32
_cell_length_a 23.981266
_cell_length_b 8.334180
_cell_length_c 6.935882
_cell_angle_alpha 90.000000
_cell_angle_beta 90.000000
_cell_angle_gamma 90.000000
_cell_volume 1386.234420
_symmetry_space_group_name_H-M "P 21 21 2"
_symmetry_group_IT_number 18
_symmetry_cell_setting 'orthorhombic'
loop_
_space_group_symop_operation_xyz
x,y,z
-x,-y,z
1/2+x,1/2-y,-z
1/2-x,1/2+y,-z
loop_
_atom_site_type_symbol
_atom_site_label
_atom_site_fract_x
_atom_site_fract_y
_atom_site_fract_z
Si Si1 0.556254 0.441915 0.003796
Si Si2 0.780728 0.560091 0.894243
Si Si3 0.636458 0.963706 0.400711
Si Si4 0.566293 0.643509 0.396491
Si Si5 0.033902 0.332680 0.700526
Si Si6 0.768935 0.658779 0.472792
Si Si7 0.332786 0.544834 0.431909
Si Si8 0.826848 0.864180 0.004691
O O1 0.500000 0.500000 0.896748
O O2 0.562636 0.574403 0.176864
O O3 0.545377 0.268622 0.105293
O O4 0.616023 0.425696 0.903281
O O5 0.830328 0.455322 0.802603
O O6 0.759130 0.657216 0.705691
O O7 0.808093 0.682626 0.043195
O O8 0.727989 0.468069 0.969235
O O9 0.591426 0.107266 0.391618
O O10 0.684904 0.017466 0.547872
O O11 0.602900 0.802778 0.427058
O O12 0.503642 0.710060 0.428299
O O13 0.606091 0.512070 0.495107
O O14 0.000000 0.500000 0.735638
O O15 0.709505 0.604702 0.394371
O O16 0.798107 0.829960 0.436064
O O17 0.341075 0.625553 0.223670
#
# Coordination Sequence:
#
# PCOD9311685 Si02
#       8
#     4   4   4   4   4   4   4   4
#     4   9  16  28  42  67  92 124 160 205 243 292
#     4   9  20  30  46  69 101 133 159 205 248 301
#     4   9  16  30  42  67  97 129 155 199 242 298
#     4   9  17  24  46  67  94 121 159 199 254 284
#     4   9  15  27  44  64  96 126 156 207 253 286
#     4   9  19  31  47  66 102 130 163 202 242 301
#     4  10  18  31  45  71  94 129 164 203 243 297
#     4  10  19  31  47  71 101 127 165 206 245 300
#
# _framework density 23.084116999999999
#
# number of rings (size 3 to 8) (size 9 to 14) (size 15 to 20)
#    0.750    2.000    1.250    1.500    3.500    0.000 
#    0.000    0.000    0.000    0.000    0.000   10.500 
#    0.000    7.500    0.000    0.500    0.000    0.000 
#
# Total GULP energy -178146.451060 kJ/mol
# GULP energy per Si atom -5567.076596 kJ/mol
# Density = 2.303158 g / cm^3
# Si number density = 23.084117 Si / 1000 Ang^3
#
#
#
# Elastic Constant Matrix: (Units=GPa)
#
#
# Indices 1 2 3 4 5 6 
#
# 1 136.7732 15.7934 6.7167 0.0000 0.0000 0.0000
# 2 15.7934 68.9546 12.6450 0.0000 0.0000 0.0000
# 3 6.7167 12.6450 40.1421 0.0000 0.0000 0.0000
# 4 0.0000 0.0000 0.0000 13.4538 0.0000 0.0000
# 5 0.0000 0.0000 0.0000 0.0000 11.0777 0.0000
# 6 0.0000 0.0000 0.0000 0.0000 0.0000 55.9000
#
#
#
# Elastic Compliance Matrix: (Units=1/GPa)
#
#
# Indices 1 2 3 4 5 6 
#
# 1 0.007532 -0.001586 -0.000761 0.000000 0.000000 0.000000
# 2 -0.001586 0.015725 -0.004688 0.000000 0.000000 0.000000
# 3 -0.000761 -0.004688 0.026516 0.000000 0.000000 0.000000
# 4 0.000000 0.000000 0.000000 0.074329 0.000000 0.000000
# 5 0.000000 0.000000 0.000000 0.000000 0.090271 0.000000
# 6 0.000000 0.000000 0.000000 0.000000 0.000000 0.017889
#
#
# Mechanical properties :
#
#
# Convention : Reuss Voigt Hill
#
# Bulk Modulus (GPa) = 28.00845 35.13110 31.56978
# Shear Modulus (GPa) = 19.36244 30.13396 24.74820
#
# Velocity S-wave (km/s) = 2.89931 3.61695 3.27783
# Velocity P-wave (km/s) = 4.83400 5.71794 5.29445
#
# Compressibility (1/GPa) = 0.03570351
#
# Stress axis : x y z
#
# Youngs Moduli (GPa) = 132.77001 63.59221 37.71360
#
# Poissons Ratio (x) = 0.10083 0.02869
# Poissons Ratio (y) = 0.21052 0.17681
# Poissons Ratio (z) = 0.10101 0.29813
#
# Static dielectric constant tensor:
#      x y z
#    x 1.931320 0.000000 0.000000 
#    y 0.000000 1.926750 0.000000 
#    z 0.000000 0.000000 1.890970 
# 
# From -- ./inp_files/4766.got.cif
#   From: 2010.05.17/outbox.cif.g08.bks.cpg/sg18_3_cif.got.tgz:4766.got - 2010.06.03 22:40:56.
