data_PCOD9311485
_publ_section_title
;
Structure prediction by ZEFSAII (Michael W. Deem and Ramdas Pophale) SiO2 
 PCOD9311485
Probable space group: P 2 2 21
;
_chemical_formula_sum "Si O2"
_cell_formula_units_Z 18
_cell_length_a 19.278760
_cell_length_b 8.863909
_cell_length_c 5.159633
_cell_angle_alpha 90.000000
_cell_angle_beta 90.000000
_cell_angle_gamma 90.000000
_cell_volume 881.704784
_symmetry_space_group_name_H-M "P 2 2 21"
_symmetry_group_IT_number 17
_symmetry_cell_setting 'orthorhombic'
loop_
_space_group_symop_operation_xyz
x,y,z
-x,-y,1/2+z
x,-y,-z
-x,y,1/2-z
loop_
_atom_site_type_symbol
_atom_site_label
_atom_site_fract_x
_atom_site_fract_y
_atom_site_fract_z
Si Si1 0.935113 0.325736 0.076902
Si Si2 0.205888 0.326195 0.091035
Si Si3 0.350099 0.391593 0.251732
Si Si4 0.500000 0.391291 0.250000
Si Si5 0.135307 0.101612 0.752539
O O1 0.862366 0.312677 0.231652
O O2 0.000000 0.279604 0.250000
O O3 0.944313 0.500000 0.000000
O O4 0.924204 0.217529 0.833300
O O5 0.279171 0.298422 0.230248
O O6 0.205358 0.500000 0.000000
O O7 0.196538 0.210137 0.855030
O O8 0.344552 0.500000 0.500000
O O9 0.425167 0.310045 0.256175
O O10 0.351757 0.500000 0.000000
O O11 0.499463 0.500000 0.500000
O O12 0.150907 0.000000 0.500000
O O13 0.116379 0.000000 0.000000
#
# Coordination Sequence:
#
# PCOD9311485 Si02
#       5
#     4   4   4   2   4
#     4  12  26  45  72  98 126 168 217 270 316 387
#     4  11  22  41  66  94 128 171 221 260 319 383
#     4   9  18  29  55  86 127 166 204 257 316 378
#     4   8  14  28  44  82 128 164 194 248 324 372
#     4  12  27  48  67  95 132 167 216 269 326 379
#
# _framework density 20.414995999999999
#
# number of rings (size 3 to 8) (size 9 to 14) (size 15 to 20)
#    0.000    1.333    4.444    1.333    3.111    0.000 
#    4.000    0.000    0.000    0.000    0.000    0.000 
#    6.667    0.000    0.000    0.000    0.000    0.000 
#
# Total GULP energy -100473.774737 kJ/mol
# GULP energy per Si atom -5581.876374 kJ/mol
# Density = 2.036853 g / cm^3
# Si number density = 20.414996 Si / 1000 Ang^3
#
#
#
# Elastic Constant Matrix: (Units=GPa)
#
#
# Indices 1 2 3 4 5 6 
#
# 1 211.8359 23.7314 47.2432 0.0000 0.0000 0.0000
# 2 23.7314 102.8654 47.4288 0.0000 0.0000 0.0000
# 3 47.2432 47.4288 145.4134 0.0000 0.0000 0.0000
# 4 0.0000 0.0000 0.0000 34.0665 0.0000 0.0000
# 5 0.0000 0.0000 0.0000 0.0000 34.3810 0.0000
# 6 0.0000 0.0000 0.0000 0.0000 0.0000 -28.8991
#
#
#
# Elastic Compliance Matrix: (Units=1/GPa)
#
#
# Indices 1 2 3 4 5 6 
#
# 1 0.005110 -0.000487 -0.001501 0.000000 0.000000 0.000000
# 2 -0.000487 0.011489 -0.003589 0.000000 0.000000 0.000000
# 3 -0.001501 -0.003589 0.008535 0.000000 0.000000 0.000000
# 4 0.000000 0.000000 0.000000 0.029354 0.000000 0.000000
# 5 0.000000 0.000000 0.000000 0.000000 0.029086 0.000000
# 6 0.000000 0.000000 0.000000 0.000000 0.000000 -0.034603
#
#
# Mechanical properties :
#
#
# Convention : Reuss Voigt Hill
#
# Bulk Modulus (GPa) = 71.53257 77.43570 74.48414
# Shear Modulus (GPa) = 77.17810 30.69041 53.93426
#
# Velocity S-wave (km/s) = 6.15522 3.88148 5.14551
# Velocity P-wave (km/s) = 9.25370 7.62240 8.47738
#
# Compressibility (1/GPa) = 0.01397965
#
# Stress axis : x y z
#
# Youngs Moduli (GPa) = 195.69460 87.04324 117.15926
#
# Poissons Ratio (x) = 0.04236 0.17591
# Poissons Ratio (y) = 0.09523 0.42049
# Poissons Ratio (z) = 0.29383 0.31240
#
# Static dielectric constant tensor:
#      x y z
#    x 1.807820 0.000000 0.000000 
#    y 0.000000 1.725780 0.000000 
#    z 0.000000 0.000000 1.800600 
# 
# From -- ./inp_files/2434.got.cif
#   From: 2010.05.17/outbox.cif.g08.bks.cpg/sg17_2_cif.got.tgz:2434.got - 2010.06.03 22:34:06.
