data_PCOD9311520
_publ_section_title
;
Structure prediction by ZEFSAII (Michael W. Deem and Ramdas Pophale) SiO2 
 PCOD9311520
Probable space group: P 2 2 21
;
_chemical_formula_sum "Si O2"
_cell_formula_units_Z 32
_cell_length_a 15.811828
_cell_length_b 11.469444
_cell_length_c 8.214595
_cell_angle_alpha 90.000000
_cell_angle_beta 90.000000
_cell_angle_gamma 90.000000
_cell_volume 1489.740427
_symmetry_space_group_name_H-M "P 2 2 21"
_symmetry_group_IT_number 17
_symmetry_cell_setting 'orthorhombic'
loop_
_space_group_symop_operation_xyz
x,y,z
-x,-y,1/2+z
x,-y,-z
-x,y,1/2-z
loop_
_atom_site_type_symbol
_atom_site_label
_atom_site_fract_x
_atom_site_fract_y
_atom_site_fract_z
Si Si1 0.151774 0.669589 0.876690
Si Si2 0.098316 0.429969 0.770902
Si Si3 0.910458 0.069321 0.331725
Si Si4 0.407476 0.045110 0.317058
Si Si5 0.255811 0.690419 0.325553
Si Si6 0.593225 0.527657 0.306879
Si Si7 0.325776 0.703942 0.689006
Si Si8 0.755121 0.939535 0.322718
O O1 0.108427 0.569427 0.767851
O O2 0.111848 0.796468 0.860976
O O3 0.248758 0.683761 0.816783
O O4 0.134066 0.619412 0.056937
O O5 0.167519 0.377506 0.649904
O O6 0.000000 0.398128 0.750000
O O7 0.000000 0.059552 0.250000
O O8 0.919238 0.000000 0.500000
O O9 0.832227 0.008525 0.236598
O O10 0.500000 0.030030 0.250000
O O11 0.376391 0.176850 0.284568
O O12 0.407432 0.000000 0.500000
O O13 0.338232 0.965370 0.233909
O O14 0.329480 0.614716 0.237835
O O15 0.289412 0.716269 0.506525
O O16 0.234783 0.803525 0.215091
O O17 0.592830 0.500000 0.500000
O O18 0.500000 0.569958 0.250000
O O19 0.614521 0.408275 0.210035
O O20 0.757572 0.000000 0.500000
#
# Coordination Sequence:
#
# PCOD9311520 Si02
#       8
#     4   4   4   4   4   4   4   4
#     4  11  24  45  73 100 143 199 241 304 381 441
#     4  11  25  45  71 107 148 190 254 307 378 449
#     4  11  25  43  68 101 139 185 242 291 361 428
#     4  12  26  49  74 110 145 195 247 306 372 447
#     4  12  26  45  76 106 149 194 248 306 376 450
#     4  12  27  48  75 107 145 189 244 304 379 452
#     4  12  25  47  75 107 150 193 247 307 377 447
#     4  11  25  46  72 101 145 193 242 301 362 434
#
# _framework density 21.480252
#
# number of rings (size 3 to 8) (size 9 to 14) (size 15 to 20)
#    0.000    0.500    3.750    4.500    1.750    7.000 
#    2.250    0.000    0.000    0.000    0.000    0.000 
#    0.000    0.000    0.000    0.000    0.000    0.000 
#
# Total GULP energy -178801.103413 kJ/mol
# GULP energy per Si atom -5587.534482 kJ/mol
# Density = 2.143136 g / cm^3
# Si number density = 21.480252 Si / 1000 Ang^3
#
#
#
# Elastic Constant Matrix: (Units=GPa)
#
#
# Indices 1 2 3 4 5 6 
#
# 1 163.3695 59.8330 15.8795 0.0000 0.0000 0.0000
# 2 59.8330 142.5701 22.2134 0.0000 0.0000 0.0000
# 3 15.8795 22.2134 56.9456 0.0000 0.0000 0.0000
# 4 0.0000 0.0000 0.0000 15.6475 0.0000 0.0000
# 5 0.0000 0.0000 0.0000 0.0000 34.5679 0.0000
# 6 0.0000 0.0000 0.0000 0.0000 0.0000 33.2230
#
#
#
# Elastic Compliance Matrix: (Units=1/GPa)
#
#
# Indices 1 2 3 4 5 6 
#
# 1 0.007275 -0.002914 -0.000892 0.000000 0.000000 0.000000
# 2 -0.002914 0.008635 -0.002556 0.000000 0.000000 0.000000
# 3 -0.000892 -0.002556 0.018806 0.000000 0.000000 0.000000
# 4 0.000000 0.000000 0.000000 0.063908 0.000000 0.000000
# 5 0.000000 0.000000 0.000000 0.000000 0.028929 0.000000
# 6 0.000000 0.000000 0.000000 0.000000 0.000000 0.030100
#
#
# Mechanical properties :
#
#
# Convention : Reuss Voigt Hill
#
# Bulk Modulus (GPa) = 45.46937 62.08189 53.77563
# Shear Modulus (GPa) = 28.13607 34.35163 31.24385
#
# Velocity S-wave (km/s) = 3.62312 4.00336 3.81798
# Velocity P-wave (km/s) = 6.22227 7.09463 6.67272
#
# Compressibility (1/GPa) = 0.02199283
#
# Stress axis : x y z
#
# Youngs Moduli (GPa) = 137.45524 115.80338 53.17356
#
# Poissons Ratio (x) = 0.33747 0.04743
# Poissons Ratio (y) = 0.40057 0.13590
# Poissons Ratio (z) = 0.12260 0.29598
#
# Static dielectric constant tensor:
#      x y z
#    x 1.745480 0.000000 0.000000 
#    y 0.000000 1.767930 0.000000 
#    z 0.000000 0.000000 1.832390 
# 
# From -- ./inp_files/5271.got.cif
#   From: 2010.05.17/outbox.cif.g08.bks.cpg/sg17_3_cif.got.tgz:5271.got - 2010.06.03 22:34:06.
