data_PCOD9311672
_publ_section_title
;
Structure prediction by ZEFSAII (Michael W. Deem and Ramdas Pophale) SiO2 
 PCOD9311672
Probable space group: P 21 21 2
;
_chemical_formula_sum "Si O2"
_cell_formula_units_Z 24
_cell_length_a 7.774564
_cell_length_b 21.779301
_cell_length_c 5.721759
_cell_angle_alpha 90.000000
_cell_angle_beta 90.000000
_cell_angle_gamma 90.000000
_cell_volume 968.834379
_symmetry_space_group_name_H-M "P 21 21 2"
_symmetry_group_IT_number 18
_symmetry_cell_setting 'orthorhombic'
loop_
_space_group_symop_operation_xyz
x,y,z
-x,-y,z
1/2+x,1/2-y,-z
1/2-x,1/2+y,-z
loop_
_atom_site_type_symbol
_atom_site_label
_atom_site_fract_x
_atom_site_fract_y
_atom_site_fract_z
Si Si1 0.769940 0.719180 0.026809
Si Si2 0.665388 0.452971 0.689951
Si Si3 0.372761 0.880393 0.626608
Si Si4 0.286413 0.503251 0.192644
Si Si5 0.053616 0.835467 0.325181
Si Si6 0.044293 0.714798 0.643002
O O1 0.877996 0.673082 0.181853
O O2 0.703649 0.774396 0.183783
O O3 0.605695 0.680729 0.938679
O O4 0.876639 0.731200 0.796521
O O5 0.500000 0.500000 0.690573
O O6 0.755899 0.464271 0.440135
O O7 0.596320 0.384219 0.680457
O O8 0.755801 0.467150 0.939611
O O9 0.325381 0.941250 0.770797
O O10 0.522514 0.853796 0.456634
O O11 0.206362 0.871535 0.459965
O O12 0.500000 0.500000 0.190972
O O13 0.044517 0.770446 0.457648
#
# Coordination Sequence:
#
# PCOD9311672 Si02
#       6
#     4   4   4   4   4   4
#     4  10  20  36  55  80 118 169 198 246 306 360
#     4  10  18  29  49  80 113 160 187 242 311 367
#     4  10  19  33  51  79 119 163 198 244 304 375
#     4  10  18  29  49  80 113 160 187 242 311 367
#     4  10  19  33  51  79 119 163 198 244 304 375
#     4  10  22  34  56  82 122 172 202 248 302 364
#
# _framework density 24.772036
#
# number of rings (size 3 to 8) (size 9 to 14) (size 15 to 20)
#    0.000    2.000    3.333    3.000    4.667    0.000 
#    0.000    0.000    0.000    0.000    0.000    0.000 
#    0.000   54.667    0.000    0.000    0.000    0.000 
#
# Total GULP energy -133851.294453 kJ/mol
# GULP energy per Si atom -5577.137269 kJ/mol
# Density = 2.471565 g / cm^3
# Si number density = 24.772036 Si / 1000 Ang^3
#
#
#
# Elastic Constant Matrix: (Units=GPa)
#
#
# Indices 1 2 3 4 5 6 
#
# 1 41.7782 24.3679 12.4134 0.0000 0.0000 0.0000
# 2 24.3679 51.8656 2.2683 0.0000 0.0000 0.0000
# 3 12.4134 2.2683 135.0759 0.0000 0.0000 0.0000
# 4 0.0000 0.0000 0.0000 -9.8066 0.0000 0.0000
# 5 0.0000 0.0000 0.0000 0.0000 15.0446 0.0000
# 6 0.0000 0.0000 0.0000 0.0000 0.0000 30.5028
#
#
#
# Elastic Compliance Matrix: (Units=1/GPa)
#
#
# Indices 1 2 3 4 5 6 
#
# 1 0.034042 -0.015869 -0.002862 0.000000 0.000000 0.000000
# 2 -0.015869 0.026692 0.001010 0.000000 0.000000 0.000000
# 3 -0.002862 0.001010 0.007649 0.000000 0.000000 0.000000
# 4 0.000000 0.000000 0.000000 -0.101972 0.000000 0.000000
# 5 0.000000 0.000000 0.000000 0.000000 0.066469 0.000000
# 6 0.000000 0.000000 0.000000 0.000000 0.000000 0.032784
#
#
# Mechanical properties :
#
#
# Convention : Reuss Voigt Hill
#
# Bulk Modulus (GPa) = 30.35626 34.09098 32.22362
# Shear Modulus (GPa) = 44.60856 19.79282 32.20069
#
# Velocity S-wave (km/s) = 4.24814 2.82972 3.60930
# Velocity P-wave (km/s) = 6.02853 4.94653 5.51413
#
# Compressibility (1/GPa) = 0.03294214
#
# Stress axis : x y z
#
# Youngs Moduli (GPa) = 29.37548 37.46447 130.73104
#
# Poissons Ratio (x) = 0.59451 0.37415
# Poissons Ratio (y) = 0.46615 -0.13205
# Poissons Ratio (z) = 0.08407 -0.03784
#
# Static dielectric constant tensor:
#      x y z
#    x 2.094900 0.000000 0.000000 
#    y 0.000000 1.966710 0.000000 
#    z 0.000000 0.000000 1.988980 
# 
# From -- ./inp_files/1116.got.cif
#   From: 2010.05.17/outbox.cif.g08.bks.cpg/sg18_1_cif.got.tgz:1116.got - 2010.06.03 22:40:56.
