data_PCOD9311248
_publ_section_title
;
Structure prediction by ZEFSAII (Michael W. Deem and Ramdas Pophale) SiO2 
 PCOD9311248
Probable space group: P 2 2 21
;
_chemical_formula_sum "Si O2"
_cell_formula_units_Z 18
_cell_length_a 16.097374
_cell_length_b 10.586127
_cell_length_c 4.890993
_cell_angle_alpha 90.000000
_cell_angle_beta 90.000000
_cell_angle_gamma 90.000000
_cell_volume 833.468471
_symmetry_space_group_name_H-M "P 2 2 21"
_symmetry_group_IT_number 17
_symmetry_cell_setting 'orthorhombic'
loop_
_space_group_symop_operation_xyz
x,y,z
-x,-y,1/2+z
x,-y,-z
-x,y,1/2-z
loop_
_atom_site_type_symbol
_atom_site_label
_atom_site_fract_x
_atom_site_fract_y
_atom_site_fract_z
Si Si1 0.439792 0.354143 0.498944
Si Si2 0.811542 0.858615 0.608714
Si Si3 0.061595 0.636239 0.992684
Si Si4 0.561329 0.000000 0.500000
Si Si5 0.305427 0.839693 0.367239
O O1 0.414653 0.500000 0.500000
O O2 0.500000 0.324932 0.750000
O O3 0.360702 0.267564 0.498995
O O4 0.500000 0.334209 0.250000
O O5 0.886535 0.759098 0.603429
O O6 0.751688 0.797891 0.381367
O O7 0.833555 0.000000 0.500000
O O8 0.758390 0.877078 0.887549
O O9 0.000000 0.606989 0.750000
O O10 0.110550 0.500000 0.000000
O O11 0.000000 0.664093 0.250000
O O12 0.626457 0.925168 0.300064
O O13 0.500000 0.949719 0.750000
#
# Coordination Sequence:
#
# PCOD9311248 Si02
#       5
#     4   4   4   2   4
#     4  10  22  42  64  89 123 171 232 293 347 410
#     4  12  26  43  66 100 147 179 221 288 356 414
#     4  10  23  46  75 106 138 180 234 283 340 431
#     4  12  26  44  66  94 134 190 248 292 354 408
#     4  12  25  43  63  97 137 180 227 290 349 419
#
# _framework density 21.596496999999999
#
# number of rings (size 3 to 8) (size 9 to 14) (size 15 to 20)
#    0.000    0.889    1.111    5.333    0.000    4.444 
#    0.000    0.000    0.000    0.000    0.000    0.000 
#    0.000    0.000    0.000    0.000    0.000    0.000 
#
# Total GULP energy -100202.661962 kJ/mol
# GULP energy per Si atom -5566.814553 kJ/mol
# Density = 2.154734 g / cm^3
# Si number density = 21.596497 Si / 1000 Ang^3
#
#
#
# Elastic Constant Matrix: (Units=GPa)
#
#
# Indices 1 2 3 4 5 6 
#
# 1 66.6172 67.7298 19.8047 0.0000 0.0000 0.0000
# 2 67.7298 127.4345 35.8793 0.0000 0.0000 0.0000
# 3 19.8047 35.8793 163.3059 0.0000 0.0000 0.0000
# 4 0.0000 0.0000 0.0000 24.3323 0.0000 0.0000
# 5 0.0000 0.0000 0.0000 0.0000 31.5948 0.0000
# 6 0.0000 0.0000 0.0000 0.0000 0.0000 -17.4778
#
#
#
# Elastic Compliance Matrix: (Units=1/GPa)
#
#
# Indices 1 2 3 4 5 6 
#
# 1 0.032662 -0.017316 -0.000157 0.000000 0.000000 0.000000
# 2 -0.017316 0.017544 -0.001755 0.000000 0.000000 0.000000
# 3 -0.000157 -0.001755 0.006528 0.000000 0.000000 0.000000
# 4 0.000000 0.000000 0.000000 0.041098 0.000000 0.000000
# 5 0.000000 0.000000 0.000000 0.000000 0.031651 0.000000
# 6 0.000000 0.000000 0.000000 0.000000 0.000000 -0.057215
#
#
# Mechanical properties :
#
#
# Convention : Reuss Voigt Hill
#
# Bulk Modulus (GPa) = 54.70241 67.13167 60.91704
# Shear Modulus (GPa) = 42.80267 23.28610 33.04438
#
# Velocity S-wave (km/s) = 4.45671 3.28721 3.91587
# Velocity P-wave (km/s) = 7.20190 6.74979 6.97951
#
# Compressibility (1/GPa) = 0.01828073
#
# Stress axis : x y z
#
# Youngs Moduli (GPa) = 30.61620 56.99901 153.18639
#
# Poissons Ratio (x) = 0.98697 0.02402
# Poissons Ratio (y) = 0.53014 0.26879
# Poissons Ratio (z) = 0.00480 0.10001
#
# Static dielectric constant tensor:
#      x y z
#    x 1.791140 0.000000 0.000000 
#    y 0.000000 1.900990 0.000000 
#    z 0.000000 0.000000 1.799510 
# 
# From -- ./inp_files/1951.got.cif
#   From: 2010.05.17/outbox.cif.g08.bks.cpg/sg17_1_cif.got.tgz:1951.got - 2010.06.03 22:34:06.
