data_PCOD9311354
_publ_section_title
;
Structure prediction by ZEFSAII (Michael W. Deem and Ramdas Pophale) SiO2 
 PCOD9311354
Probable space group: P 2 2 21
;
_chemical_formula_sum "Si O2"
_cell_formula_units_Z 26
_cell_length_a 14.504019
_cell_length_b 16.945947
_cell_length_c 4.967148
_cell_angle_alpha 90.000000
_cell_angle_beta 90.000000
_cell_angle_gamma 90.000000
_cell_volume 1220.847179
_symmetry_space_group_name_H-M "P 2 2 21"
_symmetry_group_IT_number 17
_symmetry_cell_setting 'orthorhombic'
loop_
_space_group_symop_operation_xyz
x,y,z
-x,-y,1/2+z
x,-y,-z
-x,y,1/2-z
loop_
_atom_site_type_symbol
_atom_site_label
_atom_site_fract_x
_atom_site_fract_y
_atom_site_fract_z
Si Si1 0.897358 0.941413 0.749647
Si Si2 0.247027 0.579237 0.366915
Si Si3 0.000000 0.559388 0.750000
Si Si4 0.270186 0.174792 0.133808
Si Si5 0.398655 0.186042 0.644965
Si Si6 0.180835 0.653486 0.846509
Si Si7 0.559014 0.366481 0.980166
O O1 0.812102 0.882458 0.722358
O O2 0.000000 0.902572 0.750000
O O3 0.896317 0.000000 0.500000
O O4 0.888001 0.000000 0.000000
O O5 0.208933 0.500000 0.500000
O O6 0.194063 0.647913 0.523685
O O7 0.347571 0.586716 0.496917
O O8 0.238368 0.595587 0.051065
O O9 0.921505 0.618205 0.631052
O O10 0.020108 0.500000 0.500000
O O11 0.353964 0.171209 0.351729
O O12 0.221343 0.260195 0.094851
O O13 0.321693 0.157615 0.854312
O O14 0.500000 0.157062 0.750000
O O15 0.410824 0.281210 0.637728
O O16 0.500000 0.356619 0.250000
O O17 0.500000 0.407630 0.750000
#
# Coordination Sequence:
#
# PCOD9311354 Si02
#       7
#     4   4   2   4   4   4   4
#     4  10  23  44  71 105 142 177 208 257 339 411
#     4  12  24  40  59  84 124 167 214 280 335 390
#     4  12  26  44  64  86 126 174 218 280 352 414
#     4  12  22  41  70  99 131 171 224 280 316 394
#     4  11  22  39  64  96 131 174 221 277 336 387
#     4  12  24  42  62  93 119 165 227 272 331 398
#     4  11  21  36  57  82 121 162 212 269 332 392
#
# _framework density 21.296688
#
# number of rings (size 3 to 8) (size 9 to 14) (size 15 to 20)
#    0.000    0.615    3.077    6.923    1.077    0.615 
#    0.000    0.000    0.000    9.231    0.000    0.000 
#    0.000    0.000    0.000    0.000    0.000    0.000 
#
# Total GULP energy -144830.493142 kJ/mol
# GULP energy per Si atom -5570.403582 kJ/mol
# Density = 2.124822 g / cm^3
# Si number density = 21.296688 Si / 1000 Ang^3
#
#
#
# Elastic Constant Matrix: (Units=GPa)
#
#
# Indices 1 2 3 4 5 6 
#
# 1 127.7412 30.2848 15.9662 0.0000 0.0000 0.0000
# 2 30.2848 42.2920 12.0723 0.0000 0.0000 0.0000
# 3 15.9662 12.0723 119.2184 0.0000 0.0000 0.0000
# 4 0.0000 0.0000 0.0000 59.1111 0.0000 0.0000
# 5 0.0000 0.0000 0.0000 0.0000 34.6325 0.0000
# 6 0.0000 0.0000 0.0000 0.0000 0.0000 27.1559
#
#
#
# Elastic Compliance Matrix: (Units=1/GPa)
#
#
# Indices 1 2 3 4 5 6 
#
# 1 0.009470 -0.006611 -0.000599 0.000000 0.000000 0.000000
# 2 -0.006611 0.028963 -0.002048 0.000000 0.000000 0.000000
# 3 -0.000599 -0.002048 0.008676 0.000000 0.000000 0.000000
# 4 0.000000 0.000000 0.000000 0.016917 0.000000 0.000000
# 5 0.000000 0.000000 0.000000 0.000000 0.028875 0.000000
# 6 0.000000 0.000000 0.000000 0.000000 0.000000 0.036824
#
#
# Mechanical properties :
#
#
# Convention : Reuss Voigt Hill
#
# Bulk Modulus (GPa) = 34.97108 45.09979 40.03544
# Shear Modulus (GPa) = 31.69134 39.57512 35.63323
#
# Velocity S-wave (km/s) = 3.86176 4.31545 4.09489
# Velocity P-wave (km/s) = 6.02833 6.78629 6.41851
#
# Compressibility (1/GPa) = 0.02859505
#
# Stress axis : x y z
#
# Youngs Moduli (GPa) = 105.59162 34.52625 115.26690
#
# Poissons Ratio (x) = 0.22824 0.06903
# Poissons Ratio (y) = 0.69804 0.23602
# Poissons Ratio (z) = 0.06324 0.07069
#
# Static dielectric constant tensor:
#      x y z
#    x 1.464860 0.000000 0.000000 
#    y 0.000000 1.765700 0.000000 
#    z 0.000000 0.000000 1.734680 
# 
# From -- ./inp_files/2273.got.cif
#   From: 2010.05.17/outbox.cif.g08.bks.cpg/sg17_2_cif.got.tgz:2273.got - 2010.06.03 22:34:06.
