data_PCOD9311377
_publ_section_title
;
Structure prediction by ZEFSAII (Michael W. Deem and Ramdas Pophale) SiO2 
 PCOD9311377
Probable space group: P 2 2 21
;
_chemical_formula_sum "Si O2"
_cell_formula_units_Z 14
_cell_length_a 5.051615
_cell_length_b 8.662285
_cell_length_c 13.203534
_cell_angle_alpha 90.000000
_cell_angle_beta 90.000000
_cell_angle_gamma 90.000000
_cell_volume 577.767223
_symmetry_space_group_name_H-M "P 2 2 21"
_symmetry_group_IT_number 17
_symmetry_cell_setting 'orthorhombic'
loop_
_space_group_symop_operation_xyz
x,y,z
-x,-y,1/2+z
x,-y,-z
-x,y,1/2-z
loop_
_atom_site_type_symbol
_atom_site_label
_atom_site_fract_x
_atom_site_fract_y
_atom_site_fract_z
Si Si1 0.095865 0.679557 0.868853
Si Si2 0.375815 0.872553 0.586312
Si Si3 0.741301 0.368033 0.684290
Si Si4 0.500000 0.080126 0.750000
O O1 0.348342 0.786833 0.890871
O O2 0.175389 0.502346 0.890365
O O3 0.000000 0.678282 0.750000
O O4 0.850375 0.746498 0.931467
O O5 0.390520 0.000000 0.500000
O O6 0.306866 0.970615 0.687697
O O7 0.500000 0.440661 0.750000
O O8 0.626899 0.196975 0.666917
O O9 0.000000 0.336419 0.750000
#
# Coordination Sequence:
#
# PCOD9311377 Si02
#       4
#     4   4   4   2
#     4  11  20  42  67  90 124 181 214 265 331 400
#     4  12  25  40  67 100 136 168 222 276 334 388
#     4   9  20  36  65  91 122 167 220 260 320 386
#     4  10  24  40  68  94 132 168 224 274 324 382
#
# _framework density 24.231214999999999
#
# number of rings (size 3 to 8) (size 9 to 14) (size 15 to 20)
#    0.857    0.571    2.857    4.286    4.000    0.000 
#    0.000    1.429    6.286    0.000    0.000    0.000 
#    0.000    0.000    0.000    0.000    0.000    0.000 
#
# Total GULP energy -78088.052195 kJ/mol
# GULP energy per Si atom -5577.718014 kJ/mol
# Density = 2.417606 g / cm^3
# Si number density = 24.231215 Si / 1000 Ang^3
#
#
#
# Elastic Constant Matrix: (Units=GPa)
#
#
# Indices 1 2 3 4 5 6 
#
# 1 142.3878 19.2112 3.1162 0.0000 0.0000 0.0000
# 2 19.2112 89.4496 11.9452 0.0000 0.0000 0.0000
# 3 3.1162 11.9452 53.5909 0.0000 0.0000 0.0000
# 4 0.0000 0.0000 0.0000 30.1566 0.0000 0.0000
# 5 0.0000 0.0000 0.0000 0.0000 10.3365 0.0000
# 6 0.0000 0.0000 0.0000 0.0000 0.0000 39.1104
#
#
#
# Elastic Compliance Matrix: (Units=1/GPa)
#
#
# Indices 1 2 3 4 5 6 
#
# 1 0.007233 -0.001543 -0.000077 0.000000 0.000000 0.000000
# 2 -0.001543 0.011852 -0.002552 0.000000 0.000000 0.000000
# 3 -0.000077 -0.002552 0.019233 0.000000 0.000000 0.000000
# 4 0.000000 0.000000 0.000000 0.033160 0.000000 0.000000
# 5 0.000000 0.000000 0.000000 0.000000 0.096745 0.000000
# 6 0.000000 0.000000 0.000000 0.000000 0.000000 0.025569
#
#
# Mechanical properties :
#
#
# Convention : Reuss Voigt Hill
#
# Bulk Modulus (GPa) = 33.36191 39.33038 36.34615
# Shear Modulus (GPa) = 23.57083 32.66442 28.11763
#
# Velocity S-wave (km/s) = 3.12227 3.67554 3.41014
# Velocity P-wave (km/s) = 5.17650 5.85485 5.52609
#
# Compressibility (1/GPa) = 0.02997430
#
# Stress axis : x y z
#
# Youngs Moduli (GPa) = 138.25598 84.37604 51.99351
#
# Poissons Ratio (x) = 0.13021 0.00398
# Poissons Ratio (y) = 0.21336 0.13269
# Poissons Ratio (z) = 0.01059 0.21532
#
# Static dielectric constant tensor:
#      x y z
#    x 1.757700 0.000000 0.000000 
#    y 0.000000 1.938840 0.000000 
#    z 0.000000 0.000000 2.014480 
# 
# From -- ./inp_files/7469.got.cif
#   From: 2010.05.17/outbox.cif.g08.bks.cpg/sg17_4_cif.got.tgz:7469.got - 2010.06.03 22:34:06.
