data_PCOD9311664
_publ_section_title
;
Structure prediction by ZEFSAII (Michael W. Deem and Ramdas Pophale) SiO2 
 PCOD9311664
Probable space group: P 21 21 2
;
_chemical_formula_sum "Si O2"
_cell_formula_units_Z 30
_cell_length_a 11.912305
_cell_length_b 12.764265
_cell_length_c 8.156235
_cell_angle_alpha 90.000000
_cell_angle_beta 90.000000
_cell_angle_gamma 90.000000
_cell_volume 1240.170358
_symmetry_space_group_name_H-M "P 21 21 2"
_symmetry_group_IT_number 18
_symmetry_cell_setting 'orthorhombic'
loop_
_space_group_symop_operation_xyz
x,y,z
-x,-y,z
1/2+x,1/2-y,-z
1/2-x,1/2+y,-z
loop_
_atom_site_type_symbol
_atom_site_label
_atom_site_fract_x
_atom_site_fract_y
_atom_site_fract_z
Si Si1 0.086975 0.614074 0.721192
Si Si2 0.000000 0.000000 0.203643
Si Si3 0.558621 0.273641 0.736384
Si Si4 0.395147 0.394128 0.087116
Si Si5 0.165050 0.394105 0.674714
Si Si6 0.878517 0.329747 0.077703
Si Si7 0.219583 0.819810 0.616525
Si Si8 0.638317 0.312506 0.105900
O O1 0.173097 0.517718 0.712267
O O2 0.141660 0.720114 0.652241
O O3 0.968654 0.603969 0.628890
O O4 0.064794 0.617056 0.919188
O O5 0.976570 0.893230 0.300870
O O6 0.097003 0.971919 0.067854
O O7 0.457563 0.192433 0.768082
O O8 0.654247 0.225163 0.627165
O O9 0.614494 0.285327 0.916885
O O10 0.313768 0.401990 0.241759
O O11 0.476882 0.627380 0.155516
O O12 0.360497 0.286259 0.998241
O O13 0.271755 0.371086 0.559962
O O14 0.158416 0.295786 0.798078
O O15 0.756252 0.372783 0.119876
#
# Coordination Sequence:
#
# PCOD9311664 Si02
#       8
#     4   2   4   4   4   4   4   4
#     4  10  21  42  63  88 125 170 218 258 310 387
#     4   8  18  34  62  90 124 158 210 254 318 384
#     4  10  19  36  62  95 123 163 202 266 317 370
#     4   9  18  36  60  88 124 157 193 262 314 359
#     4  11  23  39  67  87 129 177 211 251 326 386
#     4   9  17  35  63  90 120 153 208 260 310 361
#     4  11  22  42  64  88 136 161 208 269 314 377
#     4  10  17  37  64  88 113 162 201 250 322 363
#
# _framework density 24.190224000000001
#
# number of rings (size 3 to 8) (size 9 to 14) (size 15 to 20)
#    0.000    2.400    6.667    0.000    0.000    3.200 
#    4.800    0.000    5.867    0.000    0.000    0.000 
#    0.000    0.000    0.000    0.000    0.000    0.000 
#
# Total GULP energy -167078.838120 kJ/mol
# GULP energy per Si atom -5569.294604 kJ/mol
# Density = 2.413517 g / cm^3
# Si number density = 24.190224 Si / 1000 Ang^3
#
#
#
# Elastic Constant Matrix: (Units=GPa)
#
#
# Indices 1 2 3 4 5 6 
#
# 1 114.3514 8.0493 -0.3971 0.0000 0.0000 0.0000
# 2 8.0493 52.6630 7.4155 0.0000 0.0000 0.0000
# 3 -0.3971 7.4155 11.8209 0.0000 0.0000 0.0000
# 4 0.0000 0.0000 0.0000 6.6834 0.0000 0.0000
# 5 0.0000 0.0000 0.0000 0.0000 36.8144 0.0000
# 6 0.0000 0.0000 0.0000 0.0000 0.0000 27.2658
#
#
#
# Elastic Compliance Matrix: (Units=1/GPa)
#
#
# Indices 1 2 3 4 5 6 
#
# 1 0.008857 -0.001531 0.001258 0.000000 0.000000 0.000000
# 2 -0.001531 0.021093 -0.013284 0.000000 0.000000 0.000000
# 3 0.001258 -0.013284 0.092971 0.000000 0.000000 0.000000
# 4 0.000000 0.000000 0.000000 0.149625 0.000000 0.000000
# 5 0.000000 0.000000 0.000000 0.000000 0.027163 0.000000
# 6 0.000000 0.000000 0.000000 0.000000 0.000000 0.036676
#
#
# Mechanical properties :
#
#
# Convention : Reuss Voigt Hill
#
# Bulk Modulus (GPa) = 10.43750 23.21898 16.82824
# Shear Modulus (GPa) = 12.64428 25.07053 18.85740
#
# Velocity S-wave (km/s) = 2.28875 3.22280 2.79506
# Velocity P-wave (km/s) = 3.36283 4.84437 4.16992
#
# Compressibility (1/GPa) = 0.09580840
#
# Stress axis : x y z
#
# Youngs Moduli (GPa) = 112.90369 47.40883 10.75599
#
# Poissons Ratio (x) = 0.07258 -0.01353
# Poissons Ratio (y) = 0.17284 0.14288
# Poissons Ratio (z) = -0.14202 0.62976
#
# Static dielectric constant tensor:
#      x y z
#    x 2.038220 0.000000 0.000000 
#    y 0.000000 2.080280 0.000000 
#    z 0.000000 0.000000 1.935750 
# 
# From -- ./inp_files/4274.got.cif
#   From: 2010.05.17/outbox.cif.g08.bks.cpg/sg18_3_cif.got.tgz:4274.got - 2010.06.03 22:40:56.
