data_PCOD9311315
_publ_section_title
;
Structure prediction by ZEFSAII (Michael W. Deem and Ramdas Pophale) SiO2 
 PCOD9311315
Probable space group: P 2 2 21
;
_chemical_formula_sum "Si O2"
_cell_formula_units_Z 18
_cell_length_a 18.471593
_cell_length_b 7.934104
_cell_length_c 5.470604
_cell_angle_alpha 90.000000
_cell_angle_beta 90.000000
_cell_angle_gamma 90.000000
_cell_volume 801.747323
_symmetry_space_group_name_H-M "P 2 2 21"
_symmetry_group_IT_number 17
_symmetry_cell_setting 'orthorhombic'
loop_
_space_group_symop_operation_xyz
x,y,z
-x,-y,1/2+z
x,-y,-z
-x,y,1/2-z
loop_
_atom_site_type_symbol
_atom_site_label
_atom_site_fract_x
_atom_site_fract_y
_atom_site_fract_z
Si Si1 0.658807 0.177141 0.653241
Si Si2 0.000000 0.581784 0.750000
Si Si3 0.749207 0.500000 0.500000
Si Si4 0.763438 0.000000 0.000000
Si Si5 0.139437 0.740441 0.781634
Si Si6 0.500000 0.890903 0.250000
Si Si7 0.952732 0.000000 0.500000
O O1 0.696716 0.341458 0.545578
O O2 0.575107 0.207773 0.717529
O O3 0.660453 0.000000 0.500000
O O4 0.709602 0.132919 0.879010
O O5 0.068801 0.680184 0.637520
O O6 0.969340 0.500000 0.500000
O O7 0.806592 0.415978 0.312775
O O8 0.814638 0.892224 0.827810
O O9 0.099361 0.835124 0.008104
O O10 0.491366 0.000000 0.500000
O O11 0.000000 0.001539 0.250000
#
# Coordination Sequence:
#
# PCOD9311315 Si02
#       7
#     4   2   2   2   4   2   2
#     4  11  24  49  75 115 153 201 250 313 384 468
#     4  12  30  46  68 102 144 194 260 322 380 450
#     4  12  26  46  74 112 156 194 250 320 388 460
#     4  12  25  48  74 107 146 204 248 318 385 470
#     4  12  27  45  74 102 151 195 259 318 387 452
#     4  10  22  46  84 112 156 206 252 310 378 462
#     4  12  27  48  74 105 142 200 264 324 387 458
#
# _framework density 22.450962000000001
#
# number of rings (size 3 to 8) (size 9 to 14) (size 15 to 20)
#    0.000    0.444    5.556    2.000    4.667    0.000 
#    0.000    6.667    0.000    0.000    0.000    0.000 
#    0.000    0.000    0.000    0.000    0.000    0.000 
#
# Total GULP energy -100298.979733 kJ/mol
# GULP energy per Si atom -5572.165541 kJ/mol
# Density = 2.239986 g / cm^3
# Si number density = 22.450962 Si / 1000 Ang^3
#
#
#
# Elastic Constant Matrix: (Units=GPa)
#
#
# Indices 1 2 3 4 5 6 
#
# 1 218.5929 58.5015 36.3407 0.0000 0.0000 0.0000
# 2 58.5015 113.3035 16.4219 0.0000 0.0000 0.0000
# 3 36.3407 16.4219 76.7750 0.0000 0.0000 0.0000
# 4 0.0000 0.0000 0.0000 16.8957 0.0000 0.0000
# 5 0.0000 0.0000 0.0000 0.0000 38.3231 0.0000
# 6 0.0000 0.0000 0.0000 0.0000 0.0000 45.2805
#
#
#
# Elastic Compliance Matrix: (Units=1/GPa)
#
#
# Indices 1 2 3 4 5 6 
#
# 1 0.005619 -0.002596 -0.002105 0.000000 0.000000 0.000000
# 2 -0.002596 0.010308 -0.000976 0.000000 0.000000 0.000000
# 3 -0.002105 -0.000976 0.014230 0.000000 0.000000 0.000000
# 4 0.000000 0.000000 0.000000 0.059187 0.000000 0.000000
# 5 0.000000 0.000000 0.000000 0.000000 0.026094 0.000000
# 6 0.000000 0.000000 0.000000 0.000000 0.000000 0.022085
#
#
# Mechanical properties :
#
#
# Convention : Reuss Voigt Hill
#
# Bulk Modulus (GPa) = 53.18103 70.13330 61.65716
# Shear Modulus (GPa) = 32.22809 39.92701 36.07755
#
# Velocity S-wave (km/s) = 3.79289 4.22169 4.01303
# Velocity P-wave (km/s) = 6.55137 7.42091 6.99965
#
# Compressibility (1/GPa) = 0.01880370
#
# Stress axis : x y z
#
# Youngs Moduli (GPa) = 177.95265 97.01299 70.27420
#
# Poissons Ratio (x) = 0.25189 0.14790
# Poissons Ratio (y) = 0.46205 0.06858
# Poissons Ratio (z) = 0.37451 0.09467
#
# Static dielectric constant tensor:
#      x y z
#    x 1.797360 0.000000 0.000000 
#    y 0.000000 1.938190 0.000000 
#    z 0.000000 0.000000 1.917400 
# 
# From -- ./inp_files/942.got.cif
#   From: 2010.05.17/outbox.cif.g08.bks.cpg/sg17_1_cif.got.tgz:942.got - 2010.06.03 22:34:06.
