data_PCOD9311663
_publ_section_title
;
Structure prediction by ZEFSAII (Michael W. Deem and Ramdas Pophale) SiO2 
 PCOD9311663
Probable space group: P 21 21 2
;
_chemical_formula_sum "Si O2"
_cell_formula_units_Z 32
_cell_length_a 9.186821
_cell_length_b 12.358742
_cell_length_c 12.316272
_cell_angle_alpha 90.000000
_cell_angle_beta 90.000000
_cell_angle_gamma 90.000000
_cell_volume 1398.359355
_symmetry_space_group_name_H-M "P 21 21 2"
_symmetry_group_IT_number 18
_symmetry_cell_setting 'orthorhombic'
loop_
_space_group_symop_operation_xyz
x,y,z
-x,-y,z
1/2+x,1/2-y,-z
1/2-x,1/2+y,-z
loop_
_atom_site_type_symbol
_atom_site_label
_atom_site_fract_x
_atom_site_fract_y
_atom_site_fract_z
Si Si1 0.642323 0.550210 0.634981
Si Si2 0.596918 0.801386 0.925779
Si Si3 0.121903 0.622301 0.841473
Si Si4 0.580942 0.904357 0.381024
Si Si5 0.642888 0.560663 0.885730
Si Si6 0.599136 0.779670 0.584522
Si Si7 0.660456 0.197892 0.752165
Si Si8 0.669411 0.960586 0.748358
O O1 0.500000 0.500000 0.580654
O O2 0.762144 0.458212 0.634125
O O3 0.604993 0.579663 0.759220
O O4 0.682942 0.666400 0.589258
O O5 0.664209 0.680933 0.931725
O O6 0.452548 0.798703 0.852766
O O7 0.692609 0.890153 0.858352
O O8 0.558086 0.836698 0.046571
O O9 0.013722 0.607691 0.739216
O O10 0.219487 0.519534 0.879318
O O11 0.226140 0.711091 0.785677
O O12 0.579133 0.804340 0.458786
O O13 0.500000 0.000000 0.444633
O O14 0.500000 0.500000 0.933845
O O15 0.443071 0.775581 0.648174
O O16 0.682773 0.876821 0.648233
O O17 0.738047 0.080088 0.741854
O O18 0.500000 0.000000 0.748055
#
# Coordination Sequence:
#
# PCOD9311663 Si02
#       8
#     4   4   4   4   4   4   4   4
#     4  10  20  38  66  90 117 160 220 264 306 380
#     4  10  19  35  56  88 114 151 202 261 315 361
#     4  11  24  36  59  91 125 167 208 261 315 384
#     4  11  25  39  57  94 133 167 201 268 333 371
#     4  10  17  37  60  84 114 154 210 250 310 370
#     4  10  18  38  64  87 117 161 217 257 311 372
#     4  10  19  39  63  88 119 164 220 257 308 386
#     4   8  17  31  56  85 112 152 201 255 307 368
#
# _framework density 22.883959999999998
#
# number of rings (size 3 to 8) (size 9 to 14) (size 15 to 20)
#    0.000    2.250    3.750    2.625    1.750    4.500 
#    2.250    0.000    0.000    0.750    0.000    0.000 
#    0.000    0.000    0.000    0.000    0.000    0.000 
#
# Total GULP energy -178403.138386 kJ/mol
# GULP energy per Si atom -5575.098075 kJ/mol
# Density = 2.283187 g / cm^3
# Si number density = 22.883960 Si / 1000 Ang^3
#
#
#
# Elastic Constant Matrix: (Units=GPa)
#
#
# Indices 1 2 3 4 5 6 
#
# 1 19.7779 5.4696 0.8432 0.0000 0.0000 0.0000
# 2 5.4696 133.4539 24.7111 0.0000 0.0000 0.0000
# 3 0.8432 24.7111 127.0284 0.0000 0.0000 0.0000
# 4 0.0000 0.0000 0.0000 104.1788 0.0000 0.0000
# 5 0.0000 0.0000 0.0000 0.0000 -14.6681 0.0000
# 6 0.0000 0.0000 0.0000 0.0000 0.0000 23.0393
#
#
#
# Elastic Compliance Matrix: (Units=1/GPa)
#
#
# Indices 1 2 3 4 5 6 
#
# 1 0.051142 -0.002109 0.000071 0.000000 0.000000 0.000000
# 2 -0.002109 0.007860 -0.001515 0.000000 0.000000 0.000000
# 3 0.000071 -0.001515 0.008167 0.000000 0.000000 0.000000
# 4 0.000000 0.000000 0.000000 0.009599 0.000000 0.000000
# 5 0.000000 0.000000 0.000000 0.000000 -0.068175 0.000000
# 6 0.000000 0.000000 0.000000 0.000000 0.000000 0.043404
#
#
# Mechanical properties :
#
#
# Convention : Reuss Voigt Hill
#
# Bulk Modulus (GPa) = 16.64957 38.03423 27.34190
# Shear Modulus (GPa) = 63.19235 39.12576 51.15906
#
# Velocity S-wave (km/s) = 5.26063 4.13939 4.73333
# Velocity P-wave (km/s) = 6.64759 6.28511 6.46889
#
# Compressibility (1/GPa) = 0.06006160
#
# Stress axis : x y z
#
# Youngs Moduli (GPa) = 19.55352 127.22316 122.45125
#
# Poissons Ratio (x) = 0.26833 -0.00867
# Poissons Ratio (y) = 0.04124 0.18552
# Poissons Ratio (z) = -0.00138 0.19275
#
# Static dielectric constant tensor:
#      x y z
#    x 1.901370 0.000000 0.000000 
#    y 0.000000 2.180860 0.000000 
#    z 0.000000 0.000000 1.848270 
# 
# From -- ./inp_files/5971.got.cif
#   From: 2010.05.17/outbox.cif.g08.bks.cpg/sg18_3_cif.got.tgz:5971.got - 2010.06.03 22:40:56.
