data_PCOD9311417
_publ_section_title
;
Structure prediction by ZEFSAII (Michael W. Deem and Ramdas Pophale) SiO2 
 PCOD9311417
Probable space group: P 2 2 21
;
_chemical_formula_sum "Si O2"
_cell_formula_units_Z 26
_cell_length_a 9.561307
_cell_length_b 5.971063
_cell_length_c 19.596971
_cell_angle_alpha 90.000000
_cell_angle_beta 90.000000
_cell_angle_gamma 90.000000
_cell_volume 1118.813933
_symmetry_space_group_name_H-M "P 2 2 21"
_symmetry_group_IT_number 17
_symmetry_cell_setting 'orthorhombic'
loop_
_space_group_symop_operation_xyz
x,y,z
-x,-y,1/2+z
x,-y,-z
-x,y,1/2-z
loop_
_atom_site_type_symbol
_atom_site_label
_atom_site_fract_x
_atom_site_fract_y
_atom_site_fract_z
Si Si1 0.500000 0.543763 0.750000
Si Si2 0.000000 0.002206 0.250000
Si Si3 0.759817 0.264613 0.690610
Si Si4 0.462759 0.672067 0.603712
Si Si5 0.780629 0.614299 0.072383
Si Si6 0.298529 0.000000 0.500000
Si Si7 0.257635 0.887248 0.928002
Si Si8 0.028824 0.362794 0.133965
O O1 0.623539 0.382877 0.722058
O O2 0.451386 0.696375 0.685778
O O3 0.141152 0.857922 0.245735
O O4 0.002048 0.165542 0.313954
O O5 0.731322 0.077495 0.631618
O O6 0.858603 0.461087 0.662054
O O7 0.380212 0.440098 0.591041
O O8 0.205198 0.128488 0.555222
O O9 0.624607 0.700136 0.586493
O O10 0.610673 0.160096 0.049549
O O11 0.888420 0.499338 0.121676
O O12 0.809360 0.500000 0.000000
O O13 0.107907 0.763658 0.927472
O O14 0.283834 0.000000 0.000000
#
# Coordination Sequence:
#
# PCOD9311417 Si02
#       8
#     2   2   4   4   4   2   4   4
#     4  12  28  48  72 112 152 194 250 316 374 452
#     4  10  26  48  74 102 148 194 248 290 384 446
#     4  11  27  47  74 108 147 197 243 308 378 451
#     4  11  25  47  75 107 151 192 253 310 374 442
#     4  10  26  46  74 104 145 191 244 308 364 443
#     4  10  24  50  74 114 142 206 248 304 382 450
#     4  11  26  47  77 107 144 197 251 312 381 451
#     4  11  25  50  70 111 147 191 242 314 371 442
#
# _framework density 23.238893999999998
#
# number of rings (size 3 to 8) (size 9 to 14) (size 15 to 20)
#    0.000    1.231    2.308    0.462    8.615    8.000 
#    1.385    0.000    0.000    0.923    0.000    0.000 
#    0.000    0.000    0.000    0.000    0.000    0.000 
#
# Total GULP energy -145263.240136 kJ/mol
# GULP energy per Si atom -5587.047698 kJ/mol
# Density = 2.318600 g / cm^3
# Si number density = 23.238894 Si / 1000 Ang^3
#
#
#
# Elastic Constant Matrix: (Units=GPa)
#
#
# Indices 1 2 3 4 5 6 
#
# 1 112.2165 55.2496 45.0186 0.0000 0.0000 0.0000
# 2 55.2496 74.9249 28.9950 0.0000 0.0000 0.0000
# 3 45.0186 28.9950 88.3583 0.0000 0.0000 0.0000
# 4 0.0000 0.0000 0.0000 36.2313 0.0000 0.0000
# 5 0.0000 0.0000 0.0000 0.0000 27.1789 0.0000
# 6 0.0000 0.0000 0.0000 0.0000 0.0000 15.1510
#
#
#
# Elastic Compliance Matrix: (Units=1/GPa)
#
#
# Indices 1 2 3 4 5 6 
#
# 1 0.015569 -0.009634 -0.004771 0.000000 0.000000 0.000000
# 2 -0.009634 0.021250 -0.002065 0.000000 0.000000 0.000000
# 3 -0.004771 -0.002065 0.014426 0.000000 0.000000 0.000000
# 4 0.000000 0.000000 0.000000 0.027600 0.000000 0.000000
# 5 0.000000 0.000000 0.000000 0.000000 0.036793 0.000000
# 6 0.000000 0.000000 0.000000 0.000000 0.000000 0.066002
#
#
# Mechanical properties :
#
#
# Convention : Reuss Voigt Hill
#
# Bulk Modulus (GPa) = 54.62898 59.33623 56.98261
# Shear Modulus (GPa) = 22.65716 25.46133 24.05924
#
# Velocity S-wave (km/s) = 3.12583 3.31363 3.22110
# Velocity P-wave (km/s) = 6.04867 6.34261 6.19738
#
# Compressibility (1/GPa) = 0.01830530
#
# Stress axis : x y z
#
# Youngs Moduli (GPa) = 64.23209 47.05922 69.32032
#
# Poissons Ratio (x) = 0.45337 0.33071
# Poissons Ratio (y) = 0.61881 0.14312
# Poissons Ratio (z) = 0.30644 0.09716
#
# Static dielectric constant tensor:
#      x y z
#    x 1.898790 0.000000 0.000000 
#    y 0.000000 1.929960 0.000000 
#    z 0.000000 0.000000 1.893960 
# 
# From -- ./inp_files/10593.got.cif
#   From: 2010.05.17/outbox.cif.g08.bks.cpg/sg17_6_cif.got.tgz:10593.got - 2010.06.03 22:34:06.
