data_PCOD9311461
_publ_section_title
;
Structure prediction by ZEFSAII (Michael W. Deem and Ramdas Pophale) SiO2 
 PCOD9311461
Probable space group: P 2 2 21
;
_chemical_formula_sum "Si O2"
_cell_formula_units_Z 28
_cell_length_a 9.020296
_cell_length_b 8.256641
_cell_length_c 17.532870
_cell_angle_alpha 90.000000
_cell_angle_beta 90.000000
_cell_angle_gamma 90.000000
_cell_volume 1305.801622
_symmetry_space_group_name_H-M "P 2 2 21"
_symmetry_group_IT_number 17
_symmetry_cell_setting 'orthorhombic'
loop_
_space_group_symop_operation_xyz
x,y,z
-x,-y,1/2+z
x,-y,-z
-x,y,1/2-z
loop_
_atom_site_type_symbol
_atom_site_label
_atom_site_fract_x
_atom_site_fract_y
_atom_site_fract_z
Si Si1 0.798541 0.829759 0.527245
Si Si2 0.007515 0.365237 0.563729
Si Si3 0.237818 0.430834 0.817085
Si Si4 0.269004 0.137539 0.564348
Si Si5 0.151833 0.219595 0.200831
Si Si6 0.823092 0.892583 0.232987
Si Si7 0.543136 0.647206 0.455408
O O1 0.869166 0.804329 0.609933
O O2 0.669163 0.701279 0.515422
O O3 0.920515 0.794015 0.463301
O O4 0.735568 0.000000 0.500000
O O5 0.981879 0.500000 0.500000
O O6 0.173828 0.304348 0.561232
O O7 0.923930 0.419424 0.640254
O O8 0.239550 0.613077 0.785181
O O9 0.242661 0.279689 0.759393
O O10 0.366285 0.403408 0.879673
O O11 0.215420 0.072236 0.645744
O O12 0.436016 0.203296 0.561790
O O13 0.245211 0.000000 0.500000
O O14 0.000000 0.228691 0.250000
O O15 0.231766 0.051686 0.222783
O O16 0.000000 0.882243 0.250000
O O17 0.464968 0.500000 0.500000
#
# Coordination Sequence:
#
# PCOD9311461 Si02
#       7
#     4   4   4   4   4   4   4
#     4  11  21  39  71 100 132 183 236 288 346 422
#     4  11  21  37  67 103 134 178 235 289 349 417
#     4  11  21  45  74  99 140 186 233 291 362 431
#     4  12  28  45  68 100 143 186 237 298 362 420
#     4  11  23  37  68 110 139 174 233 294 355 428
#     4  11  25  44  67 106 145 181 228 300 367 426
#     4  11  23  47  70  97 136 184 242 288 350 430
#
# _framework density 21.442767
#
# number of rings (size 3 to 8) (size 9 to 14) (size 15 to 20)
#    0.000    0.857    4.286    4.286    6.000    0.571 
#    2.571    0.000    0.000    0.000    0.000    0.000 
#    0.000    0.000    0.000    0.000    0.000    0.000 
#
# Total GULP energy -156206.190772 kJ/mol
# GULP energy per Si atom -5578.792528 kJ/mol
# Density = 2.139396 g / cm^3
# Si number density = 21.442767 Si / 1000 Ang^3
#
#
#
# Elastic Constant Matrix: (Units=GPa)
#
#
# Indices 1 2 3 4 5 6 
#
# 1 55.0059 -9.1353 3.8336 0.0000 0.0000 0.0000
# 2 -9.1353 112.1669 22.3177 0.0000 0.0000 0.0000
# 3 3.8336 22.3177 77.8075 0.0000 0.0000 0.0000
# 4 0.0000 0.0000 0.0000 32.0374 0.0000 0.0000
# 5 0.0000 0.0000 0.0000 0.0000 15.4418 0.0000
# 6 0.0000 0.0000 0.0000 0.0000 0.0000 -12.8629
#
#
#
# Elastic Compliance Matrix: (Units=1/GPa)
#
#
# Indices 1 2 3 4 5 6 
#
# 1 0.018578 0.001798 -0.001431 0.000000 0.000000 0.000000
# 2 0.001798 0.009629 -0.002850 0.000000 0.000000 0.000000
# 3 -0.001431 -0.002850 0.013740 0.000000 0.000000 0.000000
# 4 0.000000 0.000000 0.000000 0.031214 0.000000 0.000000
# 5 0.000000 0.000000 0.000000 0.000000 0.064759 0.000000
# 6 0.000000 0.000000 0.000000 0.000000 0.000000 -0.077743
#
#
# Mechanical properties :
#
#
# Convention : Reuss Voigt Hill
#
# Bulk Modulus (GPa) = 27.04162 31.00137 29.02149
# Shear Modulus (GPa) = 64.54000 22.12088 43.33044
#
# Velocity S-wave (km/s) = 5.49218 3.21538 4.50015
# Velocity P-wave (km/s) = 7.27030 5.31733 6.36911
#
# Compressibility (1/GPa) = 0.03698004
#
# Stress axis : x y z
#
# Youngs Moduli (GPa) = 53.82663 103.85449 72.77847
#
# Poissons Ratio (x) = -0.18671 0.10415
# Poissons Ratio (y) = -0.09677 0.20745
# Poissons Ratio (z) = 0.07703 0.29603
#
# Static dielectric constant tensor:
#      x y z
#    x 1.775980 0.000000 0.000000 
#    y 0.000000 1.863700 0.000000 
#    z 0.000000 0.000000 1.813130 
# 
# From -- ./inp_files/9470.got.cif
#   From: 2010.05.17/outbox.cif.g08.bks.cpg/sg17_5_cif.got.tgz:9470.got - 2010.06.03 22:34:06.
