data_PCOD9311705
_publ_section_title
;
Structure prediction by ZEFSAII (Michael W. Deem and Ramdas Pophale) SiO2 
 PCOD9311705
Probable space group: P 21 21 2
;
_chemical_formula_sum "Si O2"
_cell_formula_units_Z 32
_cell_length_a 15.900942
_cell_length_b 8.240956
_cell_length_c 11.630005
_cell_angle_alpha 90.000000
_cell_angle_beta 90.000000
_cell_angle_gamma 90.000000
_cell_volume 1523.983799
_symmetry_space_group_name_H-M "P 21 21 2"
_symmetry_group_IT_number 18
_symmetry_cell_setting 'orthorhombic'
loop_
_space_group_symop_operation_xyz
x,y,z
-x,-y,z
1/2+x,1/2-y,-z
1/2-x,1/2+y,-z
loop_
_atom_site_type_symbol
_atom_site_label
_atom_site_fract_x
_atom_site_fract_y
_atom_site_fract_z
Si Si1 0.595650 0.068206 0.437519
Si Si2 0.622107 0.882442 0.656993
Si Si3 0.261116 0.087316 0.072516
Si Si4 0.414730 0.898026 0.178243
Si Si5 0.958217 0.829745 0.396653
Si Si6 0.164662 0.772822 0.121147
Si Si7 0.514094 0.308189 0.988190
Si Si8 0.144258 0.282322 0.203872
O O1 0.622337 0.101433 0.307395
O O2 0.588975 0.240816 0.500420
O O3 0.500000 0.000000 0.431900
O O4 0.642448 0.943807 0.526414
O O5 0.530426 0.797767 0.644857
O O6 0.668287 0.756758 0.742248
O O7 0.631082 0.046600 0.732602
O O8 0.236296 0.234074 0.158646
O O9 0.345442 0.993776 0.105678
O O10 0.188843 0.954838 0.087749
O O11 0.270186 0.157252 0.945312
O O12 0.449294 0.737904 0.113818
O O13 0.500000 0.000000 0.182390
O O14 0.892131 0.848393 0.294063
O O15 0.000000 0.000000 0.426066
O O16 0.073945 0.737689 0.062572
O O17 0.500000 0.500000 0.978911
O O18 0.583822 0.232579 0.904695
#
# Coordination Sequence:
#
# PCOD9311705 Si02
#       8
#     4   4   4   4   4   4   4   4
#     4   8  19  37  60  88 115 159 220 264 304 381
#     4  10  20  37  64  91 125 163 213 271 314 363
#     4  12  25  39  60  92 132 165 206 263 320 387
#     4  11  23  43  63  83 123 174 212 251 328 392
#     4  10  18  33  63  94 122 158 213 271 315 366
#     4  12  23  38  60  91 129 166 204 264 320 379
#     4  12  23  38  62  93 128 165 212 256 316 400
#     4  11  21  37  59  95 127 158 210 263 317 379
#
# _framework density 20.997599999999998
#
# number of rings (size 3 to 8) (size 9 to 14) (size 15 to 20)
#    0.000    1.250    3.750    4.500    0.000    0.500 
#    0.000    2.500    0.000    0.000    0.000    0.000 
#    0.000    0.000    0.000    0.000    0.000    0.000 
#
# Total GULP energy -178311.659167 kJ/mol
# GULP energy per Si atom -5572.239349 kJ/mol
# Density = 2.094981 g / cm^3
# Si number density = 20.997600 Si / 1000 Ang^3
#
#
#
# Elastic Constant Matrix: (Units=GPa)
#
#
# Indices 1 2 3 4 5 6 
#
# 1 50.1645 9.2212 -4.0018 0.0000 0.0000 0.0000
# 2 9.2212 61.7259 8.3087 0.0000 0.0000 0.0000
# 3 -4.0018 8.3087 84.6524 0.0000 0.0000 0.0000
# 4 0.0000 0.0000 0.0000 15.5673 0.0000 0.0000
# 5 0.0000 0.0000 0.0000 0.0000 -15.0619 0.0000
# 6 0.0000 0.0000 0.0000 0.0000 0.0000 30.2796
#
#
#
# Elastic Compliance Matrix: (Units=1/GPa)
#
#
# Indices 1 2 3 4 5 6 
#
# 1 0.020636 -0.003257 0.001295 0.000000 0.000000 0.000000
# 2 -0.003257 0.016932 -0.001816 0.000000 0.000000 0.000000
# 3 0.001295 -0.001816 0.012052 0.000000 0.000000 0.000000
# 4 0.000000 0.000000 0.000000 0.064237 0.000000 0.000000
# 5 0.000000 0.000000 0.000000 0.000000 -0.066393 0.000000
# 6 0.000000 0.000000 0.000000 0.000000 0.000000 0.033026
#
#
# Mechanical properties :
#
#
# Convention : Reuss Voigt Hill
#
# Bulk Modulus (GPa) = 23.77273 24.84434 24.30853
# Shear Modulus (GPa) = 48.98704 18.35798 33.67251
#
# Velocity S-wave (km/s) = 4.83534 2.96005 4.00889
# Velocity P-wave (km/s) = 6.52075 4.85182 5.74719
#
# Compressibility (1/GPa) = 0.04206501
#
# Stress axis : x y z
#
# Youngs Moduli (GPa) = 48.45789 59.06087 82.97050
#
# Poissons Ratio (x) = 0.19237 -0.10747
# Poissons Ratio (y) = 0.15784 0.15066
# Poissons Ratio (z) = -0.06277 0.10725
#
# Static dielectric constant tensor:
#      x y z
#    x 1.814020 0.000000 0.000000 
#    y 0.000000 1.797650 0.000000 
#    z 0.000000 0.000000 1.817130 
# 
# From -- ./inp_files/6142.got.cif
#   From: 2010.05.17/outbox.cif.g08.bks.cpg/sg18_4_cif.got.tgz:6142.got - 2010.06.03 22:40:56.
