data_PCOD9311710
_publ_section_title
;
Structure prediction by ZEFSAII (Michael W. Deem and Ramdas Pophale) SiO2 
 PCOD9311710
Probable space group: P 21 21 2
;
_chemical_formula_sum "Si O2"
_cell_formula_units_Z 32
_cell_length_a 19.776157
_cell_length_b 9.880333
_cell_length_c 7.681145
_cell_angle_alpha 90.000000
_cell_angle_beta 90.000000
_cell_angle_gamma 90.000000
_cell_volume 1500.857455
_symmetry_space_group_name_H-M "P 21 21 2"
_symmetry_group_IT_number 18
_symmetry_cell_setting 'orthorhombic'
loop_
_space_group_symop_operation_xyz
x,y,z
-x,-y,z
1/2+x,1/2-y,-z
1/2-x,1/2+y,-z
loop_
_atom_site_type_symbol
_atom_site_label
_atom_site_fract_x
_atom_site_fract_y
_atom_site_fract_z
Si Si1 0.874938 0.686530 0.757677
Si Si2 0.159604 0.587943 0.256605
Si Si3 0.930334 0.646366 0.430072
Si Si4 0.944003 0.893126 0.951836
Si Si5 0.524975 0.854869 0.886899
Si Si6 0.774322 0.149994 0.304364
Si Si7 0.653972 0.380618 0.732150
Si Si8 0.783711 0.639622 0.061271
O O1 0.933683 0.628885 0.636694
O O2 0.894235 0.840405 0.801948
O O3 0.805008 0.661906 0.652848
O O4 0.853844 0.629199 0.947291
O O5 0.115772 0.474466 0.355049
O O6 0.188267 0.714302 0.363072
O O7 0.218857 0.499346 0.167499
O O8 0.105447 0.650236 0.121128
O O9 0.997036 0.653659 0.313055
O O10 0.891603 0.787582 0.392086
O O11 0.987764 0.763074 0.011448
O O12 0.897135 0.932813 0.116125
O O13 0.000000 0.000000 0.899382
O O14 0.500000 0.000000 0.952909
O O15 0.808405 0.008386 0.351123
O O16 0.770905 0.153837 0.090918
O O17 0.706099 0.273687 0.823045
#
# Coordination Sequence:
#
# PCOD9311710 Si02
#       8
#     4   4   4   4   4   4   4   4
#     4   9  20  33  51  76 109 140 163 213 274 310
#     4  10  18  34  55  78  99 137 180 216 253 315
#     4   9  19  35  52  71 105 142 174 211 259 310
#     4  10  19  35  55  78 104 134 175 223 269 308
#     4   9  18  34  56  76  97 136 181 218 253 308
#     4  10  19  30  56  79 106 131 176 217 264 315
#     4   9  17  33  53  74  99 137 176 212 256 311
#     4   8  18  32  51  77 105 133 165 212 266 306
#
# _framework density 21.321147
#
# number of rings (size 3 to 8) (size 9 to 14) (size 15 to 20)
#    0.750    2.000    0.000    3.750    0.000    1.000 
#    0.000    9.375    0.000    0.000    0.000    0.000 
#    0.000    0.000    0.000    0.000    0.000    0.000 
#
# Total GULP energy -178134.781642 kJ/mol
# GULP energy per Si atom -5566.711926 kJ/mol
# Density = 2.127262 g / cm^3
# Si number density = 21.321147 Si / 1000 Ang^3
#
#
#
# Elastic Constant Matrix: (Units=GPa)
#
#
# Indices 1 2 3 4 5 6 
#
# 1 61.1355 38.9650 -4.4853 0.0000 0.0000 0.0000
# 2 38.9650 95.6716 6.3336 0.0000 0.0000 0.0000
# 3 -4.4853 6.3336 34.3343 0.0000 0.0000 0.0000
# 4 0.0000 0.0000 0.0000 2.0655 0.0000 0.0000
# 5 0.0000 0.0000 0.0000 0.0000 15.3295 0.0000
# 6 0.0000 0.0000 0.0000 0.0000 0.0000 37.1787
#
#
#
# Elastic Compliance Matrix: (Units=1/GPa)
#
#
# Indices 1 2 3 4 5 6 
#
# 1 0.022834 -0.009615 0.004757 0.000000 0.000000 0.000000
# 2 -0.009615 0.014630 -0.003955 0.000000 0.000000 0.000000
# 3 0.004757 -0.003955 0.030476 0.000000 0.000000 0.000000
# 4 0.000000 0.000000 0.000000 0.484140 0.000000 0.000000
# 5 0.000000 0.000000 0.000000 0.000000 0.065234 0.000000
# 6 0.000000 0.000000 0.000000 0.000000 0.000000 0.026897
#
#
# Mechanical properties :
#
#
# Convention : Reuss Voigt Hill
#
# Bulk Modulus (GPa) = 19.87495 30.30755 25.09125
# Shear Modulus (GPa) = 7.36802 20.93662 14.15232
#
# Velocity S-wave (km/s) = 1.86098 3.13703 2.57917
# Velocity P-wave (km/s) = 3.73625 5.23134 4.54569
#
# Compressibility (1/GPa) = 0.05031459
#
# Stress axis : x y z
#
# Youngs Moduli (GPa) = 43.79417 68.35215 32.81233
#
# Poissons Ratio (x) = 0.65719 -0.15608
# Poissons Ratio (y) = 0.42107 0.12977
# Poissons Ratio (z) = -0.20831 0.27032
#
# Static dielectric constant tensor:
#      x y z
#    x 1.804640 0.000000 0.000000 
#    y 0.000000 1.767250 0.000000 
#    z 0.000000 0.000000 1.816150 
# 
# From -- ./inp_files/4768.got.cif
#   From: 2010.05.17/outbox.cif.g08.bks.cpg/sg18_3_cif.got.tgz:4768.got - 2010.06.03 22:40:56.
