data_PCOD9311934
_publ_section_title
;
Structure prediction by ZEFSAII (Michael W. Deem and Ramdas Pophale) SiO2 
 PCOD9311934
Probable space group: P 21 21 2
;
_chemical_formula_sum "Si O2"
_cell_formula_units_Z 32
_cell_length_a 19.751189
_cell_length_b 9.844043
_cell_length_c 9.217270
_cell_angle_alpha 90.000000
_cell_angle_beta 90.000000
_cell_angle_gamma 90.000000
_cell_volume 1792.128128
_symmetry_space_group_name_H-M "P 21 21 2"
_symmetry_group_IT_number 18
_symmetry_cell_setting 'orthorhombic'
loop_
_space_group_symop_operation_xyz
x,y,z
-x,-y,z
1/2+x,1/2-y,-z
1/2-x,1/2+y,-z
loop_
_atom_site_type_symbol
_atom_site_label
_atom_site_fract_x
_atom_site_fract_y
_atom_site_fract_z
Si Si1 0.210444 0.620940 0.364610
Si Si2 0.599025 0.286169 0.887155
Si Si3 0.729965 0.388802 0.043728
Si Si4 0.575702 0.987960 0.765997
Si Si5 0.681249 0.679125 0.114421
Si Si6 0.944620 0.218282 0.072069
Si Si7 0.421799 0.481689 0.661563
Si Si8 0.307800 0.387254 0.451543
O O1 0.133780 0.570101 0.337646
O O2 0.251493 0.503846 0.446282
O O3 0.213120 0.758746 0.453426
O O4 0.244220 0.641880 0.206118
O O5 0.657917 0.324032 0.998814
O O6 0.523745 0.310801 0.950667
O O7 0.604071 0.385706 0.748129
O O8 0.600004 0.131564 0.830493
O O9 0.783183 0.318308 0.935659
O O10 0.720984 0.551898 0.040746
O O11 0.565512 0.876835 0.892597
O O12 0.500000 0.000000 0.699384
O O13 0.682345 0.658264 0.285716
O O14 0.605212 0.675451 0.054557
O O15 0.922143 0.137300 0.217062
O O16 0.500000 0.500000 0.618869
O O17 0.374829 0.446171 0.527235
#
# Coordination Sequence:
#
# PCOD9311934 Si02
#       8
#     4   4   4   4   4   4   4   4
#     4  11  24  42  59  90 122 161 204 247 311 365
#     4  10  21  34  67  94 112 154 209 252 300 355
#     4  11  22  38  62  90 118 151 205 249 298 359
#     4  10  20  39  66  88 117 156 209 253 288 361
#     4  11  23  38  61  88 120 157 196 257 303 355
#     4  10  19  40  63  87 117 155 206 254 297 353
#     4  10  20  39  63  87 116 163 203 241 300 369
#     4  11  25  40  58  89 127 162 195 250 312 370
#
# _framework density 17.855865000000001
#
# number of rings (size 3 to 8) (size 9 to 14) (size 15 to 20)
#    0.000    1.500    3.750    1.500    3.500    0.000 
#    4.500    0.000    0.000    0.000    0.000    0.000 
#    0.000    0.000    0.000    0.000    0.000    0.000 
#
# Total GULP energy -178625.732823 kJ/mol
# GULP energy per Si atom -5582.054151 kJ/mol
# Density = 1.781522 g / cm^3
# Si number density = 17.855865 Si / 1000 Ang^3
#
#
#
# Elastic Constant Matrix: (Units=GPa)
#
#
# Indices 1 2 3 4 5 6 
#
# 1 106.9667 28.5889 52.7849 0.0000 0.0000 0.0000
# 2 28.5889 92.6670 43.2875 0.0000 0.0000 0.0000
# 3 52.7849 43.2875 59.1577 0.0000 0.0000 0.0000
# 4 0.0000 0.0000 0.0000 22.2551 0.0000 0.0000
# 5 0.0000 0.0000 0.0000 0.0000 24.5627 0.0000
# 6 0.0000 0.0000 0.0000 0.0000 0.0000 31.4768
#
#
#
# Elastic Compliance Matrix: (Units=1/GPa)
#
#
# Indices 1 2 3 4 5 6 
#
# 1 0.017177 0.002826 -0.017395 0.000000 0.000000 0.000000
# 2 0.002826 0.016861 -0.014859 0.000000 0.000000 0.000000
# 3 -0.017395 -0.014859 0.043298 0.000000 0.000000 0.000000
# 4 0.000000 0.000000 0.000000 0.044934 0.000000 0.000000
# 5 0.000000 0.000000 0.000000 0.000000 0.040712 0.000000
# 6 0.000000 0.000000 0.000000 0.000000 0.000000 0.031769
#
#
# Mechanical properties :
#
#
# Convention : Reuss Voigt Hill
#
# Bulk Modulus (GPa) = 54.11230 56.45713 55.28472
# Shear Modulus (GPa) = 19.24806 24.60091 21.92448
#
# Velocity S-wave (km/s) = 3.28680 3.71583 3.50788
# Velocity P-wave (km/s) = 6.69141 7.07791 6.88737
#
# Compressibility (1/GPa) = 0.01848009
#
# Stress axis : x y z
#
# Youngs Moduli (GPa) = 58.21678 59.30991 23.09578
#
# Poissons Ratio (x) = -0.16763 0.40175
# Poissons Ratio (y) = -0.16454 0.34319
# Poissons Ratio (z) = 1.01267 0.88130
#
# Static dielectric constant tensor:
#      x y z
#    x 1.633170 0.000000 0.000000 
#    y 0.000000 1.634930 0.000000 
#    z 0.000000 0.000000 1.562370 
# 
# From -- ./inp_files/4685.got.cif
#   From: 2010.05.17/outbox.cif.g08.bks.cpg/sg18_3_cif.got.tgz:4685.got - 2010.06.03 22:40:56.
