data_PCOD9311451
_publ_section_title
;
Structure prediction by ZEFSAII (Michael W. Deem and Ramdas Pophale) SiO2 
 PCOD9311451
Probable space group: P 2 2 21
;
_chemical_formula_sum "Si O2"
_cell_formula_units_Z 30
_cell_length_a 14.517018
_cell_length_b 7.605306
_cell_length_c 11.398856
_cell_angle_alpha 90.000000
_cell_angle_beta 90.000000
_cell_angle_gamma 90.000000
_cell_volume 1258.506246
_symmetry_space_group_name_H-M "P 2 2 21"
_symmetry_group_IT_number 17
_symmetry_cell_setting 'orthorhombic'
loop_
_space_group_symop_operation_xyz
x,y,z
-x,-y,1/2+z
x,-y,-z
-x,y,1/2-z
loop_
_atom_site_type_symbol
_atom_site_label
_atom_site_fract_x
_atom_site_fract_y
_atom_site_fract_z
Si Si1 0.824803 0.153028 0.776186
Si Si2 0.359416 0.286520 0.615246
Si Si3 0.181431 0.756658 0.768476
Si Si4 0.933002 0.468389 0.863574
Si Si5 0.500000 0.079288 0.250000
Si Si6 0.431657 0.833823 0.083007
Si Si7 0.768076 0.212134 0.521867
Si Si8 0.641087 0.321954 0.152420
O O1 0.722584 0.170444 0.830675
O O2 0.889965 0.273895 0.854626
O O3 0.819223 0.236134 0.645121
O O4 0.855705 0.951433 0.759897
O O5 0.469207 0.254368 0.597354
O O6 0.361469 0.472810 0.681960
O O7 0.326484 0.306466 0.480589
O O8 0.141913 0.614292 0.677945
O O9 0.289786 0.764546 0.742840
O O10 0.179692 0.713365 0.907705
O O11 0.000000 0.482076 0.750000
O O12 0.961872 0.500000 0.000000
O O13 0.546722 0.214443 0.161263
O O14 0.423223 0.943230 0.204166
O O15 0.339503 0.734246 0.043260
O O16 0.443984 0.000000 0.000000
O O17 0.763326 0.000000 0.500000
#
# Coordination Sequence:
#
# PCOD9311451 Si02
#       8
#     4   4   4   4   2   4   4   4
#     4  11  24  46  78 108 146 200 246 306 375 451
#     4  11  23  39  61  94 141 190 248 305 359 434
#     4  11  24  47  77 107 150 196 247 307 377 453
#     4  12  30  54  83 121 156 187 244 306 383 474
#     4  12  22  34  60  88 136 192 252 314 366 416
#     4  11  20  37  59  94 138 193 258 312 362 420
#     4   9  21  40  69 106 146 197 261 304 363 435
#     4  11  23  39  59  93 137 186 247 303 362 431
#
# _framework density 23.837786000000001
#
# number of rings (size 3 to 8) (size 9 to 14) (size 15 to 20)
#    0.000    1.067    2.667    4.800    1.867    3.733 
#    0.000    0.000    0.000    0.000    0.000    0.000 
#    0.000    0.000    0.000    0.000    0.000    0.000 
#
# Total GULP energy -167255.038740 kJ/mol
# GULP energy per Si atom -5575.167958 kJ/mol
# Density = 2.378353 g / cm^3
# Si number density = 23.837786 Si / 1000 Ang^3
#
#
#
# Elastic Constant Matrix: (Units=GPa)
#
#
# Indices 1 2 3 4 5 6 
#
# 1 34.8065 -6.9649 15.1193 0.0000 0.0000 0.0000
# 2 -6.9649 27.5954 0.7911 0.0000 0.0000 0.0000
# 3 15.1193 0.7911 118.0825 0.0000 0.0000 0.0000
# 4 0.0000 0.0000 0.0000 27.2820 0.0000 0.0000
# 5 0.0000 0.0000 0.0000 0.0000 25.3992 0.0000
# 6 0.0000 0.0000 0.0000 0.0000 0.0000 23.2493
#
#
#
# Elastic Compliance Matrix: (Units=1/GPa)
#
#
# Indices 1 2 3 4 5 6 
#
# 1 0.032195 0.008246 -0.004177 0.000000 0.000000 0.000000
# 2 0.008246 0.038357 -0.001313 0.000000 0.000000 0.000000
# 3 -0.004177 -0.001313 0.009012 0.000000 0.000000 0.000000
# 4 0.000000 0.000000 0.000000 0.036654 0.000000 0.000000
# 5 0.000000 0.000000 0.000000 0.000000 0.039371 0.000000
# 6 0.000000 0.000000 0.000000 0.000000 0.000000 0.043012
#
#
# Mechanical properties :
#
#
# Convention : Reuss Voigt Hill
#
# Bulk Modulus (GPa) = 11.75440 22.04172 16.89806
# Shear Modulus (GPa) = 22.57855 26.62201 24.60028
#
# Velocity S-wave (km/s) = 3.08096 3.34548 3.21594
# Velocity P-wave (km/s) = 4.19501 4.91829 4.57098
#
# Compressibility (1/GPa) = 0.08507454
#
# Stress axis : x y z
#
# Youngs Moduli (GPa) = 31.06085 26.07109 110.95904
#
# Poissons Ratio (x) = -0.21497 0.46353
# Poissons Ratio (y) = -0.25611 0.14566
# Poissons Ratio (z) = 0.12976 0.03422
#
# Static dielectric constant tensor:
#      x y z
#    x 1.928800 0.000000 0.000000 
#    y 0.000000 1.991970 0.000000 
#    z 0.000000 0.000000 2.082000 
# 
# From -- ./inp_files/7279.got.cif
#   From: 2010.05.17/outbox.cif.g08.bks.cpg/sg17_4_cif.got.tgz:7279.got - 2010.06.03 22:34:06.
