data_PCOD9311564
_publ_section_title
;
Structure prediction by ZEFSAII (Michael W. Deem and Ramdas Pophale) SiO2 
 PCOD9311564
Probable space group: P 2 2 21
;
_chemical_formula_sum "Si O2"
_cell_formula_units_Z 22
_cell_length_a 5.144416
_cell_length_b 4.883875
_cell_length_c 28.413328
_cell_angle_alpha 90.000000
_cell_angle_beta 90.000000
_cell_angle_gamma 90.000000
_cell_volume 713.875907
_symmetry_space_group_name_H-M "P 2 2 21"
_symmetry_group_IT_number 17
_symmetry_cell_setting 'orthorhombic'
loop_
_space_group_symop_operation_xyz
x,y,z
-x,-y,1/2+z
x,-y,-z
-x,y,1/2-z
loop_
_atom_site_type_symbol
_atom_site_label
_atom_site_fract_x
_atom_site_fract_y
_atom_site_fract_z
Si Si1 0.218500 0.714588 0.320866
Si Si2 0.784233 0.841262 0.676424
Si Si3 0.500000 0.942830 0.250000
Si Si4 0.338330 0.113504 0.068584
Si Si5 0.979417 0.500000 0.500000
Si Si6 0.000000 0.431368 0.250000
Si Si7 0.363538 0.587354 0.425027
O O1 0.257115 0.682531 0.262159
O O2 0.313905 0.603992 0.369812
O O3 0.501854 0.948302 0.310680
O O4 0.005776 0.937877 0.328161
O O5 0.748580 0.813111 0.738658
O O6 0.727516 0.784111 0.621591
O O7 0.988092 0.560097 0.690691
O O8 0.611644 0.268812 0.062426
O O9 0.394770 0.792836 0.067081
O O10 0.174840 0.273747 0.030219
O O11 0.143868 0.669972 0.461291
#
# Coordination Sequence:
#
# PCOD9311564 Si02
#       7
#     4   4   2   4   2   2   4
#     4  12  27  48  73 117 165 219 271 343 420 500
#     4  12  27  48  73 117 165 219 271 343 420 500
#     4  12  22  46  72 106 172 204 264 320 406 512
#     4  12  32  56  88 127 165 223 296 354 443 523
#     4  12  32  62  92 118 180 226 284 398 432 510
#     4  12  24  42  76 112 162 220 268 322 422 502
#     4  12  32  56  88 127 165 223 296 354 443 523
#
# _framework density 30.817681
#
# number of rings (size 3 to 8) (size 9 to 14) (size 15 to 20)
#    0.000    0.000    5.455    1.636   15.273    4.364 
#    0.000    0.000    0.000    0.000    0.000    0.000 
#    0.000    0.000    0.000    0.000    0.000    0.000 
#
# Total GULP energy -122947.750693 kJ/mol
# GULP energy per Si atom -5588.534122 kJ/mol
# Density = 3.074754 g / cm^3
# Si number density = 30.817681 Si / 1000 Ang^3
#
#
#
# Elastic Constant Matrix: (Units=GPa)
#
#
# Indices 1 2 3 4 5 6 
#
# 1 183.0484 46.7302 83.2352 0.0000 0.0000 0.0000
# 2 46.7302 219.0393 43.1611 0.0000 0.0000 0.0000
# 3 83.2352 43.1611 234.9571 0.0000 0.0000 0.0000
# 4 0.0000 0.0000 0.0000 49.2482 0.0000 0.0000
# 5 0.0000 0.0000 0.0000 0.0000 70.7393 0.0000
# 6 0.0000 0.0000 0.0000 0.0000 0.0000 60.8027
#
#
#
# Elastic Compliance Matrix: (Units=1/GPa)
#
#
# Indices 1 2 3 4 5 6 
#
# 1 0.006717 -0.001000 -0.002196 0.000000 0.000000 0.000000
# 2 -0.001000 0.004886 -0.000543 0.000000 0.000000 0.000000
# 3 -0.002196 -0.000543 0.005134 0.000000 0.000000 0.000000
# 4 0.000000 0.000000 0.000000 0.020305 0.000000 0.000000
# 5 0.000000 0.000000 0.000000 0.000000 0.014136 0.000000
# 6 0.000000 0.000000 0.000000 0.000000 0.000000 0.016447
#
#
# Mechanical properties :
#
#
# Convention : Reuss Voigt Hill
#
# Bulk Modulus (GPa) = 108.01469 109.25530 108.63500
# Shear Modulus (GPa) = 63.94750 67.08593 65.51672
#
# Velocity S-wave (km/s) = 4.56019 4.67075 4.61580
# Velocity P-wave (km/s) = 7.92797 8.03847 7.98341
#
# Compressibility (1/GPa) = 0.00925800
#
# Stress axis : x y z
#
# Youngs Moduli (GPa) = 148.87940 204.67368 194.79029
#
# Poissons Ratio (x) = 0.20474 0.42771
# Poissons Ratio (y) = 0.14893 0.10580
# Poissons Ratio (z) = 0.32690 0.11117
#
# Static dielectric constant tensor:
#      x y z
#    x 3.177170 0.000000 0.000000 
#    y 0.000000 2.979630 0.000000 
#    z 0.000000 0.000000 2.258580 
# 
# From -- ./inp_files/11101.got.cif
#   From: 2010.05.17/outbox.cif.g08.bks.cpg/sg17_6_cif.got.tgz:11101.got - 2010.06.03 22:34:06.
