data_PCOD9311875
_publ_section_title
;
Structure prediction by ZEFSAII (Michael W. Deem and Ramdas Pophale) SiO2 
 PCOD9311875
Probable space group: P 21 21 2
;
_chemical_formula_sum "Si O2"
_cell_formula_units_Z 32
_cell_length_a 8.341779
_cell_length_b 14.503694
_cell_length_c 11.261966
_cell_angle_alpha 90.000000
_cell_angle_beta 90.000000
_cell_angle_gamma 90.000000
_cell_volume 1362.547089
_symmetry_space_group_name_H-M "P 21 21 2"
_symmetry_group_IT_number 18
_symmetry_cell_setting 'orthorhombic'
loop_
_space_group_symop_operation_xyz
x,y,z
-x,-y,z
1/2+x,1/2-y,-z
1/2-x,1/2+y,-z
loop_
_atom_site_type_symbol
_atom_site_label
_atom_site_fract_x
_atom_site_fract_y
_atom_site_fract_z
Si Si1 0.269968 0.888441 0.546415
Si Si2 0.722659 0.066749 0.819270
Si Si3 0.662923 0.744264 0.087621
Si Si4 0.139980 0.635354 0.148767
Si Si5 0.720324 0.547253 0.698948
Si Si6 0.881730 0.858838 0.257276
Si Si7 0.498590 0.745412 0.516083
Si Si8 0.627951 0.234251 0.261841
O O1 0.228354 0.914626 0.681232
O O2 0.223888 0.962189 0.445407
O O3 0.454466 0.852501 0.541316
O O4 0.173355 0.800847 0.489643
O O5 0.805723 0.134709 0.914137
O O6 0.742159 0.959261 0.849910
O O7 0.037048 0.401666 0.174206
O O8 0.811036 0.786479 0.164336
O O9 0.495226 0.751013 0.155846
O O10 0.649980 0.805419 0.971003
O O11 0.209456 0.708339 0.242576
O O12 0.556245 0.592827 0.750573
O O13 0.738852 0.445116 0.746825
O O14 0.847841 0.624903 0.728822
O O15 0.898567 0.808914 0.383868
O O16 0.449306 0.728665 0.381037
#
# Coordination Sequence:
#
# PCOD9311875 Si02
#       8
#     4   4   4   4   4   4   4   4
#     4  10  20  38  65  97 136 173 214 274 342 405
#     4  11  24  48  66  96 132 181 227 281 339 396
#     4  12  24  46  69  96 134 182 227 287 334 395
#     4  11  28  44  69  94 131 184 232 282 332 397
#     4   9  22  37  63 102 132 176 217 268 339 410
#     4  10  20  39  65  96 136 178 214 273 338 407
#     4  10  19  36  64  99 133 172 213 273 344 410
#     4  11  23  41  65 100 132 171 226 280 340 402
#
# _framework density 23.485427999999999
#
# number of rings (size 3 to 8) (size 9 to 14) (size 15 to 20)
#    0.000    1.500    2.500    1.500    5.250    4.000 
#    0.000    1.250    0.000    0.000    0.000    0.000 
#    0.000    0.000    0.000    0.000    0.000    0.000 
#
# Total GULP energy -178601.163584 kJ/mol
# GULP energy per Si atom -5581.286362 kJ/mol
# Density = 2.343197 g / cm^3
# Si number density = 23.485428 Si / 1000 Ang^3
#
#
#
# Elastic Constant Matrix: (Units=GPa)
#
#
# Indices 1 2 3 4 5 6 
#
# 1 29.2059 -1.5667 3.3779 0.0000 0.0000 0.0000
# 2 -1.5667 115.1031 24.2960 0.0000 0.0000 0.0000
# 3 3.3779 24.2960 64.2630 0.0000 0.0000 0.0000
# 4 0.0000 0.0000 0.0000 -2.3425 0.0000 0.0000
# 5 0.0000 0.0000 0.0000 0.0000 27.2710 0.0000
# 6 0.0000 0.0000 0.0000 0.0000 0.0000 24.6260
#
#
#
# Elastic Compliance Matrix: (Units=1/GPa)
#
#
# Indices 1 2 3 4 5 6 
#
# 1 0.034540 0.000927 -0.002166 0.000000 0.000000 0.000000
# 2 0.000927 0.009466 -0.003628 0.000000 0.000000 0.000000
# 3 -0.002166 -0.003628 0.017046 0.000000 0.000000 0.000000
# 4 0.000000 0.000000 0.000000 -0.426893 0.000000 0.000000
# 5 0.000000 0.000000 0.000000 0.000000 0.036669 0.000000
# 6 0.000000 0.000000 0.000000 0.000000 0.000000 0.040607
#
#
# Mechanical properties :
#
#
# Convention : Reuss Voigt Hill
#
# Bulk Modulus (GPa) = 19.48567 28.97626 24.23097
# Shear Modulus (GPa) = -19.10404 22.07521 1.48558
#
# Velocity S-wave (km/s) = -2.85519 3.06919 0.79620
# Velocity P-wave (km/s) = 1.59828 4.99246 3.34441
#
# Compressibility (1/GPa) = 0.05131976
#
# Stress axis : x y z
#
# Youngs Moduli (GPa) = 28.95195 105.63882 58.66335
#
# Poissons Ratio (x) = -0.09797 0.12707
# Poissons Ratio (y) = -0.02685 0.21281
# Poissons Ratio (z) = 0.06271 0.38322
#
# Static dielectric constant tensor:
#      x y z
#    x 2.077720 0.000000 0.000000 
#    y 0.000000 1.909070 0.000000 
#    z 0.000000 0.000000 1.884090 
# 
# From -- ./inp_files/5734.got.cif
#   From: 2010.05.17/outbox.cif.g08.bks.cpg/sg18_3_cif.got.tgz:5734.got - 2010.06.03 22:40:56.
