data_PCOD9311219
_publ_section_title
;
Structure prediction by ZEFSAII (Michael W. Deem and Ramdas Pophale) SiO2 
 PCOD9311219
Probable space group: P 2 2 21
;
_chemical_formula_sum "Si O2"
_cell_formula_units_Z 12
_cell_length_a 5.274096
_cell_length_b 17.701223
_cell_length_c 5.112030
_cell_angle_alpha 90.000000
_cell_angle_beta 90.000000
_cell_angle_gamma 90.000000
_cell_volume 477.248638
_symmetry_space_group_name_H-M "P 2 2 21"
_symmetry_group_IT_number 17
_symmetry_cell_setting 'orthorhombic'
loop_
_space_group_symop_operation_xyz
x,y,z
-x,-y,1/2+z
x,-y,-z
-x,y,1/2-z
loop_
_atom_site_type_symbol
_atom_site_label
_atom_site_fract_x
_atom_site_fract_y
_atom_site_fract_z
Si Si1 0.745586 0.665161 0.925846
Si Si2 0.000000 0.949789 0.250000
Si Si3 0.747545 0.171799 0.066630
Si Si4 0.830982 0.500000 0.000000
O O1 0.500000 0.671998 0.750000
O O2 0.751040 0.745364 0.072819
O O3 0.710592 0.582267 0.052022
O O4 0.000000 0.664668 0.750000
O O5 0.217838 0.894524 0.358793
O O6 0.922234 0.000000 0.500000
O O7 0.500000 0.163786 0.250000
O O8 0.000000 0.168713 0.250000
O O9 0.000000 0.512471 0.750000
#
# Coordination Sequence:
#
# PCOD9311219 Si02
#       4
#     4   2   4   2
#     4   9  20  40  68 100 140 189 239 294 357 431
#     4  12  26  52  78 116 150 200 254 324 388 464
#     4  10  23  48  75 107 149 197 248 306 379 455
#     4  10  22  40  66 102 144 188 242 296 354 422
#
# _framework density 25.144127000000001
#
# number of rings (size 3 to 8) (size 9 to 14) (size 15 to 20)
#    0.000    2.000    1.667    0.000    2.333    6.667 
#    6.000    0.000    0.000    0.000    0.000    0.000 
#    0.000    0.000    0.000    0.000    0.000    0.000 
#
# Total GULP energy -67008.349026 kJ/mol
# GULP energy per Si atom -5584.029086 kJ/mol
# Density = 2.508690 g / cm^3
# Si number density = 25.144127 Si / 1000 Ang^3
#
#
#
# Elastic Constant Matrix: (Units=GPa)
#
#
# Indices 1 2 3 4 5 6 
#
# 1 177.5708 37.4945 50.5315 0.0000 0.0000 0.0000
# 2 37.4945 296.7295 80.5540 0.0000 0.0000 0.0000
# 3 50.5315 80.5540 116.1875 0.0000 0.0000 0.0000
# 4 0.0000 0.0000 0.0000 2.5239 0.0000 0.0000
# 5 0.0000 0.0000 0.0000 0.0000 52.3784 0.0000
# 6 0.0000 0.0000 0.0000 0.0000 0.0000 201.6612
#
#
#
# Elastic Compliance Matrix: (Units=1/GPa)
#
#
# Indices 1 2 3 4 5 6 
#
# 1 0.006428 -0.000066 -0.002750 0.000000 0.000000 0.000000
# 2 -0.000066 0.004152 -0.002850 0.000000 0.000000 0.000000
# 3 -0.002750 -0.002850 0.011779 0.000000 0.000000 0.000000
# 4 0.000000 0.000000 0.000000 0.396215 0.000000 0.000000
# 5 0.000000 0.000000 0.000000 0.000000 0.019092 0.000000
# 6 0.000000 0.000000 0.000000 0.000000 0.000000 0.004959
#
#
# Mechanical properties :
#
#
# Convention : Reuss Voigt Hill
#
# Bulk Modulus (GPa) = 90.68507 103.07199 96.87853
# Shear Modulus (GPa) = 10.92581 79.43988 45.18284
#
# Velocity S-wave (km/s) = 2.08679 5.62694 4.24365
# Velocity P-wave (km/s) = 6.47693 9.12677 7.91355
#
# Compressibility (1/GPa) = 0.01102717
#
# Stress axis : x y z
#
# Youngs Moduli (GPa) = 155.56884 240.84161 84.89773
#
# Poissons Ratio (x) = 0.01581 0.23348
# Poissons Ratio (y) = 0.01021 0.24197
# Poissons Ratio (z) = 0.42783 0.68643
#
# Static dielectric constant tensor:
#      x y z
#    x 1.973330 0.000000 0.000000 
#    y 0.000000 2.195480 0.000000 
#    z 0.000000 0.000000 2.012490 
# 
# From -- ./inp_files/172.got.cif
#   From: 2010.05.17/outbox.cif.g08.bks.cpg/sg17_1_cif.got.tgz:172.got - 2010.06.03 22:34:06.
