data_PCOD9311867
_publ_section_title
;
Structure prediction by ZEFSAII (Michael W. Deem and Ramdas Pophale) SiO2 
 PCOD9311867
Probable space group: P 21 21 2
;
_chemical_formula_sum "Si O2"
_cell_formula_units_Z 32
_cell_length_a 7.917237
_cell_length_b 23.692442
_cell_length_c 7.258975
_cell_angle_alpha 90.000000
_cell_angle_beta 90.000000
_cell_angle_gamma 90.000000
_cell_volume 1361.628937
_symmetry_space_group_name_H-M "P 21 21 2"
_symmetry_group_IT_number 18
_symmetry_cell_setting 'orthorhombic'
loop_
_space_group_symop_operation_xyz
x,y,z
-x,-y,z
1/2+x,1/2-y,-z
1/2-x,1/2+y,-z
loop_
_atom_site_type_symbol
_atom_site_label
_atom_site_fract_x
_atom_site_fract_y
_atom_site_fract_z
Si Si1 0.180679 0.193827 0.000367
Si Si2 0.008205 0.135808 0.694747
Si Si3 0.979177 0.667321 0.222220
Si Si4 0.651388 0.927068 0.584953
Si Si5 0.558948 0.059739 0.227453
Si Si6 0.500133 0.713519 0.641398
Si Si7 0.310197 0.819401 0.100224
Si Si8 0.325525 0.466651 0.466154
O O1 0.057505 0.148712 0.904552
O O2 0.367527 0.180531 0.923486
O O3 0.124687 0.254047 0.911337
O O4 0.154792 0.196961 0.220067
O O5 0.985428 0.188977 0.560877
O O6 0.873783 0.087915 0.649182
O O7 0.183222 0.110168 0.611237
O O8 0.010478 0.606403 0.303813
O O9 0.999039 0.718492 0.365160
O O10 0.799409 0.673177 0.122064
O O11 0.588902 0.930673 0.376588
O O12 0.703664 0.989924 0.640934
O O13 0.594677 0.121470 0.142604
O O14 0.728563 0.047880 0.346026
O O15 0.500000 0.000000 0.131530
O O16 0.656649 0.688502 0.759823
O O17 0.500000 0.500000 0.504872
#
# Coordination Sequence:
#
# PCOD9311867 Si02
#       8
#     4   4   4   4   4   4   4   4
#     4   9  21  37  55  85 118 149 192 239 292 352
#     4  10  19  36  60  86 112 154 195 237 297 361
#     4   9  20  38  54  82 117 154 190 242 298 351
#     4   9  20  35  58  82 112 151 194 240 297 347
#     4  10  20  35  54  83 108 147 193 235 288 345
#     4  10  20  36  57  84 119 152 194 243 292 352
#     4  10  20  37  54  79 119 149 189 244 287 349
#     4   9  18  36  60  81 113 147 194 252 286 344
#
# _framework density 23.501263000000002
#
# number of rings (size 3 to 8) (size 9 to 14) (size 15 to 20)
#    0.000    2.500    1.250    0.000    3.500    1.000 
#    0.000    3.125    0.000    2.250    0.000    0.000 
#    0.000    0.000    0.000    0.000    0.000    0.000 
#
# Total GULP energy -178263.617031 kJ/mol
# GULP energy per Si atom -5570.738032 kJ/mol
# Density = 2.344777 g / cm^3
# Si number density = 23.501263 Si / 1000 Ang^3
#
#
#
# Elastic Constant Matrix: (Units=GPa)
#
#
# Indices 1 2 3 4 5 6 
#
# 1 55.8866 22.9119 -12.1294 0.0000 0.0000 0.0000
# 2 22.9119 120.5227 23.7306 0.0000 0.0000 0.0000
# 3 -12.1294 23.7306 43.6509 0.0000 0.0000 0.0000
# 4 0.0000 0.0000 0.0000 30.2380 0.0000 0.0000
# 5 0.0000 0.0000 0.0000 0.0000 20.1265 0.0000
# 6 0.0000 0.0000 0.0000 0.0000 0.0000 34.4578
#
#
#
# Elastic Compliance Matrix: (Units=1/GPa)
#
#
# Indices 1 2 3 4 5 6 
#
# 1 0.022509 -0.006171 0.009610 0.000000 0.000000 0.000000
# 2 -0.006171 0.010984 -0.007686 0.000000 0.000000 0.000000
# 3 0.009610 -0.007686 0.029758 0.000000 0.000000 0.000000
# 4 0.000000 0.000000 0.000000 0.033071 0.000000 0.000000
# 5 0.000000 0.000000 0.000000 0.000000 0.049686 0.000000
# 6 0.000000 0.000000 0.000000 0.000000 0.000000 0.029021
#
#
# Mechanical properties :
#
#
# Convention : Reuss Voigt Hill
#
# Bulk Modulus (GPa) = 18.26311 32.12071 25.19191
# Shear Modulus (GPa) = 24.78006 29.33428 27.05717
#
# Velocity S-wave (km/s) = 3.25070 3.53682 3.39677
# Velocity P-wave (km/s) = 4.67732 5.51145 5.11143
#
# Compressibility (1/GPa) = 0.05475518
#
# Stress axis : x y z
#
# Youngs Moduli (GPa) = 44.42668 91.04388 33.60473
#
# Poissons Ratio (x) = 0.56185 -0.32293
# Poissons Ratio (y) = 0.27416 0.25829
# Poissons Ratio (z) = -0.42692 0.69977
#
# Static dielectric constant tensor:
#      x y z
#    x 1.984710 0.000000 0.000000 
#    y 0.000000 1.918420 0.000000 
#    z 0.000000 0.000000 1.916500 
# 
# From -- ./inp_files/3525.got.cif
#   From: 2010.05.17/outbox.cif.g08.bks.cpg/sg18_2_cif.got.tgz:3525.got - 2010.06.03 22:40:56.
