data_PCOD9311391
_publ_section_title
;
Structure prediction by ZEFSAII (Michael W. Deem and Ramdas Pophale) SiO2 
 PCOD9311391
Probable space group: P 2 2 21
;
_chemical_formula_sum "Si O2"
_cell_formula_units_Z 32
_cell_length_a 17.716585
_cell_length_b 5.181684
_cell_length_c 14.728405
_cell_angle_alpha 90.000000
_cell_angle_beta 90.000000
_cell_angle_gamma 90.000000
_cell_volume 1352.093280
_symmetry_space_group_name_H-M "P 2 2 21"
_symmetry_group_IT_number 17
_symmetry_cell_setting 'orthorhombic'
loop_
_space_group_symop_operation_xyz
x,y,z
-x,-y,1/2+z
x,-y,-z
-x,y,1/2-z
loop_
_atom_site_type_symbol
_atom_site_label
_atom_site_fract_x
_atom_site_fract_y
_atom_site_fract_z
Si Si1 0.454476 0.326220 0.909492
Si Si2 0.804149 0.838826 0.263260
Si Si3 0.472144 0.168956 0.343582
Si Si4 0.306981 0.218019 0.282317
Si Si5 0.828741 0.508274 0.894327
Si Si6 0.708622 0.447960 0.606691
Si Si7 0.996368 0.460359 0.859644
Si Si8 0.912744 0.948670 0.598251
O O1 0.501413 0.062544 0.908997
O O2 0.366212 0.267785 0.893490
O O3 0.488732 0.551305 0.846965
O O4 0.456646 0.500000 0.000000
O O5 0.837565 0.747292 0.168400
O O6 0.785193 0.646840 0.345732
O O7 0.857946 0.035708 0.314526
O O8 0.721410 0.930530 0.234377
O O9 0.500000 0.045995 0.250000
O O10 0.383153 0.220461 0.339109
O O11 0.236646 0.344457 0.337708
O O12 0.315206 0.333852 0.180747
O O13 0.916440 0.582960 0.891393
O O14 0.806181 0.500000 0.000000
O O15 0.721771 0.500000 0.500000
O O16 0.000000 0.465563 0.750000
O O17 0.023012 0.172277 0.888650
O O18 0.054928 0.663512 0.899639
O O19 0.875817 0.000000 0.500000
#
# Coordination Sequence:
#
# PCOD9311391 Si02
#       8
#     4   4   4   4   4   4   4   4
#     4  11  25  46  70 106 137 188 242 299 362 436
#     4  11  26  46  69 108 145 190 240 301 368 442
#     4  12  24  44  74  99 144 188 238 301 364 427
#     4  11  26  45  69 106 141 195 242 299 371 437
#     4  11  26  49  74 101 147 199 251 301 367 439
#     4  10  24  44  72 104 148 190 241 299 374 447
#     4  12  25  50  74 109 147 194 244 305 361 437
#     4  12  27  45  76 110 147 188 245 304 371 436
#
# _framework density 23.667003999999999
#
# number of rings (size 3 to 8) (size 9 to 14) (size 15 to 20)
#    0.000    0.750    2.500    3.750    8.750    1.000 
#    2.250    0.000    0.000    0.000    0.000    0.000 
#    0.000    0.000    0.000    0.000    0.000    0.000 
#
# Total GULP energy -178372.383181 kJ/mol
# GULP energy per Si atom -5574.136974 kJ/mol
# Density = 2.361314 g / cm^3
# Si number density = 23.667004 Si / 1000 Ang^3
#
#
#
# Elastic Constant Matrix: (Units=GPa)
#
#
# Indices 1 2 3 4 5 6 
#
# 1 86.5237 10.1053 23.7938 0.0000 0.0000 0.0000
# 2 10.1053 75.1871 20.2977 0.0000 0.0000 0.0000
# 3 23.7938 20.2977 174.6793 0.0000 0.0000 0.0000
# 4 0.0000 0.0000 0.0000 24.2213 0.0000 0.0000
# 5 0.0000 0.0000 0.0000 0.0000 22.3920 0.0000
# 6 0.0000 0.0000 0.0000 0.0000 0.0000 57.2807
#
#
#
# Elastic Compliance Matrix: (Units=1/GPa)
#
#
# Indices 1 2 3 4 5 6 
#
# 1 0.012115 -0.001221 -0.001508 0.000000 0.000000 0.000000
# 2 -0.001221 0.013854 -0.001443 0.000000 0.000000 0.000000
# 3 -0.001508 -0.001443 0.006098 0.000000 0.000000 0.000000
# 4 0.000000 0.000000 0.000000 0.041286 0.000000 0.000000
# 5 0.000000 0.000000 0.000000 0.000000 0.044659 0.000000
# 6 0.000000 0.000000 0.000000 0.000000 0.000000 0.017458
#
#
# Mechanical properties :
#
#
# Convention : Reuss Voigt Hill
#
# Bulk Modulus (GPa) = 42.15666 49.42040 45.78853
# Shear Modulus (GPa) = 32.95496 39.59170 36.27333
#
# Velocity S-wave (km/s) = 3.73559 4.09450 3.91916
# Velocity P-wave (km/s) = 6.03799 6.57877 6.31417
#
# Compressibility (1/GPa) = 0.02372104
#
# Stress axis : x y z
#
# Youngs Moduli (GPa) = 82.54280 72.18153 163.98912
#
# Poissons Ratio (x) = 0.08814 0.24735
# Poissons Ratio (y) = 0.10079 0.23672
# Poissons Ratio (z) = 0.12450 0.10419
#
# Static dielectric constant tensor:
#      x y z
#    x 1.966600 0.000000 0.000000 
#    y 0.000000 1.977040 0.000000 
#    z 0.000000 0.000000 1.802810 
# 
# From -- ./inp_files/8702.got.cif
#   From: 2010.05.17/outbox.cif.g08.bks.cpg/sg17_5_cif.got.tgz:8702.got - 2010.06.03 22:34:06.
