data_PCOD9311010
_publ_section_title
;
Structure prediction by ZEFSAII (Michael W. Deem and Ramdas Pophale) SiO2 
 PCOD9311010
Probable space group: P 2 2 21
;
_chemical_formula_sum "Si O2"
_cell_formula_units_Z 32
_cell_length_a 13.534454
_cell_length_b 14.499328
_cell_length_c 8.248200
_cell_angle_alpha 90.000000
_cell_angle_beta 90.000000
_cell_angle_gamma 90.000000
_cell_volume 1618.630792
_symmetry_space_group_name_H-M "P 2 2 21"
_symmetry_group_IT_number 17
_symmetry_cell_setting 'orthorhombic'
loop_
_space_group_symop_operation_xyz
x,y,z
-x,-y,1/2+z
x,-y,-z
-x,y,1/2-z
loop_
_atom_site_type_symbol
_atom_site_label
_atom_site_fract_x
_atom_site_fract_y
_atom_site_fract_z
Si Si1 0.608736 0.893806 0.446031
Si Si2 0.500000 0.393512 0.554692
Si Si3 0.000000 0.105418 0.441587
Si Si4 0.282130 0.604973 0.445673
Si Si5 0.194682 0.211352 0.553965
Si Si6 0.608736 0.893806 0.053969
Si Si7 0.194682 0.788648 0.053965
Si Si8 0.282130 0.604973 0.054327
O O1 0.609298 0.889874 0.250000
O O2 0.500000 0.858355 0.498860
O O3 0.705560 0.840130 0.503235
O O4 0.615561 0.000000 0.500000
O O5 0.500000 0.500000 0.500000
O O6 0.500000 0.385190 0.750000
O O7 0.391931 0.360735 0.500080
O O8 0.608069 0.360735 0.500080
O O9 0.902437 0.158623 0.499592
O O10 0.000000 0.104075 0.250000
O O11 0.097563 0.158623 0.499592
O O12 1.000000 0.000000 0.500000
O O13 0.265872 0.500000 0.500000
O O14 0.204086 0.681961 0.498937
O O15 0.283427 0.603533 0.250000
O O16 0.294440 0.159871 0.496765
O O17 0.195691 0.210186 0.750000
O O18 0.615561 0.000000 0.000000
O O19 0.204086 0.681961 0.001063
O O20 0.265872 0.500000 0.000000
#
# Coordination Sequence:
#
# PCOD9311010 Si02
#       8
#     4   4   4   4   4   4   4   4
#     4   9  18  32  52  79 111 144 178 221 277 339
#     4   8  14  26  46  74 109 150 189 224 269 322
#     4  12  26  44  65  86 111 144 187 240 290 342
#     4   9  18  32  53  81 116 154 192 233 277 331
#     4  10  21  37  59  85 113 149 192 235 283 338
#     4   9  18  32  52  79 111 144 178 221 277 339
#     4  10  21  37  59  85 113 149 192 235 283 338
#     4   9  18  32  53  81 116 154 192 233 277 331
#
# _framework density 19.769795999999999
#
# number of rings (size 3 to 8) (size 9 to 14) (size 15 to 20)
#    0.000    2.500    0.000    1.875    1.750    4.000 
#    0.000    0.625    0.000    0.000    0.000    0.000 
#    0.000    0.000    0.000    0.000    0.000    0.000 
#
# Total GULP energy -178442.048960 kJ/mol
# GULP energy per Si atom -5576.314030 kJ/mol
# Density = 1.972480 g / cm^3
# Si number density = 19.769796 Si / 1000 Ang^3
#
#
#
# Elastic Constant Matrix: (Units=GPa)
#
#
# Indices 1 2 3 4 5 6 
#
# 1 170.0604 113.0303 27.6555 0.0000 0.0000 0.0000
# 2 113.0303 150.7525 24.0075 0.0000 0.0000 0.0000
# 3 27.6555 24.0075 20.6525 0.0000 0.0000 0.0000
# 4 0.0000 0.0000 0.0000 19.6385 0.0000 0.0000
# 5 0.0000 0.0000 0.0000 0.0000 16.8191 0.0000
# 6 0.0000 0.0000 0.0000 0.0000 0.0000 38.5688
#
#
#
# Elastic Compliance Matrix: (Units=1/GPa)
#
#
# Indices 1 2 3 4 5 6 
#
# 1 0.012535 -0.008253 -0.007192 0.000000 0.000000 0.000000
# 2 -0.008253 0.013574 -0.004728 0.000000 0.000000 0.000000
# 3 -0.007192 -0.004728 0.063546 0.000000 0.000000 0.000000
# 4 0.000000 0.000000 0.000000 0.050920 0.000000 0.000000
# 5 0.000000 0.000000 0.000000 0.000000 0.059456 0.000000
# 6 0.000000 0.000000 0.000000 0.000000 0.000000 0.025928
#
#
# Mechanical properties :
#
#
# Convention : Reuss Voigt Hill
#
# Bulk Modulus (GPa) = 20.27963 74.53912 47.40937
# Shear Modulus (GPa) = 17.68391 26.79010 22.23700
#
# Velocity S-wave (km/s) = 2.99405 3.68517 3.35744
# Velocity P-wave (km/s) = 4.71515 7.47614 6.25001
#
# Compressibility (1/GPa) = 0.04931056
#
# Stress axis : x y z
#
# Youngs Moduli (GPa) = 79.77379 73.66763 15.73655
#
# Poissons Ratio (x) = 0.60801 0.11317
# Poissons Ratio (y) = 0.65841 0.07440
# Poissons Ratio (z) = 0.57372 0.34827
#
# Static dielectric constant tensor:
#      x y z
#    x 1.717490 0.000000 0.000000 
#    y 0.000000 1.673980 0.000000 
#    z 0.000000 0.000000 1.695640 
# 
# From -- ./inp_files/4951.got.cif
#   From: 2010.05.17/outbox.cif.g08.bks.cpg/sg17_3_cif.got.tgz:4951.got - 2010.06.03 22:34:06.
