data_PCOD9311797
_publ_section_title
;
Structure prediction by ZEFSAII (Michael W. Deem and Ramdas Pophale) SiO2 
 PCOD9311797
Probable space group: P 21 21 2
;
_chemical_formula_sum "Si O2"
_cell_formula_units_Z 32
_cell_length_a 8.542020
_cell_length_b 16.643426
_cell_length_c 11.485271
_cell_angle_alpha 90.000000
_cell_angle_beta 90.000000
_cell_angle_gamma 90.000000
_cell_volume 1632.843495
_symmetry_space_group_name_H-M "P 21 21 2"
_symmetry_group_IT_number 18
_symmetry_cell_setting 'orthorhombic'
loop_
_space_group_symop_operation_xyz
x,y,z
-x,-y,z
1/2+x,1/2-y,-z
1/2-x,1/2+y,-z
loop_
_atom_site_type_symbol
_atom_site_label
_atom_site_fract_x
_atom_site_fract_y
_atom_site_fract_z
Si Si1 0.571755 0.590061 0.522474
Si Si2 0.835442 0.542305 0.890492
Si Si3 0.024407 0.193500 0.090528
Si Si4 0.412870 0.315655 0.289259
Si Si5 0.185783 0.502994 0.646455
Si Si6 0.820756 0.827636 0.333360
Si Si7 0.324883 0.769994 0.135308
Si Si8 0.115060 0.932244 0.914965
O O1 0.500000 0.500000 0.536848
O O2 0.555280 0.621583 0.392045
O O3 0.745542 0.568279 0.566864
O O4 0.485686 0.658179 0.599889
O O5 0.745450 0.509956 0.776873
O O6 0.858721 0.635618 0.860854
O O7 0.000000 0.500000 0.893487
O O8 0.757990 0.529762 0.015550
O O9 0.864621 0.236910 0.135703
O O10 0.134073 0.171561 0.197531
O O11 0.970027 0.114644 0.020540
O O12 0.115616 0.242629 0.991862
O O13 0.291437 0.249995 0.340413
O O14 0.569551 0.274999 0.232743
O O15 0.341918 0.366722 0.181589
O O16 0.229274 0.594630 0.618891
O O17 0.000000 0.500000 0.648330
O O18 0.000000 0.000000 0.866020
#
# Coordination Sequence:
#
# PCOD9311797 Si02
#       8
#     4   4   4   4   4   4   4   4
#     4  10  23  42  60  82 114 155 202 250 303 362
#     4  10  19  32  55  83 112 142 184 232 281 344
#     4  10  20  36  56  84 116 148 190 236 289 347
#     4  11  23  39  57  83 118 154 195 243 301 366
#     4  10  21  38  61  85 112 147 195 250 296 346
#     4  11  22  36  59  84 111 147 193 247 295 347
#     4  10  21  35  55  82 118 151 185 236 290 351
#     4  10  20  34  55  81 115 154 185 226 287 355
#
# _framework density 19.597714
#
# number of rings (size 3 to 8) (size 9 to 14) (size 15 to 20)
#    0.000    1.750    0.000    6.375    0.000    6.000 
#    0.000    1.875    0.000    0.000    0.000    0.000 
#    0.000    0.000    0.000    0.000    0.000    0.000 
#
# Total GULP energy -178278.865946 kJ/mol
# GULP energy per Si atom -5571.214561 kJ/mol
# Density = 1.955311 g / cm^3
# Si number density = 19.597714 Si / 1000 Ang^3
#
#
#
# Elastic Constant Matrix: (Units=GPa)
#
#
# Indices 1 2 3 4 5 6 
#
# 1 53.3230 17.0826 0.0285 0.0000 0.0000 0.0000
# 2 17.0826 47.1106 14.4629 0.0000 0.0000 0.0000
# 3 0.0285 14.4629 48.0794 0.0000 0.0000 0.0000
# 4 0.0000 0.0000 0.0000 32.3321 0.0000 0.0000
# 5 0.0000 0.0000 0.0000 0.0000 -15.1542 0.0000
# 6 0.0000 0.0000 0.0000 0.0000 0.0000 29.8434
#
#
#
# Elastic Compliance Matrix: (Units=1/GPa)
#
#
# Indices 1 2 3 4 5 6 
#
# 1 0.021503 -0.008586 0.002570 0.000000 0.000000 0.000000
# 2 -0.008586 0.026815 -0.008061 0.000000 0.000000 0.000000
# 3 0.002570 -0.008061 0.023222 0.000000 0.000000 0.000000
# 4 0.000000 0.000000 0.000000 0.030929 0.000000 0.000000
# 5 0.000000 0.000000 0.000000 0.000000 -0.065988 0.000000
# 6 0.000000 0.000000 0.000000 0.000000 0.000000 0.033508
#
#
# Mechanical properties :
#
#
# Convention : Reuss Voigt Hill
#
# Bulk Modulus (GPa) = 23.04909 23.51788 23.28348
# Shear Modulus (GPa) = 44.40292 17.20018 30.80155
#
# Velocity S-wave (km/s) = 4.76512 2.96575 3.96876
# Velocity P-wave (km/s) = 6.48551 4.87380 5.73654
#
# Compressibility (1/GPa) = 0.04338566
#
# Stress axis : x y z
#
# Youngs Moduli (GPa) = 46.50535 37.29293 43.06206
#
# Poissons Ratio (x) = 0.32020 -0.11067
# Poissons Ratio (y) = 0.39930 0.34713
# Poissons Ratio (z) = -0.11952 0.30062
#
# Static dielectric constant tensor:
#      x y z
#    x 1.795960 0.000000 0.000000 
#    y 0.000000 1.738480 0.000000 
#    z 0.000000 0.000000 1.698740 
# 
# From -- ./inp_files/5666.got.cif
#   From: 2010.05.17/outbox.cif.g08.bks.cpg/sg18_3_cif.got.tgz:5666.got - 2010.06.03 22:40:56.
