data_PCOD9311948
_publ_section_title
;
Structure prediction by ZEFSAII (Michael W. Deem and Ramdas Pophale) SiO2 
 PCOD9311948
Probable space group: P 21 21 2
;
_chemical_formula_sum "Si O2"
_cell_formula_units_Z 32
_cell_length_a 9.570274
_cell_length_b 11.708308
_cell_length_c 14.725892
_cell_angle_alpha 90.000000
_cell_angle_beta 90.000000
_cell_angle_gamma 90.000000
_cell_volume 1650.061463
_symmetry_space_group_name_H-M "P 21 21 2"
_symmetry_group_IT_number 18
_symmetry_cell_setting 'orthorhombic'
loop_
_space_group_symop_operation_xyz
x,y,z
-x,-y,z
1/2+x,1/2-y,-z
1/2-x,1/2+y,-z
loop_
_atom_site_type_symbol
_atom_site_label
_atom_site_fract_x
_atom_site_fract_y
_atom_site_fract_z
Si Si1 0.751483 0.322756 0.352542
Si Si2 0.145088 0.431108 0.667625
Si Si3 0.117127 0.403550 0.047846
Si Si4 0.438724 0.673892 0.861810
Si Si5 0.351890 0.564753 0.534767
Si Si6 0.580161 0.226716 0.660513
Si Si7 0.668418 0.020413 0.762145
Si Si8 0.271563 0.459031 0.867528
O O1 0.660622 0.206763 0.344800
O O2 0.701924 0.399781 0.436162
O O3 0.752790 0.404994 0.264292
O O4 0.917367 0.295467 0.363370
O O5 0.250037 0.485287 0.593938
O O6 0.194207 0.453488 0.771170
O O7 0.000000 0.500000 0.654920
O O8 0.053201 0.281434 0.072430
O O9 0.208481 0.433732 0.138241
O O10 0.000000 0.500000 0.040647
O O11 0.193358 0.404870 0.952316
O O12 0.415868 0.715150 0.759249
O O13 0.313815 0.589480 0.888641
O O14 0.583320 0.607365 0.858506
O O15 0.500000 0.500000 0.530691
O O16 0.362933 0.684711 0.588258
O O17 0.670553 0.112591 0.679962
O O18 0.500000 0.000000 0.768761
#
# Coordination Sequence:
#
# PCOD9311948 Si02
#       8
#     4   4   4   4   4   4   4   4
#     4  11  24  40  69  94 134 169 222 285 328 398
#     4  12  27  43  65 102 136 175 225 289 339 394
#     4  10  22  37  64  96 129 168 217 262 333 396
#     4  10  21  40  68  93 125 181 220 268 332 409
#     4  12  25  42  68  95 132 178 225 269 343 410
#     4  10  19  42  68  94 123 173 228 272 324 414
#     4   8  19  38  63  93 122 170 216 262 332 394
#     4  11  22  41  66  95 132 171 224 276 330 395
#
# _framework density 19.393215000000001
#
# number of rings (size 3 to 8) (size 9 to 14) (size 15 to 20)
#    0.000    1.500    3.750    1.125    5.250    0.500 
#    0.000    0.000    2.750    0.000    0.000    0.000 
#    0.000    0.000    0.000    0.000    0.000    0.000 
#
# Total GULP energy -178492.809696 kJ/mol
# GULP energy per Si atom -5577.900303 kJ/mol
# Density = 1.934908 g / cm^3
# Si number density = 19.393215 Si / 1000 Ang^3
#
#
#
# Elastic Constant Matrix: (Units=GPa)
#
#
# Indices 1 2 3 4 5 6 
#
# 1 50.5131 22.3951 28.9667 0.0000 0.0000 0.0000
# 2 22.3951 92.4154 18.9013 0.0000 0.0000 0.0000
# 3 28.9667 18.9013 78.3051 0.0000 0.0000 0.0000
# 4 0.0000 0.0000 0.0000 34.2808 0.0000 0.0000
# 5 0.0000 0.0000 0.0000 0.0000 19.3562 0.0000
# 6 0.0000 0.0000 0.0000 0.0000 0.0000 19.8384
#
#
#
# Elastic Compliance Matrix: (Units=1/GPa)
#
#
# Indices 1 2 3 4 5 6 
#
# 1 0.026956 -0.004726 -0.008831 0.000000 0.000000 0.000000
# 2 -0.004726 0.012211 -0.001199 0.000000 0.000000 0.000000
# 3 -0.008831 -0.001199 0.016327 0.000000 0.000000 0.000000
# 4 0.000000 0.000000 0.000000 0.029171 0.000000 0.000000
# 5 0.000000 0.000000 0.000000 0.000000 0.051663 0.000000
# 6 0.000000 0.000000 0.000000 0.000000 0.000000 0.050407
#
#
# Mechanical properties :
#
#
# Convention : Reuss Voigt Hill
#
# Bulk Modulus (GPa) = 38.48865 40.19554 39.34209
# Shear Modulus (GPa) = 22.23125 24.75979 23.49552
#
# Velocity S-wave (km/s) = 3.38944 3.57700 3.48448
# Velocity P-wave (km/s) = 5.93357 6.15073 6.04313
#
# Compressibility (1/GPa) = 0.02598169
#
# Stress axis : x y z
#
# Youngs Moduli (GPa) = 37.09711 81.89150 61.24915
#
# Poissons Ratio (x) = 0.38703 0.54088
# Poissons Ratio (y) = 0.17533 0.07345
# Poissons Ratio (z) = 0.32760 0.09821
#
# Static dielectric constant tensor:
#      x y z
#    x 1.665880 0.000000 0.000000 
#    y 0.000000 1.732050 0.000000 
#    z 0.000000 0.000000 1.670430 
# 
# From -- ./inp_files/6757.got.cif
#   From: 2010.05.17/outbox.cif.g08.bks.cpg/sg18_4_cif.got.tgz:6757.got - 2010.06.03 22:40:56.
