data_PCOD9311011
_publ_section_title
;
Structure prediction by ZEFSAII (Michael W. Deem and Ramdas Pophale) SiO2 
 PCOD9311011
Probable space group: P 2 2 21
;
_chemical_formula_sum "Si O2"
_cell_formula_units_Z 20
_cell_length_a 10.537351
_cell_length_b 7.027364
_cell_length_c 12.811624
_cell_angle_alpha 90.000000
_cell_angle_beta 90.000000
_cell_angle_gamma 90.000000
_cell_volume 948.698209
_symmetry_space_group_name_H-M "P 2 2 21"
_symmetry_group_IT_number 17
_symmetry_cell_setting 'orthorhombic'
loop_
_space_group_symop_operation_xyz
x,y,z
-x,-y,1/2+z
x,-y,-z
-x,y,1/2-z
loop_
_atom_site_type_symbol
_atom_site_label
_atom_site_fract_x
_atom_site_fract_y
_atom_site_fract_z
Si Si1 0.466303 0.134063 0.913562
Si Si2 0.176484 0.600219 0.345639
Si Si3 0.392098 0.500000 0.500000
Si Si4 0.045257 0.500000 0.000000
Si Si5 0.694238 0.956058 0.226851
Si Si6 0.130528 0.714093 0.811818
O O1 0.370317 0.167455 0.819220
O O2 0.582537 0.016765 0.858373
O O3 0.521846 0.320518 0.969038
O O4 0.406232 0.000000 0.000000
O O5 0.292712 0.492386 0.403972
O O6 0.207123 0.819487 0.329850
O O7 0.161195 0.489940 0.238483
O O8 0.050851 0.583765 0.414080
O O9 0.116078 0.666487 0.934868
O O10 0.761469 0.137092 0.277749
O O11 0.000000 0.773269 0.750000
#
# Coordination Sequence:
#
# PCOD9311011 Si02
#       6
#     4   4   2   2   4   4
#     4  10  21  37  59  88 117 150 193 236 287 353
#     4   9  19  38  59  83 117 154 197 241 289 351
#     4   9  18  36  61  84 112 156 193 235 290 340
#     4   9  20  38  61  86 116 156 201 245 294 352
#     4  10  22  38  59  87 118 152 191 241 295 347
#     4  10  21  38  59  86 118 155 195 243 294 346
#
# _framework density 21.081520999999999
#
# number of rings (size 3 to 8) (size 9 to 14) (size 15 to 20)
#    0.000    2.400    0.000    1.200    0.000    7.200 
#    0.000    8.000    0.000    0.000    0.000    0.000 
#    0.000    0.000    0.000    0.000    0.000    0.000 
#
# Total GULP energy -111454.286151 kJ/mol
# GULP energy per Si atom -5572.714308 kJ/mol
# Density = 2.103354 g / cm^3
# Si number density = 21.081521 Si / 1000 Ang^3
#
#
#
# Elastic Constant Matrix: (Units=GPa)
#
#
# Indices 1 2 3 4 5 6 
#
# 1 28.0973 19.2096 10.1423 0.0000 0.0000 0.0000
# 2 19.2096 36.2440 28.4898 0.0000 0.0000 0.0000
# 3 10.1423 28.4898 76.2227 0.0000 0.0000 0.0000
# 4 0.0000 0.0000 0.0000 30.9665 0.0000 0.0000
# 5 0.0000 0.0000 0.0000 0.0000 10.1636 0.0000
# 6 0.0000 0.0000 0.0000 0.0000 0.0000 9.8253
#
#
#
# Elastic Compliance Matrix: (Units=1/GPa)
#
#
# Indices 1 2 3 4 5 6 
#
# 1 0.057276 -0.034503 0.005275 0.000000 0.000000 0.000000
# 2 -0.034503 0.059854 -0.017781 0.000000 0.000000 0.000000
# 3 0.005275 -0.017781 0.019063 0.000000 0.000000 0.000000
# 4 0.000000 0.000000 0.000000 0.032293 0.000000 0.000000
# 5 0.000000 0.000000 0.000000 0.000000 0.098391 0.000000
# 6 0.000000 0.000000 0.000000 0.000000 0.000000 0.101778
#
#
# Mechanical properties :
#
#
# Convention : Reuss Voigt Hill
#
# Bulk Modulus (GPa) = 23.71021 28.47195 26.09108
# Shear Modulus (GPa) = 10.48809 15.70588 13.09699
#
# Velocity S-wave (km/s) = 2.23289 2.73244 2.49520
# Velocity P-wave (km/s) = 4.23309 4.84664 4.55022
#
# Compressibility (1/GPa) = 0.04217593
#
# Stress axis : x y z
#
# Youngs Moduli (GPa) = 17.45945 16.70724 52.45633
#
# Poissons Ratio (x) = 0.57645 -0.27671
# Poissons Ratio (y) = 0.60240 0.93271
# Poissons Ratio (z) = -0.09210 0.29707
#
# Static dielectric constant tensor:
#      x y z
#    x 1.785040 0.000000 0.000000 
#    y 0.000000 1.728020 0.000000 
#    z 0.000000 0.000000 1.813120 
# 
# From -- ./inp_files/8416.got.cif
#   From: 2010.05.17/outbox.cif.g08.bks.cpg/sg17_5_cif.got.tgz:8416.got - 2010.06.03 22:34:06.
