data_PCOD9311602
_publ_section_title
;
Structure prediction by ZEFSAII (Michael W. Deem and Ramdas Pophale) SiO2 
 PCOD9311602
Probable space group: P 2 2 21
;
_chemical_formula_sum "Si O2"
_cell_formula_units_Z 8
_cell_length_a 11.631318
_cell_length_b 5.112685
_cell_length_c 5.006838
_cell_angle_alpha 90.000000
_cell_angle_beta 90.000000
_cell_angle_gamma 90.000000
_cell_volume 297.742963
_symmetry_space_group_name_H-M "P 2 2 21"
_symmetry_group_IT_number 17
_symmetry_cell_setting 'orthorhombic'
loop_
_space_group_symop_operation_xyz
x,y,z
-x,-y,1/2+z
x,-y,-z
-x,y,1/2-z
loop_
_atom_site_type_symbol
_atom_site_label
_atom_site_fract_x
_atom_site_fract_y
_atom_site_fract_z
Si Si1 0.633662 0.237577 0.819948
Si Si2 0.000000 0.198506 0.750000
Si Si3 0.800799 0.500000 0.500000
O O1 0.500000 0.204804 0.750000
O O2 0.706381 0.274383 0.550685
O O3 0.646433 0.500000 0.000000
O O4 0.675021 0.000000 0.000000
O O5 0.891970 0.393232 0.717521
O O6 0.005617 0.000000 0.500000
#
# Coordination Sequence:
#
# PCOD9311602 Si02
#       3
#     4   2   2
#     4  12  28  51  85 128 171 225 287 364 446 528
#     4  12  30  54  86 124 176 240 298 366 438 518
#     4  12  30  52  82 124 170 232 298 356 444 524
#
# _framework density 26.868815999999999
#
# number of rings (size 3 to 8) (size 9 to 14) (size 15 to 20)
#    0.000    0.000    2.500    4.500   17.500    0.000 
#    0.000    0.000    0.000    0.000    0.000    0.000 
#    0.000    0.000    0.000    0.000    0.000    0.000 
#
# Total GULP energy -44662.981099 kJ/mol
# GULP energy per Si atom -5582.872637 kJ/mol
# Density = 2.680766 g / cm^3
# Si number density = 26.868816 Si / 1000 Ang^3
#
#
#
# Elastic Constant Matrix: (Units=GPa)
#
#
# Indices 1 2 3 4 5 6 
#
# 1 196.0700 12.7617 35.1235 0.0000 0.0000 0.0000
# 2 12.7617 198.6042 101.7130 0.0000 0.0000 0.0000
# 3 35.1235 101.7130 195.3993 0.0000 0.0000 0.0000
# 4 0.0000 0.0000 0.0000 77.9791 0.0000 0.0000
# 5 0.0000 0.0000 0.0000 0.0000 -4.2768 0.0000
# 6 0.0000 0.0000 0.0000 0.0000 0.0000 -42.3961
#
#
#
# Elastic Compliance Matrix: (Units=1/GPa)
#
#
# Indices 1 2 3 4 5 6 
#
# 1 0.005276 0.000200 -0.001052 0.000000 0.000000 0.000000
# 2 0.000200 0.006873 -0.003614 0.000000 0.000000 0.000000
# 3 -0.001052 -0.003614 0.007188 0.000000 0.000000 0.000000
# 4 0.000000 0.000000 0.000000 0.012824 0.000000 0.000000
# 5 0.000000 0.000000 0.000000 0.000000 -0.233822 0.000000
# 6 0.000000 0.000000 0.000000 0.000000 0.000000 -0.023587
#
#
# Mechanical properties :
#
#
# Convention : Reuss Voigt Hill
#
# Bulk Modulus (GPa) = 96.11188 98.80777 97.45982
# Shear Modulus (GPa) = -23.49090 35.62625 6.06768
#
# Velocity S-wave (km/s) = -2.96003 3.64529 1.50438
# Velocity P-wave (km/s) = 4.91590 7.38725 6.27445
#
# Compressibility (1/GPa) = 0.01040454
#
# Stress axis : x y z
#
# Youngs Moduli (GPa) = 189.54714 145.49796 139.12239
#
# Poissons Ratio (x) = -0.02910 0.14642
# Poissons Ratio (y) = -0.03791 0.50273
# Poissons Ratio (z) = 0.19948 0.52577
#
# Static dielectric constant tensor:
#      x y z
#    x 2.043630 0.000000 0.000000 
#    y 0.000000 2.056660 0.000000 
#    z 0.000000 0.000000 2.197330 
# 
# From -- ./inp_files/103.got.cif
#   From: 2010.05.17/outbox.cif.g08.bks.cpg/sg17_1_cif.got.tgz:103.got - 2010.06.03 22:34:06.
