data_PCOD9311009
_publ_section_title
;
Structure prediction by ZEFSAII (Michael W. Deem and Ramdas Pophale) SiO2 
 PCOD9311009
Probable space group: P 2 2 21
;
_chemical_formula_sum "Si O2"
_cell_formula_units_Z 14
_cell_length_a 7.231365
_cell_length_b 16.263583
_cell_length_c 5.179547
_cell_angle_alpha 90.000000
_cell_angle_beta 90.000000
_cell_angle_gamma 90.000000
_cell_volume 609.155671
_symmetry_space_group_name_H-M "P 2 2 21"
_symmetry_group_IT_number 17
_symmetry_cell_setting 'orthorhombic'
loop_
_space_group_symop_operation_xyz
x,y,z
-x,-y,1/2+z
x,-y,-z
-x,y,1/2-z
loop_
_atom_site_type_symbol
_atom_site_label
_atom_site_fract_x
_atom_site_fract_y
_atom_site_fract_z
Si Si1 0.785171 0.744766 0.189735
Si Si2 0.625171 0.500000 0.500000
Si Si3 0.630840 0.090422 0.999224
Si Si4 0.782199 0.668497 0.691911
O O1 0.706376 0.732634 0.477690
O O2 0.000000 0.728184 0.250000
O O3 0.763844 0.832995 0.054443
O O4 0.702187 0.682324 0.978179
O O5 0.500000 0.482849 0.750000
O O6 0.745681 0.579195 0.576087
O O7 0.500000 0.099380 0.250000
O O8 0.500000 0.089987 0.750000
O O9 0.723256 0.000000 0.000000
O O10 0.000000 0.680011 0.750000
#
# Coordination Sequence:
#
# PCOD9311009 Si02
#       4
#     4   2   4   4
#     4  10  21  39  61  87 115 153 203 246 290 349
#     4  12  26  40  60  94 124 152 202 254 298 352
#     4  10  21  37  58  86 120 158 196 239 298 357
#     4  10  23  41  61  84 118 160 197 240 301 361
#
# _framework density 22.982631000000001
#
# number of rings (size 3 to 8) (size 9 to 14) (size 15 to 20)
#    0.000    1.714    0.000    3.429    0.000   11.429 
#    0.000    8.571    0.000    0.000    0.000    0.000 
#    0.000    0.000    0.000    0.000    0.000    0.000 
#
# Total GULP energy -78146.147381 kJ/mol
# GULP energy per Si atom -5581.867670 kJ/mol
# Density = 2.293032 g / cm^3
# Si number density = 22.982631 Si / 1000 Ang^3
#
#
#
# Elastic Constant Matrix: (Units=GPa)
#
#
# Indices 1 2 3 4 5 6 
#
# 1 26.8878 -12.8145 39.5271 0.0000 0.0000 0.0000
# 2 -12.8145 125.8784 69.3484 0.0000 0.0000 0.0000
# 3 39.5271 69.3484 227.7553 0.0000 0.0000 0.0000
# 4 0.0000 0.0000 0.0000 43.1705 0.0000 0.0000
# 5 0.0000 0.0000 0.0000 0.0000 19.8219 0.0000
# 6 0.0000 0.0000 0.0000 0.0000 0.0000 26.0955
#
#
#
# Elastic Compliance Matrix: (Units=1/GPa)
#
#
# Indices 1 2 3 4 5 6 
#
# 1 0.070755 0.016783 -0.017390 0.000000 0.000000 0.000000
# 2 0.016783 0.013526 -0.007031 0.000000 0.000000 0.000000
# 3 -0.017390 -0.007031 0.009550 0.000000 0.000000 0.000000
# 4 0.000000 0.000000 0.000000 0.023164 0.000000 0.000000
# 5 0.000000 0.000000 0.000000 0.000000 0.050449 0.000000
# 6 0.000000 0.000000 0.000000 0.000000 0.000000 0.038321
#
#
# Mechanical properties :
#
#
# Convention : Reuss Voigt Hill
#
# Bulk Modulus (GPa) = 12.72996 63.62706 38.17851
# Shear Modulus (GPa) = 20.22444 36.78160 28.50302
#
# Velocity S-wave (km/s) = 2.96968 4.00485 3.52547
# Velocity P-wave (km/s) = 4.16048 7.00928 5.76367
#
# Compressibility (1/GPa) = 0.07855482
#
# Stress axis : x y z
#
# Youngs Moduli (GPa) = 14.13334 73.92960 104.71607
#
# Poissons Ratio (x) = -1.24077 1.82099
# Poissons Ratio (y) = -0.23720 0.73629
# Poissons Ratio (z) = 0.24578 0.51982
#
# Static dielectric constant tensor:
#      x y z
#    x 1.847110 0.000000 0.000000 
#    y 0.000000 1.920140 0.000000 
#    z 0.000000 0.000000 1.905430 
# 
# From -- ./inp_files/599.got.cif
#   From: 2010.05.17/outbox.cif.g08.bks.cpg/sg17_1_cif.got.tgz:599.got - 2010.06.03 22:34:06.
