data_PCOD9311086
_publ_section_title
;
Structure prediction by ZEFSAII (Michael W. Deem and Ramdas Pophale) SiO2 
 PCOD9311086
Probable space group: P 2 2 21
;
_chemical_formula_sum "Si O2"
_cell_formula_units_Z 20
_cell_length_a 9.898310
_cell_length_b 8.326707
_cell_length_c 10.317424
_cell_angle_alpha 90.000000
_cell_angle_beta 90.000000
_cell_angle_gamma 90.000000
_cell_volume 850.365462
_symmetry_space_group_name_H-M "P 2 2 21"
_symmetry_group_IT_number 17
_symmetry_cell_setting 'orthorhombic'
loop_
_space_group_symop_operation_xyz
x,y,z
-x,-y,1/2+z
x,-y,-z
-x,y,1/2-z
loop_
_atom_site_type_symbol
_atom_site_label
_atom_site_fract_x
_atom_site_fract_y
_atom_site_fract_z
Si Si1 0.642633 0.360444 0.301098
Si Si2 0.969037 0.316638 0.955526
Si Si3 0.452162 0.184983 0.950724
Si Si4 0.272151 0.175075 0.441001
Si Si5 0.220918 0.696339 0.204075
O O1 0.500000 0.429308 0.250000
O O2 0.624741 0.292195 0.443255
O O3 0.672806 0.214698 0.202017
O O4 0.745983 0.506643 0.299964
O O5 0.864700 0.286617 0.835881
O O6 0.113390 0.257348 0.908024
O O7 0.981153 0.500000 0.000000
O O8 0.881362 0.235477 0.066522
O O9 0.607226 0.247773 0.966819
O O10 0.360225 0.208059 0.823359
O O11 0.453233 0.000000 0.000000
O O12 0.261679 0.000000 0.500000
#
# Coordination Sequence:
#
# PCOD9311086 Si02
#       5
#     4   4   4   4   4
#     4  10  21  40  64  96 125 165 214 263 321 379
#     4  11  23  41  63  93 125 164 214 261 321 381
#     4  10  23  40  63  95 129 164 212 264 319 381
#     4  10  23  41  66  94 130 170 208 263 325 387
#     4  11  24  40  65  93 125 168 211 268 318 381
#
# _framework density 23.519300999999999
#
# number of rings (size 3 to 8) (size 9 to 14) (size 15 to 20)
#    0.000    1.600    2.000    1.800    5.600    0.800 
#    0.000    0.000    0.000    0.000    0.000    0.000 
#    0.000    0.000    0.000    0.000    0.000    0.000 
#
# Total GULP energy -111521.704454 kJ/mol
# GULP energy per Si atom -5576.085223 kJ/mol
# Density = 2.346577 g / cm^3
# Si number density = 23.519301 Si / 1000 Ang^3
#
#
#
# Elastic Constant Matrix: (Units=GPa)
#
#
# Indices 1 2 3 4 5 6 
#
# 1 124.3159 1.5576 12.5820 0.0000 0.0000 0.0000
# 2 1.5576 46.8648 -21.1241 0.0000 0.0000 0.0000
# 3 12.5820 -21.1241 44.6620 0.0000 0.0000 0.0000
# 4 0.0000 0.0000 0.0000 30.1463 0.0000 0.0000
# 5 0.0000 0.0000 0.0000 0.0000 34.8967 0.0000
# 6 0.0000 0.0000 0.0000 0.0000 0.0000 -2.1458
#
#
#
# Elastic Compliance Matrix: (Units=1/GPa)
#
#
# Indices 1 2 3 4 5 6 
#
# 1 0.008386 -0.001708 -0.003170 0.000000 0.000000 0.000000
# 2 -0.001708 0.027467 0.013473 0.000000 0.000000 0.000000
# 3 -0.003170 0.013473 0.029656 0.000000 0.000000 0.000000
# 4 0.000000 0.000000 0.000000 0.033172 0.000000 0.000000
# 5 0.000000 0.000000 0.000000 0.000000 0.028656 0.000000
# 6 0.000000 0.000000 0.000000 0.000000 0.000000 -0.466031
#
#
# Mechanical properties :
#
#
# Convention : Reuss Voigt Hill
#
# Bulk Modulus (GPa) = 12.09209 22.43042 17.26126
# Shear Modulus (GPa) = -15.22918 27.43458 6.10270
#
# Velocity S-wave (km/s) = -2.54740 3.41907 1.61257
# Velocity P-wave (km/s) = 1.87078 5.01442 3.28973
#
# Compressibility (1/GPa) = 0.08269866
#
# Stress axis : x y z
#
# Youngs Moduli (GPa) = 119.24237 36.40677 33.72025
#
# Poissons Ratio (x) = 0.06217 0.10690
# Poissons Ratio (y) = 0.20363 -0.45430
# Poissons Ratio (z) = 0.37803 -0.49049
#
# Static dielectric constant tensor:
#      x y z
#    x 1.964350 0.000000 0.000000 
#    y 0.000000 1.899360 0.000000 
#    z 0.000000 0.000000 1.981440 
# 
# From -- ./inp_files/6381.got.cif
#   From: 2010.05.17/outbox.cif.g08.bks.cpg/sg17_4_cif.got.tgz:6381.got - 2010.06.03 22:34:06.
