data_PCOD9311597
_publ_section_title
;
Structure prediction by ZEFSAII (Michael W. Deem and Ramdas Pophale) SiO2 
 PCOD9311597
Probable space group: P 2 2 21
;
_chemical_formula_sum "Si O2"
_cell_formula_units_Z 16
_cell_length_a 5.151290
_cell_length_b 5.013742
_cell_length_c 24.400492
_cell_angle_alpha 90.000000
_cell_angle_beta 90.000000
_cell_angle_gamma 90.000000
_cell_volume 630.197339
_symmetry_space_group_name_H-M "P 2 2 21"
_symmetry_group_IT_number 17
_symmetry_cell_setting 'orthorhombic'
loop_
_space_group_symop_operation_xyz
x,y,z
-x,-y,1/2+z
x,-y,-z
-x,y,1/2-z
loop_
_atom_site_type_symbol
_atom_site_label
_atom_site_fract_x
_atom_site_fract_y
_atom_site_fract_z
Si Si1 0.568086 0.445820 0.636931
Si Si2 0.260629 0.227177 0.285542
Si Si3 0.914229 0.975103 0.624428
Si Si4 0.767320 0.759359 0.035074
O O1 0.377245 0.508382 0.686857
O O2 0.757111 0.209146 0.652866
O O3 0.743493 0.707376 0.624198
O O4 0.415102 0.358224 0.582660
O O5 0.500000 0.118702 0.250000
O O6 0.000000 0.261548 0.250000
O O7 0.170876 0.073339 0.339951
O O8 0.997827 0.089166 0.565711
O O9 0.846069 0.500000 0.000000
O O10 0.640986 0.000000 0.000000
#
# Coordination Sequence:
#
# PCOD9311597 Si02
#       4
#     4   4   4   4
#     4  12  27  54  81 119 168 213 278 341 402 501
#     4  12  27  56  84 126 166 224 269 340 414 488
#     4  12  27  54  81 119 168 213 278 341 402 501
#     4  12  27  50  82 118 164 218 271 342 418 478
#
# _framework density 25.388871000000002
#
# number of rings (size 3 to 8) (size 9 to 14) (size 15 to 20)
#    0.000    0.000    2.500    7.500    0.000    4.000 
#   13.500    5.000    0.000    0.000    0.000    0.000 
#    0.000    0.000    0.000    0.000    0.000    0.000 
#
# Total GULP energy -89716.489392 kJ/mol
# GULP energy per Si atom -5607.280587 kJ/mol
# Density = 2.533108 g / cm^3
# Si number density = 25.388871 Si / 1000 Ang^3
#
#
#
# Elastic Constant Matrix: (Units=GPa)
#
#
# Indices 1 2 3 4 5 6 
#
# 1 138.9051 52.1507 50.1081 0.0000 0.0000 0.0000
# 2 52.1507 180.4398 49.3864 0.0000 0.0000 0.0000
# 3 50.1081 49.3864 132.7950 0.0000 0.0000 0.0000
# 4 0.0000 0.0000 0.0000 49.4176 0.0000 0.0000
# 5 0.0000 0.0000 0.0000 0.0000 28.6696 0.0000
# 6 0.0000 0.0000 0.0000 0.0000 0.0000 47.9633
#
#
#
# Elastic Compliance Matrix: (Units=1/GPa)
#
#
# Indices 1 2 3 4 5 6 
#
# 1 0.008844 -0.001829 -0.002657 0.000000 0.000000 0.000000
# 2 -0.001829 0.006548 -0.001745 0.000000 0.000000 0.000000
# 3 -0.002657 -0.001745 0.009182 0.000000 0.000000 0.000000
# 4 0.000000 0.000000 0.000000 0.020236 0.000000 0.000000
# 5 0.000000 0.000000 0.000000 0.000000 0.034880 0.000000
# 6 0.000000 0.000000 0.000000 0.000000 0.000000 0.020849
#
#
# Mechanical properties :
#
#
# Convention : Reuss Voigt Hill
#
# Bulk Modulus (GPa) = 82.56114 83.93669 83.24891
# Shear Modulus (GPa) = 42.72057 45.24307 43.98182
#
# Velocity S-wave (km/s) = 4.10646 4.22596 4.16664
# Velocity P-wave (km/s) = 7.42114 7.54611 7.48389
#
# Compressibility (1/GPa) = 0.01211224
#
# Stress axis : x y z
#
# Youngs Moduli (GPa) = 113.06678 152.71208 108.90821
#
# Poissons Ratio (x) = 0.27930 0.28938
# Poissons Ratio (y) = 0.20679 0.19006
# Poissons Ratio (z) = 0.30043 0.26651
#
# Static dielectric constant tensor:
#      x y z
#    x 2.041880 0.000000 0.000000 
#    y 0.000000 1.976180 0.000000 
#    z 0.000000 0.000000 2.042710 
# 
# From -- ./inp_files/9794.got.cif
#   From: 2010.05.17/outbox.cif.g08.bks.cpg/sg17_5_cif.got.tgz:9794.got - 2010.06.03 22:34:06.
