data_PCOD9311579
_publ_section_title
;
Structure prediction by ZEFSAII (Michael W. Deem and Ramdas Pophale) SiO2 
 PCOD9311579
Probable space group: P 2 2 21
;
_chemical_formula_sum "Si O2"
_cell_formula_units_Z 22
_cell_length_a 5.619455
_cell_length_b 10.865489
_cell_length_c 14.358255
_cell_angle_alpha 90.000000
_cell_angle_beta 90.000000
_cell_angle_gamma 90.000000
_cell_volume 876.688150
_symmetry_space_group_name_H-M "P 2 2 21"
_symmetry_group_IT_number 17
_symmetry_cell_setting 'orthorhombic'
loop_
_space_group_symop_operation_xyz
x,y,z
-x,-y,1/2+z
x,-y,-z
-x,y,1/2-z
loop_
_atom_site_type_symbol
_atom_site_label
_atom_site_fract_x
_atom_site_fract_y
_atom_site_fract_z
Si Si1 0.756441 0.000000 0.000000
Si Si2 0.500000 0.148953 0.750000
Si Si3 0.393782 0.213432 0.058575
Si Si4 0.804130 0.581313 0.667484
Si Si5 0.103005 0.013613 0.152911
Si Si6 0.111534 0.500000 0.500000
Si Si7 0.511863 0.352389 0.880208
O O1 0.605036 0.114203 0.042084
O O2 0.908687 0.950619 0.087620
O O3 0.626551 0.248061 0.816042
O O4 0.675882 0.068719 0.687050
O O5 0.393720 0.313456 0.142932
O O6 0.181815 0.125328 0.088709
O O7 0.366972 0.282061 0.960868
O O8 0.660535 0.451948 0.669488
O O9 0.000000 0.596930 0.750000
O O10 0.955274 0.576496 0.572182
O O11 0.000000 0.060931 0.250000
O O12 0.282295 0.579472 0.435333
#
# Coordination Sequence:
#
# PCOD9311579 Si02
#       7
#     2   2   4   4   4   2   4
#     4  12  28  48  82 114 168 220 278 334 418 478
#     4  12  28  52  78 112 164 202 280 336 396 504
#     4  12  25  51  75 115 166 208 273 339 394 500
#     4  12  27  51  82 122 160 213 269 335 420 486
#     4  12  27  51  76 118 155 219 272 336 411 476
#     4  12  24  50  78 118 158 208 260 328 414 478
#     4  12  25  50  77 119 161 207 266 338 407 498
#
# _framework density 25.094442999999998
#
# number of rings (size 3 to 8) (size 9 to 14) (size 15 to 20)
#    0.000    0.000    3.636    6.545    2.545    3.636 
#    9.818    0.000    0.000    0.000    0.000    0.000 
#    0.000    0.000    0.000    0.000    0.000    0.000 
#
# Total GULP energy -123039.234546 kJ/mol
# GULP energy per Si atom -5592.692479 kJ/mol
# Density = 2.503733 g / cm^3
# Si number density = 25.094443 Si / 1000 Ang^3
#
#
#
# Elastic Constant Matrix: (Units=GPa)
#
#
# Indices 1 2 3 4 5 6 
#
# 1 88.2726 48.8495 50.7468 0.0000 0.0000 0.0000
# 2 48.8495 140.6536 41.3399 0.0000 0.0000 0.0000
# 3 50.7468 41.3399 127.7898 0.0000 0.0000 0.0000
# 4 0.0000 0.0000 0.0000 11.4277 0.0000 0.0000
# 5 0.0000 0.0000 0.0000 0.0000 67.2918 0.0000
# 6 0.0000 0.0000 0.0000 0.0000 0.0000 26.6472
#
#
#
# Elastic Compliance Matrix: (Units=1/GPa)
#
#
# Indices 1 2 3 4 5 6 
#
# 1 0.016707 -0.004257 -0.005257 0.000000 0.000000 0.000000
# 2 -0.004257 0.008941 -0.001202 0.000000 0.000000 0.000000
# 3 -0.005257 -0.001202 0.010302 0.000000 0.000000 0.000000
# 4 0.000000 0.000000 0.000000 0.087507 0.000000 0.000000
# 5 0.000000 0.000000 0.000000 0.000000 0.014861 0.000000
# 6 0.000000 0.000000 0.000000 0.000000 0.000000 0.037527
#
#
# Mechanical properties :
#
#
# Convention : Reuss Voigt Hill
#
# Bulk Modulus (GPa) = 68.88318 70.95427 69.91872
# Shear Modulus (GPa) = 24.73816 35.45866 30.09841
#
# Velocity S-wave (km/s) = 3.14315 3.76308 3.46700
# Velocity P-wave (km/s) = 6.37822 6.87148 6.62944
#
# Compressibility (1/GPa) = 0.01451733
#
# Stress axis : x y z
#
# Youngs Moduli (GPa) = 59.85607 111.83853 97.06929
#
# Poissons Ratio (x) = 0.47611 0.51032
# Poissons Ratio (y) = 0.25482 0.11668
# Poissons Ratio (z) = 0.31468 0.13443
#
# Static dielectric constant tensor:
#      x y z
#    x 2.050300 0.000000 0.000000 
#    y 0.000000 2.035750 0.000000 
#    z 0.000000 0.000000 2.019760 
# 
# From -- ./inp_files/7692.got.cif
#   From: 2010.05.17/outbox.cif.g08.bks.cpg/sg17_4_cif.got.tgz:7692.got - 2010.06.03 22:34:06.
