data_PCOD9311725
_publ_section_title
;
Structure prediction by ZEFSAII (Michael W. Deem and Ramdas Pophale) SiO2 
 PCOD9311725
Probable space group: P 21 21 2
;
_chemical_formula_sum "Si O2"
_cell_formula_units_Z 24
_cell_length_a 5.018220
_cell_length_b 25.694627
_cell_length_c 6.311992
_cell_angle_alpha 90.000000
_cell_angle_beta 90.000000
_cell_angle_gamma 90.000000
_cell_volume 813.876398
_symmetry_space_group_name_H-M "P 21 21 2"
_symmetry_group_IT_number 18
_symmetry_cell_setting 'orthorhombic'
loop_
_space_group_symop_operation_xyz
x,y,z
-x,-y,z
1/2+x,1/2-y,-z
1/2-x,1/2+y,-z
loop_
_atom_site_type_symbol
_atom_site_label
_atom_site_fract_x
_atom_site_fract_y
_atom_site_fract_z
Si Si1 0.640471 0.774400 0.885150
Si Si2 0.463211 0.141676 0.180848
Si Si3 0.844652 0.452624 0.405226
Si Si4 0.464639 0.309073 0.591869
Si Si5 0.137313 0.049268 0.045205
Si Si6 0.643914 0.608677 0.302447
O O1 0.571777 0.833389 0.945607
O O2 0.599583 0.750479 0.651730
O O3 0.424387 0.742519 0.024619
O O4 0.358961 0.082574 0.168269
O O5 0.745104 0.157560 0.275821
O O6 0.247427 0.173364 0.318575
O O7 0.065272 0.408481 0.371990
O O8 0.000000 0.500000 0.514491
O O9 0.768045 0.473575 0.168902
O O10 0.561927 0.425172 0.450580
O O11 0.425221 0.331788 0.357106
O O12 0.928649 0.089997 0.935249
O O13 0.000000 0.000000 0.154984
#
# Coordination Sequence:
#
# PCOD9311725 Si02
#       6
#     4   4   4   4   4   4
#     4   8  16  33  56  79 111 151 184 227 297 357
#     4  10  21  35  60  86 115 149 198 243 292 344
#     4  10  18  35  55  76 101 155 192 223 272 352
#     4  10  20  37  58  87 115 148 191 246 291 347
#     4  10  22  37  60  80 116 157 197 235 290 351
#     4  10  20  34  59  79 111 149 193 231 285 349
#
# _framework density 29.488507999999999
#
# number of rings (size 3 to 8) (size 9 to 14) (size 15 to 20)
#    1.000    1.333    1.667    1.500    2.333    0.000 
#    0.000    4.167    3.667    1.000    0.000    0.000 
#    0.000    0.000    0.000    0.000    0.000    0.000 
#
# Total GULP energy -134462.408776 kJ/mol
# GULP energy per Si atom -5602.600366 kJ/mol
# Density = 2.942139 g / cm^3
# Si number density = 29.488508 Si / 1000 Ang^3
#
#
#
# Elastic Constant Matrix: (Units=GPa)
#
#
# Indices 1 2 3 4 5 6 
#
# 1 163.3999 29.5672 42.0260 0.0000 0.0000 0.0000
# 2 29.5672 156.6470 53.0519 0.0000 0.0000 0.0000
# 3 42.0260 53.0519 86.2332 0.0000 0.0000 0.0000
# 4 0.0000 0.0000 0.0000 54.4255 0.0000 0.0000
# 5 0.0000 0.0000 0.0000 0.0000 39.0222 0.0000
# 6 0.0000 0.0000 0.0000 0.0000 0.0000 39.4653
#
#
#
# Elastic Compliance Matrix: (Units=1/GPa)
#
#
# Indices 1 2 3 4 5 6 
#
# 1 0.007002 -0.000210 -0.003284 0.000000 0.000000 0.000000
# 2 -0.000210 0.008070 -0.004863 0.000000 0.000000 0.000000
# 3 -0.003284 -0.004863 0.016188 0.000000 0.000000 0.000000
# 4 0.000000 0.000000 0.000000 0.018374 0.000000 0.000000
# 5 0.000000 0.000000 0.000000 0.000000 0.025626 0.000000
# 6 0.000000 0.000000 0.000000 0.000000 0.000000 0.025339
#
#
# Mechanical properties :
#
#
# Convention : Reuss Voigt Hill
#
# Bulk Modulus (GPa) = 68.73359 72.84116 70.78737
# Shear Modulus (GPa) = 40.92932 45.35826 43.14379
#
# Velocity S-wave (km/s) = 3.72960 3.92620 3.82916
# Velocity P-wave (km/s) = 6.47346 6.73117 6.60357
#
# Compressibility (1/GPa) = 0.01454893
#
# Stress axis : x y z
#
# Youngs Moduli (GPa) = 142.80720 123.91225 61.77251
#
# Poissons Ratio (x) = 0.02597 0.20284
# Poissons Ratio (y) = 0.02993 0.30039
# Poissons Ratio (z) = 0.46894 0.60256
#
# Static dielectric constant tensor:
#      x y z
#    x 2.243770 0.000000 0.000000 
#    y 0.000000 2.242290 0.000000 
#    z 0.000000 0.000000 2.455970 
# 
# From -- ./inp_files/2556.got.cif
#   From: 2010.05.17/outbox.cif.g08.bks.cpg/sg18_2_cif.got.tgz:2556.got - 2010.06.03 22:40:56.
