data_PCOD9311210
_publ_section_title
;
Structure prediction by ZEFSAII (Michael W. Deem and Ramdas Pophale) SiO2 
 PCOD9311210
Probable space group: P 2 2 21
;
_chemical_formula_sum "Si O2"
_cell_formula_units_Z 20
_cell_length_a 11.525635
_cell_length_b 14.104539
_cell_length_c 6.513585
_cell_angle_alpha 90.000000
_cell_angle_beta 90.000000
_cell_angle_gamma 90.000000
_cell_volume 1058.872923
_symmetry_space_group_name_H-M "P 2 2 21"
_symmetry_group_IT_number 17
_symmetry_cell_setting 'orthorhombic'
loop_
_space_group_symop_operation_xyz
x,y,z
-x,-y,1/2+z
x,-y,-z
-x,y,1/2-z
loop_
_atom_site_type_symbol
_atom_site_label
_atom_site_fract_x
_atom_site_fract_y
_atom_site_fract_z
Si Si1 0.500000 0.141989 0.750000
Si Si2 0.118550 0.734034 0.135940
Si Si3 0.000000 0.358011 0.250000
Si Si4 0.286588 0.102593 0.009023
Si Si5 0.213411 0.397407 0.509023
Si Si6 0.618549 0.234034 0.135941
O O1 0.404871 0.087274 0.880907
O O2 0.425774 0.200988 0.585914
O O3 0.208410 0.818770 0.103507
O O4 0.176536 0.649696 0.272456
O O5 0.000000 0.763827 0.250000
O O6 0.074226 0.700988 0.914086
O O7 0.095128 0.412726 0.380908
O O8 0.323464 0.149696 0.227543
O O9 0.226838 0.000000 0.000000
O O10 0.273162 0.500000 0.500000
O O11 0.291590 0.318770 0.396494
O O12 0.500000 0.263827 0.250000
#
# Coordination Sequence:
#
# PCOD9311210 Si02
#       6
#     2   4   2   4   4   4
#     4  10  22  40  64  88 124 156 208 262 304 360
#     4  10  22  43  61  89 128 161 205 258 301 364
#     4  10  22  40  64  88 124 156 208 262 304 360
#     4  11  23  40  65  90 121 166 205 254 309 363
#     4  11  23  40  65  90 121 166 205 254 309 363
#     4  10  22  43  61  89 128 161 205 258 301 364
#
# _framework density 18.888007000000002
#
# number of rings (size 3 to 8) (size 9 to 14) (size 15 to 20)
#    0.000    1.600    4.000    0.000    8.400    0.000 
#    3.600    0.000    0.000    0.000    0.000    0.000 
#    0.000    0.000    0.000    0.000    0.000    0.000 
#
# Total GULP energy -111456.889005 kJ/mol
# GULP energy per Si atom -5572.844450 kJ/mol
# Density = 1.884502 g / cm^3
# Si number density = 18.888007 Si / 1000 Ang^3
#
#
#
# Elastic Constant Matrix: (Units=GPa)
#
#
# Indices 1 2 3 4 5 6 
#
# 1 66.7897 39.4494 41.5277 0.0000 0.0000 0.0000
# 2 39.4494 119.5140 67.6413 0.0000 0.0000 0.0000
# 3 41.5277 67.6413 123.7953 0.0000 0.0000 0.0000
# 4 0.0000 0.0000 0.0000 13.2337 0.0000 0.0000
# 5 0.0000 0.0000 0.0000 0.0000 39.9553 0.0000
# 6 0.0000 0.0000 0.0000 0.0000 0.0000 6.7661
#
#
#
# Elastic Compliance Matrix: (Units=1/GPa)
#
#
# Indices 1 2 3 4 5 6 
#
# 1 0.020220 -0.004105 -0.004540 0.000000 0.000000 0.000000
# 2 -0.004105 0.012946 -0.005697 0.000000 0.000000 0.000000
# 3 -0.004540 -0.005697 0.012714 0.000000 0.000000 0.000000
# 4 0.000000 0.000000 0.000000 0.075565 0.000000 0.000000
# 5 0.000000 0.000000 0.000000 0.000000 0.025028 0.000000
# 6 0.000000 0.000000 0.000000 0.000000 0.000000 0.147795
#
#
# Mechanical properties :
#
#
# Convention : Reuss Voigt Hill
#
# Bulk Modulus (GPa) = 58.15156 67.48177 62.81666
# Shear Modulus (GPa) = 15.21226 22.75640 18.98433
#
# Velocity S-wave (km/s) = 2.84102 3.47480 3.17377
# Velocity P-wave (km/s) = 6.45107 7.20443 6.83813
#
# Compressibility (1/GPa) = 0.01719644
#
# Stress axis : x y z
#
# Youngs Moduli (GPa) = 49.45697 77.24165 78.65592
#
# Poissons Ratio (x) = 0.31705 0.35710
# Poissons Ratio (y) = 0.20300 0.44810
# Poissons Ratio (z) = 0.22453 0.44004
#
# Static dielectric constant tensor:
#      x y z
#    x 1.681430 0.000000 0.000000 
#    y 0.000000 1.700070 0.000000 
#    z 0.000000 0.000000 1.699930 
# 
# From -- ./inp_files/1574.got.cif
#   From: 2010.05.17/outbox.cif.g08.bks.cpg/sg17_1_cif.got.tgz:1574.got - 2010.06.03 22:34:06.
