data_PCOD9311661
_publ_section_title
;
Structure prediction by ZEFSAII (Michael W. Deem and Ramdas Pophale) SiO2 
 PCOD9311661
Probable space group: P 21 21 2
;
_chemical_formula_sum "Si O2"
_cell_formula_units_Z 30
_cell_length_a 11.119447
_cell_length_b 8.006996
_cell_length_c 15.384357
_cell_angle_alpha 90.000000
_cell_angle_beta 90.000000
_cell_angle_gamma 90.000000
_cell_volume 1369.721113
_symmetry_space_group_name_H-M "P 21 21 2"
_symmetry_group_IT_number 18
_symmetry_cell_setting 'orthorhombic'
loop_
_space_group_symop_operation_xyz
x,y,z
-x,-y,z
1/2+x,1/2-y,-z
1/2-x,1/2+y,-z
loop_
_atom_site_type_symbol
_atom_site_label
_atom_site_fract_x
_atom_site_fract_y
_atom_site_fract_z
Si Si1 0.500000 0.500000 0.053653
Si Si2 0.867184 0.462472 0.445389
Si Si3 0.704090 0.065604 0.738712
Si Si4 0.141724 0.240126 0.808469
Si Si5 0.117367 0.889315 0.492796
Si Si6 0.788629 0.183290 0.049234
Si Si7 0.376652 0.950097 0.918106
Si Si8 0.945471 0.188987 0.687948
O O1 0.563475 0.367613 0.120058
O O2 0.403864 0.409983 0.989956
O O3 0.857441 0.560100 0.354309
O O4 0.862825 0.264635 0.429058
O O5 0.743645 0.512346 0.495516
O O6 0.000000 0.500000 0.483343
O O7 0.766991 0.886069 0.758574
O O8 0.616127 0.101959 0.818269
O O9 0.817903 0.189692 0.736579
O O10 0.217296 0.375743 0.864160
O O11 0.046109 0.298183 0.735606
O O12 0.084992 0.801464 0.585964
O O13 0.000000 0.000000 0.471443
O O14 0.811649 0.373352 0.074203
O O15 0.695641 0.183932 0.970422
O O16 0.500000 0.000000 0.960870
O O17 0.000000 0.000000 0.695213
#
# Coordination Sequence:
#
# PCOD9311661 Si02
#       8
#     2   4   4   4   4   4   4   4
#     4  12  18  36  58  84 118 152 198 264 304 356
#     4  11  22  37  63  95 128 163 208 272 333 388
#     4   9  17  33  56  84 114 156 207 245 299 380
#     4  10  17  33  59  86 113 157 209 259 300 361
#     4  10  21  38  64  96 127 167 215 260 321 400
#     4  11  22  35  57  85 114 152 202 255 310 352
#     4  11  22  36  56  83 110 154 202 247 295 364
#     4   8  14  30  58  87 110 151 207 246 287 367
#
# _framework density 21.902269
#
# number of rings (size 3 to 8) (size 9 to 14) (size 15 to 20)
#    0.000    1.867    4.667    2.800    0.000    0.000 
#    0.000    0.000    5.867   20.000    0.000    0.000 
#    0.000    0.000    0.000    0.000    0.000    0.000 
#
# Total GULP energy -167064.288921 kJ/mol
# GULP energy per Si atom -5568.809631 kJ/mol
# Density = 2.185242 g / cm^3
# Si number density = 21.902269 Si / 1000 Ang^3
#
#
#
# Elastic Constant Matrix: (Units=GPa)
#
#
# Indices 1 2 3 4 5 6 
#
# 1 118.0051 13.2269 2.9961 0.0000 0.0000 0.0000
# 2 13.2269 29.6194 -2.0374 0.0000 0.0000 0.0000
# 3 2.9961 -2.0374 18.5864 0.0000 0.0000 0.0000
# 4 0.0000 0.0000 0.0000 19.7135 0.0000 0.0000
# 5 0.0000 0.0000 0.0000 0.0000 -89.0749 0.0000
# 6 0.0000 0.0000 0.0000 0.0000 0.0000 26.8791
#
#
#
# Elastic Compliance Matrix: (Units=1/GPa)
#
#
# Indices 1 2 3 4 5 6 
#
# 1 0.008987 -0.004144 -0.001903 0.000000 0.000000 0.000000
# 2 -0.004144 0.035929 0.004607 0.000000 0.000000 0.000000
# 3 -0.001903 0.004607 0.054615 0.000000 0.000000 0.000000
# 4 0.000000 0.000000 0.000000 0.050727 0.000000 0.000000
# 5 0.000000 0.000000 0.000000 0.000000 -0.011227 0.000000
# 6 0.000000 0.000000 0.000000 0.000000 0.000000 0.037204
#
#
# Mechanical properties :
#
#
# Convention : Reuss Voigt Hill
#
# Bulk Modulus (GPa) = 10.34668 21.62026 15.98347
# Shear Modulus (GPa) = 23.65943 1.63856 12.64899
#
# Velocity S-wave (km/s) = 3.29025 0.86588 2.40577
# Velocity P-wave (km/s) = 4.37819 3.30035 3.87691
#
# Compressibility (1/GPa) = 0.09664939
#
# Stress axis : x y z
#
# Youngs Moduli (GPa) = 111.27139 27.83256 18.31014
#
# Poissons Ratio (x) = 0.11534 0.03484
# Poissons Ratio (y) = 0.46113 -0.08435
# Poissons Ratio (z) = 0.21175 -0.12821
#
# Static dielectric constant tensor:
#      x y z
#    x 1.953340 0.000000 0.000000 
#    y 0.000000 1.785320 0.000000 
#    z 0.000000 0.000000 1.862050 
# 
# From -- ./inp_files/6898.got.cif
#   From: 2010.05.17/outbox.cif.g08.bks.cpg/sg18_4_cif.got.tgz:6898.got - 2010.06.03 22:40:56.
