data_PCOD9311894
_publ_section_title
;
Structure prediction by ZEFSAII (Michael W. Deem and Ramdas Pophale) SiO2 
 PCOD9311894
Probable space group: P 21 21 2
;
_chemical_formula_sum "Si O2"
_cell_formula_units_Z 18
_cell_length_a 14.144800
_cell_length_b 6.617596
_cell_length_c 8.790963
_cell_angle_alpha 90.000000
_cell_angle_beta 90.000000
_cell_angle_gamma 90.000000
_cell_volume 822.874328
_symmetry_space_group_name_H-M "P 21 21 2"
_symmetry_group_IT_number 18
_symmetry_cell_setting 'orthorhombic'
loop_
_space_group_symop_operation_xyz
x,y,z
-x,-y,z
1/2+x,1/2-y,-z
1/2-x,1/2+y,-z
loop_
_atom_site_type_symbol
_atom_site_label
_atom_site_fract_x
_atom_site_fract_y
_atom_site_fract_z
Si Si1 0.330701 0.395468 0.662001
Si Si2 0.327018 0.570595 0.333477
Si Si3 0.383426 0.804459 0.073840
Si Si4 0.000000 0.000000 0.131133
Si Si5 0.293940 0.187936 0.126082
O O1 0.354122 0.485373 0.496732
O O2 0.423576 0.388963 0.763579
O O3 0.262926 0.553704 0.750691
O O4 0.273604 0.185843 0.647701
O O5 0.392948 0.733182 0.248372
O O6 0.323421 0.388335 0.213389
O O7 0.379395 0.046797 0.068459
O O8 0.450358 0.670640 0.970287
O O9 0.277694 0.746564 0.009355
#
# Coordination Sequence:
#
# PCOD9311894 Si02
#       5
#     4   4   4   2   4
#     4  10  22  39  66  96 133 171 222 280 331 396
#     4  11  20  38  69  95 125 178 229 264 319 414
#     4  10  21  37  65  92 131 169 217 273 328 399
#     4  10  24  44  62 100 142 166 216 296 350 376
#     4  10  19  37  64  95 123 171 226 260 317 402
#
# _framework density 21.874544
#
# number of rings (size 3 to 8) (size 9 to 14) (size 15 to 20)
#    0.000    1.778    4.444    0.000    0.000    0.889 
#    0.000   10.000    0.000    5.333    0.000    0.000 
#    0.000    0.000    0.000    0.000    0.000    0.000 
#
# Total GULP energy -100595.942210 kJ/mol
# GULP energy per Si atom -5588.663456 kJ/mol
# Density = 2.182476 g / cm^3
# Si number density = 21.874544 Si / 1000 Ang^3
#
#
#
# Elastic Constant Matrix: (Units=GPa)
#
#
# Indices 1 2 3 4 5 6 
#
# 1 56.3251 18.7322 27.4641 0.0000 0.0000 0.0000
# 2 18.7322 98.3424 31.9277 0.0000 0.0000 0.0000
# 3 27.4641 31.9277 136.0584 0.0000 0.0000 0.0000
# 4 0.0000 0.0000 0.0000 36.0069 0.0000 0.0000
# 5 0.0000 0.0000 0.0000 0.0000 29.9435 0.0000
# 6 0.0000 0.0000 0.0000 0.0000 0.0000 32.7502
#
#
#
# Elastic Compliance Matrix: (Units=1/GPa)
#
#
# Indices 1 2 3 4 5 6 
#
# 1 0.020359 -0.002753 -0.003463 0.000000 0.000000 0.000000
# 2 -0.002753 0.011380 -0.002115 0.000000 0.000000 0.000000
# 3 -0.003463 -0.002115 0.008545 0.000000 0.000000 0.000000
# 4 0.000000 0.000000 0.000000 0.027772 0.000000 0.000000
# 5 0.000000 0.000000 0.000000 0.000000 0.033396 0.000000
# 6 0.000000 0.000000 0.000000 0.000000 0.000000 0.030534
#
#
# Mechanical properties :
#
#
# Convention : Reuss Voigt Hill
#
# Bulk Modulus (GPa) = 42.33622 49.66377 46.00000
# Shear Modulus (GPa) = 31.94436 33.91358 32.92897
#
# Velocity S-wave (km/s) = 3.82559 3.94174 3.88410
# Velocity P-wave (km/s) = 6.23776 6.59315 6.41792
#
# Compressibility (1/GPa) = 0.02362043
#
# Stress axis : x y z
#
# Youngs Moduli (GPa) = 49.11944 87.87700 117.02642
#
# Poissons Ratio (x) = 0.24197 0.40530
# Poissons Ratio (y) = 0.13525 0.24746
# Poissons Ratio (z) = 0.17012 0.18582
#
# Static dielectric constant tensor:
#      x y z
#    x 1.833330 0.000000 0.000000 
#    y 0.000000 1.816550 0.000000 
#    z 0.000000 0.000000 1.775200 
# 
# From -- ./inp_files/2444.got.cif
#   From: 2010.05.17/outbox.cif.g08.bks.cpg/sg18_2_cif.got.tgz:2444.got - 2010.06.03 22:40:56.
