data_PCOD9311152
_publ_section_title
;
Structure prediction by ZEFSAII (Michael W. Deem and Ramdas Pophale) SiO2 
 PCOD9311152
Probable space group: P 2 2 21
;
_chemical_formula_sum "Si O2"
_cell_formula_units_Z 20
_cell_length_a 5.274060
_cell_length_b 9.035752
_cell_length_c 18.635845
_cell_angle_alpha 90.000000
_cell_angle_beta 90.000000
_cell_angle_gamma 90.000000
_cell_volume 888.093023
_symmetry_space_group_name_H-M "P 2 2 21"
_symmetry_group_IT_number 17
_symmetry_cell_setting 'orthorhombic'
loop_
_space_group_symop_operation_xyz
x,y,z
-x,-y,1/2+z
x,-y,-z
-x,y,1/2-z
loop_
_atom_site_type_symbol
_atom_site_label
_atom_site_fract_x
_atom_site_fract_y
_atom_site_fract_z
Si Si1 0.534912 0.500000 0.500000
Si Si2 0.500000 0.479342 0.750000
Si Si3 0.483186 0.986133 0.336170
Si Si4 0.164767 0.462430 0.372081
Si Si5 0.237905 0.691403 0.118915
Si Si6 0.028992 0.166955 0.164169
O O1 0.354255 0.442008 0.437314
O O2 0.697159 0.379532 0.542247
O O3 0.699575 0.567327 0.796442
O O4 0.640529 0.387396 0.688708
O O5 0.500000 0.952328 0.250000
O O6 0.619177 0.848145 0.376452
O O7 0.689388 0.111253 0.349922
O O8 0.201713 0.049878 0.355523
O O9 0.052849 0.630544 0.371826
O O10 0.975935 0.325844 0.374571
O O11 0.000000 0.176113 0.250000
#
# Coordination Sequence:
#
# PCOD9311152 Si02
#       6
#     2   2   4   4   4   4
#     4  10  26  42  68  90 142 174 246 280 356 394
#     4  10  22  34  70 100 128 164 232 276 350 400
#     4  10  23  40  67 103 140 174 223 289 360 419
#     4  11  24  42  69  99 135 184 233 293 345 425
#     4  11  22  42  68  98 132 183 228 294 337 421
#     4  10  23  40  67 103 141 175 221 288 358 421
#
# _framework density 22.520163
#
# number of rings (size 3 to 8) (size 9 to 14) (size 15 to 20)
#    0.000    1.600    1.000    2.400   15.400    1.600 
#    0.000    1.000    0.000    0.000    0.000    0.000 
#    0.000    0.000    0.000    0.000    0.000    0.000 
#
# Total GULP energy -111386.008306 kJ/mol
# GULP energy per Si atom -5569.300415 kJ/mol
# Density = 2.246891 g / cm^3
# Si number density = 22.520163 Si / 1000 Ang^3
#
#
#
# Elastic Constant Matrix: (Units=GPa)
#
#
# Indices 1 2 3 4 5 6 
#
# 1 85.5031 3.6904 23.8443 0.0000 0.0000 0.0000
# 2 3.6904 55.6797 8.7852 0.0000 0.0000 0.0000
# 3 23.8443 8.7852 48.5355 0.0000 0.0000 0.0000
# 4 0.0000 0.0000 0.0000 6.8483 0.0000 0.0000
# 5 0.0000 0.0000 0.0000 0.0000 18.0605 0.0000
# 6 0.0000 0.0000 0.0000 0.0000 0.0000 22.1918
#
#
#
# Elastic Compliance Matrix: (Units=1/GPa)
#
#
# Indices 1 2 3 4 5 6 
#
# 1 0.013553 0.000157 -0.006687 0.000000 0.000000 0.000000
# 2 0.000157 0.018490 -0.003424 0.000000 0.000000 0.000000
# 3 -0.006687 -0.003424 0.024508 0.000000 0.000000 0.000000
# 4 0.000000 0.000000 0.000000 0.146022 0.000000 0.000000
# 5 0.000000 0.000000 0.000000 0.000000 0.055369 0.000000
# 6 0.000000 0.000000 0.000000 0.000000 0.000000 0.045062
#
#
# Mechanical properties :
#
#
# Convention : Reuss Voigt Hill
#
# Bulk Modulus (GPa) = 27.28980 29.15089 28.22034
# Shear Modulus (GPa) = 14.91971 19.64669 17.28320
#
# Velocity S-wave (km/s) = 2.57671 2.95685 2.77330
# Velocity P-wave (km/s) = 4.58223 4.96284 4.77633
#
# Compressibility (1/GPa) = 0.03664373
#
# Stress axis : x y z
#
# Youngs Moduli (GPa) = 73.78175 54.08421 40.80259
#
# Poissons Ratio (x) = -0.00848 0.27284
# Poissons Ratio (y) = -0.01157 0.13970
# Poissons Ratio (z) = 0.49337 0.18517
#
# Static dielectric constant tensor:
#      x y z
#    x 2.008050 0.000000 0.000000 
#    y 0.000000 1.926650 0.000000 
#    z 0.000000 0.000000 1.795040 
# 
# From -- ./inp_files/8975.got.cif
#   From: 2010.05.17/outbox.cif.g08.bks.cpg/sg17_5_cif.got.tgz:8975.got - 2010.06.03 22:34:06.
