data_PCOD9311915
_publ_section_title
;
Structure prediction by ZEFSAII (Michael W. Deem and Ramdas Pophale) SiO2 
 PCOD9311915
Probable space group: P 21 21 2
;
_chemical_formula_sum "Si O2"
_cell_formula_units_Z 32
_cell_length_a 10.802684
_cell_length_b 16.833019
_cell_length_c 9.248549
_cell_angle_alpha 90.000000
_cell_angle_beta 90.000000
_cell_angle_gamma 90.000000
_cell_volume 1681.772659
_symmetry_space_group_name_H-M "P 21 21 2"
_symmetry_group_IT_number 18
_symmetry_cell_setting 'orthorhombic'
loop_
_space_group_symop_operation_xyz
x,y,z
-x,-y,z
1/2+x,1/2-y,-z
1/2-x,1/2+y,-z
loop_
_atom_site_type_symbol
_atom_site_label
_atom_site_fract_x
_atom_site_fract_y
_atom_site_fract_z
Si Si1 0.261028 0.368321 0.655674
Si Si2 0.999483 0.406253 0.103454
Si Si3 0.366718 0.534883 0.729995
Si Si4 0.577990 0.721135 0.253305
Si Si5 0.212474 0.655615 0.911666
Si Si6 0.034392 0.174784 0.440012
Si Si7 0.366844 0.779026 0.084419
Si Si8 0.161960 0.333777 0.344199
O O1 0.278743 0.459753 0.701711
O O2 0.399916 0.335315 0.632252
O O3 0.196809 0.310888 0.770835
O O4 0.188543 0.365684 0.504449
O O5 0.000000 0.500000 0.090145
O O6 0.055671 0.380123 0.257569
O O7 0.866266 0.377591 0.046399
O O8 0.086818 0.358206 0.993828
O O9 0.500000 0.500000 0.775317
O O10 0.305853 0.591308 0.848978
O O11 0.395744 0.591251 0.590135
O O12 0.628765 0.811033 0.222347
O O13 0.499466 0.701394 0.397163
O O14 0.479603 0.718708 0.122742
O O15 0.702498 0.668504 0.267276
O O16 0.279176 0.732159 0.976915
O O17 0.113352 0.243848 0.364893
#
# Coordination Sequence:
#
# PCOD9311915 Si02
#       8
#     4   4   4   4   4   4   4   4
#     4  10  22  37  66  94 125 168 212 267 324 383
#     4  11  24  41  58  90 135 163 207 272 323 375
#     4  10  21  40  64  98 130 166 211 274 335 390
#     4  10  21  36  63  92 119 160 212 263 303 377
#     4  11  22  41  66  92 127 172 218 267 319 395
#     4  10  19  38  65  90 123 161 214 266 305 384
#     4  11  21  40  65  94 121 167 221 257 320 383
#     4  11  20  43  61  89 128 169 213 261 317 382
#
# _framework density 19.027539999999998
#
# number of rings (size 3 to 8) (size 9 to 14) (size 15 to 20)
#    0.000    1.500    3.750    1.500    0.000    3.000 
#    6.750    0.625    0.000    0.000    0.000    0.000 
#    0.000    0.000    0.000    0.000    0.000    0.000 
#
# Total GULP energy -178240.879359 kJ/mol
# GULP energy per Si atom -5570.027480 kJ/mol
# Density = 1.898423 g / cm^3
# Si number density = 19.027540 Si / 1000 Ang^3
#
#
#
# Elastic Constant Matrix: (Units=GPa)
#
#
# Indices 1 2 3 4 5 6 
#
# 1 60.1958 39.7755 42.2713 0.0000 0.0000 0.0000
# 2 39.7755 98.9034 37.2705 0.0000 0.0000 0.0000
# 3 42.2713 37.2705 91.8690 0.0000 0.0000 0.0000
# 4 0.0000 0.0000 0.0000 -25.0156 0.0000 0.0000
# 5 0.0000 0.0000 0.0000 0.0000 27.8590 0.0000
# 6 0.0000 0.0000 0.0000 0.0000 0.0000 29.0001
#
#
#
# Elastic Compliance Matrix: (Units=1/GPa)
#
#
# Indices 1 2 3 4 5 6 
#
# 1 0.028872 -0.007797 -0.010122 0.000000 0.000000 0.000000
# 2 -0.007797 0.014041 -0.002109 0.000000 0.000000 0.000000
# 3 -0.010122 -0.002109 0.016398 0.000000 0.000000 0.000000
# 4 0.000000 0.000000 0.000000 -0.039975 0.000000 0.000000
# 5 0.000000 0.000000 0.000000 0.000000 0.035895 0.000000
# 6 0.000000 0.000000 0.000000 0.000000 0.000000 0.034483
#
#
# Mechanical properties :
#
#
# Convention : Reuss Voigt Hill
#
# Bulk Modulus (GPa) = 51.93125 54.40030 53.16578
# Shear Modulus (GPa) = 36.71392 15.14543 25.92967
#
# Velocity S-wave (km/s) = 4.39739 2.82436 3.69554
# Velocity P-wave (km/s) = 7.28935 6.26805 6.79791
#
# Compressibility (1/GPa) = 0.01925623
#
# Stress axis : x y z
#
# Youngs Moduli (GPa) = 34.63515 71.21843 60.98379
#
# Poissons Ratio (x) = 0.55531 0.61726
# Poissons Ratio (y) = 0.27006 0.12860
# Poissons Ratio (z) = 0.35057 0.15018
#
# Static dielectric constant tensor:
#      x y z
#    x 1.721720 0.000000 0.000000 
#    y 0.000000 1.640370 0.000000 
#    z 0.000000 0.000000 1.673960 
# 
# From -- ./inp_files/3943.got.cif
#   From: 2010.05.17/outbox.cif.g08.bks.cpg/sg18_2_cif.got.tgz:3943.got - 2010.06.03 22:40:56.
