data_PCOD9311802
_publ_section_title
;
Structure prediction by ZEFSAII (Michael W. Deem and Ramdas Pophale) SiO2 
 PCOD9311802
Probable space group: P 21 21 2
;
_chemical_formula_sum "Si O2"
_cell_formula_units_Z 28
_cell_length_a 22.560065
_cell_length_b 5.168553
_cell_length_c 11.439531
_cell_angle_alpha 90.000000
_cell_angle_beta 90.000000
_cell_angle_gamma 90.000000
_cell_volume 1333.882394
_symmetry_space_group_name_H-M "P 21 21 2"
_symmetry_group_IT_number 18
_symmetry_cell_setting 'orthorhombic'
loop_
_space_group_symop_operation_xyz
x,y,z
-x,-y,z
1/2+x,1/2-y,-z
1/2-x,1/2+y,-z
loop_
_atom_site_type_symbol
_atom_site_label
_atom_site_fract_x
_atom_site_fract_y
_atom_site_fract_z
Si Si1 0.824017 0.502581 0.979301
Si Si2 0.311336 0.494707 0.913792
Si Si3 0.674866 0.843773 0.516220
Si Si4 0.939192 0.620272 0.418222
Si Si5 0.822286 0.832332 0.345264
Si Si6 0.440899 0.640233 0.329916
Si Si7 0.631962 0.861247 0.274542
O O1 0.846502 0.785342 0.015063
O O2 0.839610 0.288215 0.076139
O O3 0.753093 0.537638 0.972188
O O4 0.843069 0.393030 0.854579
O O5 0.302239 0.590568 0.782544
O O6 0.797888 0.566258 0.400797
O O7 0.688821 0.561058 0.562498
O O8 0.679417 0.909674 0.379091
O O9 0.603973 0.888698 0.538082
O O10 0.893738 0.780090 0.337859
O O11 0.950445 0.793490 0.533269
O O12 0.000000 0.500000 0.372791
O O13 0.500000 0.500000 0.284425
O O14 0.390810 0.426941 0.303171
O O15 0.419141 0.918169 0.282494
#
# Coordination Sequence:
#
# PCOD9311802 Si02
#       7
#     4   4   4   4   4   4   4
#     4  10  22  38  63  79 104 146 195 240 270 333
#     4  10  21  40  58  84 103 143 202 233 277 327
#     4   9  18  31  49  81 112 143 169 221 277 337
#     4   9  19  29  52  80 115 145 183 214 268 328
#     4  10  19  33  53  78 116 140 178 230 274 326
#     4  11  20  32  54  84 116 147 181 222 269 337
#     4  11  19  36  54  84 116 140 188 224 284 327
#
# _framework density 20.991357000000001
#
# number of rings (size 3 to 8) (size 9 to 14) (size 15 to 20)
#    0.857    1.143    1.429    3.857    0.000    0.000 
#    0.000    1.429    0.000    3.429    0.000    0.000 
#    0.000    0.000    0.000    0.000    0.000    0.000 
#
# Total GULP energy -156021.470682 kJ/mol
# GULP energy per Si atom -5572.195381 kJ/mol
# Density = 2.094358 g / cm^3
# Si number density = 20.991357 Si / 1000 Ang^3
#
#
#
# Elastic Constant Matrix: (Units=GPa)
#
#
# Indices 1 2 3 4 5 6 
#
# 1 36.8102 15.2379 -13.3802 0.0000 0.0000 0.0000
# 2 15.2379 90.9586 -6.4851 0.0000 0.0000 0.0000
# 3 -13.3802 -6.4851 32.2909 0.0000 0.0000 0.0000
# 4 0.0000 0.0000 0.0000 26.6607 0.0000 0.0000
# 5 0.0000 0.0000 0.0000 0.0000 16.1445 0.0000
# 6 0.0000 0.0000 0.0000 0.0000 0.0000 13.5393
#
#
#
# Elastic Compliance Matrix: (Units=1/GPa)
#
#
# Indices 1 2 3 4 5 6 
#
# 1 0.033888 -0.004744 0.013089 0.000000 0.000000 0.000000
# 2 -0.004744 0.011818 0.000408 0.000000 0.000000 0.000000
# 3 0.013089 0.000408 0.036474 0.000000 0.000000 0.000000
# 4 0.000000 0.000000 0.000000 0.037508 0.000000 0.000000
# 5 0.000000 0.000000 0.000000 0.000000 0.061940 0.000000
# 6 0.000000 0.000000 0.000000 0.000000 0.000000 0.073859
#
#
# Mechanical properties :
#
#
# Convention : Reuss Voigt Hill
#
# Bulk Modulus (GPa) = 10.03146 16.75607 13.39376
# Shear Modulus (GPa) = 18.43588 22.24805 20.34196
#
# Velocity S-wave (km/s) = 2.96676 3.25909 3.11636
# Velocity P-wave (km/s) = 4.06507 4.70765 4.39811
#
# Compressibility (1/GPa) = 0.09968639
#
# Stress axis : x y z
#
# Youngs Moduli (GPa) = 29.50891 84.61806 27.41667
#
# Poissons Ratio (x) = 0.40142 -0.35887
# Poissons Ratio (y) = 0.13999 -0.01118
# Poissons Ratio (z) = -0.38625 -0.03450
#
# Static dielectric constant tensor:
#      x y z
#    x 1.815180 0.000000 0.000000 
#    y 0.000000 1.807650 0.000000 
#    z 0.000000 0.000000 1.739100 
# 
# From -- ./inp_files/6262.got.cif
#   From: 2010.05.17/outbox.cif.g08.bks.cpg/sg18_4_cif.got.tgz:6262.got - 2010.06.03 22:40:56.
