data_PCOD9311440
_publ_section_title
;
Structure prediction by ZEFSAII (Michael W. Deem and Ramdas Pophale) SiO2 
 PCOD9311440
Probable space group: P 2 2 21
;
_chemical_formula_sum "Si O2"
_cell_formula_units_Z 16
_cell_length_a 22.868680
_cell_length_b 5.142368
_cell_length_c 5.267510
_cell_angle_alpha 90.000000
_cell_angle_beta 90.000000
_cell_angle_gamma 90.000000
_cell_volume 619.454795
_symmetry_space_group_name_H-M "P 2 2 21"
_symmetry_group_IT_number 17
_symmetry_cell_setting 'orthorhombic'
loop_
_space_group_symop_operation_xyz
x,y,z
-x,-y,1/2+z
x,-y,-z
-x,y,1/2-z
loop_
_atom_site_type_symbol
_atom_site_label
_atom_site_fract_x
_atom_site_fract_y
_atom_site_fract_z
Si Si1 0.842018 0.500000 0.000000
Si Si2 0.066039 0.822984 0.247962
Si Si3 0.624560 0.821575 0.751371
Si Si4 0.500000 0.817035 0.750000
Si Si5 0.754420 0.258193 0.330563
O O1 0.885404 0.605369 0.215174
O O2 0.798817 0.274764 0.098051
O O3 0.000000 0.713075 0.250000
O O4 0.070176 0.000000 0.500000
O O5 0.074385 0.000000 0.000000
O O6 0.562435 0.670830 0.750173
O O7 0.687219 0.686130 0.750384
O O8 0.624257 0.000000 0.500000
O O9 0.624655 0.000000 0.000000
O O10 0.499869 0.000000 0.500000
O O11 0.772001 0.500000 0.500000
O O12 0.756733 0.000000 0.500000
#
# Coordination Sequence:
#
# PCOD9311440 Si02
#       5
#     2   4   4   2   4
#     4  12  30  46  82 110 162 200 268 310 400 460
#     4  10  26  51  79 113 154 200 255 320 390 466
#     4   9  19  38  67 100 146 191 252 311 380 446
#     4   8  14  30  62  98 132 190 244 310 374 446
#     4  11  29  49  74 110 157 204 258 317 386 463
#
# _framework density 25.829163000000001
#
# number of rings (size 3 to 8) (size 9 to 14) (size 15 to 20)
#    0.000    2.000    0.000    0.000   14.000    3.000 
#    0.000    0.000    2.750    1.500    0.000    0.000 
#    0.000    0.000    0.000    0.000    0.000    0.000 
#
# Total GULP energy -89616.892505 kJ/mol
# GULP energy per Si atom -5601.055782 kJ/mol
# Density = 2.577037 g / cm^3
# Si number density = 25.829163 Si / 1000 Ang^3
#
#
#
# Elastic Constant Matrix: (Units=GPa)
#
#
# Indices 1 2 3 4 5 6 
#
# 1 283.7535 50.2714 46.9327 0.0000 0.0000 0.0000
# 2 50.2714 86.6867 41.1330 0.0000 0.0000 0.0000
# 3 46.9327 41.1330 180.1748 0.0000 0.0000 0.0000
# 4 0.0000 0.0000 0.0000 48.6077 0.0000 0.0000
# 5 0.0000 0.0000 0.0000 0.0000 40.0117 0.0000
# 6 0.0000 0.0000 0.0000 0.0000 0.0000 32.7320
#
#
#
# Elastic Compliance Matrix: (Units=1/GPa)
#
#
# Indices 1 2 3 4 5 6 
#
# 1 0.003980 -0.002037 -0.000572 0.000000 0.000000 0.000000
# 2 -0.002037 0.013979 -0.002661 0.000000 0.000000 0.000000
# 3 -0.000572 -0.002661 0.006307 0.000000 0.000000 0.000000
# 4 0.000000 0.000000 0.000000 0.020573 0.000000 0.000000
# 5 0.000000 0.000000 0.000000 0.000000 0.024993 0.000000
# 6 0.000000 0.000000 0.000000 0.000000 0.000000 0.030551
#
#
# Mechanical properties :
#
#
# Convention : Reuss Voigt Hill
#
# Bulk Modulus (GPa) = 72.84806 91.92102 82.38454
# Shear Modulus (GPa) = 43.29140 51.75547 47.52344
#
# Velocity S-wave (km/s) = 4.09842 4.48120 4.29408
# Velocity P-wave (km/s) = 7.11766 7.90191 7.52002
#
# Compressibility (1/GPa) = 0.01372720
#
# Stress axis : x y z
#
# Youngs Moduli (GPa) = 251.28476 71.53354 158.56505
#
# Poissons Ratio (x) = 0.14568 0.09065
# Poissons Ratio (y) = 0.51176 0.42193
# Poissons Ratio (z) = 0.14365 0.19035
#
# Static dielectric constant tensor:
#      x y z
#    x 2.060840 0.000000 0.000000 
#    y 0.000000 2.096020 0.000000 
#    z 0.000000 0.000000 2.041210 
# 
# From -- ./inp_files/2808.got.cif
#   From: 2010.05.17/outbox.cif.g08.bks.cpg/sg17_2_cif.got.tgz:2808.got - 2010.06.03 22:34:06.
