data_PCOD9311089
_publ_section_title
;
Structure prediction by ZEFSAII (Michael W. Deem and Ramdas Pophale) SiO2 
 PCOD9311089
Probable space group: P 2 2 21
;
_chemical_formula_sum "Si O2"
_cell_formula_units_Z 20
_cell_length_a 6.005508
_cell_length_b 18.130344
_cell_length_c 8.939469
_cell_angle_alpha 90.000000
_cell_angle_beta 90.000000
_cell_angle_gamma 90.000000
_cell_volume 973.346602
_symmetry_space_group_name_H-M "P 2 2 21"
_symmetry_group_IT_number 17
_symmetry_cell_setting 'orthorhombic'
loop_
_space_group_symop_operation_xyz
x,y,z
-x,-y,1/2+z
x,-y,-z
-x,y,1/2-z
loop_
_atom_site_type_symbol
_atom_site_label
_atom_site_fract_x
_atom_site_fract_y
_atom_site_fract_z
Si Si1 0.000000 0.635796 0.750000
Si Si2 0.303214 0.294924 0.495878
Si Si3 0.678619 0.000000 0.500000
Si Si4 0.618209 0.134477 0.909496
Si Si5 0.000000 0.360475 0.750000
Si Si6 0.000000 0.949493 0.250000
Si Si7 0.318289 0.580911 0.002444
O O1 0.844665 0.588890 0.639610
O O2 0.158135 0.685583 0.648079
O O3 0.373633 0.210406 0.501846
O O4 0.148779 0.311168 0.639834
O O5 0.506066 0.352719 0.500295
O O6 0.522909 0.071739 0.507366
O O7 0.831050 0.003820 0.648201
O O8 0.500000 0.149461 0.750000
O O9 0.857494 0.100975 0.863840
O O10 0.164631 0.408440 0.851956
O O11 0.426298 0.500000 0.000000
#
# Coordination Sequence:
#
# PCOD9311089 Si02
#       7
#     2   4   2   4   2   2   4
#     4  10  25  42  59  92 128 162 202 249 310 369
#     4  11  23  42  64  90 124 162 205 255 304 360
#     4  10  22  40  66  96 124 160 206 250 300 370
#     4  10  21  40  65  92 121 160 211 252 298 365
#     4  10  22  38  64  92 114 162 214 248 304 368
#     4  10  21  42  65  90 128 164 198 253 310 355
#     4  11  23  41  63  89 124 162 204 256 308 361
#
# _framework density 20.547666
#
# number of rings (size 3 to 8) (size 9 to 14) (size 15 to 20)
#    0.000    1.600    0.000    4.200    0.000   11.200 
#    0.000   19.000    0.000    0.000    0.000    0.000 
#    0.000    0.000    0.000    0.000    0.000    0.000 
#
# Total GULP energy -111866.662002 kJ/mol
# GULP energy per Si atom -5593.333100 kJ/mol
# Density = 2.050090 g / cm^3
# Si number density = 20.547666 Si / 1000 Ang^3
#
#
#
# Elastic Constant Matrix: (Units=GPa)
#
#
# Indices 1 2 3 4 5 6 
#
# 1 115.3990 71.0484 39.6028 0.0000 0.0000 0.0000
# 2 71.0484 177.7562 55.9020 0.0000 0.0000 0.0000
# 3 39.6028 55.9020 94.1455 0.0000 0.0000 0.0000
# 4 0.0000 0.0000 0.0000 -15.2883 0.0000 0.0000
# 5 0.0000 0.0000 0.0000 0.0000 10.8434 0.0000
# 6 0.0000 0.0000 0.0000 0.0000 0.0000 15.4692
#
#
#
# Elastic Compliance Matrix: (Units=1/GPa)
#
#
# Indices 1 2 3 4 5 6 
#
# 1 0.012032 -0.003956 -0.002712 0.000000 0.000000 0.000000
# 2 -0.003956 0.008218 -0.003216 0.000000 0.000000 0.000000
# 3 -0.002712 -0.003216 0.013672 0.000000 0.000000 0.000000
# 4 0.000000 0.000000 0.000000 -0.065410 0.000000 0.000000
# 5 0.000000 0.000000 0.000000 0.000000 0.092222 0.000000
# 6 0.000000 0.000000 0.000000 0.000000 0.000000 0.064645
#
#
# Mechanical properties :
#
#
# Convention : Reuss Voigt Hill
#
# Bulk Modulus (GPa) = 70.64980 80.04525 75.34753
# Shear Modulus (GPa) = 33.36317 16.92136 25.14226
#
# Velocity S-wave (km/s) = 4.03388 2.87281 3.50180
# Velocity P-wave (km/s) = 7.49362 7.07422 7.28693
#
# Compressibility (1/GPa) = 0.01415432
#
# Stress axis : x y z
#
# Youngs Moduli (GPa) = 83.11075 121.68039 73.14124
#
# Poissons Ratio (x) = 0.48140 0.19838
# Poissons Ratio (y) = 0.32881 0.23520
# Poissons Ratio (z) = 0.22542 0.39128
#
# Static dielectric constant tensor:
#      x y z
#    x 1.746020 0.000000 0.000000 
#    y 0.000000 1.701640 0.000000 
#    z 0.000000 0.000000 1.724090 
# 
# From -- ./inp_files/3520.got.cif
#   From: 2010.05.17/outbox.cif.g08.bks.cpg/sg17_2_cif.got.tgz:3520.got - 2010.06.03 22:34:06.
