data_PCOD9311374
_publ_section_title
;
Structure prediction by ZEFSAII (Michael W. Deem and Ramdas Pophale) SiO2 
 PCOD9311374
Probable space group: P 2 2 21
;
_chemical_formula_sum "Si O2"
_cell_formula_units_Z 20
_cell_length_a 7.617218
_cell_length_b 12.848679
_cell_length_c 10.145749
_cell_angle_alpha 90.000000
_cell_angle_beta 90.000000
_cell_angle_gamma 90.000000
_cell_volume 992.976517
_symmetry_space_group_name_H-M "P 2 2 21"
_symmetry_group_IT_number 17
_symmetry_cell_setting 'orthorhombic'
loop_
_space_group_symop_operation_xyz
x,y,z
-x,-y,1/2+z
x,-y,-z
-x,y,1/2-z
loop_
_atom_site_type_symbol
_atom_site_label
_atom_site_fract_x
_atom_site_fract_y
_atom_site_fract_z
Si Si1 0.710364 0.641036 0.731448
Si Si2 0.797782 0.402362 0.770151
Si Si3 0.729192 0.741683 0.999974
Si Si4 0.979885 0.096944 0.597802
Si Si5 0.674102 0.744080 0.456261
O O1 0.500000 0.634339 0.750000
O O2 0.780361 0.524679 0.747687
O O3 0.745540 0.687918 0.588059
O O4 0.774454 0.714749 0.849485
O O5 0.744586 0.364280 0.914878
O O6 0.686234 0.338531 0.662776
O O7 0.000000 0.371311 0.750000
O O8 0.861955 0.824776 0.060375
O O9 0.526583 0.775671 0.015351
O O10 0.000000 0.065366 0.750000
O O11 0.799138 0.839541 0.420334
O O12 0.983904 0.000000 0.500000
#
# Coordination Sequence:
#
# PCOD9311374 Si02
#       5
#     4   4   4   4   4
#     4  10  24  38  62 101 134 177 218 252 310 383
#     4  12  22  38  64 100 135 180 216 255 315 381
#     4  11  23  44  67  94 135 172 214 266 318 382
#     4  12  28  48  69  99 122 164 219 273 335 384
#     4  11  23  44  67  94 135 172 214 266 318 382
#
# _framework density 20.141462000000001
#
# number of rings (size 3 to 8) (size 9 to 14) (size 15 to 20)
#    0.000    0.800    4.000    3.000    5.600    5.600 
#    0.000    0.000    0.000    0.000    0.000    0.000 
#    0.000    0.000    0.000    0.000    0.000    0.000 
#
# Total GULP energy -111912.449742 kJ/mol
# GULP energy per Si atom -5595.622487 kJ/mol
# Density = 2.009562 g / cm^3
# Si number density = 20.141462 Si / 1000 Ang^3
#
#
#
# Elastic Constant Matrix: (Units=GPa)
#
#
# Indices 1 2 3 4 5 6 
#
# 1 74.1415 22.8244 5.6842 0.0000 0.0000 0.0000
# 2 22.8244 82.8030 35.5645 0.0000 0.0000 0.0000
# 3 5.6842 35.5645 118.9397 0.0000 0.0000 0.0000
# 4 0.0000 0.0000 0.0000 35.4889 0.0000 0.0000
# 5 0.0000 0.0000 0.0000 0.0000 23.9141 0.0000
# 6 0.0000 0.0000 0.0000 0.0000 0.0000 0.1003
#
#
#
# Elastic Compliance Matrix: (Units=1/GPa)
#
#
# Indices 1 2 3 4 5 6 
#
# 1 0.014774 -0.004325 0.000587 0.000000 0.000000 0.000000
# 2 -0.004325 0.015122 -0.004315 0.000000 0.000000 0.000000
# 3 0.000587 -0.004315 0.009670 0.000000 0.000000 0.000000
# 4 0.000000 0.000000 0.000000 0.028178 0.000000 0.000000
# 5 0.000000 0.000000 0.000000 0.000000 0.041816 0.000000
# 6 0.000000 0.000000 0.000000 0.000000 0.000000 9.972424
#
#
# Mechanical properties :
#
#
# Convention : Reuss Voigt Hill
#
# Bulk Modulus (GPa) = 42.62406 44.89228 43.75817
# Shear Modulus (GPa) = 0.49476 26.02139 13.25808
#
# Velocity S-wave (km/s) = 0.49616 3.59824 2.56842
# Velocity P-wave (km/s) = 4.64075 6.29286 5.52886
#
# Compressibility (1/GPa) = 0.02346093
#
# Stress axis : x y z
#
# Youngs Moduli (GPa) = 67.68632 66.12765 103.41439
#
# Poissons Ratio (x) = 0.28597 -0.06071
# Poissons Ratio (y) = 0.29271 0.44624
# Poissons Ratio (z) = -0.03973 0.28535
#
# Static dielectric constant tensor:
#      x y z
#    x 1.725190 0.000000 0.000000 
#    y 0.000000 1.660590 0.000000 
#    z 0.000000 0.000000 1.706310 
# 
# From -- ./inp_files/4044.got.cif
#   From: 2010.05.17/outbox.cif.g08.bks.cpg/sg17_3_cif.got.tgz:4044.got - 2010.06.03 22:34:06.
