data_PCOD9311811
_publ_section_title
;
Structure prediction by ZEFSAII (Michael W. Deem and Ramdas Pophale) SiO2 
 PCOD9311811
Probable space group: P 21 21 2
;
_chemical_formula_sum "Si O2"
_cell_formula_units_Z 26
_cell_length_a 28.171229
_cell_length_b 4.927425
_cell_length_c 9.012511
_cell_angle_alpha 90.000000
_cell_angle_beta 90.000000
_cell_angle_gamma 90.000000
_cell_volume 1251.041235
_symmetry_space_group_name_H-M "P 21 21 2"
_symmetry_group_IT_number 18
_symmetry_cell_setting 'orthorhombic'
loop_
_space_group_symop_operation_xyz
x,y,z
-x,-y,z
1/2+x,1/2-y,-z
1/2-x,1/2+y,-z
loop_
_atom_site_type_symbol
_atom_site_label
_atom_site_fract_x
_atom_site_fract_y
_atom_site_fract_z
Si Si1 0.550514 0.144911 0.141608
Si Si2 0.071579 0.830129 0.331520
Si Si3 0.000000 0.000000 0.095033
Si Si4 0.756752 0.532402 0.898347
Si Si5 0.658002 0.401719 0.838497
Si Si6 0.145045 0.605238 0.965003
Si Si7 0.050139 0.341964 0.521542
O O1 0.562773 0.231041 0.308993
O O2 0.500000 0.000000 0.153352
O O3 0.538778 0.359091 0.011903
O O4 0.593265 0.951643 0.095617
O O5 0.119140 0.969080 0.268316
O O6 0.080627 0.556636 0.424109
O O7 0.050471 0.060132 0.437535
O O8 0.031944 0.803101 0.200112
O O9 0.712939 0.450718 0.793900
O O10 0.749698 0.336606 0.042618
O O11 0.811377 0.479210 0.857758
O O12 0.649992 0.093649 0.890817
O O13 0.651670 0.586177 0.986534
O O14 0.000000 0.500000 0.522414
#
# Coordination Sequence:
#
# PCOD9311811 Si02
#       7
#     4   4   2   4   4   4   4
#     4  11  26  38  59  86 120 155 197 241 294 348
#     4  12  23  39  60  84 118 152 196 240 294 340
#     4  12  24  36  64  88 112 150 204 252 278 330
#     4   8  16  30  52  81 114 142 178 237 300 333
#     4  10  19  33  57  87 112 143 192 244 287 338
#     4  10  19  35  56  85 115 147 187 244 289 337
#     4  11  25  41  55  78 122 163 187 230 299 366
#
# _framework density 20.782688
#
# number of rings (size 3 to 8) (size 9 to 14) (size 15 to 20)
#    0.000    1.538    3.077    1.846    6.462    0.000 
#    0.000    0.000    0.000    1.846    0.000    0.000 
#    0.000    0.000    0.000    0.000    0.000    0.000 
#
# Total GULP energy -144998.923257 kJ/mol
# GULP energy per Si atom -5576.881664 kJ/mol
# Density = 2.073539 g / cm^3
# Si number density = 20.782688 Si / 1000 Ang^3
#
#
#
# Elastic Constant Matrix: (Units=GPa)
#
#
# Indices 1 2 3 4 5 6 
#
# 1 112.0579 -2.3760 11.9190 0.0000 0.0000 0.0000
# 2 -2.3760 79.7468 25.3282 0.0000 0.0000 0.0000
# 3 11.9190 25.3282 80.7266 0.0000 0.0000 0.0000
# 4 0.0000 0.0000 0.0000 11.5683 0.0000 0.0000
# 5 0.0000 0.0000 0.0000 0.0000 -10.9554 0.0000
# 6 0.0000 0.0000 0.0000 0.0000 0.0000 28.1323
#
#
#
# Elastic Compliance Matrix: (Units=1/GPa)
#
#
# Indices 1 2 3 4 5 6 
#
# 1 0.009109 0.000776 -0.001588 0.000000 0.000000 0.000000
# 2 0.000776 0.013994 -0.004505 0.000000 0.000000 0.000000
# 3 -0.001588 -0.004505 0.014036 0.000000 0.000000 0.000000
# 4 0.000000 0.000000 0.000000 0.086443 0.000000 0.000000
# 5 0.000000 0.000000 0.000000 0.000000 -0.091279 0.000000
# 6 0.000000 0.000000 0.000000 0.000000 0.000000 0.035546
#
#
# Mechanical properties :
#
#
# Convention : Reuss Voigt Hill
#
# Bulk Modulus (GPa) = 37.73116 38.03041 37.88078
# Shear Modulus (GPa) = 57.26166 21.59304 39.42735
#
# Velocity S-wave (km/s) = 5.25475 3.22684 4.36032
# Velocity P-wave (km/s) = 7.41694 5.67645 6.60428
#
# Compressibility (1/GPa) = 0.02650329
#
# Stress axis : x y z
#
# Youngs Moduli (GPa) = 109.77718 71.46085 71.24788
#
# Poissons Ratio (x) = -0.05545 0.11317
# Poissons Ratio (y) = -0.08518 0.32098
# Poissons Ratio (z) = 0.17437 0.32194
#
# Static dielectric constant tensor:
#      x y z
#    x 1.848260 0.000000 0.000000 
#    y 0.000000 1.748940 0.000000 
#    z 0.000000 0.000000 1.767600 
# 
# From -- ./inp_files/2616.got.cif
#   From: 2010.05.17/outbox.cif.g08.bks.cpg/sg18_2_cif.got.tgz:2616.got - 2010.06.03 22:40:56.
