data_PCOD9311206
_publ_section_title
;
Structure prediction by ZEFSAII (Michael W. Deem and Ramdas Pophale) SiO2 
 PCOD9311206
Probable space group: P 2 2 21
;
_chemical_formula_sum "Si O2"
_cell_formula_units_Z 24
_cell_length_a 19.395684
_cell_length_b 11.409497
_cell_length_c 5.109140
_cell_angle_alpha 90.000000
_cell_angle_beta 90.000000
_cell_angle_gamma 90.000000
_cell_volume 1130.627128
_symmetry_space_group_name_H-M "P 2 2 21"
_symmetry_group_IT_number 17
_symmetry_cell_setting 'orthorhombic'
loop_
_space_group_symop_operation_xyz
x,y,z
-x,-y,1/2+z
x,-y,-z
-x,y,1/2-z
loop_
_atom_site_type_symbol
_atom_site_label
_atom_site_fract_x
_atom_site_fract_y
_atom_site_fract_z
Si Si1 0.213168 0.639716 0.060697
Si Si2 0.073585 0.743032 0.094621
Si Si3 0.573585 0.256968 0.094621
Si Si4 0.000000 0.581657 0.750000
Si Si5 0.500000 0.581657 0.250000
Si Si6 0.048546 0.000000 0.000000
Si Si7 0.286832 0.360284 0.439303
Si Si8 0.451454 0.000000 0.500000
O O1 0.141022 0.676846 0.192755
O O2 0.269745 0.683832 0.269383
O O3 0.213334 0.500000 0.000000
O O4 0.230255 0.683832 0.769383
O O5 0.088356 0.879733 0.053209
O O6 0.000000 0.737402 0.250000
O O7 0.060159 0.670252 0.828879
O O8 0.500000 0.262598 0.250000
O O9 0.641022 0.323153 0.192754
O O10 0.560159 0.329748 0.828879
O O11 0.588356 0.120267 0.053209
O O12 0.013462 0.500000 0.500000
O O13 0.513462 0.500000 0.500000
O O14 0.000000 0.023507 0.250000
O O15 0.286666 0.500000 0.500000
O O16 0.500000 0.023507 0.750000
#
# Coordination Sequence:
#
# PCOD9311206 Si02
#       8
#     4   4   4   2   2   2   4   2
#     4  10  24  42  61  88 132 170 203 259 332 387
#     4  11  24  42  68  96 129 170 222 266 316 383
#     4  11  24  42  68  96 129 170 222 266 316 383
#     4  12  24  36  60 100 128 154 206 276 316 370
#     4  12  24  36  60 100 128 154 206 276 316 370
#     4  10  22  40  62  94 130 168 210 274 324 360
#     4  10  24  42  61  88 132 170 203 259 332 387
#     4  10  22  40  62  94 130 168 210 274 324 360
#
# _framework density 21.227155
#
# number of rings (size 3 to 8) (size 9 to 14) (size 15 to 20)
#    0.000    1.333    3.333    1.000    4.667    1.333 
#    0.000    1.667    0.000    0.000    0.000    0.000 
#    0.000    0.000    0.000    0.000    0.000    0.000 
#
# Total GULP energy -133634.573485 kJ/mol
# GULP energy per Si atom -5568.107229 kJ/mol
# Density = 2.117884 g / cm^3
# Si number density = 21.227155 Si / 1000 Ang^3
#
#
#
# Elastic Constant Matrix: (Units=GPa)
#
#
# Indices 1 2 3 4 5 6 
#
# 1 84.2481 -2.0331 30.3542 0.0000 0.0000 0.0000
# 2 -2.0331 88.4262 21.8208 0.0000 0.0000 0.0000
# 3 30.3542 21.8208 115.9972 0.0000 0.0000 0.0000
# 4 0.0000 0.0000 0.0000 -12.6280 0.0000 0.0000
# 5 0.0000 0.0000 0.0000 0.0000 26.4828 0.0000
# 6 0.0000 0.0000 0.0000 0.0000 0.0000 42.2193
#
#
#
# Elastic Compliance Matrix: (Units=1/GPa)
#
#
# Indices 1 2 3 4 5 6 
#
# 1 0.013229 0.001215 -0.003690 0.000000 0.000000 0.000000
# 2 0.001215 0.011971 -0.002570 0.000000 0.000000 0.000000
# 3 -0.003690 -0.002570 0.010070 0.000000 0.000000 0.000000
# 4 0.000000 0.000000 0.000000 -0.079189 0.000000 0.000000
# 5 0.000000 0.000000 0.000000 0.000000 0.037760 0.000000
# 6 0.000000 0.000000 0.000000 0.000000 0.000000 0.023686
#
#
# Mechanical properties :
#
#
# Convention : Reuss Voigt Hill
#
# Bulk Modulus (GPa) = 39.71552 43.21727 41.46640
# Shear Modulus (GPa) = 138.85056 27.11680 82.98368
#
# Velocity S-wave (km/s) = 8.09653 3.57803 6.25924
# Velocity P-wave (km/s) = 10.30317 6.12155 8.47434
#
# Compressibility (1/GPa) = 0.02517907
#
# Stress axis : x y z
#
# Youngs Moduli (GPa) = 75.59394 83.53565 99.30526
#
# Poissons Ratio (x) = -0.10148 0.36645
# Poissons Ratio (y) = -0.09183 0.25519
# Poissons Ratio (z) = 0.27895 0.21467
#
# Static dielectric constant tensor:
#      x y z
#    x 1.819420 0.000000 0.000000 
#    y 0.000000 1.774640 0.000000 
#    z 0.000000 0.000000 1.912070 
# 
# From -- ./inp_files/2646.got.cif
#   From: 2010.05.17/outbox.cif.g08.bks.cpg/sg17_2_cif.got.tgz:2646.got - 2010.06.03 22:34:06.
