data_PCOD9311157
_publ_section_title
;
Structure prediction by ZEFSAII (Michael W. Deem and Ramdas Pophale) SiO2 
 PCOD9311157
Probable space group: P 2 2 21
;
_chemical_formula_sum "Si O2"
_cell_formula_units_Z 18
_cell_length_a 8.394546
_cell_length_b 10.993509
_cell_length_c 9.478614
_cell_angle_alpha 90.000000
_cell_angle_beta 90.000000
_cell_angle_gamma 90.000000
_cell_volume 874.738793
_symmetry_space_group_name_H-M "P 2 2 21"
_symmetry_group_IT_number 17
_symmetry_cell_setting 'orthorhombic'
loop_
_space_group_symop_operation_xyz
x,y,z
-x,-y,1/2+z
x,-y,-z
-x,y,1/2-z
loop_
_atom_site_type_symbol
_atom_site_label
_atom_site_fract_x
_atom_site_fract_y
_atom_site_fract_z
Si Si1 0.410687 0.392855 0.608921
Si Si2 0.080366 0.118570 0.100900
Si Si3 0.564620 0.785418 0.606009
Si Si4 0.132842 0.797328 0.371160
Si Si5 0.653371 0.000000 0.000000
O O1 0.371495 0.500000 0.500000
O O2 0.500000 0.434048 0.750000
O O3 0.528935 0.301592 0.525129
O O4 0.254762 0.313389 0.646655
O O5 0.253066 0.176670 0.117936
O O6 0.000000 0.090728 0.250000
O O7 0.963196 0.209540 0.017792
O O8 0.094960 0.000000 0.000000
O O9 0.500000 0.727904 0.750000
O O10 0.457342 0.905440 0.581669
O O11 0.239314 0.919584 0.393485
O O12 0.000000 0.804090 0.250000
#
# Coordination Sequence:
#
# PCOD9311157 Si02
#       5
#     4   4   4   4   2
#     4  11  25  48  72  96 129 176 232 288 336 398
#     4  12  24  39  60  93 139 176 213 265 332 398
#     4  11  24  41  65  98 131 179 227 271 331 401
#     4  11  24  42  66 101 137 174 219 275 339 397
#     4  10  22  36  64  98 138 176 218 262 328 408
#
# _framework density 20.577572
#
# number of rings (size 3 to 8) (size 9 to 14) (size 15 to 20)
#    0.000    0.889    2.222    5.333    3.111    3.556 
#    0.000    7.778    0.000    0.000    0.000    0.000 
#    0.000    0.000    0.000    0.000    0.000    0.000 
#
# Total GULP energy -100689.686119 kJ/mol
# GULP energy per Si atom -5593.871451 kJ/mol
# Density = 2.053074 g / cm^3
# Si number density = 20.577572 Si / 1000 Ang^3
#
#
#
# Elastic Constant Matrix: (Units=GPa)
#
#
# Indices 1 2 3 4 5 6 
#
# 1 129.2649 44.9708 40.9181 0.0000 0.0000 0.0000
# 2 44.9708 97.7635 35.9417 0.0000 0.0000 0.0000
# 3 40.9181 35.9417 136.7251 0.0000 0.0000 0.0000
# 4 0.0000 0.0000 0.0000 16.8453 0.0000 0.0000
# 5 0.0000 0.0000 0.0000 0.0000 39.8222 0.0000
# 6 0.0000 0.0000 0.0000 0.0000 0.0000 3.1328
#
#
#
# Elastic Compliance Matrix: (Units=1/GPa)
#
#
# Indices 1 2 3 4 5 6 
#
# 1 0.009637 -0.003734 -0.001903 0.000000 0.000000 0.000000
# 2 -0.003734 0.012770 -0.002239 0.000000 0.000000 0.000000
# 3 -0.001903 -0.002239 0.008472 0.000000 0.000000 0.000000
# 4 0.000000 0.000000 0.000000 0.059364 0.000000 0.000000
# 5 0.000000 0.000000 0.000000 0.000000 0.025112 0.000000
# 6 0.000000 0.000000 0.000000 0.000000 0.000000 0.319205
#
#
# Mechanical properties :
#
#
# Convention : Reuss Voigt Hill
#
# Bulk Modulus (GPa) = 66.10529 67.49052 66.79790
# Shear Modulus (GPa) = 10.98048 28.08824 19.53436
#
# Velocity S-wave (km/s) = 2.31251 3.69859 3.08442
# Velocity P-wave (km/s) = 6.27096 7.14904 6.72435
#
# Compressibility (1/GPa) = 0.01512738
#
# Stress axis : x y z
#
# Youngs Moduli (GPa) = 103.76421 78.31159 118.03497
#
# Poissons Ratio (x) = 0.29238 0.22458
# Poissons Ratio (y) = 0.38741 0.26433
# Poissons Ratio (z) = 0.19743 0.17537
#
# Static dielectric constant tensor:
#      x y z
#    x 1.719560 0.000000 0.000000 
#    y 0.000000 1.749480 0.000000 
#    z 0.000000 0.000000 1.790980 
# 
# From -- ./inp_files/4037.got.cif
#   From: 2010.05.17/outbox.cif.g08.bks.cpg/sg17_3_cif.got.tgz:4037.got - 2010.06.03 22:34:06.
