data_PCOD9311449
_publ_section_title
;
Structure prediction by ZEFSAII (Michael W. Deem and Ramdas Pophale) SiO2 
 PCOD9311449
Probable space group: P 2 2 21
;
_chemical_formula_sum "Si O2"
_cell_formula_units_Z 32
_cell_length_a 6.692503
_cell_length_b 8.349408
_cell_length_c 30.071625
_cell_angle_alpha 90.000000
_cell_angle_beta 90.000000
_cell_angle_gamma 90.000000
_cell_volume 1680.355436
_symmetry_space_group_name_H-M "P 2 2 21"
_symmetry_group_IT_number 17
_symmetry_cell_setting 'orthorhombic'
loop_
_space_group_symop_operation_xyz
x,y,z
-x,-y,1/2+z
x,-y,-z
-x,y,1/2-z
loop_
_atom_site_type_symbol
_atom_site_label
_atom_site_fract_x
_atom_site_fract_y
_atom_site_fract_z
Si Si1 0.418141 0.456465 0.295063
Si Si2 0.158586 0.596455 0.372510
Si Si3 0.262246 0.387962 0.458276
Si Si4 0.115071 0.171008 0.294785
Si Si5 0.409731 0.848217 0.923084
Si Si6 0.994552 0.895923 0.541165
Si Si7 0.756447 0.969041 0.122763
Si Si8 0.195698 0.620074 0.852860
O O1 0.500000 0.534110 0.250000
O O2 0.270045 0.555711 0.326371
O O3 0.613787 0.422100 0.323642
O O4 0.296220 0.293454 0.283694
O O5 0.245532 0.488682 0.412712
O O6 0.199111 0.781750 0.381356
O O7 0.930095 0.535704 0.367881
O O8 0.303031 0.500000 0.500000
O O9 0.432776 0.255373 0.451060
O O10 0.058705 0.287863 0.466297
O O11 0.958298 0.273337 0.324258
O O12 0.000000 0.119008 0.250000
O O13 0.196641 0.034216 0.327809
O O14 0.240048 0.925424 0.953203
O O15 0.284285 0.725566 0.892570
O O16 0.537014 0.971538 0.892922
O O17 0.073163 0.000000 0.500000
O O18 0.097466 0.945991 0.587355
#
# Coordination Sequence:
#
# PCOD9311449 Si02
#       8
#     4   4   4   4   4   4   4   4
#     4  11  21  39  66  92 120 164 216 259 307 385
#     4  11  24  40  62  93 130 168 205 267 330 378
#     4  11  23  41  63  92 130 162 209 267 318 384
#     4  11  21  37  65  92 119 166 213 258 315 378
#     4  11  21  42  68  88 122 169 215 258 320 385
#     4  11  23  41  65  90 121 167 211 262 320 389
#     4  11  24  42  61  92 134 163 207 271 324 374
#     4  11  19  41  65  87 120 163 214 253 310 378
#
# _framework density 19.043590999999999
#
# number of rings (size 3 to 8) (size 9 to 14) (size 15 to 20)
#    0.000    1.000    6.250    2.250    0.000    4.500 
#    4.500    0.625    0.000    0.000    0.000    0.000 
#    0.000    0.000    0.000    0.000    0.000    0.000 
#
# Total GULP energy -178597.219025 kJ/mol
# GULP energy per Si atom -5581.163095 kJ/mol
# Density = 1.900025 g / cm^3
# Si number density = 19.043591 Si / 1000 Ang^3
#
#
#
# Elastic Constant Matrix: (Units=GPa)
#
#
# Indices 1 2 3 4 5 6 
#
# 1 102.4692 19.9813 16.7636 0.0000 0.0000 0.0000
# 2 19.9813 82.2201 18.7028 0.0000 0.0000 0.0000
# 3 16.7636 18.7028 97.3042 0.0000 0.0000 0.0000
# 4 0.0000 0.0000 0.0000 26.8019 0.0000 0.0000
# 5 0.0000 0.0000 0.0000 0.0000 24.5162 0.0000
# 6 0.0000 0.0000 0.0000 0.0000 0.0000 15.8648
#
#
#
# Elastic Compliance Matrix: (Units=1/GPa)
#
#
# Indices 1 2 3 4 5 6 
#
# 1 0.010416 -0.002220 -0.001368 0.000000 0.000000 0.000000
# 2 -0.002220 0.013192 -0.002153 0.000000 0.000000 0.000000
# 3 -0.001368 -0.002153 0.010927 0.000000 0.000000 0.000000
# 4 0.000000 0.000000 0.000000 0.037311 0.000000 0.000000
# 5 0.000000 0.000000 0.000000 0.000000 0.040789 0.000000
# 6 0.000000 0.000000 0.000000 0.000000 0.000000 0.063033
#
#
# Mechanical properties :
#
#
# Convention : Reuss Voigt Hill
#
# Bulk Modulus (GPa) = 43.37990 43.65434 43.51712
# Shear Modulus (GPa) = 25.66302 28.53963 27.10133
#
# Velocity S-wave (km/s) = 3.67494 3.87544 3.77652
# Velocity P-wave (km/s) = 6.39028 6.55732 6.47434
#
# Compressibility (1/GPa) = 0.02305215
#
# Stress axis : x y z
#
# Youngs Moduli (GPa) = 96.00894 75.80478 91.52044
#
# Poissons Ratio (x) = 0.16830 0.12517
# Poissons Ratio (y) = 0.21315 0.19705
# Poissons Ratio (z) = 0.13131 0.16322
#
# Static dielectric constant tensor:
#      x y z
#    x 1.683580 0.000000 0.000000 
#    y 0.000000 1.644900 0.000000 
#    z 0.000000 0.000000 1.697150 
# 
# From -- ./inp_files/11178.got.cif
#   From: 2010.05.17/outbox.cif.g08.bks.cpg/sg17_6_cif.got.tgz:11178.got - 2010.06.03 22:34:06.
