data_PCOD9311361
_publ_section_title
;
Structure prediction by ZEFSAII (Michael W. Deem and Ramdas Pophale) SiO2 
 PCOD9311361
Probable space group: P 2 2 21
;
_chemical_formula_sum "Si O2"
_cell_formula_units_Z 24
_cell_length_a 13.073925
_cell_length_b 6.695488
_cell_length_c 13.737535
_cell_angle_alpha 90.000000
_cell_angle_beta 90.000000
_cell_angle_gamma 90.000000
_cell_volume 1202.533094
_symmetry_space_group_name_H-M "P 2 2 21"
_symmetry_group_IT_number 17
_symmetry_cell_setting 'orthorhombic'
loop_
_space_group_symop_operation_xyz
x,y,z
-x,-y,1/2+z
x,-y,-z
-x,y,1/2-z
loop_
_atom_site_type_symbol
_atom_site_label
_atom_site_fract_x
_atom_site_fract_y
_atom_site_fract_z
Si Si1 0.951754 0.409495 0.599073
Si Si2 0.408107 0.803236 0.930112
Si Si3 0.334470 0.858351 0.402583
Si Si4 0.000000 0.269096 0.250000
Si Si5 0.418077 0.500000 0.500000
Si Si6 0.896833 0.948967 0.115198
Si Si7 0.758528 0.500000 0.500000
Si Si8 0.500000 0.010972 0.250000
O O1 0.001021 0.500000 0.500000
O O2 0.941878 0.583464 0.677374
O O3 0.835926 0.366911 0.565308
O O4 0.022074 0.228857 0.632628
O O5 0.506843 0.667657 0.956110
O O6 0.312769 0.656587 0.944776
O O7 0.424027 0.867647 0.819496
O O8 0.402211 0.000000 0.000000
O O9 0.346774 0.626680 0.429549
O O10 0.220516 0.894282 0.363771
O O11 0.425626 0.899970 0.326364
O O12 0.344411 0.000000 0.500000
O O13 0.070561 0.131750 0.317109
O O14 0.904217 0.000000 0.000000
#
# Coordination Sequence:
#
# PCOD9311361 Si02
#       8
#     4   4   4   2   2   4   2   2
#     4  10  23  46  66 106 140 177 233 294 342 427
#     4  11  23  44  65  99 139 177 228 280 348 415
#     4  11  25  43  69 101 135 186 232 288 346 411
#     4  12  24  44  72 100 146 184 234 288 354 432
#     4  11  20  45  62  92 140 175 216 287 334 398
#     4  11  24  45  73 100 142 191 232 290 359 413
#     4   9  24  43  74  94 140 189 218 291 356 398
#     4  12  22  46  66 100 138 168 238 284 332 416
#
# _framework density 19.957868000000001
#
# number of rings (size 3 to 8) (size 9 to 14) (size 15 to 20)
#    0.500    0.667    5.000    0.500    3.500    2.667 
#    3.000    0.000    0.000    0.000    0.000    0.000 
#    0.000    0.000    0.000    0.000    0.000    0.000 
#
# Total GULP energy -133828.682414 kJ/mol
# GULP energy per Si atom -5576.195101 kJ/mol
# Density = 1.991244 g / cm^3
# Si number density = 19.957868 Si / 1000 Ang^3
#
#
#
# Elastic Constant Matrix: (Units=GPa)
#
#
# Indices 1 2 3 4 5 6 
#
# 1 137.8518 48.5961 34.0454 0.0000 0.0000 0.0000
# 2 48.5961 99.3311 37.0919 0.0000 0.0000 0.0000
# 3 34.0454 37.0919 101.3320 0.0000 0.0000 0.0000
# 4 0.0000 0.0000 0.0000 42.4714 0.0000 0.0000
# 5 0.0000 0.0000 0.0000 0.0000 6.6105 0.0000
# 6 0.0000 0.0000 0.0000 0.0000 0.0000 14.1641
#
#
#
# Elastic Compliance Matrix: (Units=1/GPa)
#
#
# Indices 1 2 3 4 5 6 
#
# 1 0.008994 -0.003790 -0.001635 0.000000 0.000000 0.000000
# 2 -0.003790 0.013258 -0.003580 0.000000 0.000000 0.000000
# 3 -0.001635 -0.003580 0.011728 0.000000 0.000000 0.000000
# 4 0.000000 0.000000 0.000000 0.023545 0.000000 0.000000
# 5 0.000000 0.000000 0.000000 0.000000 0.151273 0.000000
# 6 0.000000 0.000000 0.000000 0.000000 0.000000 0.070601
#
#
# Mechanical properties :
#
#
# Convention : Reuss Voigt Hill
#
# Bulk Modulus (GPa) = 62.60970 64.22018 63.41494
# Shear Modulus (GPa) = 16.51626 27.23464 21.87545
#
# Velocity S-wave (km/s) = 2.87985 3.69807 3.31430
# Velocity P-wave (km/s) = 6.51898 7.10507 6.81832
#
# Compressibility (1/GPa) = 0.01597197
#
# Stress axis : x y z
#
# Youngs Moduli (GPa) = 111.18755 75.42533 85.26540
#
# Poissons Ratio (x) = 0.28584 0.13937
# Poissons Ratio (y) = 0.42137 0.30523
# Poissons Ratio (z) = 0.18174 0.27001
#
# Static dielectric constant tensor:
#      x y z
#    x 1.695480 0.000000 0.000000 
#    y 0.000000 1.699930 0.000000 
#    z 0.000000 0.000000 1.773760 
# 
# From -- ./inp_files/8634.got.cif
#   From: 2010.05.17/outbox.cif.g08.bks.cpg/sg17_5_cif.got.tgz:8634.got - 2010.06.03 22:34:06.
