data_PCOD9311066
_publ_section_title
;
Structure prediction by ZEFSAII (Michael W. Deem and Ramdas Pophale) SiO2 
 PCOD9311066
Probable space group: P 2 2 21
;
_chemical_formula_sum "Si O2"
_cell_formula_units_Z 12
_cell_length_a 6.843338
_cell_length_b 9.088903
_cell_length_c 8.213464
_cell_angle_alpha 90.000000
_cell_angle_beta 90.000000
_cell_angle_gamma 90.000000
_cell_volume 510.864609
_symmetry_space_group_name_H-M "P 2 2 21"
_symmetry_group_IT_number 17
_symmetry_cell_setting 'orthorhombic'
loop_
_space_group_symop_operation_xyz
x,y,z
-x,-y,1/2+z
x,-y,-z
-x,y,1/2-z
loop_
_atom_site_type_symbol
_atom_site_label
_atom_site_fract_x
_atom_site_fract_y
_atom_site_fract_z
Si Si1 0.225929 0.199602 0.301684
Si Si2 0.204842 0.097690 0.830176
Si Si3 0.466192 0.674879 0.998067
O O1 0.314116 0.265290 0.466884
O O2 0.338720 0.283686 0.159889
O O3 0.000000 0.211596 0.250000
O O4 0.281502 0.028006 0.291700
O O5 0.000000 0.145162 0.750000
O O6 0.345452 0.233743 0.867542
O O7 0.176598 0.000000 0.000000
O O8 0.471213 0.500000 0.000000
#
# Coordination Sequence:
#
# PCOD9311066 Si02
#       3
#     4   4   4
#     4   9  20  42  64  88 127 175 226 270 317 396
#     4   9  19  41  69  94 128 175 223 271 324 392
#     4  10  21  39  63  96 130 167 217 278 339 388
#
# _framework density 23.489588999999999
#
# number of rings (size 3 to 8) (size 9 to 14) (size 15 to 20)
#    0.000    2.667    0.000    0.000    0.000    2.667 
#    0.000  113.333    0.000    0.000    0.000    0.000 
#    0.000    0.000    0.000    0.000    0.000    0.000 
#
# Total GULP energy -66973.350964 kJ/mol
# GULP energy per Si atom -5581.112580 kJ/mol
# Density = 2.343613 g / cm^3
# Si number density = 23.489589 Si / 1000 Ang^3
#
#
#
# Elastic Constant Matrix: (Units=GPa)
#
#
# Indices 1 2 3 4 5 6 
#
# 1 191.0838 100.9507 49.0902 0.0000 0.0000 0.0000
# 2 100.9507 238.7493 56.3790 0.0000 0.0000 0.0000
# 3 49.0902 56.3790 78.9285 0.0000 0.0000 0.0000
# 4 0.0000 0.0000 0.0000 12.6936 0.0000 0.0000
# 5 0.0000 0.0000 0.0000 0.0000 56.1050 0.0000
# 6 0.0000 0.0000 0.0000 0.0000 0.0000 37.6458
#
#
#
# Elastic Compliance Matrix: (Units=1/GPa)
#
#
# Indices 1 2 3 4 5 6 
#
# 1 0.007211 -0.002394 -0.002775 0.000000 0.000000 0.000000
# 2 -0.002394 0.005833 -0.002678 0.000000 0.000000 0.000000
# 3 -0.002775 -0.002678 0.016308 0.000000 0.000000 0.000000
# 4 0.000000 0.000000 0.000000 0.078780 0.000000 0.000000
# 5 0.000000 0.000000 0.000000 0.000000 0.017824 0.000000
# 6 0.000000 0.000000 0.000000 0.000000 0.000000 0.026563
#
#
# Mechanical properties :
#
#
# Convention : Reuss Voigt Hill
#
# Bulk Modulus (GPa) = 73.21033 102.40016 87.80525
# Shear Modulus (GPa) = 28.94106 41.44500 35.19303
#
# Velocity S-wave (km/s) = 3.51391 4.20503 3.87491
# Velocity P-wave (km/s) = 6.90639 8.20152 7.58166
#
# Compressibility (1/GPa) = 0.01365928
#
# Stress axis : x y z
#
# Youngs Moduli (GPa) = 138.68092 171.44025 61.31826
#
# Poissons Ratio (x) = 0.41037 0.17016
# Poissons Ratio (y) = 0.33195 0.16419
# Poissons Ratio (z) = 0.38484 0.45907
#
# Static dielectric constant tensor:
#      x y z
#    x 1.988340 0.000000 0.000000 
#    y 0.000000 1.854460 0.000000 
#    z 0.000000 0.000000 2.116900 
# 
# From -- ./inp_files/3626.got.cif
#   From: 2010.05.17/outbox.cif.g08.bks.cpg/sg17_2_cif.got.tgz:3626.got - 2010.06.03 22:34:06.
