data_PCOD9311138
_publ_section_title
;
Structure prediction by ZEFSAII (Michael W. Deem and Ramdas Pophale) SiO2 
 PCOD9311138
Probable space group: P 2 2 21
;
_chemical_formula_sum "Si O2"
_cell_formula_units_Z 16
_cell_length_a 6.234355
_cell_length_b 21.400184
_cell_length_c 5.147450
_cell_angle_alpha 90.000000
_cell_angle_beta 90.000000
_cell_angle_gamma 90.000000
_cell_volume 686.753961
_symmetry_space_group_name_H-M "P 2 2 21"
_symmetry_group_IT_number 17
_symmetry_cell_setting 'orthorhombic'
loop_
_space_group_symop_operation_xyz
x,y,z
-x,-y,1/2+z
x,-y,-z
-x,y,1/2-z
loop_
_atom_site_type_symbol
_atom_site_label
_atom_site_fract_x
_atom_site_fract_y
_atom_site_fract_z
Si Si1 0.000000 0.217425 0.250000
Si Si2 0.846870 0.568923 0.000130
Si Si3 0.641600 0.701576 0.998958
Si Si4 0.644209 0.868403 0.493314
Si Si5 0.142811 0.000000 0.000000
O O1 0.140198 0.260628 0.444013
O O2 0.845439 0.174621 0.427519
O O3 0.692384 0.627837 0.001698
O O4 0.000000 0.573237 0.750000
O O5 0.742225 0.500000 0.000000
O O6 0.000000 0.573045 0.250000
O O7 0.500000 0.716911 0.750000
O O8 0.500000 0.715312 0.250000
O O9 0.500000 0.847638 0.250000
O O10 0.723308 0.938439 0.433948
O O11 0.500000 0.870612 0.750000
O O12 0.000000 0.984241 0.750000
#
# Coordination Sequence:
#
# PCOD9311138 Si02
#       5
#     2   4   4   4   2
#     4  12  30  54  74 112 166 200 254 320 374 450
#     4  10  21  43  74 106 145 193 247 314 382 441
#     4  12  28  48  76 109 149 205 255 307 383 454
#     4  12  28  51  81 115 149 204 256 309 378 455
#     4  12  24  50  82 114 156 196 242 322 386 430
#
# _framework density 23.298012
#
# number of rings (size 3 to 8) (size 9 to 14) (size 15 to 20)
#    0.000    0.500    2.500    4.500    0.000    7.000 
#    0.000    0.000    0.000    0.000    0.000    0.000 
#    0.000    0.000    0.000    0.000    0.000    0.000 
#
# Total GULP energy -89725.917994 kJ/mol
# GULP energy per Si atom -5607.869875 kJ/mol
# Density = 2.324498 g / cm^3
# Si number density = 23.298012 Si / 1000 Ang^3
#
#
#
# Elastic Constant Matrix: (Units=GPa)
#
#
# Indices 1 2 3 4 5 6 
#
# 1 119.2724 70.7081 55.9464 0.0000 0.0000 0.0000
# 2 70.7081 183.1907 18.6718 0.0000 0.0000 0.0000
# 3 55.9464 18.6718 176.1932 0.0000 0.0000 0.0000
# 4 0.0000 0.0000 0.0000 42.6187 0.0000 0.0000
# 5 0.0000 0.0000 0.0000 0.0000 48.4467 0.0000
# 6 0.0000 0.0000 0.0000 0.0000 0.0000 -586.3337
#
#
#
# Elastic Compliance Matrix: (Units=1/GPa)
#
#
# Indices 1 2 3 4 5 6 
#
# 1 0.012763 -0.004563 -0.003569 0.000000 0.000000 0.000000
# 2 -0.004563 0.007149 0.000691 0.000000 0.000000 0.000000
# 3 -0.003569 0.000691 0.006736 0.000000 0.000000 0.000000
# 4 0.000000 0.000000 0.000000 0.023464 0.000000 0.000000
# 5 0.000000 0.000000 0.000000 0.000000 0.020641 0.000000
# 6 0.000000 0.000000 0.000000 0.000000 0.000000 -0.001706
#
#
# Mechanical properties :
#
#
# Convention : Reuss Voigt Hill
#
# Bulk Modulus (GPa) = 84.98346 85.47877 85.23112
# Shear Modulus (GPa) = 56.91429 -76.83169 -9.95870
#
# Velocity S-wave (km/s) = 4.94791 -5.74886 -2.06973
# Velocity P-wave (km/s) = 8.31856 2.70128 5.56334
#
# Compressibility (1/GPa) = 0.01176700
#
# Stress axis : x y z
#
# Youngs Moduli (GPa) = 78.35061 139.87174 148.46356
#
# Poissons Ratio (x) = 0.63817 0.52989
# Poissons Ratio (y) = 0.35748 -0.10260
# Poissons Ratio (z) = 0.27965 -0.09666
#
# Static dielectric constant tensor:
#      x y z
#    x 1.849300 0.000000 0.000000 
#    y 0.000000 1.895320 0.000000 
#    z 0.000000 0.000000 1.810810 
# 
# From -- ./inp_files/264.got.cif
#   From: 2010.05.17/outbox.cif.g08.bks.cpg/sg17_1_cif.got.tgz:264.got - 2010.06.03 22:34:06.
