data_PCOD9311151
_publ_section_title
;
Structure prediction by ZEFSAII (Michael W. Deem and Ramdas Pophale) SiO2 
 PCOD9311151
Probable space group: P 2 2 21
;
_chemical_formula_sum "Si O2"
_cell_formula_units_Z 12
_cell_length_a 9.253064
_cell_length_b 10.861218
_cell_length_c 5.159410
_cell_angle_alpha 90.000000
_cell_angle_beta 90.000000
_cell_angle_gamma 90.000000
_cell_volume 518.518359
_symmetry_space_group_name_H-M "P 2 2 21"
_symmetry_group_IT_number 17
_symmetry_cell_setting 'orthorhombic'
loop_
_space_group_symop_operation_xyz
x,y,z
-x,-y,1/2+z
x,-y,-z
-x,y,1/2-z
loop_
_atom_site_type_symbol
_atom_site_label
_atom_site_fract_x
_atom_site_fract_y
_atom_site_fract_z
Si Si1 0.097867 0.855027 0.502814
Si Si2 0.603421 0.500000 0.500000
Si Si3 0.671355 0.249512 0.694916
Si Si4 0.601946 0.000000 0.500000
O O1 0.237968 0.771474 0.454985
O O2 0.000000 0.833536 0.250000
O O3 0.139945 0.000000 0.500000
O O4 0.000000 0.829359 0.750000
O O5 0.500000 0.476964 0.250000
O O6 0.697235 0.378898 0.558523
O O7 0.500000 0.250543 0.750000
O O8 0.694129 0.123862 0.533069
O O9 0.500000 0.985433 0.750000
#
# Coordination Sequence:
#
# PCOD9311151 Si02
#       4
#     4   2   4   2
#     4  10  24  42  63  99 144 186 229 289 360 423
#     4  10  22  42  64 104 148 186 224 298 370 416
#     4  10  23  40  71 104 143 182 236 298 354 423
#     4  10  22  34  58 104 140 174 230 298 346 406
#
# _framework density 23.142865
#
# number of rings (size 3 to 8) (size 9 to 14) (size 15 to 20)
#    0.000    2.000    0.000    1.000   16.333    5.333 
#    0.000    0.000    0.000   10.000    0.000    0.000 
#    0.000    0.000    0.000    0.000    0.000    0.000 
#
# Total GULP energy -67171.457080 kJ/mol
# GULP energy per Si atom -5597.621423 kJ/mol
# Density = 2.309019 g / cm^3
# Si number density = 23.142865 Si / 1000 Ang^3
#
#
#
# Elastic Constant Matrix: (Units=GPa)
#
#
# Indices 1 2 3 4 5 6 
#
# 1 118.4188 40.8059 56.3866 0.0000 0.0000 0.0000
# 2 40.8059 193.4178 58.9853 0.0000 0.0000 0.0000
# 3 56.3866 58.9853 177.1027 0.0000 0.0000 0.0000
# 4 0.0000 0.0000 0.0000 35.1389 0.0000 0.0000
# 5 0.0000 0.0000 0.0000 0.0000 37.1104 0.0000
# 6 0.0000 0.0000 0.0000 0.0000 0.0000 -8.7407
#
#
#
# Elastic Compliance Matrix: (Units=1/GPa)
#
#
# Indices 1 2 3 4 5 6 
#
# 1 0.010238 -0.001298 -0.002827 0.000000 0.000000 0.000000
# 2 -0.001298 0.005919 -0.001558 0.000000 0.000000 0.000000
# 3 -0.002827 -0.001558 0.007066 0.000000 0.000000 0.000000
# 4 0.000000 0.000000 0.000000 0.028459 0.000000 0.000000
# 5 0.000000 0.000000 0.000000 0.000000 0.026947 0.000000
# 6 0.000000 0.000000 0.000000 0.000000 0.000000 -0.114407
#
#
# Mechanical properties :
#
#
# Convention : Reuss Voigt Hill
#
# Bulk Modulus (GPa) = 84.34462 89.03274 86.68868
# Shear Modulus (GPa) = -244.37350 34.88582 -104.74384
#
# Velocity S-wave (km/s) = -10.28702 3.88675 -6.73483
# Velocity P-wave (km/s) = 10.22607 7.66139 4.78935
#
# Compressibility (1/GPa) = 0.01185612
#
# Stress axis : x y z
#
# Youngs Moduli (GPa) = 97.67437 168.94344 141.53011
#
# Poissons Ratio (x) = 0.21924 0.40017
# Poissons Ratio (y) = 0.12675 0.22054
# Poissons Ratio (z) = 0.27617 0.26326
#
# Static dielectric constant tensor:
#      x y z
#    x 1.916370 0.000000 0.000000 
#    y 0.000000 1.897440 0.000000 
#    z 0.000000 0.000000 1.935110 
# 
# From -- ./inp_files/551.got.cif
#   From: 2010.05.17/outbox.cif.g08.bks.cpg/sg17_1_cif.got.tgz:551.got - 2010.06.03 22:34:06.
