data_PCOD9311032
_publ_section_title
;
Structure prediction by ZEFSAII (Michael W. Deem and Ramdas Pophale) SiO2 
 PCOD9311032
Probable space group: P 2 2 21
;
_chemical_formula_sum "Si O2"
_cell_formula_units_Z 24
_cell_length_a 4.971575
_cell_length_b 8.478465
_cell_length_c 22.404286
_cell_angle_alpha 90.000000
_cell_angle_beta 90.000000
_cell_angle_gamma 90.000000
_cell_volume 944.370332
_symmetry_space_group_name_H-M "P 2 2 21"
_symmetry_group_IT_number 17
_symmetry_cell_setting 'orthorhombic'
loop_
_space_group_symop_operation_xyz
x,y,z
-x,-y,1/2+z
x,-y,-z
-x,y,1/2-z
loop_
_atom_site_type_symbol
_atom_site_label
_atom_site_fract_x
_atom_site_fract_y
_atom_site_fract_z
Si Si1 0.767896 0.891178 0.334884
Si Si2 0.704054 0.558571 0.304904
Si Si3 0.897701 0.224615 0.332209
Si Si4 0.613297 0.226935 0.090137
Si Si5 0.734277 0.889310 0.084183
Si Si6 0.479346 0.445656 0.559259
O O1 0.840606 0.729602 0.302454
O O2 0.460159 0.886746 0.357108
O O3 0.958781 0.889303 0.393799
O O4 0.815585 0.058306 0.303257
O O5 0.500000 0.558131 0.250000
O O6 0.849153 0.391090 0.301910
O O7 0.602499 0.560162 0.374228
O O8 0.699766 0.227840 0.390866
O O9 0.206836 0.215384 0.350396
O O10 0.701571 0.396234 0.064312
O O11 0.675254 0.062775 0.057653
O O12 0.655063 0.725975 0.052326
O O13 0.645476 0.500000 0.500000
#
# Coordination Sequence:
#
# PCOD9311032 Si02
#       6
#     4   4   4   4   4   4
#     4   9  18  35  58  84 115 152 194 241 294 351
#     4  10  21  38  61  90 124 162 206 254 306 364
#     4   9  18  35  58  84 115 152 194 241 294 351
#     4   9  18  35  58  84 115 151 193 241 293 351
#     4   9  18  35  58  84 115 151 193 241 293 351
#     4  10  21  38  60  86 119 158 200 248 304 364
#
# _framework density 25.413761999999998
#
# number of rings (size 3 to 8) (size 9 to 14) (size 15 to 20)
#    0.000    2.667    0.000    1.000    0.000    1.333 
#    0.000   26.667    0.000   34.000    0.000    0.000 
#    0.000    0.000    0.000    0.000    0.000    0.000 
#
# Total GULP energy -133677.262940 kJ/mol
# GULP energy per Si atom -5569.885956 kJ/mol
# Density = 2.535592 g / cm^3
# Si number density = 25.413762 Si / 1000 Ang^3
#
#
#
# Elastic Constant Matrix: (Units=GPa)
#
#
# Indices 1 2 3 4 5 6 
#
# 1 51.2956 17.0974 18.9252 0.0000 0.0000 0.0000
# 2 17.0974 336.2225 52.8796 0.0000 0.0000 0.0000
# 3 18.9252 52.8796 103.0254 0.0000 0.0000 0.0000
# 4 0.0000 0.0000 0.0000 -556.3441 0.0000 0.0000
# 5 0.0000 0.0000 0.0000 0.0000 -9.5999 0.0000
# 6 0.0000 0.0000 0.0000 0.0000 0.0000 64.5653
#
#
#
# Elastic Compliance Matrix: (Units=1/GPa)
#
#
# Indices 1 2 3 4 5 6 
#
# 1 0.020990 -0.000501 -0.003598 0.000000 0.000000 0.000000
# 2 -0.000501 0.003247 -0.001575 0.000000 0.000000 0.000000
# 3 -0.003598 -0.001575 0.011176 0.000000 0.000000 0.000000
# 4 0.000000 0.000000 0.000000 -0.001797 0.000000 0.000000
# 5 0.000000 0.000000 0.000000 0.000000 -0.104168 0.000000
# 6 0.000000 0.000000 0.000000 0.000000 0.000000 0.015488
#
#
# Mechanical properties :
#
#
# Convention : Reuss Voigt Hill
#
# Bulk Modulus (GPa) = 41.55635 74.26087 57.90861
# Shear Modulus (GPa) = -140.07861 -73.49966 -106.78913
#
# Velocity S-wave (km/s) = -7.43228 -5.38368 -6.48933
# Velocity P-wave (km/s) = 7.56732 3.05960 5.77172
#
# Compressibility (1/GPa) = 0.02406371
#
# Stress axis : x y z
#
# Youngs Moduli (GPa) = 47.64274 307.94102 89.48099
#
# Poissons Ratio (x) = 0.15441 0.32198
# Poissons Ratio (y) = 0.02389 0.14090
# Poissons Ratio (z) = 0.17143 0.48490
#
# Static dielectric constant tensor:
#      x y z
#    x 1.959420 0.000000 0.000000 
#    y 0.000000 2.073520 0.000000 
#    z 0.000000 0.000000 2.076660 
# 
# From -- ./inp_files/10398.got.cif
#   From: 2010.05.17/outbox.cif.g08.bks.cpg/sg17_6_cif.got.tgz:10398.got - 2010.06.03 22:34:06.
