data_PCOD9311424
_publ_section_title
;
Structure prediction by ZEFSAII (Michael W. Deem and Ramdas Pophale) SiO2 
 PCOD9311424
Probable space group: P 2 2 21
;
_chemical_formula_sum "Si O2"
_cell_formula_units_Z 20
_cell_length_a 7.753452
_cell_length_b 10.166113
_cell_length_c 11.146973
_cell_angle_alpha 90.000000
_cell_angle_beta 90.000000
_cell_angle_gamma 90.000000
_cell_volume 878.631936
_symmetry_space_group_name_H-M "P 2 2 21"
_symmetry_group_IT_number 17
_symmetry_cell_setting 'orthorhombic'
loop_
_space_group_symop_operation_xyz
x,y,z
-x,-y,1/2+z
x,-y,-z
-x,y,1/2-z
loop_
_atom_site_type_symbol
_atom_site_label
_atom_site_fract_x
_atom_site_fract_y
_atom_site_fract_z
Si Si1 0.392012 0.849451 0.982420
Si Si2 0.889409 0.500000 0.000000
Si Si3 0.806394 0.116486 0.234861
Si Si4 0.947452 0.761764 0.392181
Si Si5 0.171535 0.000000 0.500000
Si Si6 0.635310 0.356397 0.144112
O O1 0.290913 0.873193 0.858071
O O2 0.531776 0.733668 0.954402
O O3 0.252939 0.800130 0.081569
O O4 0.449636 0.000000 0.000000
O O5 0.745892 0.479314 0.103840
O O6 0.004000 0.623510 0.042878
O O7 0.789342 0.263371 0.188442
O O8 0.000000 0.071955 0.250000
O O9 0.735783 0.029844 0.126335
O O10 0.000000 0.759105 0.250000
O O11 0.054832 0.874053 0.464179
O O12 0.500000 0.382239 0.250000
#
# Coordination Sequence:
#
# PCOD9311424 Si02
#       6
#     4   2   4   4   2   4
#     4  11  22  42  67 104 139 180 230 299 360 421
#     4  12  26  48  64 100 142 188 232 288 350 430
#     4  11  20  39  68  97 136 183 231 286 352 421
#     4  12  26  43  72 106 139 183 244 292 357 426
#     4  12  20  40  72 106 136 172 244 304 342 424
#     4  10  25  42  66  96 137 186 229 280 362 426
#
# _framework density 22.762661000000001
#
# number of rings (size 3 to 8) (size 9 to 14) (size 15 to 20)
#    0.000    0.800    5.000    1.800    1.400    6.400 
#    0.000    0.000    0.000    0.000    0.000    0.000 
#    0.000    0.000    0.000    0.000    0.000    0.000 
#
# Total GULP energy -111414.367245 kJ/mol
# GULP energy per Si atom -5570.718362 kJ/mol
# Density = 2.271085 g / cm^3
# Si number density = 22.762661 Si / 1000 Ang^3
#
#
#
# Elastic Constant Matrix: (Units=GPa)
#
#
# Indices 1 2 3 4 5 6 
#
# 1 89.3721 29.2480 30.5214 0.0000 0.0000 0.0000
# 2 29.2480 94.2651 11.3839 0.0000 0.0000 0.0000
# 3 30.5214 11.3839 105.0114 0.0000 0.0000 0.0000
# 4 0.0000 0.0000 0.0000 29.5384 0.0000 0.0000
# 5 0.0000 0.0000 0.0000 0.0000 21.2049 0.0000
# 6 0.0000 0.0000 0.0000 0.0000 0.0000 -35.5923
#
#
#
# Elastic Compliance Matrix: (Units=1/GPa)
#
#
# Indices 1 2 3 4 5 6 
#
# 1 0.013648 -0.003805 -0.003554 0.000000 0.000000 0.000000
# 2 -0.003805 0.011810 -0.000174 0.000000 0.000000 0.000000
# 3 -0.003554 -0.000174 0.010575 0.000000 0.000000 0.000000
# 4 0.000000 0.000000 0.000000 0.033854 0.000000 0.000000
# 5 0.000000 0.000000 0.000000 0.000000 0.047159 0.000000
# 6 0.000000 0.000000 0.000000 0.000000 0.000000 -0.028096
#
#
# Mechanical properties :
#
#
# Convention : Reuss Voigt Hill
#
# Bulk Modulus (GPa) = 47.69823 47.88391 47.79107
# Shear Modulus (GPa) = 45.04223 17.52990 31.28607
#
# Velocity S-wave (km/s) = 4.45317 2.77811 3.71138
# Velocity P-wave (km/s) = 6.88775 5.60110 6.27748
#
# Compressibility (1/GPa) = 0.02096514
#
# Stress axis : x y z
#
# Youngs Moduli (GPa) = 73.26869 84.67281 94.56512
#
# Poissons Ratio (x) = 0.32222 0.33612
# Poissons Ratio (y) = 0.27882 0.01648
# Poissons Ratio (z) = 0.26042 0.01475
#
# Static dielectric constant tensor:
#      x y z
#    x 1.932430 0.000000 0.000000 
#    y 0.000000 1.909510 0.000000 
#    z 0.000000 0.000000 1.988760 
# 
# From -- ./inp_files/6423.got.cif
#   From: 2010.05.17/outbox.cif.g08.bks.cpg/sg17_4_cif.got.tgz:6423.got - 2010.06.03 22:34:06.
