data_PCOD9311052
_publ_section_title
;
Structure prediction by ZEFSAII (Michael W. Deem and Ramdas Pophale) SiO2 
 PCOD9311052
Probable space group: P 2 2 21
;
_chemical_formula_sum "Si O2"
_cell_formula_units_Z 20
_cell_length_a 11.378302
_cell_length_b 5.106086
_cell_length_c 15.026716
_cell_angle_alpha 90.000000
_cell_angle_beta 90.000000
_cell_angle_gamma 90.000000
_cell_volume 873.030990
_symmetry_space_group_name_H-M "P 2 2 21"
_symmetry_group_IT_number 17
_symmetry_cell_setting 'orthorhombic'
loop_
_space_group_symop_operation_xyz
x,y,z
-x,-y,1/2+z
x,-y,-z
-x,y,1/2-z
loop_
_atom_site_type_symbol
_atom_site_label
_atom_site_fract_x
_atom_site_fract_y
_atom_site_fract_z
Si Si1 0.993010 0.500000 0.000000
Si Si2 0.459542 0.733424 0.940929
Si Si3 0.762170 0.899688 0.244955
Si Si4 0.793362 0.816564 0.576259
Si Si5 0.886021 0.392786 0.184466
Si Si6 0.500000 0.927986 0.750000
O O1 0.086755 0.290539 0.037060
O O2 0.916848 0.523179 0.089147
O O3 0.323828 0.643220 0.914323
O O4 0.511879 0.773216 0.842843
O O5 0.510049 0.500000 0.000000
O O6 0.476898 0.000000 0.000000
O O7 0.813671 0.014054 0.336897
O O8 0.820054 0.112706 0.177066
O O9 0.622108 0.915052 0.254606
O O10 0.802919 0.605769 0.230795
O O11 0.746896 0.000000 0.500000
O O12 0.000000 0.369823 0.250000
#
# Coordination Sequence:
#
# PCOD9311052 Si02
#       6
#     2   4   4   4   4   2
#     4  12  24  40  70  96 140 192 216 282 354 412
#     4  10  22  41  68 104 132 175 240 293 336 407
#     4  11  26  47  69 104 140 181 236 285 344 413
#     4  10  21  38  69  98 132 175 235 285 337 404
#     4  12  26  45  69 105 142 177 230 288 345 419
#     4  10  26  48  78  96 144 192 230 296 350 402
#
# _framework density 22.908695000000002
#
# number of rings (size 3 to 8) (size 9 to 14) (size 15 to 20)
#    0.000    1.200    3.000    1.800    2.800    8.000 
#    5.400    0.000    0.000    0.000    0.000    0.000 
#    0.000    0.000    0.000    0.000    0.000    0.000 
#
# Total GULP energy -111475.215536 kJ/mol
# GULP energy per Si atom -5573.760777 kJ/mol
# Density = 2.285655 g / cm^3
# Si number density = 22.908695 Si / 1000 Ang^3
#
#
#
# Elastic Constant Matrix: (Units=GPa)
#
#
# Indices 1 2 3 4 5 6 
#
# 1 81.7725 24.9939 9.0048 0.0000 0.0000 0.0000
# 2 24.9939 89.2189 2.7069 0.0000 0.0000 0.0000
# 3 9.0048 2.7069 131.7267 0.0000 0.0000 0.0000
# 4 0.0000 0.0000 0.0000 9.5014 0.0000 0.0000
# 5 0.0000 0.0000 0.0000 0.0000 30.9149 0.0000
# 6 0.0000 0.0000 0.0000 0.0000 0.0000 16.7969
#
#
#
# Elastic Compliance Matrix: (Units=1/GPa)
#
#
# Indices 1 2 3 4 5 6 
#
# 1 0.013467 -0.003747 -0.000844 0.000000 0.000000 0.000000
# 2 -0.003747 0.012258 0.000004 0.000000 0.000000 0.000000
# 3 -0.000844 0.000004 0.007649 0.000000 0.000000 0.000000
# 4 0.000000 0.000000 0.000000 0.105248 0.000000 0.000000
# 5 0.000000 0.000000 0.000000 0.000000 0.032347 0.000000
# 6 0.000000 0.000000 0.000000 0.000000 0.000000 0.059535
#
#
# Mechanical properties :
#
#
# Convention : Reuss Voigt Hill
#
# Bulk Modulus (GPa) = 41.32007 41.79214 41.55611
# Shear Modulus (GPa) = 20.18213 29.17683 24.67948
#
# Velocity S-wave (km/s) = 2.97135 3.57264 3.28578
# Velocity P-wave (km/s) = 5.46333 5.94146 5.70740
#
# Compressibility (1/GPa) = 0.02420131
#
# Stress axis : x y z
#
# Youngs Moduli (GPa) = 74.25417 81.57953 130.73511
#
# Poissons Ratio (x) = 0.30569 0.11029
# Poissons Ratio (y) = 0.27824 -0.00056
# Poissons Ratio (z) = 0.06264 -0.00035
#
# Static dielectric constant tensor:
#      x y z
#    x 2.047280 0.000000 0.000000 
#    y 0.000000 1.959420 0.000000 
#    z 0.000000 0.000000 1.895170 
# 
# From -- ./inp_files/7623.got.cif
#   From: 2010.05.17/outbox.cif.g08.bks.cpg/sg17_4_cif.got.tgz:7623.got - 2010.06.03 22:34:06.
