data_PCOD9311471
_publ_section_title
;
Structure prediction by ZEFSAII (Michael W. Deem and Ramdas Pophale) SiO2 
 PCOD9311471
Probable space group: P 2 2 21
;
_chemical_formula_sum "Si O2"
_cell_formula_units_Z 20
_cell_length_a 8.888253
_cell_length_b 8.253150
_cell_length_c 11.852101
_cell_angle_alpha 90.000000
_cell_angle_beta 90.000000
_cell_angle_gamma 90.000000
_cell_volume 869.423731
_symmetry_space_group_name_H-M "P 2 2 21"
_symmetry_group_IT_number 17
_symmetry_cell_setting 'orthorhombic'
loop_
_space_group_symop_operation_xyz
x,y,z
-x,-y,1/2+z
x,-y,-z
-x,y,1/2-z
loop_
_atom_site_type_symbol
_atom_site_label
_atom_site_fract_x
_atom_site_fract_y
_atom_site_fract_z
Si Si1 0.181673 0.364141 0.750461
Si Si2 0.650265 0.100266 0.320527
Si Si3 0.287108 0.185957 0.541495
Si Si4 0.852516 0.292021 0.174466
Si Si5 0.371675 0.756437 0.051868
O O1 0.237969 0.221058 0.668635
O O2 0.227909 0.536131 0.695964
O O3 0.265290 0.353852 0.871031
O O4 0.000000 0.351936 0.750000
O O5 0.500000 0.135231 0.250000
O O6 0.776375 0.135659 0.229850
O O7 0.685091 0.219206 0.425075
O O8 0.634585 0.927180 0.379869
O O9 0.159859 0.260439 0.458727
O O10 0.450239 0.273521 0.534902
O O11 0.309778 0.000000 0.500000
O O12 0.000000 0.309030 0.250000
#
# Coordination Sequence:
#
# PCOD9311471 Si02
#       5
#     4   4   4   4   4
#     4  11  27  46  66 100 142 182 229 279 346 415
#     4  11  21  42  70 102 135 173 229 282 343 405
#     4  12  23  46  72 100 136 176 231 290 341 408
#     4  11  26  46  68  98 143 184 224 281 345 418
#     4  11  23  42  71 101 135 175 225 291 336 407
#
# _framework density 23.003744000000001
#
# number of rings (size 3 to 8) (size 9 to 14) (size 15 to 20)
#    0.000    0.800    4.000    3.600    2.800    5.600 
#    3.600    0.000    0.000    0.000    0.000    0.000 
#    0.000    0.000    0.000    0.000    0.000    0.000 
#
# Total GULP energy -111565.794679 kJ/mol
# GULP energy per Si atom -5578.289734 kJ/mol
# Density = 2.295139 g / cm^3
# Si number density = 23.003744 Si / 1000 Ang^3
#
#
#
# Elastic Constant Matrix: (Units=GPa)
#
#
# Indices 1 2 3 4 5 6 
#
# 1 36.9788 4.2246 -3.2502 0.0000 0.0000 0.0000
# 2 4.2246 73.7873 16.0292 0.0000 0.0000 0.0000
# 3 -3.2502 16.0292 137.4751 0.0000 0.0000 0.0000
# 4 0.0000 0.0000 0.0000 66.4635 0.0000 0.0000
# 5 0.0000 0.0000 0.0000 0.0000 44.1838 0.0000
# 6 0.0000 0.0000 0.0000 0.0000 0.0000 -21.6671
#
#
#
# Elastic Compliance Matrix: (Units=1/GPa)
#
#
# Indices 1 2 3 4 5 6 
#
# 1 0.027317 -0.001749 0.000850 0.000000 0.000000 0.000000
# 2 -0.001749 0.014017 -0.001676 0.000000 0.000000 0.000000
# 3 0.000850 -0.001676 0.007490 0.000000 0.000000 0.000000
# 4 0.000000 0.000000 0.000000 0.015046 0.000000 0.000000
# 5 0.000000 0.000000 0.000000 0.000000 0.022633 0.000000
# 6 0.000000 0.000000 0.000000 0.000000 0.000000 -0.046153
#
#
# Mechanical properties :
#
#
# Convention : Reuss Voigt Hill
#
# Bulk Modulus (GPa) = 22.89687 31.36092 27.12890
# Shear Modulus (GPa) = 83.25609 33.21190 58.23400
#
# Velocity S-wave (km/s) = 6.02254 3.80381 5.03686
# Velocity P-wave (km/s) = 7.63783 5.74060 6.75614
#
# Compressibility (1/GPa) = 0.04367408
#
# Stress axis : x y z
#
# Youngs Moduli (GPa) = 36.60726 71.34407 133.52019
#
# Poissons Ratio (x) = 0.12475 -0.11345
# Poissons Ratio (y) = 0.06401 0.22373
# Poissons Ratio (z) = -0.03111 0.11955
#
# Static dielectric constant tensor:
#      x y z
#    x 1.369340 0.000000 0.000000 
#    y 0.000000 1.936500 0.000000 
#    z 0.000000 0.000000 2.360690 
# 
# From -- ./inp_files/6408.got.cif
#   From: 2010.05.17/outbox.cif.g08.bks.cpg/sg17_4_cif.got.tgz:6408.got - 2010.06.03 22:34:06.
