data_PCOD9311231
_publ_section_title
;
Structure prediction by ZEFSAII (Michael W. Deem and Ramdas Pophale) SiO2 
 PCOD9311231
Probable space group: P 2 2 21
;
_chemical_formula_sum "Si O2"
_cell_formula_units_Z 20
_cell_length_a 4.920811
_cell_length_b 17.507661
_cell_length_c 9.259796
_cell_angle_alpha 90.000000
_cell_angle_beta 90.000000
_cell_angle_gamma 90.000000
_cell_volume 797.748934
_symmetry_space_group_name_H-M "P 2 2 21"
_symmetry_group_IT_number 17
_symmetry_cell_setting 'orthorhombic'
loop_
_space_group_symop_operation_xyz
x,y,z
-x,-y,1/2+z
x,-y,-z
-x,y,1/2-z
loop_
_atom_site_type_symbol
_atom_site_label
_atom_site_fract_x
_atom_site_fract_y
_atom_site_fract_z
Si Si1 0.026592 0.683608 0.526945
Si Si2 0.515363 0.000000 0.000000
Si Si3 0.500000 0.898555 0.750000
Si Si4 0.000000 0.193960 0.250000
Si Si5 0.000000 0.567066 0.750000
Si Si6 0.500000 0.884294 0.250000
Si Si7 0.000000 0.224569 0.750000
Si Si8 0.391504 0.555997 0.399799
O O1 0.122171 0.752993 0.625718
O O2 0.907742 0.721339 0.383018
O O3 0.266324 0.628461 0.476735
O O4 0.862808 0.627030 0.636203
O O5 0.395866 0.061493 0.883202
O O6 0.645440 0.945489 0.879201
O O7 0.251094 0.852067 0.815186
O O8 0.818854 0.508790 0.842120
O O9 0.249874 0.830170 0.294432
O O10 0.573575 0.500000 0.500000
O O11 0.500000 0.586173 0.250000
#
# Coordination Sequence:
#
# PCOD9311231 Si02
#       8
#     4   2   2   2   2   2   2   4
#     4  10  23  42  65  93 135 180 223 281 348 400
#     4  10  24  44  72 102 130 182 216 274 330 392
#     4  11  24  44  72  98 141 170 228 272 331 408
#     4  11  24  47  65 102 137 184 220 274 339 414
#     4   9  21  46  60  91 129 174 234 284 339 407
#     4  11  26  44  68 100 137 170 224 268 329 400
#     4  12  25  43  65 105 136 172 220 280 332 405
#     4  10  22  41  64  95 127 176 234 293 340 407
#
# _framework density 25.070542
#
# number of rings (size 3 to 8) (size 9 to 14) (size 15 to 20)
#    0.000    1.600    0.000    3.000    1.400    8.800 
#   23.400    0.000    0.000    0.000    0.000    0.000 
#    0.000    0.000    0.000    0.000    0.000    0.000 
#
# Total GULP energy -111383.928200 kJ/mol
# GULP energy per Si atom -5569.196410 kJ/mol
# Density = 2.501348 g / cm^3
# Si number density = 25.070542 Si / 1000 Ang^3
#
#
#
# Elastic Constant Matrix: (Units=GPa)
#
#
# Indices 1 2 3 4 5 6 
#
# 1 61.3434 39.9889 6.4588 0.0000 0.0000 0.0000
# 2 39.9889 119.1454 59.5497 0.0000 0.0000 0.0000
# 3 6.4588 59.5497 151.5473 0.0000 0.0000 0.0000
# 4 0.0000 0.0000 0.0000 19.1526 0.0000 0.0000
# 5 0.0000 0.0000 0.0000 0.0000 23.2522 0.0000
# 6 0.0000 0.0000 0.0000 0.0000 0.0000 -9.2529
#
#
#
# Elastic Compliance Matrix: (Units=1/GPa)
#
#
# Indices 1 2 3 4 5 6 
#
# 1 0.021543 -0.008426 0.002393 0.000000 0.000000 0.000000
# 2 -0.008426 0.013740 -0.005040 0.000000 0.000000 0.000000
# 3 0.002393 -0.005040 0.008477 0.000000 0.000000 0.000000
# 4 0.000000 0.000000 0.000000 0.052212 0.000000 0.000000
# 5 0.000000 0.000000 0.000000 0.000000 0.043007 0.000000
# 6 0.000000 0.000000 0.000000 0.000000 0.000000 -0.108074
#
#
# Mechanical properties :
#
#
# Convention : Reuss Voigt Hill
#
# Bulk Modulus (GPa) = 46.26810 60.44789 53.35800
# Shear Modulus (GPa) = 82.97803 21.69962 52.33882
#
# Velocity S-wave (km/s) = 5.75931 2.94520 4.57405
# Velocity P-wave (km/s) = 7.91969 5.97738 7.01607
#
# Compressibility (1/GPa) = 0.02161316
#
# Stress axis : x y z
#
# Youngs Moduli (GPa) = 46.41923 72.77839 117.96516
#
# Poissons Ratio (x) = 0.61326 -0.28229
# Poissons Ratio (y) = 0.39115 0.59455
# Poissons Ratio (z) = -0.11108 0.36681
#
# Static dielectric constant tensor:
#      x y z
#    x 1.954190 0.000000 0.000000 
#    y 0.000000 1.990090 0.000000 
#    z 0.000000 0.000000 2.165870 
# 
# From -- ./inp_files/3467.got.cif
#   From: 2010.05.17/outbox.cif.g08.bks.cpg/sg17_2_cif.got.tgz:3467.got - 2010.06.03 22:34:06.
