data_PCOD9311272
_publ_section_title
;
Structure prediction by ZEFSAII (Michael W. Deem and Ramdas Pophale) SiO2 
 PCOD9311272
Probable space group: P 2 2 21
;
_chemical_formula_sum "Si O2"
_cell_formula_units_Z 26
_cell_length_a 5.254815
_cell_length_b 8.228209
_cell_length_c 24.666194
_cell_angle_alpha 90.000000
_cell_angle_beta 90.000000
_cell_angle_gamma 90.000000
_cell_volume 1066.509893
_symmetry_space_group_name_H-M "P 2 2 21"
_symmetry_group_IT_number 17
_symmetry_cell_setting 'orthorhombic'
loop_
_space_group_symop_operation_xyz
x,y,z
-x,-y,1/2+z
x,-y,-z
-x,y,1/2-z
loop_
_atom_site_type_symbol
_atom_site_label
_atom_site_fract_x
_atom_site_fract_y
_atom_site_fract_z
Si Si1 0.797064 0.000000 0.500000
Si Si2 0.894057 0.220587 0.082668
Si Si3 0.170550 0.183876 0.296258
Si Si4 0.642016 0.339013 0.663682
Si Si5 0.526783 0.308962 0.998083
Si Si6 0.500000 0.085358 0.750000
Si Si7 0.500000 0.428049 0.250000
Si Si8 0.126335 0.405148 0.595214
O O1 0.635870 0.155383 0.523047
O O2 0.964978 0.091376 0.454955
O O3 0.923870 0.162247 0.143852
O O4 0.971657 0.411064 0.083843
O O5 0.611204 0.245628 0.057506
O O6 0.402332 0.309478 0.297038
O O7 0.000000 0.263352 0.250000
O O8 0.266239 0.022537 0.268557
O O9 0.574742 0.176848 0.695431
O O10 0.684988 0.456175 0.715768
O O11 0.389042 0.395060 0.630416
O O12 0.891636 0.327462 0.627100
O O13 0.781209 0.325937 0.961171
O O14 0.432025 0.500000 0.000000
#
# Coordination Sequence:
#
# PCOD9311272 Si02
#       8
#     2   4   4   4   4   2   2   4
#     4  12  28  48  84 118 168 216 284 350 420 504
#     4  11  26  49  78 117 156 216 274 343 414 497
#     4  11  24  46  73 107 156 207 263 332 408 496
#     4  11  25  46  79 115 155 207 263 336 402 486
#     4  10  27  51  76 115 164 215 282 339 423 496
#     4  10  28  44  70 114 162 202 266 332 416 494
#     4  10  22  42  74 110 144 206 268 326 396 484
#     4  11  26  48  85 113 158 213 275 335 410 495
#
# _framework density 24.378585999999999
#
# number of rings (size 3 to 8) (size 9 to 14) (size 15 to 20)
#    0.000    1.231    1.538    1.385    8.615    8.000 
#    0.000    0.000    0.000    0.000    0.000    0.000 
#    0.000    0.000    0.000    0.000    0.000    0.000 
#
# Total GULP energy -145095.996797 kJ/mol
# GULP energy per Si atom -5580.615261 kJ/mol
# Density = 2.432310 g / cm^3
# Si number density = 24.378586 Si / 1000 Ang^3
#
#
#
# Elastic Constant Matrix: (Units=GPa)
#
#
# Indices 1 2 3 4 5 6 
#
# 1 93.3046 42.6575 42.2305 0.0000 0.0000 0.0000
# 2 42.6575 104.6004 22.5534 0.0000 0.0000 0.0000
# 3 42.2305 22.5534 137.5142 0.0000 0.0000 0.0000
# 4 0.0000 0.0000 0.0000 22.3059 0.0000 0.0000
# 5 0.0000 0.0000 0.0000 0.0000 19.4274 0.0000
# 6 0.0000 0.0000 0.0000 0.0000 0.0000 28.6535
#
#
#
# Elastic Compliance Matrix: (Units=1/GPa)
#
#
# Indices 1 2 3 4 5 6 
#
# 1 0.014775 -0.005232 -0.003679 0.000000 0.000000 0.000000
# 2 -0.005232 0.011763 -0.000323 0.000000 0.000000 0.000000
# 3 -0.003679 -0.000323 0.008455 0.000000 0.000000 0.000000
# 4 0.000000 0.000000 0.000000 0.044831 0.000000 0.000000
# 5 0.000000 0.000000 0.000000 0.000000 0.051474 0.000000
# 6 0.000000 0.000000 0.000000 0.000000 0.000000 0.034900
#
#
# Mechanical properties :
#
#
# Convention : Reuss Voigt Hill
#
# Bulk Modulus (GPa) = 60.51304 61.14464 60.82884
# Shear Modulus (GPa) = 26.29171 29.27588 27.78380
#
# Velocity S-wave (km/s) = 3.28758 3.46914 3.37958
# Velocity P-wave (km/s) = 6.26793 6.41734 6.34308
#
# Compressibility (1/GPa) = 0.01652536
#
# Stress axis : x y z
#
# Youngs Moduli (GPa) = 67.68247 85.00909 118.27650
#
# Poissons Ratio (x) = 0.44478 0.43517
# Poissons Ratio (y) = 0.35412 0.03815
# Poissons Ratio (z) = 0.24902 0.02742
#
# Static dielectric constant tensor:
#      x y z
#    x 1.985170 0.000000 0.000000 
#    y 0.000000 1.952580 0.000000 
#    z 0.000000 0.000000 1.923580 
# 
# From -- ./inp_files/10856.got.cif
#   From: 2010.05.17/outbox.cif.g08.bks.cpg/sg17_6_cif.got.tgz:10856.got - 2010.06.03 22:34:06.
