data_PCOD9311831
_publ_section_title
;
Structure prediction by ZEFSAII (Michael W. Deem and Ramdas Pophale) SiO2 
 PCOD9311831
Probable space group: P 21 21 2
;
_chemical_formula_sum "Si O2"
_cell_formula_units_Z 22
_cell_length_a 18.668830
_cell_length_b 8.051074
_cell_length_c 7.222639
_cell_angle_alpha 90.000000
_cell_angle_beta 90.000000
_cell_angle_gamma 90.000000
_cell_volume 1085.592484
_symmetry_space_group_name_H-M "P 21 21 2"
_symmetry_group_IT_number 18
_symmetry_cell_setting 'orthorhombic'
loop_
_space_group_symop_operation_xyz
x,y,z
-x,-y,z
1/2+x,1/2-y,-z
1/2-x,1/2+y,-z
loop_
_atom_site_type_symbol
_atom_site_label
_atom_site_fract_x
_atom_site_fract_y
_atom_site_fract_z
Si Si1 0.112979 0.587999 0.249630
Si Si2 0.655535 0.441889 0.868301
Si Si3 0.855583 0.130774 0.522463
Si Si4 0.000000 0.000000 0.550226
Si Si5 0.026254 0.247185 0.218725
Si Si6 0.246986 0.391796 0.155358
O O1 0.129550 0.684722 0.441125
O O2 0.071368 0.412812 0.263426
O O3 0.187728 0.538841 0.156642
O O4 0.052957 0.703323 0.149532
O O5 0.654179 0.520449 0.663017
O O6 0.575220 0.373430 0.904908
O O7 0.704855 0.278401 0.875870
O O8 0.692118 0.570536 0.005710
O O9 0.924289 0.056451 0.633974
O O10 0.786042 0.119767 0.647543
O O11 0.015836 0.152884 0.411918
#
# Coordination Sequence:
#
# PCOD9311831 Si02
#       6
#     4   4   4   2   4   4
#     4   9  17  32  55  80 107 143 187 227 276 335
#     4  10  21  35  53  79 110 144 184 229 280 337
#     4  10  19  35  55  78 107 143 180 226 277 328
#     4   8  16  32  54  80 108 140 182 218 268 334
#     4   8  16  32  55  79 107 147 184 223 275 335
#     4  11  21  34  54  81 109 141 184 232 281 332
#
# _framework density 20.265432000000001
#
# number of rings (size 3 to 8) (size 9 to 14) (size 15 to 20)
#    0.000    2.545    0.000    2.182    0.000    0.000 
#    0.000    9.091    0.000    0.000    0.000   22.909 
#    0.000    0.000    0.000    0.000    0.000    0.000 
#
# Total GULP energy -122511.346957 kJ/mol
# GULP energy per Si atom -5568.697589 kJ/mol
# Density = 2.021931 g / cm^3
# Si number density = 20.265432 Si / 1000 Ang^3
#
#
#
# Elastic Constant Matrix: (Units=GPa)
#
#
# Indices 1 2 3 4 5 6 
#
# 1 125.4399 28.0989 27.3148 0.0000 0.0000 0.0000
# 2 28.0989 77.1156 11.5434 0.0000 0.0000 0.0000
# 3 27.3148 11.5434 36.3786 0.0000 0.0000 0.0000
# 4 0.0000 0.0000 0.0000 9.7486 0.0000 0.0000
# 5 0.0000 0.0000 0.0000 0.0000 10.3184 0.0000
# 6 0.0000 0.0000 0.0000 0.0000 0.0000 29.0532
#
#
#
# Elastic Compliance Matrix: (Units=1/GPa)
#
#
# Indices 1 2 3 4 5 6 
#
# 1 0.010021 -0.002651 -0.006683 0.000000 0.000000 0.000000
# 2 -0.002651 0.014316 -0.002552 0.000000 0.000000 0.000000
# 3 -0.006683 -0.002552 0.033317 0.000000 0.000000 0.000000
# 4 0.000000 0.000000 0.000000 0.102579 0.000000 0.000000
# 5 0.000000 0.000000 0.000000 0.000000 0.096914 0.000000
# 6 0.000000 0.000000 0.000000 0.000000 0.000000 0.034420
#
#
# Mechanical properties :
#
#
# Convention : Reuss Voigt Hill
#
# Bulk Modulus (GPa) = 29.51518 41.42759 35.47139
# Shear Modulus (GPa) = 15.30775 21.28916 18.29845
#
# Velocity S-wave (km/s) = 2.75137 3.24468 3.00815
# Velocity P-wave (km/s) = 4.96883 5.87573 5.44121
#
# Compressibility (1/GPa) = 0.03388087
#
# Stress axis : x y z
#
# Youngs Moduli (GPa) = 99.79003 69.85426 30.01516
#
# Poissons Ratio (x) = 0.18519 0.20059
# Poissons Ratio (y) = 0.26455 0.07660
# Poissons Ratio (z) = 0.66691 0.17827
#
# Static dielectric constant tensor:
#      x y z
#    x 1.791640 0.000000 0.000000 
#    y 0.000000 1.749780 0.000000 
#    z 0.000000 0.000000 1.660010 
# 
# From -- ./inp_files/3249.got.cif
#   From: 2010.05.17/outbox.cif.g08.bks.cpg/sg18_2_cif.got.tgz:3249.got - 2010.06.03 22:40:56.
