data_PCOD9311176
_publ_section_title
;
Structure prediction by ZEFSAII (Michael W. Deem and Ramdas Pophale) SiO2 
 PCOD9311176
Probable space group: P 2 2 21
;
_chemical_formula_sum "Si O2"
_cell_formula_units_Z 24
_cell_length_a 5.019195
_cell_length_b 12.766109
_cell_length_c 17.787973
_cell_angle_alpha 90.000000
_cell_angle_beta 90.000000
_cell_angle_gamma 90.000000
_cell_volume 1139.774873
_symmetry_space_group_name_H-M "P 2 2 21"
_symmetry_group_IT_number 17
_symmetry_cell_setting 'orthorhombic'
loop_
_space_group_symop_operation_xyz
x,y,z
-x,-y,1/2+z
x,-y,-z
-x,y,1/2-z
loop_
_atom_site_type_symbol
_atom_site_label
_atom_site_fract_x
_atom_site_fract_y
_atom_site_fract_z
Si Si1 0.854731 0.736192 0.862979
Si Si2 0.374515 0.216273 0.040161
Si Si3 0.509572 0.768871 0.366004
Si Si4 0.000000 0.907333 0.750000
Si Si5 0.500000 0.590735 0.250000
Si Si6 0.731321 0.000000 0.500000
Si Si7 0.987429 0.904977 0.358087
Si Si8 0.000000 0.555129 0.750000
O O1 0.579975 0.726084 0.906137
O O2 0.934810 0.631675 0.819409
O O3 0.083378 0.767391 0.923375
O O4 0.824950 0.827340 0.799494
O O5 0.429075 0.250533 0.954206
O O6 0.434378 0.090839 0.040694
O O7 0.434430 0.666200 0.320259
O O8 0.784408 0.814632 0.332881
O O9 0.284052 0.858762 0.356483
O O10 0.090987 0.991570 0.811772
O O11 0.250398 0.517614 0.232544
O O12 0.912605 0.935589 0.442765
#
# Coordination Sequence:
#
# PCOD9311176 Si02
#       8
#     4   4   4   2   2   2   4   2
#     4  11  25  43  64  97 131 172 220 278 318 395
#     4  11  23  41  64  96 141 170 218 258 328 384
#     4  11  25  41  68  95 131 171 218 276 330 383
#     4  11  24  37  62  90 132 177 216 259 314 380
#     4  12  24  50  70  94 124 172 226 290 342 398
#     4  10  22  38  62  96 138 196 200 256 308 412
#     4  11  23  38  60  98 133 174 220 253 318 401
#     4  11  26  47  74  92 126 175 228 279 354 376
#
# _framework density 21.056792000000002
#
# number of rings (size 3 to 8) (size 9 to 14) (size 15 to 20)
#    0.000    1.000    1.667    5.000    4.667    4.667 
#    0.000    5.000    0.000    0.000    0.000    0.000 
#    0.000    0.000    0.000    0.000    0.000    0.000 
#
# Total GULP energy -134044.020900 kJ/mol
# GULP energy per Si atom -5585.167537 kJ/mol
# Density = 2.100887 g / cm^3
# Si number density = 21.056792 Si / 1000 Ang^3
#
#
#
# Elastic Constant Matrix: (Units=GPa)
#
#
# Indices 1 2 3 4 5 6 
#
# 1 72.6630 7.5741 5.9973 0.0000 0.0000 0.0000
# 2 7.5741 104.3648 30.7257 0.0000 0.0000 0.0000
# 3 5.9973 30.7257 93.7620 0.0000 0.0000 0.0000
# 4 0.0000 0.0000 0.0000 -225.3000 0.0000 0.0000
# 5 0.0000 0.0000 0.0000 0.0000 20.2201 0.0000
# 6 0.0000 0.0000 0.0000 0.0000 0.0000 31.8723
#
#
#
# Elastic Compliance Matrix: (Units=1/GPa)
#
#
# Indices 1 2 3 4 5 6 
#
# 1 0.013899 -0.000827 -0.000618 0.000000 0.000000 0.000000
# 2 -0.000827 0.010654 -0.003438 0.000000 0.000000 0.000000
# 3 -0.000618 -0.003438 0.011832 0.000000 0.000000 0.000000
# 4 0.000000 0.000000 0.000000 -0.004439 0.000000 0.000000
# 5 0.000000 0.000000 0.000000 0.000000 0.049456 0.000000
# 6 0.000000 0.000000 0.000000 0.000000 0.000000 0.031375
#
#
# Mechanical properties :
#
#
# Convention : Reuss Voigt Hill
#
# Bulk Modulus (GPa) = 37.56797 39.93156 38.74976
# Shear Modulus (GPa) = 38.04685 -19.54202 9.25242
#
# Velocity S-wave (km/s) = 4.25534 -3.04972 2.09847
# Velocity P-wave (km/s) = 6.48258 2.56980 4.93091
#
# Compressibility (1/GPa) = 0.02661842
#
# Stress axis : x y z
#
# Youngs Moduli (GPa) = 71.94573 93.86076 84.51936
#
# Poissons Ratio (x) = 0.07760 0.05224
# Poissons Ratio (y) = 0.05948 0.29062
# Poissons Ratio (z) = 0.04447 0.32274
#
# Static dielectric constant tensor:
#      x y z
#    x 1.813320 0.000000 0.000000 
#    y 0.000000 1.735550 0.000000 
#    z 0.000000 0.000000 1.602050 
# 
# From -- ./inp_files/9068.got.cif
#   From: 2010.05.17/outbox.cif.g08.bks.cpg/sg17_5_cif.got.tgz:9068.got - 2010.06.03 22:34:06.
