data_PCOD9311482
_publ_section_title
;
Structure prediction by ZEFSAII (Michael W. Deem and Ramdas Pophale) SiO2 
 PCOD9311482
Probable space group: P 2 2 21
;
_chemical_formula_sum "Si O2"
_cell_formula_units_Z 12
_cell_length_a 4.898795
_cell_length_b 8.226612
_cell_length_c 11.380741
_cell_angle_alpha 90.000000
_cell_angle_beta 90.000000
_cell_angle_gamma 90.000000
_cell_volume 458.649390
_symmetry_space_group_name_H-M "P 2 2 21"
_symmetry_group_IT_number 17
_symmetry_cell_setting 'orthorhombic'
loop_
_space_group_symop_operation_xyz
x,y,z
-x,-y,1/2+z
x,-y,-z
-x,y,1/2-z
loop_
_atom_site_type_symbol
_atom_site_label
_atom_site_fract_x
_atom_site_fract_y
_atom_site_fract_z
Si Si1 0.320773 0.726803 0.589392
Si Si2 0.273920 0.630842 0.326841
Si Si3 0.845562 0.070338 0.366746
O O1 0.281353 0.721479 0.449971
O O2 0.386061 0.548159 0.636784
O O3 0.532604 0.865906 0.629492
O O4 0.018203 0.764676 0.630716
O O5 0.500000 0.718871 0.250000
O O6 0.000000 0.618323 0.250000
O O7 0.000000 0.988401 0.250000
O O8 0.887766 0.000000 0.500000
#
# Coordination Sequence:
#
# PCOD9311482 Si02
#       3
#     4   4   4
#     4  11  24  42  66  98 134 176 228 286 353 417
#     4  11  22  39  67  99 133 172 218 282 352 420
#     4  12  26  45  68  95 135 187 236 288 345 409
#
# _framework density 26.163777
#
# number of rings (size 3 to 8) (size 9 to 14) (size 15 to 20)
#    0.000    0.667    0.000    9.000    0.000    9.333 
#    0.000    0.000    0.000    0.000    0.000    0.000 
#    0.000    0.000    0.000    0.000    0.000    0.000 
#
# Total GULP energy -66901.938788 kJ/mol
# GULP energy per Si atom -5575.161566 kJ/mol
# Density = 2.610423 g / cm^3
# Si number density = 26.163777 Si / 1000 Ang^3
#
#
#
# Elastic Constant Matrix: (Units=GPa)
#
#
# Indices 1 2 3 4 5 6 
#
# 1 106.2486 1.2121 52.1181 0.0000 0.0000 0.0000
# 2 1.2121 65.7238 23.5323 0.0000 0.0000 0.0000
# 3 52.1181 23.5323 311.0623 0.0000 0.0000 0.0000
# 4 0.0000 0.0000 0.0000 44.0530 0.0000 0.0000
# 5 0.0000 0.0000 0.0000 0.0000 50.0235 0.0000
# 6 0.0000 0.0000 0.0000 0.0000 0.0000 23.0022
#
#
#
# Elastic Compliance Matrix: (Units=1/GPa)
#
#
# Indices 1 2 3 4 5 6 
#
# 1 0.010267 0.000438 -0.001753 0.000000 0.000000 0.000000
# 2 0.000438 0.015658 -0.001258 0.000000 0.000000 0.000000
# 3 -0.001753 -0.001258 0.003604 0.000000 0.000000 0.000000
# 4 0.000000 0.000000 0.000000 0.022700 0.000000 0.000000
# 5 0.000000 0.000000 0.000000 0.000000 0.019991 0.000000
# 6 0.000000 0.000000 0.000000 0.000000 0.000000 0.043474
#
#
# Mechanical properties :
#
#
# Convention : Reuss Voigt Hill
#
# Bulk Modulus (GPa) = 41.01320 70.75108 55.88214
# Shear Modulus (GPa) = 38.76987 50.49389 44.63188
#
# Velocity S-wave (km/s) = 3.85361 4.39785 4.13469
# Velocity P-wave (km/s) = 5.95903 7.27244 6.64825
#
# Compressibility (1/GPa) = 0.02438239
#
# Stress axis : x y z
#
# Youngs Moduli (GPa) = 97.39969 63.86709 277.48983
#
# Poissons Ratio (x) = -0.02800 0.48655
# Poissons Ratio (y) = -0.04270 0.34907
# Poissons Ratio (z) = 0.17078 0.08034
#
# Static dielectric constant tensor:
#      x y z
#    x 1.885390 0.000000 0.000000 
#    y 0.000000 2.050500 0.000000 
#    z 0.000000 0.000000 2.007460 
# 
# From -- ./inp_files/5598.got.cif
#   From: 2010.05.17/outbox.cif.g08.bks.cpg/sg17_3_cif.got.tgz:5598.got - 2010.06.03 22:34:06.
