data_PCOD9311014
_publ_section_title
;
Structure prediction by ZEFSAII (Michael W. Deem and Ramdas Pophale) SiO2 
 PCOD9311014
Probable space group: P 2 2 21
;
_chemical_formula_sum "Si O2"
_cell_formula_units_Z 30
_cell_length_a 13.634439
_cell_length_b 5.318815
_cell_length_c 18.164533
_cell_angle_alpha 90.000000
_cell_angle_beta 90.000000
_cell_angle_gamma 90.000000
_cell_volume 1317.274834
_symmetry_space_group_name_H-M "P 2 2 21"
_symmetry_group_IT_number 17
_symmetry_cell_setting 'orthorhombic'
loop_
_space_group_symop_operation_xyz
x,y,z
-x,-y,1/2+z
x,-y,-z
-x,y,1/2-z
loop_
_atom_site_type_symbol
_atom_site_label
_atom_site_fract_x
_atom_site_fract_y
_atom_site_fract_z
Si Si1 0.881457 0.774782 0.591942
Si Si2 0.405761 0.242282 0.195994
Si Si3 0.198978 0.730663 0.072740
Si Si4 0.895147 0.136346 0.081106
Si Si5 0.215350 0.500000 0.500000
Si Si6 0.701695 0.876529 0.832256
Si Si7 0.412996 0.258191 0.899486
Si Si8 0.372727 0.351798 0.594208
O O1 0.840864 0.507438 0.617316
O O2 0.862462 0.750695 0.503152
O O3 0.993834 0.842016 0.606784
O O4 0.818701 0.012724 0.615711
O O5 0.500000 0.230896 0.250000
O O6 0.312285 0.196773 0.247974
O O7 0.403769 0.517616 0.160246
O O8 0.414692 0.017966 0.136960
O O9 0.313707 0.719320 0.053828
O O10 0.856785 0.415876 0.063339
O O11 0.811197 0.058500 0.138767
O O12 0.893354 0.000000 0.000000
O O13 0.291611 0.298638 0.531720
O O14 0.654881 0.631575 0.875506
O O15 0.641495 0.133295 0.846095
O O16 0.517864 0.316180 0.935439
#
# Coordination Sequence:
#
# PCOD9311014 Si02
#       8
#     4   4   4   4   2   4   4   4
#     4  10  21  38  62  85 118 151 201 241 301 367
#     4  12  22  40  62  85 120 165 209 245 290 351
#     4  10  21  37  59  90 113 154 205 245 288 359
#     4  11  20  37  62  89 116 152 193 246 313 359
#     4  10  22  32  54  88 132 142 190 246 310 372
#     4  11  23  36  60  89 121 150 205 241 297 362
#     4  12  23  38  63  84 121 164 205 246 291 348
#     4  11  21  36  53  87 119 161 184 243 296 364
#
# _framework density 22.774293
#
# number of rings (size 3 to 8) (size 9 to 14) (size 15 to 20)
#    0.000    1.067    5.333    2.800    0.000    1.067 
#    0.000    4.000    0.000    4.800    0.000    0.000 
#    0.000    0.000    0.000    0.000    0.000    0.000 
#
# Total GULP energy -167327.885305 kJ/mol
# GULP energy per Si atom -5577.596177 kJ/mol
# Density = 2.272246 g / cm^3
# Si number density = 22.774293 Si / 1000 Ang^3
#
#
#
# Elastic Constant Matrix: (Units=GPa)
#
#
# Indices 1 2 3 4 5 6 
#
# 1 159.1876 17.1906 -5.4727 0.0000 0.0000 0.0000
# 2 17.1906 130.8828 -1.1312 0.0000 0.0000 0.0000
# 3 -5.4727 -1.1312 13.3448 0.0000 0.0000 0.0000
# 4 0.0000 0.0000 0.0000 20.6329 0.0000 0.0000
# 5 0.0000 0.0000 0.0000 0.0000 1.0036 0.0000
# 6 0.0000 0.0000 0.0000 0.0000 0.0000 23.2363
#
#
#
# Elastic Compliance Matrix: (Units=1/GPa)
#
#
# Indices 1 2 3 4 5 6 
#
# 1 0.006460 -0.000826 0.002579 0.000000 0.000000 0.000000
# 2 -0.000826 0.007752 0.000318 0.000000 0.000000 0.000000
# 3 0.002579 0.000318 0.076020 0.000000 0.000000 0.000000
# 4 0.000000 0.000000 0.000000 0.048466 0.000000 0.000000
# 5 0.000000 0.000000 0.000000 0.000000 0.996457 0.000000
# 6 0.000000 0.000000 0.000000 0.000000 0.000000 0.043036
#
#
# Mechanical properties :
#
#
# Convention : Reuss Voigt Hill
#
# Bulk Modulus (GPa) = 10.59610 36.06541 23.33075
# Shear Modulus (GPa) = 4.14764 28.49646 16.32205
#
# Velocity S-wave (km/s) = 1.35098 3.54115 2.68001
# Velocity P-wave (km/s) = 2.66389 5.70877 4.45457
#
# Compressibility (1/GPa) = 0.09437438
#
# Stress axis : x y z
#
# Youngs Moduli (GPa) = 154.80403 129.00421 13.15436
#
# Poissons Ratio (x) = 0.10658 -0.03393
# Poissons Ratio (y) = 0.12789 -0.00419
# Poissons Ratio (z) = -0.39926 -0.04106
#
# Static dielectric constant tensor:
#      x y z
#    x 1.844940 0.000000 0.000000 
#    y 0.000000 2.145680 0.000000 
#    z 0.000000 0.000000 1.850130 
# 
# From -- ./inp_files/10250.got.cif
#   From: 2010.05.17/outbox.cif.g08.bks.cpg/sg17_6_cif.got.tgz:10250.got - 2010.06.03 22:34:06.
