data_PCOD9311409
_publ_section_title
;
Structure prediction by ZEFSAII (Michael W. Deem and Ramdas Pophale) SiO2 
 PCOD9311409
Probable space group: P 2 2 21
;
_chemical_formula_sum "Si O2"
_cell_formula_units_Z 18
_cell_length_a 7.540883
_cell_length_b 10.869454
_cell_length_c 8.985146
_cell_angle_alpha 90.000000
_cell_angle_beta 90.000000
_cell_angle_gamma 90.000000
_cell_volume 736.470016
_symmetry_space_group_name_H-M "P 2 2 21"
_symmetry_group_IT_number 17
_symmetry_cell_setting 'orthorhombic'
loop_
_space_group_symop_operation_xyz
x,y,z
-x,-y,1/2+z
x,-y,-z
-x,y,1/2-z
loop_
_atom_site_type_symbol
_atom_site_label
_atom_site_fract_x
_atom_site_fract_y
_atom_site_fract_z
Si Si1 0.186381 0.792009 0.679405
Si Si2 0.576395 0.779689 0.404404
Si Si3 0.500000 0.980532 0.750000
Si Si4 0.368097 0.408488 0.131700
Si Si5 0.969596 0.133484 0.576274
O O1 0.332076 0.893853 0.722979
O O2 0.230281 0.664710 0.764400
O O3 0.000000 0.831364 0.750000
O O4 0.134495 0.798349 0.504887
O O5 0.500000 0.727797 0.250000
O O6 0.519756 0.697864 0.543804
O O7 0.788591 0.787407 0.428887
O O8 0.521316 0.921225 0.383892
O O9 0.500000 0.468771 0.250000
O O10 0.306674 0.500000 0.000000
O O11 0.000000 0.116668 0.750000
O O12 0.948846 0.000000 0.500000
#
# Coordination Sequence:
#
# PCOD9311409 Si02
#       5
#     4   4   2   4   4
#     4  12  25  50  82 119 169 217 275 346 427 510
#     4  10  25  45  76 118 162 216 267 338 417 499
#     4  10  24  46  82 128 174 216 262 340 440 500
#     4  12  28  52  81 114 160 224 292 355 415 507
#     4  12  26  44  72 118 171 217 268 339 423 518
#
# _framework density 24.440913999999999
#
# number of rings (size 3 to 8) (size 9 to 14) (size 15 to 20)
#    0.667    0.000    3.333    4.000    3.111    0.000 
#    4.000    2.222    0.000    0.000    0.000    0.000 
#    0.000    0.000    0.000    0.000    0.000    0.000 
#
# Total GULP energy -100551.825785 kJ/mol
# GULP energy per Si atom -5586.212544 kJ/mol
# Density = 2.438529 g / cm^3
# Si number density = 24.440914 Si / 1000 Ang^3
#
#
#
# Elastic Constant Matrix: (Units=GPa)
#
#
# Indices 1 2 3 4 5 6 
#
# 1 134.6610 59.5815 43.5774 0.0000 0.0000 0.0000
# 2 59.5815 148.8347 74.9187 0.0000 0.0000 0.0000
# 3 43.5774 74.9187 198.8227 0.0000 0.0000 0.0000
# 4 0.0000 0.0000 0.0000 60.4163 0.0000 0.0000
# 5 0.0000 0.0000 0.0000 0.0000 52.6949 0.0000
# 6 0.0000 0.0000 0.0000 0.0000 0.0000 2.7988
#
#
#
# Elastic Compliance Matrix: (Units=1/GPa)
#
#
# Indices 1 2 3 4 5 6 
#
# 1 0.009119 -0.003263 -0.000769 0.000000 0.000000 0.000000
# 2 -0.003263 0.009459 -0.002849 0.000000 0.000000 0.000000
# 3 -0.000769 -0.002849 0.006272 0.000000 0.000000 0.000000
# 4 0.000000 0.000000 0.000000 0.016552 0.000000 0.000000
# 5 0.000000 0.000000 0.000000 0.000000 0.018977 0.000000
# 6 0.000000 0.000000 0.000000 0.000000 0.000000 0.357295
#
#
# Mechanical properties :
#
#
# Convention : Reuss Voigt Hill
#
# Bulk Modulus (GPa) = 90.19581 93.16372 91.67977
# Shear Modulus (GPa) = 11.49076 43.46472 27.47774
#
# Velocity S-wave (km/s) = 2.17063 4.22163 3.35662
# Velocity P-wave (km/s) = 6.57768 7.87170 7.25360
#
# Compressibility (1/GPa) = 0.01108699
#
# Stress axis : x y z
#
# Youngs Moduli (GPa) = 109.66368 105.71462 159.44531
#
# Poissons Ratio (x) = 0.34499 0.12261
# Poissons Ratio (y) = 0.35787 0.45429
# Poissons Ratio (z) = 0.08433 0.30120
#
# Static dielectric constant tensor:
#      x y z
#    x 2.057380 0.000000 0.000000 
#    y 0.000000 1.938450 0.000000 
#    z 0.000000 0.000000 2.128040 
# 
# From -- ./inp_files/4036.got.cif
#   From: 2010.05.17/outbox.cif.g08.bks.cpg/sg17_3_cif.got.tgz:4036.got - 2010.06.03 22:34:06.
