data_PCOD9311980
_publ_section_title
;
Structure prediction by ZEFSAII (Michael W. Deem and Ramdas Pophale) SiO2 
 PCOD9311980
Probable space group: P 21 21 2
;
_chemical_formula_sum "Si O2"
_cell_formula_units_Z 28
_cell_length_a 9.437137
_cell_length_b 18.465457
_cell_length_c 9.134220
_cell_angle_alpha 90.000000
_cell_angle_beta 90.000000
_cell_angle_gamma 90.000000
_cell_volume 1591.738745
_symmetry_space_group_name_H-M "P 21 21 2"
_symmetry_group_IT_number 18
_symmetry_cell_setting 'orthorhombic'
loop_
_space_group_symop_operation_xyz
x,y,z
-x,-y,z
1/2+x,1/2-y,-z
1/2-x,1/2+y,-z
loop_
_atom_site_type_symbol
_atom_site_label
_atom_site_fract_x
_atom_site_fract_y
_atom_site_fract_z
Si Si1 0.901522 0.743438 0.827599
Si Si2 0.896864 0.398364 0.850547
Si Si3 0.354275 0.297217 0.348168
Si Si4 0.608384 0.099420 0.648810
Si Si5 0.000000 0.500000 0.606954
Si Si6 0.643775 0.297240 0.846529
Si Si7 0.098588 0.739787 0.328924
Si Si8 0.000000 0.500000 0.106390
O O1 0.742424 0.750681 0.764561
O O2 0.984484 0.665388 0.821553
O O3 0.993916 0.797701 0.727713
O O4 0.902070 0.766418 0.996837
O O5 0.739409 0.367397 0.865513
O O6 0.902197 0.453871 0.715793
O O7 0.933457 0.440716 0.998604
O O8 0.265034 0.369177 0.371131
O O9 0.254947 0.255801 0.232444
O O10 0.367090 0.255641 0.501955
O O11 0.489871 0.163419 0.676428
O O12 0.601606 0.044218 0.784373
O O13 0.571104 0.057369 0.501123
O O14 0.510383 0.298282 0.738822
#
# Coordination Sequence:
#
# PCOD9311980 Si02
#       8
#     4   4   4   4   2   4   4   2
#     4  11  20  34  59  86 112 140 178 239 289 327
#     4  10  20  36  55  82 107 144 189 220 277 329
#     4  10  20  34  54  82 111 138 180 233 278 324
#     4  10  20  36  55  82 107 144 189 220 277 329
#     4  10  20  34  58  76 110 152 186 224 256 344
#     4  10  20  34  54  82 111 138 180 233 278 324
#     4  11  20  34  59  86 112 140 178 239 289 327
#     4  10  20  34  58  76 110 152 186 224 256 344
#
# _framework density 17.590827000000001
#
# number of rings (size 3 to 8) (size 9 to 14) (size 15 to 20)
#    0.000    1.714    0.000    8.571    0.000    0.000 
#    0.000    0.000    0.000   29.143    0.000    0.000 
#    0.000    0.000    0.000    0.000    0.000    0.000 
#
# Total GULP energy -155967.644226 kJ/mol
# GULP energy per Si atom -5570.273008 kJ/mol
# Density = 1.755079 g / cm^3
# Si number density = 17.590827 Si / 1000 Ang^3
#
#
#
# Elastic Constant Matrix: (Units=GPa)
#
#
# Indices 1 2 3 4 5 6 
#
# 1 80.7237 36.2929 -4.1051 0.0000 0.0000 0.0000
# 2 36.2929 74.7854 30.9962 0.0000 0.0000 0.0000
# 3 -4.1051 30.9962 90.8584 0.0000 0.0000 0.0000
# 4 0.0000 0.0000 0.0000 9.7914 0.0000 0.0000
# 5 0.0000 0.0000 0.0000 0.0000 24.7878 0.0000
# 6 0.0000 0.0000 0.0000 0.0000 0.0000 16.1418
#
#
#
# Elastic Compliance Matrix: (Units=1/GPa)
#
#
# Indices 1 2 3 4 5 6 
#
# 1 0.017120 -0.010050 0.004202 0.000000 0.000000 0.000000
# 2 -0.010050 0.021473 -0.007780 0.000000 0.000000 0.000000
# 3 0.004202 -0.007780 0.013850 0.000000 0.000000 0.000000
# 4 0.000000 0.000000 0.000000 0.102131 0.000000 0.000000
# 5 0.000000 0.000000 0.000000 0.000000 0.040342 0.000000
# 6 0.000000 0.000000 0.000000 0.000000 0.000000 0.061951
#
#
# Mechanical properties :
#
#
# Convention : Reuss Voigt Hill
#
# Bulk Modulus (GPa) = 39.70108 41.41505 40.55807
# Shear Modulus (GPa) = 17.09296 22.35643 19.72470
#
# Velocity S-wave (km/s) = 3.12059 3.56886 3.35222
# Velocity P-wave (km/s) = 5.96676 6.37001 6.17168
#
# Compressibility (1/GPa) = 0.02518823
#
# Stress axis : x y z
#
# Youngs Moduli (GPa) = 58.41137 46.56995 72.20226
#
# Poissons Ratio (x) = 0.46802 -0.30339
# Poissons Ratio (y) = 0.58702 0.56170
# Poissons Ratio (z) = -0.24544 0.36229
#
# Static dielectric constant tensor:
#      x y z
#    x 1.620620 0.000000 0.000000 
#    y 0.000000 1.634160 0.000000 
#    z 0.000000 0.000000 1.592560 
# 
# From -- ./inp_files/3402.got.cif
#   From: 2010.05.17/outbox.cif.g08.bks.cpg/sg18_2_cif.got.tgz:3402.got - 2010.06.03 22:40:56.
