data_PCOD9311752
_publ_section_title
;
Structure prediction by ZEFSAII (Michael W. Deem and Ramdas Pophale) SiO2 
 PCOD9311752
Probable space group: P 21 21 2
;
_chemical_formula_sum "Si O2"
_cell_formula_units_Z 32
_cell_length_a 12.321238
_cell_length_b 9.280641
_cell_length_c 13.422263
_cell_angle_alpha 90.000000
_cell_angle_beta 90.000000
_cell_angle_gamma 90.000000
_cell_volume 1534.822171
_symmetry_space_group_name_H-M "P 21 21 2"
_symmetry_group_IT_number 18
_symmetry_cell_setting 'orthorhombic'
loop_
_space_group_symop_operation_xyz
x,y,z
-x,-y,z
1/2+x,1/2-y,-z
1/2-x,1/2+y,-z
loop_
_atom_site_type_symbol
_atom_site_label
_atom_site_fract_x
_atom_site_fract_y
_atom_site_fract_z
Si Si1 0.747248 0.101411 0.795804
Si Si2 0.338206 0.353552 0.816437
Si Si3 0.099316 0.587011 0.086749
Si Si4 0.119992 0.167609 0.858224
Si Si5 0.696800 0.765268 0.403994
Si Si6 0.800104 0.864766 0.060415
Si Si7 0.975448 0.661805 0.695309
Si Si8 0.740296 0.597258 0.606134
O O1 0.755782 0.173026 0.688158
O O2 0.737089 0.226971 0.877417
O O3 0.642153 0.002860 0.817347
O O4 0.844624 0.989299 0.818328
O O5 0.421592 0.246190 0.870317
O O6 0.222761 0.275208 0.840552
O O7 0.335099 0.508726 0.866460
O O8 0.340804 0.368505 0.697639
O O9 0.000000 0.500000 0.043277
O O10 0.196075 0.588254 0.006214
O O11 0.027469 0.234252 0.790377
O O12 0.108488 0.163100 0.976584
O O13 0.570529 0.791151 0.378145
O O14 0.710045 0.678654 0.505686
O O15 0.749575 0.924793 0.407655
O O16 0.859074 0.654638 0.641281
O O17 0.000000 0.500000 0.730638
#
# Coordination Sequence:
#
# PCOD9311752 Si02
#       8
#     4   4   4   4   4   4   4   4
#     4  10  21  39  59  92 125 163 207 266 324 383
#     4   9  18  38  63  85 128 163 210 257 326 380
#     4  10  21  38  61  89 120 170 216 252 315 407
#     4   9  18  34  64  89 125 162 200 256 312 393
#     4  11  23  41  67  90 127 166 217 269 337 376
#     4  10  18  39  64  91 129 170 203 262 339 387
#     4   9  21  42  63 100 124 159 222 267 322 393
#     4  10  22  41  65  93 121 172 208 274 324 386
#
# _framework density 20.849322999999998
#
# number of rings (size 3 to 8) (size 9 to 14) (size 15 to 20)
#    0.000    2.500    1.250    3.000    5.250    0.500 
#    9.000    0.625   11.000    0.000    0.000    0.000 
#    0.000    0.000    0.000    0.000    0.000    0.000 
#
# Total GULP energy -178708.380969 kJ/mol
# GULP energy per Si atom -5584.636905 kJ/mol
# Density = 2.080187 g / cm^3
# Si number density = 20.849323 Si / 1000 Ang^3
#
#
#
# Elastic Constant Matrix: (Units=GPa)
#
#
# Indices 1 2 3 4 5 6 
#
# 1 35.7642 33.2344 25.2110 0.0000 0.0000 0.0000
# 2 33.2344 135.4152 74.3826 0.0000 0.0000 0.0000
# 3 25.2110 74.3826 154.6523 0.0000 0.0000 0.0000
# 4 0.0000 0.0000 0.0000 48.4424 0.0000 0.0000
# 5 0.0000 0.0000 0.0000 0.0000 15.4610 0.0000
# 6 0.0000 0.0000 0.0000 0.0000 0.0000 18.5830
#
#
#
# Elastic Compliance Matrix: (Units=1/GPa)
#
#
# Indices 1 2 3 4 5 6 
#
# 1 0.036788 -0.007794 -0.002249 0.000000 0.000000 0.000000
# 2 -0.007794 0.011687 -0.004351 0.000000 0.000000 0.000000
# 3 -0.002249 -0.004351 0.008925 0.000000 0.000000 0.000000
# 4 0.000000 0.000000 0.000000 0.020643 0.000000 0.000000
# 5 0.000000 0.000000 0.000000 0.000000 0.064679 0.000000
# 6 0.000000 0.000000 0.000000 0.000000 0.000000 0.053813
#
#
# Mechanical properties :
#
#
# Convention : Reuss Voigt Hill
#
# Bulk Modulus (GPa) = 34.94684 65.72085 50.33385
# Shear Modulus (GPa) = 21.28929 29.36418 25.32674
#
# Velocity S-wave (km/s) = 3.19894 3.75694 3.48911
# Velocity P-wave (km/s) = 5.51745 7.09998 6.35814
#
# Compressibility (1/GPa) = 0.02861489
#
# Stress axis : x y z
#
# Youngs Moduli (GPa) = 27.18250 85.56336 112.04203
#
# Poissons Ratio (x) = 0.66685 0.25194
# Poissons Ratio (y) = 0.21185 0.48746
# Poissons Ratio (z) = 0.06112 0.37226
#
# Static dielectric constant tensor:
#      x y z
#    x 1.821550 0.000000 0.000000 
#    y 0.000000 1.761290 0.000000 
#    z 0.000000 0.000000 1.721130 
# 
# From -- ./inp_files/6118.got.cif
#   From: 2010.05.17/outbox.cif.g08.bks.cpg/sg18_4_cif.got.tgz:6118.got - 2010.06.03 22:40:56.
