data_PCOD9311401
_publ_section_title
;
Structure prediction by ZEFSAII (Michael W. Deem and Ramdas Pophale) SiO2 
 PCOD9311401
Probable space group: P 2 2 21
;
_chemical_formula_sum "Si O2"
_cell_formula_units_Z 18
_cell_length_a 16.213294
_cell_length_b 4.716458
_cell_length_c 8.555464
_cell_angle_alpha 90.000000
_cell_angle_beta 90.000000
_cell_angle_gamma 90.000000
_cell_volume 654.230516
_symmetry_space_group_name_H-M "P 2 2 21"
_symmetry_group_IT_number 17
_symmetry_cell_setting 'orthorhombic'
loop_
_space_group_symop_operation_xyz
x,y,z
-x,-y,1/2+z
x,-y,-z
-x,y,1/2-z
loop_
_atom_site_type_symbol
_atom_site_label
_atom_site_fract_x
_atom_site_fract_y
_atom_site_fract_z
Si Si1 0.381644 0.259758 0.268893
Si Si2 0.871174 0.500000 0.000000
Si Si3 0.000000 0.604879 0.250000
Si Si4 0.521108 0.000000 0.500000
Si Si5 0.801756 0.500000 0.500000
Si Si6 0.272472 0.238577 0.695874
Si Si7 0.090654 0.000000 0.000000
O O1 0.410134 0.205417 0.089538
O O2 0.299190 0.083894 0.301462
O O3 0.450824 0.116705 0.377343
O O4 0.357496 0.575612 0.323029
O O5 0.805154 0.292471 0.916147
O O6 0.935644 0.567699 0.858969
O O7 0.956618 0.818746 0.371190
O O8 0.753010 0.655152 0.365738
O O9 0.854724 0.752330 0.575530
#
# Coordination Sequence:
#
# PCOD9311401 Si02
#       7
#     4   2   2   2   2   4   2
#     4  11  25  45  74 110 148 202 246 316 385 464
#     4  12  29  52  78 113 156 204 268 332 397 480
#     4  12  30  50  84 114 160 210 270 334 416 472
#     4  10  24  45  73 110 154 190 254 308 384 467
#     4  12  25  48  72 109 150 202 260 330 383 476
#     4  12  26  47  75 108 152 202 259 318 394 465
#     4  12  28  49  75 110 146 204 256 330 398 475
#
# _framework density 27.51324
#
# number of rings (size 3 to 8) (size 9 to 14) (size 15 to 20)
#    0.000    0.444    2.222    4.667    3.111    6.222 
#    0.000    0.000    0.000    0.000    0.000    0.000 
#    0.000    0.000    0.000    0.000    0.000    0.000 
#
# Total GULP energy -100311.949284 kJ/mol
# GULP energy per Si atom -5572.886071 kJ/mol
# Density = 2.745062 g / cm^3
# Si number density = 27.513240 Si / 1000 Ang^3
#
#
#
# Elastic Constant Matrix: (Units=GPa)
#
#
# Indices 1 2 3 4 5 6 
#
# 1 139.3467 29.5466 64.9032 0.0000 0.0000 0.0000
# 2 29.5466 81.4881 15.5906 0.0000 0.0000 0.0000
# 3 64.9032 15.5906 142.8859 0.0000 0.0000 0.0000
# 4 0.0000 0.0000 0.0000 39.0409 0.0000 0.0000
# 5 0.0000 0.0000 0.0000 0.0000 91.9280 0.0000
# 6 0.0000 0.0000 0.0000 0.0000 0.0000 -117.9958
#
#
#
# Elastic Compliance Matrix: (Units=1/GPa)
#
#
# Indices 1 2 3 4 5 6 
#
# 1 0.009658 -0.002719 -0.004090 0.000000 0.000000 0.000000
# 2 -0.002719 0.013299 -0.000216 0.000000 0.000000 0.000000
# 3 -0.004090 -0.000216 0.008880 0.000000 0.000000 0.000000
# 4 0.000000 0.000000 0.000000 0.025614 0.000000 0.000000
# 5 0.000000 0.000000 0.000000 0.000000 0.010878 0.000000
# 6 0.000000 0.000000 0.000000 0.000000 0.000000 -0.008475
#
#
# Mechanical properties :
#
#
# Convention : Reuss Voigt Hill
#
# Bulk Modulus (GPa) = 56.22339 64.86683 60.54511
# Shear Modulus (GPa) = 62.62974 19.50663 41.06819
#
# Velocity S-wave (km/s) = 4.77629 2.66558 3.86770
# Velocity P-wave (km/s) = 7.13419 5.75339 6.48067
#
# Compressibility (1/GPa) = 0.01778619
#
# Stress axis : x y z
#
# Youngs Moduli (GPa) = 103.54042 75.19342 112.61159
#
# Poissons Ratio (x) = 0.20448 0.46061
# Poissons Ratio (y) = 0.28156 0.02431
# Poissons Ratio (z) = 0.42351 0.01623
#
# Static dielectric constant tensor:
#      x y z
#    x 2.263430 0.000000 0.000000 
#    y 0.000000 2.108530 0.000000 
#    z 0.000000 0.000000 2.262450 
# 
# From -- ./inp_files/5356.got.cif
#   From: 2010.05.17/outbox.cif.g08.bks.cpg/sg17_3_cif.got.tgz:5356.got - 2010.06.03 22:34:06.
