data_PCOD9311568
_publ_section_title
;
Structure prediction by ZEFSAII (Michael W. Deem and Ramdas Pophale) SiO2 
 PCOD9311568
Probable space group: P 2 2 21
;
_chemical_formula_sum "Si O2"
_cell_formula_units_Z 12
_cell_length_a 10.826450
_cell_length_b 10.589137
_cell_length_c 4.863779
_cell_angle_alpha 90.000000
_cell_angle_beta 90.000000
_cell_angle_gamma 90.000000
_cell_volume 557.597060
_symmetry_space_group_name_H-M "P 2 2 21"
_symmetry_group_IT_number 17
_symmetry_cell_setting 'orthorhombic'
loop_
_space_group_symop_operation_xyz
x,y,z
-x,-y,1/2+z
x,-y,-z
-x,y,1/2-z
loop_
_atom_site_type_symbol
_atom_site_label
_atom_site_fract_x
_atom_site_fract_y
_atom_site_fract_z
Si Si1 0.232620 0.251450 0.834250
Si Si2 0.092117 0.000000 0.000000
Si Si3 0.000000 0.590315 0.250000
Si Si4 0.361138 0.636711 0.636081
O O1 0.339395 0.261592 0.606092
O O2 0.117190 0.322630 0.695271
O O3 0.179947 0.115674 0.915326
O O4 0.276284 0.325753 0.105969
O O5 0.000000 0.965071 0.750000
O O6 0.971395 0.500000 0.500000
O O7 0.333784 0.500000 0.500000
O O8 0.500000 0.633161 0.750000
#
# Coordination Sequence:
#
# PCOD9311568 Si02
#       4
#     4   2   2   4
#     4  12  25  44  69 103 137 183 237 278 348 416
#     4  12  26  48  70  98 144 194 230 284 352 418
#     4  12  24  38  64 102 140 166 218 294 350 406
#     4  12  25  45  71 103 140 183 228 287 350 416
#
# _framework density 21.520917000000001
#
# number of rings (size 3 to 8) (size 9 to 14) (size 15 to 20)
#    0.000    0.000    1.667   11.000    2.333    0.000 
#    0.000    3.333    0.000    2.000    0.000    0.000 
#    0.000    0.000    0.000    0.000    0.000    0.000 
#
# Total GULP energy -67199.605821 kJ/mol
# GULP energy per Si atom -5599.967152 kJ/mol
# Density = 2.147193 g / cm^3
# Si number density = 21.520917 Si / 1000 Ang^3
#
#
#
# Elastic Constant Matrix: (Units=GPa)
#
#
# Indices 1 2 3 4 5 6 
#
# 1 87.6504 52.8525 24.0868 0.0000 0.0000 0.0000
# 2 52.8525 107.6672 13.6148 0.0000 0.0000 0.0000
# 3 24.0868 13.6148 109.6698 0.0000 0.0000 0.0000
# 4 0.0000 0.0000 0.0000 22.1846 0.0000 0.0000
# 5 0.0000 0.0000 0.0000 0.0000 58.7609 0.0000
# 6 0.0000 0.0000 0.0000 0.0000 0.0000 25.4337
#
#
#
# Elastic Compliance Matrix: (Units=1/GPa)
#
#
# Indices 1 2 3 4 5 6 
#
# 1 0.016978 -0.007988 -0.002737 0.000000 0.000000 0.000000
# 2 -0.007988 0.013194 0.000116 0.000000 0.000000 0.000000
# 3 -0.002737 0.000116 0.009705 0.000000 0.000000 0.000000
# 4 0.000000 0.000000 0.000000 0.045076 0.000000 0.000000
# 5 0.000000 0.000000 0.000000 0.000000 0.017018 0.000000
# 6 0.000000 0.000000 0.000000 0.000000 0.000000 0.039318
#
#
# Mechanical properties :
#
#
# Convention : Reuss Voigt Hill
#
# Bulk Modulus (GPa) = 53.59181 54.01065 53.80123
# Shear Modulus (GPa) = 29.63359 35.57138 32.60249
#
# Velocity S-wave (km/s) = 3.71478 4.06997 3.89642
# Velocity P-wave (km/s) = 6.58450 6.87295 6.73027
#
# Compressibility (1/GPa) = 0.01865957
#
# Stress axis : x y z
#
# Youngs Moduli (GPa) = 58.89998 75.78955 103.03974
#
# Poissons Ratio (x) = 0.60542 0.28204
# Poissons Ratio (y) = 0.47050 -0.01200
# Poissons Ratio (z) = 0.16122 -0.00882
#
# Static dielectric constant tensor:
#      x y z
#    x 1.774920 0.000000 0.000000 
#    y 0.000000 1.760890 0.000000 
#    z 0.000000 0.000000 1.795570 
# 
# From -- ./inp_files/1159.got.cif
#   From: 2010.05.17/outbox.cif.g08.bks.cpg/sg17_1_cif.got.tgz:1159.got - 2010.06.03 22:34:06.
