data_PCOD9311239
_publ_section_title
;
Structure prediction by ZEFSAII (Michael W. Deem and Ramdas Pophale) SiO2 
 PCOD9311239
Probable space group: P 2 2 21
;
_chemical_formula_sum "Si O2"
_cell_formula_units_Z 32
_cell_length_a 7.900833
_cell_length_b 15.885575
_cell_length_c 12.024529
_cell_angle_alpha 90.000000
_cell_angle_beta 90.000000
_cell_angle_gamma 90.000000
_cell_volume 1509.189919
_symmetry_space_group_name_H-M "P 2 2 21"
_symmetry_group_IT_number 17
_symmetry_cell_setting 'orthorhombic'
loop_
_space_group_symop_operation_xyz
x,y,z
-x,-y,1/2+z
x,-y,-z
-x,y,1/2-z
loop_
_atom_site_type_symbol
_atom_site_label
_atom_site_fract_x
_atom_site_fract_y
_atom_site_fract_z
Si Si1 0.860361 0.100479 0.500985
Si Si2 0.795208 0.828351 0.262965
Si Si3 0.446250 0.173135 0.125173
Si Si4 0.805672 0.462874 0.252763
Si Si5 0.428674 0.373374 0.125225
Si Si6 0.191570 0.351953 0.706807
Si Si7 0.754863 0.405608 0.023716
Si Si8 0.253384 0.099644 0.525400
O O1 0.775154 0.131772 0.616139
O O2 0.733292 0.132680 0.406833
O O3 0.059087 0.126934 0.494202
O O4 0.862666 0.000000 0.500000
O O5 0.727797 0.732506 0.256076
O O6 0.728048 0.880078 0.156914
O O7 0.000000 0.826243 0.250000
O O8 0.500000 0.150342 0.250000
O O9 0.421939 0.273787 0.119809
O O10 0.599063 0.145731 0.043575
O O11 0.747184 0.421602 0.367431
O O12 0.726117 0.556103 0.230905
O O13 0.000000 0.482864 0.250000
O O14 0.795468 0.393457 0.152859
O O15 0.500000 0.398714 0.250000
O O16 0.551428 0.404023 0.028879
O O17 0.185059 0.345233 0.572593
O O18 0.000000 0.351190 0.750000
O O19 0.817151 0.500000 0.000000
O O20 0.266802 0.000000 0.500000
#
# Coordination Sequence:
#
# PCOD9311239 Si02
#       8
#     4   4   4   4   4   4   4   4
#     4  10  23  43  66  94 129 166 214 263 320 397
#     4   9  19  38  62  94 127 161 211 272 319 381
#     4  11  24  41  61  95 129 165 215 263 311 384
#     4   9  18  35  56  86 118 161 211 258 312 374
#     4   9  19  38  53  79 121 155 204 252 304 373
#     4   9  17  33  59  89 121 157 212 266 312 373
#     4   9  17  33  57  78 115 166 198 250 317 362
#     4  10  22  41  68  94 126 173 207 263 335 383
#
# _framework density 21.203429
#
# number of rings (size 3 to 8) (size 9 to 14) (size 15 to 20)
#    0.000    2.500    0.000    1.125    1.750    1.000 
#   15.750    1.875    2.750    0.000    0.000    0.000 
#    0.000    0.000    0.000    0.000    0.000    0.000 
#
# Total GULP energy -178201.043482 kJ/mol
# GULP energy per Si atom -5568.782609 kJ/mol
# Density = 2.115517 g / cm^3
# Si number density = 21.203429 Si / 1000 Ang^3
#
#
#
# Elastic Constant Matrix: (Units=GPa)
#
#
# Indices 1 2 3 4 5 6 
#
# 1 53.4728 17.6079 15.4447 0.0000 0.0000 0.0000
# 2 17.6079 97.3129 25.9896 0.0000 0.0000 0.0000
# 3 15.4447 25.9896 60.9104 0.0000 0.0000 0.0000
# 4 0.0000 0.0000 0.0000 31.0602 0.0000 0.0000
# 5 0.0000 0.0000 0.0000 0.0000 35.3442 0.0000
# 6 0.0000 0.0000 0.0000 0.0000 0.0000 86.7810
#
#
#
# Elastic Compliance Matrix: (Units=1/GPa)
#
#
# Indices 1 2 3 4 5 6 
#
# 1 0.020769 -0.002654 -0.004134 0.000000 0.000000 0.000000
# 2 -0.002654 0.011937 -0.004420 0.000000 0.000000 0.000000
# 3 -0.004134 -0.004420 0.019352 0.000000 0.000000 0.000000
# 4 0.000000 0.000000 0.000000 0.032196 0.000000 0.000000
# 5 0.000000 0.000000 0.000000 0.000000 0.028293 0.000000
# 6 0.000000 0.000000 0.000000 0.000000 0.000000 0.011523
#
#
# Mechanical properties :
#
#
# Convention : Reuss Voigt Hill
#
# Bulk Modulus (GPa) = 33.73658 36.64229 35.18943
# Shear Modulus (GPa) = 31.97614 40.81402 36.39508
#
# Velocity S-wave (km/s) = 3.88759 4.39210 4.14753
# Velocity P-wave (km/s) = 6.00805 6.56046 6.29032
#
# Compressibility (1/GPa) = 0.02964142
#
# Stress axis : x y z
#
# Youngs Moduli (GPa) = 48.14866 83.77398 51.67456
#
# Poissons Ratio (x) = 0.22233 0.21362
# Poissons Ratio (y) = 0.12778 0.22842
# Poissons Ratio (z) = 0.19904 0.37031
#
# Static dielectric constant tensor:
#      x y z
#    x 2.021030 0.000000 0.000000 
#    y 0.000000 1.769090 0.000000 
#    z 0.000000 0.000000 1.803890 
# 
# From -- ./inp_files/6729.got.cif
#   From: 2010.05.17/outbox.cif.g08.bks.cpg/sg17_4_cif.got.tgz:6729.got - 2010.06.03 22:34:06.
