data_PCOD9311036
_publ_section_title
;
Structure prediction by ZEFSAII (Michael W. Deem and Ramdas Pophale) SiO2 
 PCOD9311036
Probable space group: P 2 2 21
;
_chemical_formula_sum "Si O2"
_cell_formula_units_Z 24
_cell_length_a 5.239825
_cell_length_b 24.896708
_cell_length_c 8.989468
_cell_angle_alpha 90.000000
_cell_angle_beta 90.000000
_cell_angle_gamma 90.000000
_cell_volume 1172.715591
_symmetry_space_group_name_H-M "P 2 2 21"
_symmetry_group_IT_number 17
_symmetry_cell_setting 'orthorhombic'
loop_
_space_group_symop_operation_xyz
x,y,z
-x,-y,1/2+z
x,-y,-z
-x,y,1/2-z
loop_
_atom_site_type_symbol
_atom_site_label
_atom_site_fract_x
_atom_site_fract_y
_atom_site_fract_z
Si Si1 0.000000 0.166162 0.250000
Si Si2 0.246536 0.536253 0.852993
Si Si3 0.698906 0.135690 0.996581
Si Si4 0.733545 0.029239 0.845376
Si Si5 0.751084 0.340176 0.350128
Si Si6 0.301717 0.769312 0.004491
Si Si7 0.000000 0.187731 0.750000
O O1 0.871944 0.204421 0.372972
O O2 0.197810 0.128603 0.337738
O O3 0.500000 0.531249 0.750000
O O4 0.218353 0.598631 0.903704
O O5 0.000000 0.523744 0.750000
O O6 0.260735 0.500000 0.000000
O O7 0.595571 0.083841 0.912586
O O8 0.927151 0.149918 0.885146
O O9 0.542539 0.191062 0.002940
O O10 0.500000 0.003899 0.750000
O O11 0.000000 0.034576 0.750000
O O12 0.802725 0.000000 0.000000
O O13 0.500000 0.339933 0.250000
O O14 0.696389 0.293215 0.467174
O O15 0.000000 0.327516 0.250000
O O16 0.208448 0.775632 0.173190
#
# Coordination Sequence:
#
# PCOD9311036 Si02
#       7
#     2   4   4   4   4   4   2
#     4  10  22  34  63  94 119 164 216 264 306 408
#     4  10  21  40  65  94 129 176 229 283 340 398
#     4  11  23  41  65  92 130 167 217 260 339 385
#     4  12  28  50  75 102 137 177 222 283 337 400
#     4  10  21  38  62  91 131 173 218 275 331 392
#     4  11  21  38  59  93 128 171 216 264 325 398
#     4  10  22  38  57  86 127 168 206 256 330 384
#
# _framework density 20.465319000000001
#
# number of rings (size 3 to 8) (size 9 to 14) (size 15 to 20)
#    0.000    1.333    1.667    4.000    5.833    1.333 
#    1.500    1.667    0.000    0.000    0.000    0.000 
#    0.000    0.000    0.000    0.000    0.000    0.000 
#
# Total GULP energy -133608.761115 kJ/mol
# GULP energy per Si atom -5567.031713 kJ/mol
# Density = 2.041874 g / cm^3
# Si number density = 20.465319 Si / 1000 Ang^3
#
#
#
# Elastic Constant Matrix: (Units=GPa)
#
#
# Indices 1 2 3 4 5 6 
#
# 1 100.0795 9.3233 32.0267 0.0000 0.0000 0.0000
# 2 9.3233 62.1984 32.4365 0.0000 0.0000 0.0000
# 3 32.0267 32.4365 106.7421 0.0000 0.0000 0.0000
# 4 0.0000 0.0000 0.0000 -71.8412 0.0000 0.0000
# 5 0.0000 0.0000 0.0000 0.0000 33.9870 0.0000
# 6 0.0000 0.0000 0.0000 0.0000 0.0000 21.6580
#
#
#
# Elastic Compliance Matrix: (Units=1/GPa)
#
#
# Indices 1 2 3 4 5 6 
#
# 1 0.011054 0.000086 -0.003343 0.000000 0.000000 0.000000
# 2 0.000086 0.019106 -0.005832 0.000000 0.000000 0.000000
# 3 -0.003343 -0.005832 0.012143 0.000000 0.000000 0.000000
# 4 0.000000 0.000000 0.000000 -0.013920 0.000000 0.000000
# 5 0.000000 0.000000 0.000000 0.000000 0.029423 0.000000
# 6 0.000000 0.000000 0.000000 0.000000 0.000000 0.046172
#
#
# Mechanical properties :
#
#
# Convention : Reuss Voigt Hill
#
# Bulk Modulus (GPa) = 41.44779 46.28810 43.86795
# Shear Modulus (GPa) = 38.40323 9.77634 24.08979
#
# Velocity S-wave (km/s) = 4.33656 2.18801 3.43462
# Velocity P-wave (km/s) = 6.73580 5.38982 6.10005
#
# Compressibility (1/GPa) = 0.02412674
#
# Stress axis : x y z
#
# Youngs Moduli (GPa) = 90.46706 52.33985 82.34877
#
# Poissons Ratio (x) = -0.00452 0.27527
# Poissons Ratio (y) = -0.00781 0.48024
# Poissons Ratio (z) = 0.30241 0.30523
#
# Static dielectric constant tensor:
#      x y z
#    x 1.917400 0.000000 0.000000 
#    y 0.000000 1.856730 0.000000 
#    z 0.000000 0.000000 1.739790 
# 
# From -- ./inp_files/3576.got.cif
#   From: 2010.05.17/outbox.cif.g08.bks.cpg/sg17_2_cif.got.tgz:3576.got - 2010.06.03 22:34:06.
