data_PCOD9311215
_publ_section_title
;
Structure prediction by ZEFSAII (Michael W. Deem and Ramdas Pophale) SiO2 
 PCOD9311215
Probable space group: P 2 2 21
;
_chemical_formula_sum "Si O2"
_cell_formula_units_Z 20
_cell_length_a 13.112761
_cell_length_b 10.737681
_cell_length_c 5.857621
_cell_angle_alpha 90.000000
_cell_angle_beta 90.000000
_cell_angle_gamma 90.000000
_cell_volume 824.756813
_symmetry_space_group_name_H-M "P 2 2 21"
_symmetry_group_IT_number 17
_symmetry_cell_setting 'orthorhombic'
loop_
_space_group_symop_operation_xyz
x,y,z
-x,-y,1/2+z
x,-y,-z
-x,y,1/2-z
loop_
_atom_site_type_symbol
_atom_site_label
_atom_site_fract_x
_atom_site_fract_y
_atom_site_fract_z
Si Si1 0.313128 0.531025 0.240031
Si Si2 0.883180 0.646632 0.757125
Si Si3 0.247971 0.210446 0.617300
Si Si4 0.464900 0.854527 0.504257
Si Si5 0.090429 0.130887 0.905176
O O1 0.353028 0.500000 0.500000
O O2 0.204282 0.457262 0.227807
O O3 0.293660 0.677632 0.233405
O O4 0.368727 0.500000 0.000000
O O5 0.885202 0.758927 0.577124
O O6 0.000000 0.596678 0.750000
O O7 0.840465 0.719500 0.977417
O O8 0.342780 0.157693 0.481889
O O9 0.192858 0.106207 0.763911
O O10 0.500000 0.806197 0.250000
O O11 0.496884 0.000000 0.500000
O O12 0.500000 0.799447 0.750000
O O13 0.000000 0.178448 0.750000
O O14 0.053820 0.000000 0.000000
#
# Coordination Sequence:
#
# PCOD9311215 Si02
#       5
#     4   4   4   4   4
#     4  10  22  40  64  98 132 177 234 284 334 411
#     4  11  23  41  65  95 143 191 237 285 344 429
#     4  11  25  43  69 100 139 185 235 302 363 421
#     4  10  25  46  73 105 140 184 241 302 369 441
#     4  12  26  39  61  98 147 191 239 287 357 437
#
# _framework density 24.249573000000002
#
# number of rings (size 3 to 8) (size 9 to 14) (size 15 to 20)
#    0.000    1.200    4.000    0.600    5.600    4.000 
#    0.000    0.000    0.000   14.400    0.000    0.000 
#    0.000    0.000    0.000    0.000    0.000    0.000 
#
# Total GULP energy -111525.564526 kJ/mol
# GULP energy per Si atom -5576.278226 kJ/mol
# Density = 2.419438 g / cm^3
# Si number density = 24.249573 Si / 1000 Ang^3
#
#
#
# Elastic Constant Matrix: (Units=GPa)
#
#
# Indices 1 2 3 4 5 6 
#
# 1 69.2009 9.4087 29.1267 0.0000 0.0000 0.0000
# 2 9.4087 24.1649 15.8004 0.0000 0.0000 0.0000
# 3 29.1267 15.8004 161.5093 0.0000 0.0000 0.0000
# 4 0.0000 0.0000 0.0000 31.0728 0.0000 0.0000
# 5 0.0000 0.0000 0.0000 0.0000 32.0405 0.0000
# 6 0.0000 0.0000 0.0000 0.0000 0.0000 32.7871
#
#
#
# Elastic Compliance Matrix: (Units=1/GPa)
#
#
# Indices 1 2 3 4 5 6 
#
# 1 0.016117 -0.004674 -0.002449 0.000000 0.000000 0.000000
# 2 -0.004674 0.045566 -0.003615 0.000000 0.000000 0.000000
# 3 -0.002449 -0.003615 0.006987 0.000000 0.000000 0.000000
# 4 0.000000 0.000000 0.000000 0.032182 0.000000 0.000000
# 5 0.000000 0.000000 0.000000 0.000000 0.031210 0.000000
# 6 0.000000 0.000000 0.000000 0.000000 0.000000 0.030500
#
#
# Mechanical properties :
#
#
# Convention : Reuss Voigt Hill
#
# Bulk Modulus (GPa) = 21.18917 40.39405 30.79161
# Shear Modulus (GPa) = 25.02887 32.54938 28.78912
#
# Velocity S-wave (km/s) = 3.21617 3.66767 3.44932
# Velocity P-wave (km/s) = 4.74854 5.88469 5.34688
#
# Compressibility (1/GPa) = 0.04719392
#
# Stress axis : x y z
#
# Youngs Moduli (GPa) = 62.04608 21.94638 143.12420
#
# Poissons Ratio (x) = 0.10257 0.35056
# Poissons Ratio (y) = 0.28999 0.51736
# Poissons Ratio (z) = 0.15197 0.07933
#
# Static dielectric constant tensor:
#      x y z
#    x 1.916280 0.000000 0.000000 
#    y 0.000000 1.876910 0.000000 
#    z 0.000000 0.000000 2.016660 
# 
# From -- ./inp_files/2054.got.cif
#   From: 2010.05.17/outbox.cif.g08.bks.cpg/sg17_2_cif.got.tgz:2054.got - 2010.06.03 22:34:06.
