data_PCOD9311773
_publ_section_title
;
Structure prediction by ZEFSAII (Michael W. Deem and Ramdas Pophale) SiO2 
 PCOD9311773
Probable space group: P 21 21 2
;
_chemical_formula_sum "Si O2"
_cell_formula_units_Z 22
_cell_length_a 5.835530
_cell_length_b 17.746784
_cell_length_c 9.243962
_cell_angle_alpha 90.000000
_cell_angle_beta 90.000000
_cell_angle_gamma 90.000000
_cell_volume 957.322180
_symmetry_space_group_name_H-M "P 21 21 2"
_symmetry_group_IT_number 18
_symmetry_cell_setting 'orthorhombic'
loop_
_space_group_symop_operation_xyz
x,y,z
-x,-y,z
1/2+x,1/2-y,-z
1/2-x,1/2+y,-z
loop_
_atom_site_type_symbol
_atom_site_label
_atom_site_fract_x
_atom_site_fract_y
_atom_site_fract_z
Si Si1 0.962622 0.679178 0.990210
Si Si2 0.536014 0.775218 0.677931
Si Si3 0.239858 0.862914 0.446914
Si Si4 0.370934 0.594639 0.337524
Si Si5 0.000000 0.500000 0.499576
Si Si6 0.534919 0.353104 0.033149
O O1 0.960518 0.697344 0.163372
O O2 0.718510 0.638700 0.962376
O O3 0.210768 0.640886 0.959003
O O4 0.963491 0.763321 0.922752
O O5 0.359771 0.803967 0.557130
O O6 0.598687 0.687774 0.664728
O O7 0.763280 0.822611 0.647083
O O8 0.067755 0.909092 0.546506
O O9 0.415507 0.928923 0.403677
O O10 0.454074 0.593162 0.172894
O O11 0.176849 0.538041 0.387524
#
# Coordination Sequence:
#
# PCOD9311773 Si02
#       6
#     4   4   4   4   2   4
#     4   9  17  30  49  83 112 139 168 230 280 334
#     4  10  19  30  54  80 113 140 186 231 292 326
#     4  11  19  34  51  79 111 149 184 239 282 347
#     4  10  19  34  51  77 111 145 182 236 283 344
#     4  10  24  34  50  78 114 150 194 226 294 344
#     4   9  17  30  52  77 115 136 175 221 287 330
#
# _framework density 22.980772000000002
#
# number of rings (size 3 to 8) (size 9 to 14) (size 15 to 20)
#    0.000    2.182    3.636    0.545    0.000    0.000 
#    0.000    0.000    0.000    0.000    0.000    7.636 
#    0.000    0.000    0.000    0.000    0.000    0.000 
#
# Total GULP energy -122531.907033 kJ/mol
# GULP energy per Si atom -5569.632138 kJ/mol
# Density = 2.292847 g / cm^3
# Si number density = 22.980772 Si / 1000 Ang^3
#
#
#
# Elastic Constant Matrix: (Units=GPa)
#
#
# Indices 1 2 3 4 5 6 
#
# 1 144.9153 27.1983 13.2463 0.0000 0.0000 0.0000
# 2 27.1983 89.9426 6.2155 0.0000 0.0000 0.0000
# 3 13.2463 6.2155 22.5615 0.0000 0.0000 0.0000
# 4 0.0000 0.0000 0.0000 0.5346 0.0000 0.0000
# 5 0.0000 0.0000 0.0000 0.0000 18.4967 0.0000
# 6 0.0000 0.0000 0.0000 0.0000 0.0000 3.1046
#
#
#
# Elastic Compliance Matrix: (Units=1/GPa)
#
#
# Indices 1 2 3 4 5 6 
#
# 1 0.007642 -0.002040 -0.003925 0.000000 0.000000 0.000000
# 2 -0.002040 0.011878 -0.002075 0.000000 0.000000 0.000000
# 3 -0.003925 -0.002075 0.047199 0.000000 0.000000 0.000000
# 4 0.000000 0.000000 0.000000 1.870530 0.000000 0.000000
# 5 0.000000 0.000000 0.000000 0.000000 0.054064 0.000000
# 6 0.000000 0.000000 0.000000 0.000000 0.000000 0.322098
#
#
# Mechanical properties :
#
#
# Convention : Reuss Voigt Hill
#
# Bulk Modulus (GPa) = 19.74694 38.97109 29.35901
# Shear Modulus (GPa) = 2.13095 18.47781 10.30438
#
# Velocity S-wave (km/s) = 0.96400 2.83866 2.11982
# Velocity P-wave (km/s) = 3.13855 5.26678 4.33529
#
# Compressibility (1/GPa) = 0.05064077
#
# Stress axis : x y z
#
# Youngs Moduli (GPa) = 130.85279 84.18652 21.18679
#
# Poissons Ratio (x) = 0.17172 0.08316
# Poissons Ratio (y) = 0.26690 0.04396
# Poissons Ratio (z) = 0.51359 0.17467
#
# Static dielectric constant tensor:
#      x y z
#    x 1.978520 0.000000 0.000000 
#    y 0.000000 1.821230 0.000000 
#    z 0.000000 0.000000 1.899700 
# 
# From -- ./inp_files/5094.got.cif
#   From: 2010.05.17/outbox.cif.g08.bks.cpg/sg18_3_cif.got.tgz:5094.got - 2010.06.03 22:40:56.
