data_PCOD9311689
_publ_section_title
;
Structure prediction by ZEFSAII (Michael W. Deem and Ramdas Pophale) SiO2 
 PCOD9311689
Probable space group: P 21 21 2
;
_chemical_formula_sum "Si O2"
_cell_formula_units_Z 28
_cell_length_a 9.056919
_cell_length_b 20.425600
_cell_length_c 6.081171
_cell_angle_alpha 90.000000
_cell_angle_beta 90.000000
_cell_angle_gamma 90.000000
_cell_volume 1124.974096
_symmetry_space_group_name_H-M "P 21 21 2"
_symmetry_group_IT_number 18
_symmetry_cell_setting 'orthorhombic'
loop_
_space_group_symop_operation_xyz
x,y,z
-x,-y,z
1/2+x,1/2-y,-z
1/2-x,1/2+y,-z
loop_
_atom_site_type_symbol
_atom_site_label
_atom_site_fract_x
_atom_site_fract_y
_atom_site_fract_z
Si Si1 0.331475 0.022718 0.240570
Si Si2 0.822744 0.624078 0.826364
Si Si3 0.371910 0.399409 0.190400
Si Si4 0.095139 0.699706 0.807490
Si Si5 0.413809 0.686444 0.953973
Si Si6 0.676155 0.976480 0.734841
Si Si7 0.603734 0.704290 0.555911
O O1 0.262082 0.947944 0.235514
O O2 0.299569 0.053365 0.485311
O O3 0.500000 0.000000 0.245755
O O4 0.306494 0.049467 0.989433
O O5 0.743249 0.681155 0.695207
O O6 0.995000 0.635554 0.793188
O O7 0.774351 0.632779 0.078549
O O8 0.307592 0.469142 0.256789
O O9 0.417604 0.356805 0.395325
O O10 0.504232 0.381859 0.019891
O O11 0.238691 0.689857 0.955325
O O12 0.131903 0.728595 0.569386
O O13 0.992280 0.756826 0.906284
O O14 0.463076 0.705554 0.709821
O O15 0.500000 0.000000 0.731301
#
# Coordination Sequence:
#
# PCOD9311689 Si02
#       7
#     4   4   4   4   4   4   4
#     4   9  17  30  52  83 113 136 178 233 286 324
#     4  10  19  32  52  76 108 138 181 229 275 333
#     4   9  18  32  50  74 105 134 176 226 274 322
#     4  11  21  34  49  72 104 146 184 223 274 329
#     4  10  21  33  49  70 104 142 184 226 271 328
#     4   9  16  29  52  83 113 134 175 227 283 325
#     4  10  18  32  49  70 101 140 182 222 271 322
#
# _framework density 24.889462000000002
#
# number of rings (size 3 to 8) (size 9 to 14) (size 15 to 20)
#    0.000    2.286    1.429    3.429    0.000    1.143 
#    0.000    0.000    0.000    0.000    0.000   25.000 
#    0.000    0.000    0.000    0.000    0.000    0.000 
#
# Total GULP energy -155889.685392 kJ/mol
# GULP energy per Si atom -5567.488764 kJ/mol
# Density = 2.483281 g / cm^3
# Si number density = 24.889462 Si / 1000 Ang^3
#
#
#
# Elastic Constant Matrix: (Units=GPa)
#
#
# Indices 1 2 3 4 5 6 
#
# 1 100.2088 16.4927 6.8404 0.0000 0.0000 0.0000
# 2 16.4927 60.8884 18.0243 0.0000 0.0000 0.0000
# 3 6.8404 18.0243 158.2390 0.0000 0.0000 0.0000
# 4 0.0000 0.0000 0.0000 16.7476 0.0000 0.0000
# 5 0.0000 0.0000 0.0000 0.0000 -15.7040 0.0000
# 6 0.0000 0.0000 0.0000 0.0000 0.0000 33.1398
#
#
#
# Elastic Compliance Matrix: (Units=1/GPa)
#
#
# Indices 1 2 3 4 5 6 
#
# 1 0.010448 -0.002790 -0.000134 0.000000 0.000000 0.000000
# 2 -0.002790 0.017742 -0.001900 0.000000 0.000000 0.000000
# 3 -0.000134 -0.001900 0.006542 0.000000 0.000000 0.000000
# 4 0.000000 0.000000 0.000000 0.059710 0.000000 0.000000
# 5 0.000000 0.000000 0.000000 0.000000 -0.063678 0.000000
# 6 0.000000 0.000000 0.000000 0.000000 0.000000 0.030175
#
#
# Mechanical properties :
#
#
# Convention : Reuss Voigt Hill
#
# Bulk Modulus (GPa) = 39.86859 44.67234 42.27047
# Shear Modulus (GPa) = 63.33274 25.36859 44.35066
#
# Velocity S-wave (km/s) = 5.04984 3.19603 4.22584
# Velocity P-wave (km/s) = 7.07490 5.62199 6.38987
#
# Compressibility (1/GPa) = 0.02508240
#
# Stress axis : x y z
#
# Youngs Moduli (GPa) = 95.71638 56.36406 152.86337
#
# Poissons Ratio (x) = 0.15727 0.02045
# Poissons Ratio (y) = 0.26708 0.29048
# Poissons Ratio (z) = 0.01281 0.10711
#
# Static dielectric constant tensor:
#      x y z
#    x 2.011490 0.000000 0.000000 
#    y 0.000000 2.103430 0.000000 
#    z 0.000000 0.000000 2.046420 
# 
# From -- ./inp_files/715.got.cif
#   From: 2010.05.17/outbox.cif.g08.bks.cpg/sg18_1_cif.got.tgz:715.got - 2010.06.03 22:40:56.
