data_PCOD9311978
_publ_section_title
;
Structure prediction by ZEFSAII (Michael W. Deem and Ramdas Pophale) SiO2 
 PCOD9311978
Probable space group: P 21 21 2
;
_chemical_formula_sum "Si O2"
_cell_formula_units_Z 24
_cell_length_a 7.518863
_cell_length_b 16.648993
_cell_length_c 9.836434
_cell_angle_alpha 90.000000
_cell_angle_beta 90.000000
_cell_angle_gamma 90.000000
_cell_volume 1231.339538
_symmetry_space_group_name_H-M "P 21 21 2"
_symmetry_group_IT_number 18
_symmetry_cell_setting 'orthorhombic'
loop_
_space_group_symop_operation_xyz
x,y,z
-x,-y,z
1/2+x,1/2-y,-z
1/2-x,1/2+y,-z
loop_
_atom_site_type_symbol
_atom_site_label
_atom_site_fract_x
_atom_site_fract_y
_atom_site_fract_z
Si Si1 0.260633 0.921811 0.329737
Si Si2 0.165120 0.770403 0.195296
Si Si3 0.109944 0.687690 0.648832
Si Si4 0.500000 0.000000 0.111173
Si Si5 0.500000 0.500000 0.456038
Si Si6 0.970134 0.323513 0.945657
Si Si7 0.365615 0.665411 0.406432
O O1 0.125476 0.853341 0.273458
O O2 0.442635 0.874094 0.371939
O O3 0.160244 0.968009 0.448291
O O4 0.333070 0.980091 0.210821
O O5 0.341744 0.798128 0.115671
O O6 0.221410 0.703116 0.303878
O O7 0.053074 0.729448 0.078271
O O8 0.151936 0.689399 0.810386
O O9 0.273026 0.666009 0.553418
O O10 0.031810 0.773893 0.603866
O O11 0.466080 0.081148 0.028231
O O12 0.428883 0.576093 0.373204
#
# Coordination Sequence:
#
# PCOD9311978 Si02
#       7
#     4   4   4   2   2   4   4
#     4   9  19  33  53  79 105 137 179 214 263 325
#     4   9  20  36  52  76 106 141 177 211 260 325
#     4   9  19  37  56  76 105 141 177 218 264 324
#     4   8  16  34  52  74 100 132 176 226 260 306
#     4  12  20  32  54  82 110 140 174 228 272 304
#     4   9  18  34  54  74 103 137 173 215 262 312
#     4  10  20  34  54  79 108 136 177 221 265 317
#
# _framework density 19.490967999999999
#
# number of rings (size 3 to 8) (size 9 to 14) (size 15 to 20)
#    0.000    3.333    0.000    4.000    0.000    4.000 
#    0.000    8.333    0.000    1.000    0.000    0.000 
#    0.000    0.000    0.000    0.000    0.000    0.000 
#
# Total GULP energy -133663.327263 kJ/mol
# GULP energy per Si atom -5569.305303 kJ/mol
# Density = 1.944661 g / cm^3
# Si number density = 19.490968 Si / 1000 Ang^3
#
#
#
# Elastic Constant Matrix: (Units=GPa)
#
#
# Indices 1 2 3 4 5 6 
#
# 1 26.3241 11.9450 17.3455 0.0000 0.0000 0.0000
# 2 11.9450 107.0624 19.3964 0.0000 0.0000 0.0000
# 3 17.3455 19.3964 30.9796 0.0000 0.0000 0.0000
# 4 0.0000 0.0000 0.0000 19.3397 0.0000 0.0000
# 5 0.0000 0.0000 0.0000 0.0000 23.8583 0.0000
# 6 0.0000 0.0000 0.0000 0.0000 0.0000 19.4684
#
#
#
# Elastic Compliance Matrix: (Units=1/GPa)
#
#
# Indices 1 2 3 4 5 6 
#
# 1 0.060241 -0.000689 -0.033298 0.000000 0.000000 0.000000
# 2 -0.000689 0.010543 -0.006216 0.000000 0.000000 0.000000
# 3 -0.033298 -0.006216 0.054815 0.000000 0.000000 0.000000
# 4 0.000000 0.000000 0.000000 0.051707 0.000000 0.000000
# 5 0.000000 0.000000 0.000000 0.000000 0.041914 0.000000
# 6 0.000000 0.000000 0.000000 0.000000 0.000000 0.051365
#
#
# Mechanical properties :
#
#
# Convention : Reuss Voigt Hill
#
# Bulk Modulus (GPa) = 22.12653 29.08221 25.60437
# Shear Modulus (GPa) = 13.65914 20.24523 16.95218
#
# Velocity S-wave (km/s) = 2.65012 3.22638 2.95234
# Velocity P-wave (km/s) = 4.55423 5.36960 4.97864
#
# Compressibility (1/GPa) = 0.04519461
#
# Stress axis : x y z
#
# Youngs Moduli (GPa) = 16.59990 94.84732 18.24330
#
# Poissons Ratio (x) = 0.06531 0.60747
# Poissons Ratio (y) = 0.01143 0.11339
# Poissons Ratio (z) = 0.55275 0.58954
#
# Static dielectric constant tensor:
#      x y z
#    x 1.727220 0.000000 0.000000 
#    y 0.000000 1.721730 0.000000 
#    z 0.000000 0.000000 1.726110 
# 
# From -- ./inp_files/5709.got.cif
#   From: 2010.05.17/outbox.cif.g08.bks.cpg/sg18_3_cif.got.tgz:5709.got - 2010.06.03 22:40:56.
