data_PCOD9311985
_publ_section_title
;
Structure prediction by ZEFSAII (Michael W. Deem and Ramdas Pophale) SiO2 
 PCOD9311985
Probable space group: P 21 21 2
;
_chemical_formula_sum "Si O2"
_cell_formula_units_Z 20
_cell_length_a 5.291303
_cell_length_b 22.235628
_cell_length_c 7.385135
_cell_angle_alpha 90.000000
_cell_angle_beta 90.000000
_cell_angle_gamma 90.000000
_cell_volume 868.901346
_symmetry_space_group_name_H-M "P 21 21 2"
_symmetry_group_IT_number 18
_symmetry_cell_setting 'orthorhombic'
loop_
_space_group_symop_operation_xyz
x,y,z
-x,-y,z
1/2+x,1/2-y,-z
1/2-x,1/2+y,-z
loop_
_atom_site_type_symbol
_atom_site_label
_atom_site_fract_x
_atom_site_fract_y
_atom_site_fract_z
Si Si1 0.097392 0.783597 0.263776
Si Si2 0.248732 0.534374 0.615589
Si Si3 0.225579 0.172090 0.939381
Si Si4 0.752111 0.965443 0.821142
Si Si5 0.405604 0.169345 0.307719
O O1 0.212594 0.718435 0.219768
O O2 0.308917 0.821675 0.371849
O O3 0.822191 0.785646 0.360255
O O4 0.015359 0.811492 0.065901
O O5 0.500000 0.500000 0.678713
O O6 0.251332 0.532606 0.397340
O O7 0.212994 0.603708 0.667291
O O8 0.000000 0.500000 0.680195
O O9 0.229090 0.103842 0.876164
O O10 0.439992 0.179386 0.092414
O O11 0.500000 0.000000 0.882774
O O12 0.000000 0.000000 0.886292
#
# Coordination Sequence:
#
# PCOD9311985 Si02
#       5
#     4   4   4   4   4
#     4  10  20  35  57  87 108 150 175 238 282 326
#     4  10  21  40  56  79 116 156 184 237 286 329
#     4  10  21  37  61  80 120 142 186 232 282 332
#     4  10  24  38  58  83 114 150 192 229 285 334
#     4  10  20  34  58  81 112 140 197 218 283 337
#
# _framework density 23.017574
#
# number of rings (size 3 to 8) (size 9 to 14) (size 15 to 20)
#    1.200    0.800    2.000    1.200    2.800    1.600 
#    0.000    2.000    0.000    0.000    0.000    0.000 
#    0.000    0.000    0.000    0.000    0.000    0.000 
#
# Total GULP energy -111519.716615 kJ/mol
# GULP energy per Si atom -5575.985831 kJ/mol
# Density = 2.296518 g / cm^3
# Si number density = 23.017574 Si / 1000 Ang^3
#
#
#
# Elastic Constant Matrix: (Units=GPa)
#
#
# Indices 1 2 3 4 5 6 
#
# 1 196.7976 74.5122 19.0749 0.0000 0.0000 0.0000
# 2 74.5122 171.2837 13.7266 0.0000 0.0000 0.0000
# 3 19.0749 13.7266 64.2060 0.0000 0.0000 0.0000
# 4 0.0000 0.0000 0.0000 4.1126 0.0000 0.0000
# 5 0.0000 0.0000 0.0000 0.0000 -21.4271 0.0000
# 6 0.0000 0.0000 0.0000 0.0000 0.0000 29.0988
#
#
#
# Elastic Compliance Matrix: (Units=1/GPa)
#
#
# Indices 1 2 3 4 5 6 
#
# 1 0.006186 -0.002588 -0.001284 0.000000 0.000000 0.000000
# 2 -0.002588 0.007023 -0.000733 0.000000 0.000000 0.000000
# 3 -0.001284 -0.000733 0.016113 0.000000 0.000000 0.000000
# 4 0.000000 0.000000 0.000000 0.243155 0.000000 0.000000
# 5 0.000000 0.000000 0.000000 0.000000 -0.046670 0.000000
# 6 0.000000 0.000000 0.000000 0.000000 0.000000 0.034366
#
#
# Mechanical properties :
#
#
# Convention : Reuss Voigt Hill
#
# Bulk Modulus (GPa) = 49.72232 71.87939 60.80086
# Shear Modulus (GPa) = 18.11026 24.02178 21.06602
#
# Velocity S-wave (km/s) = 2.80804 3.23403 3.02853
# Velocity P-wave (km/s) = 5.67118 6.72615 6.22107
#
# Compressibility (1/GPa) = 0.02011169
#
# Stress axis : x y z
#
# Youngs Moduli (GPa) = 161.66225 142.39312 62.06140
#
# Poissons Ratio (x) = 0.36851 0.07971
# Poissons Ratio (y) = 0.41838 0.04546
# Poissons Ratio (z) = 0.20764 0.10431
#
# Static dielectric constant tensor:
#      x y z
#    x 2.261170 0.000000 0.000000 
#    y 0.000000 1.886360 0.000000 
#    z 0.000000 0.000000 1.886830 
# 
# From -- ./inp_files/2488.got.cif
#   From: 2010.05.17/outbox.cif.g08.bks.cpg/sg18_2_cif.got.tgz:2488.got - 2010.06.03 22:40:56.
