data_PCOD9311263
_publ_section_title
;
Structure prediction by ZEFSAII (Michael W. Deem and Ramdas Pophale) SiO2 
 PCOD9311263
Probable space group: P 2 2 21
;
_chemical_formula_sum "Si O2"
_cell_formula_units_Z 32
_cell_length_a 9.411577
_cell_length_b 10.948665
_cell_length_c 13.754200
_cell_angle_alpha 90.000000
_cell_angle_beta 90.000000
_cell_angle_gamma 90.000000
_cell_volume 1417.290586
_symmetry_space_group_name_H-M "P 2 2 21"
_symmetry_group_IT_number 17
_symmetry_cell_setting 'orthorhombic'
loop_
_space_group_symop_operation_xyz
x,y,z
-x,-y,1/2+z
x,-y,-z
-x,y,1/2-z
loop_
_atom_site_type_symbol
_atom_site_label
_atom_site_fract_x
_atom_site_fract_y
_atom_site_fract_z
Si Si1 0.495808 0.212071 0.964744
Si Si2 0.058541 0.729661 0.409957
Si Si3 0.185940 0.138266 0.013275
Si Si4 0.858827 0.493913 0.216645
Si Si5 0.709027 0.136484 0.798750
Si Si6 0.255994 0.715735 0.599067
Si Si7 0.624244 0.380936 0.682234
Si Si8 0.162432 0.897775 0.767983
O O1 0.591878 0.139764 0.885063
O O2 0.445659 0.341230 0.918076
O O3 0.351492 0.143859 0.988783
O O4 0.593862 0.242623 0.056151
O O5 0.079540 0.608834 0.344820
O O6 0.140586 0.833536 0.349372
O O7 0.148153 0.714928 0.508489
O O8 0.903309 0.772552 0.442992
O O9 0.169717 0.166367 0.127248
O O10 0.130551 0.000000 0.000000
O O11 0.757614 0.416318 0.147479
O O12 0.763166 0.537235 0.307128
O O13 0.000000 0.422965 0.250000
O O14 0.667764 0.251443 0.732212
O O15 0.732277 0.014222 0.738132
O O16 0.207571 0.809992 0.680921
O O17 0.500000 0.433986 0.750000
O O18 0.000000 0.935682 0.750000
#
# Coordination Sequence:
#
# PCOD9311263 Si02
#       8
#     4   4   4   4   4   4   4   4
#     4  10  23  43  67  97 140 179 231 277 349 423
#     4  10  22  42  70 101 133 178 233 284 346 408
#     4  12  25  40  67 106 144 179 226 287 342 425
#     4  11  23  42  74 100 132 178 236 295 347 403
#     4   9  21  40  70  95 135 180 222 277 341 409
#     4  11  25  45  67  96 140 186 227 283 351 421
#     4   9  19  42  68 100 129 173 230 287 334 410
#     4  12  24  42  67  99 141 180 227 280 345 410
#
# _framework density 22.578291
#
# number of rings (size 3 to 8) (size 9 to 14) (size 15 to 20)
#    0.000    1.500    1.250    3.750    1.750    4.500 
#    2.250    0.000    0.000    0.000    0.000    0.000 
#    0.000    0.000    0.000    0.000    0.000    0.000 
#
# Total GULP energy -178963.362196 kJ/mol
# GULP energy per Si atom -5592.605069 kJ/mol
# Density = 2.252690 g / cm^3
# Si number density = 22.578291 Si / 1000 Ang^3
#
#
#
# Elastic Constant Matrix: (Units=GPa)
#
#
# Indices 1 2 3 4 5 6 
#
# 1 133.3481 26.3118 27.1693 0.0000 0.0000 0.0000
# 2 26.3118 42.7763 2.3835 0.0000 0.0000 0.0000
# 3 27.1693 2.3835 78.1183 0.0000 0.0000 0.0000
# 4 0.0000 0.0000 0.0000 23.5494 0.0000 0.0000
# 5 0.0000 0.0000 0.0000 0.0000 37.9260 0.0000
# 6 0.0000 0.0000 0.0000 0.0000 0.0000 17.1619
#
#
#
# Elastic Compliance Matrix: (Units=1/GPa)
#
#
# Indices 1 2 3 4 5 6 
#
# 1 0.009200 -0.005490 -0.003032 0.000000 0.000000 0.000000
# 2 -0.005490 0.026693 0.001095 0.000000 0.000000 0.000000
# 3 -0.003032 0.001095 0.013822 0.000000 0.000000 0.000000
# 4 0.000000 0.000000 0.000000 0.042464 0.000000 0.000000
# 5 0.000000 0.000000 0.000000 0.000000 0.026367 0.000000
# 6 0.000000 0.000000 0.000000 0.000000 0.000000 0.058269
#
#
# Mechanical properties :
#
#
# Convention : Reuss Voigt Hill
#
# Bulk Modulus (GPa) = 28.68529 40.66354 34.67442
# Shear Modulus (GPa) = 24.59528 28.95266 26.77397
#
# Velocity S-wave (km/s) = 3.30409 3.58484 3.44732
# Velocity P-wave (km/s) = 5.22383 5.93160 5.58893
#
# Compressibility (1/GPa) = 0.03486108
#
# Stress axis : x y z
#
# Youngs Moduli (GPa) = 108.69217 37.46241 72.34673
#
# Poissons Ratio (x) = 0.20567 0.21938
# Poissons Ratio (y) = 0.59674 -0.07922
# Poissons Ratio (z) = 0.32959 -0.04102
#
# Static dielectric constant tensor:
#      x y z
#    x 1.831400 0.000000 0.000000 
#    y 0.000000 1.836840 0.000000 
#    z 0.000000 0.000000 1.846590 
# 
# From -- ./inp_files/8276.got.cif
#   From: 2010.05.17/outbox.cif.g08.bks.cpg/sg17_5_cif.got.tgz:8276.got - 2010.06.03 22:34:06.
