data_PCOD9311516
_publ_section_title
;
Structure prediction by ZEFSAII (Michael W. Deem and Ramdas Pophale) SiO2 
 PCOD9311516
Probable space group: P 2 2 21
;
_chemical_formula_sum "Si O2"
_cell_formula_units_Z 12
_cell_length_a 4.846252
_cell_length_b 8.511165
_cell_length_c 12.959124
_cell_angle_alpha 90.000000
_cell_angle_beta 90.000000
_cell_angle_gamma 90.000000
_cell_volume 534.528233
_symmetry_space_group_name_H-M "P 2 2 21"
_symmetry_group_IT_number 17
_symmetry_cell_setting 'orthorhombic'
loop_
_space_group_symop_operation_xyz
x,y,z
-x,-y,1/2+z
x,-y,-z
-x,y,1/2-z
loop_
_atom_site_type_symbol
_atom_site_label
_atom_site_fract_x
_atom_site_fract_y
_atom_site_fract_z
Si Si1 0.984322 0.178075 0.009749
Si Si2 0.750468 0.358901 0.677935
Si Si3 0.528114 0.689789 0.627813
O O1 0.107712 0.241307 0.902131
O O2 0.240102 0.192862 0.086980
O O3 0.742373 0.281843 0.059475
O O4 0.885937 0.000000 0.000000
O O5 0.500000 0.295781 0.750000
O O6 0.371503 0.509811 0.880305
O O7 0.000000 0.417107 0.750000
O O8 0.500000 0.716138 0.750000
#
# Coordination Sequence:
#
# PCOD9311516 Si02
#       3
#     4   4   4
#     4  12  26  44  69 102 139 177 219 279 346 403
#     4  11  24  44  71 102 133 178 232 282 330 397
#     4  11  24  44  68  98 133 179 228 277 331 400
#
# _framework density 22.449703
#
# number of rings (size 3 to 8) (size 9 to 14) (size 15 to 20)
#    0.000    0.667    0.000    9.000    0.000    9.333 
#    0.000    0.000    0.000    0.000    0.000    0.000 
#    0.000    0.000    0.000    0.000    0.000    0.000 
#
# Total GULP energy -67182.520541 kJ/mol
# GULP energy per Si atom -5598.543378 kJ/mol
# Density = 2.239861 g / cm^3
# Si number density = 22.449703 Si / 1000 Ang^3
#
#
#
# Elastic Constant Matrix: (Units=GPa)
#
#
# Indices 1 2 3 4 5 6 
#
# 1 158.4997 33.5317 64.9297 0.0000 0.0000 0.0000
# 2 33.5317 91.5633 69.2977 0.0000 0.0000 0.0000
# 3 64.9297 69.2977 128.6166 0.0000 0.0000 0.0000
# 4 0.0000 0.0000 0.0000 41.4275 0.0000 0.0000
# 5 0.0000 0.0000 0.0000 0.0000 63.2430 0.0000
# 6 0.0000 0.0000 0.0000 0.0000 0.0000 26.8518
#
#
#
# Elastic Compliance Matrix: (Units=1/GPa)
#
#
# Indices 1 2 3 4 5 6 
#
# 1 0.007957 0.000213 -0.004132 0.000000 0.000000 0.000000
# 2 0.000213 0.018447 -0.010047 0.000000 0.000000 0.000000
# 3 -0.004132 -0.010047 0.015274 0.000000 0.000000 0.000000
# 4 0.000000 0.000000 0.000000 0.024139 0.000000 0.000000
# 5 0.000000 0.000000 0.000000 0.000000 0.015812 0.000000
# 6 0.000000 0.000000 0.000000 0.000000 0.000000 0.037242
#
#
# Mechanical properties :
#
#
# Convention : Reuss Voigt Hill
#
# Bulk Modulus (GPa) = 72.74242 79.35530 76.04886
# Shear Modulus (GPa) = 33.02902 40.36584 36.69743
#
# Velocity S-wave (km/s) = 3.83984 4.24495 4.04747
# Velocity P-wave (km/s) = 7.22024 7.71044 7.46937
#
# Compressibility (1/GPa) = 0.01374714
#
# Stress axis : x y z
#
# Youngs Moduli (GPa) = 125.68231 54.20945 65.47147
#
# Poissons Ratio (x) = -0.01155 0.27050
# Poissons Ratio (y) = -0.02678 0.65777
# Poissons Ratio (z) = 0.51926 0.54462
#
# Static dielectric constant tensor:
#      x y z
#    x 1.813560 0.000000 0.000000 
#    y 0.000000 1.795850 0.000000 
#    z 0.000000 0.000000 1.868880 
# 
# From -- ./inp_files/5634.got.cif
#   From: 2010.05.17/outbox.cif.g08.bks.cpg/sg17_3_cif.got.tgz:5634.got - 2010.06.03 22:34:06.
