data_PCOD9311214
_publ_section_title
;
Structure prediction by ZEFSAII (Michael W. Deem and Ramdas Pophale) SiO2 
 PCOD9311214
Probable space group: P 2 2 21
;
_chemical_formula_sum "Si O2"
_cell_formula_units_Z 14
_cell_length_a 8.166274
_cell_length_b 13.988091
_cell_length_c 4.837185
_cell_angle_alpha 90.000000
_cell_angle_beta 90.000000
_cell_angle_gamma 90.000000
_cell_volume 552.554467
_symmetry_space_group_name_H-M "P 2 2 21"
_symmetry_group_IT_number 17
_symmetry_cell_setting 'orthorhombic'
loop_
_space_group_symop_operation_xyz
x,y,z
-x,-y,1/2+z
x,-y,-z
-x,y,1/2-z
loop_
_atom_site_type_symbol
_atom_site_label
_atom_site_fract_x
_atom_site_fract_y
_atom_site_fract_z
Si Si1 0.180138 0.606382 0.382326
Si Si2 0.500000 0.936578 0.750000
Si Si3 0.827379 0.104768 0.370929
Si Si4 0.678242 0.708377 0.605036
O O1 0.200680 0.500000 0.500000
O O2 0.207403 0.675086 0.643359
O O3 0.000000 0.615654 0.250000
O O4 0.308285 0.631318 0.138929
O O5 0.324267 0.897313 0.651687
O O6 0.557612 0.000000 0.500000
O O7 0.748827 0.194214 0.536448
O O8 0.000000 0.134802 0.250000
O O9 0.863336 0.000000 0.500000
O O10 0.500000 0.720123 0.750000
#
# Coordination Sequence:
#
# PCOD9311214 Si02
#       4
#     4   2   4   4
#     4  12  26  50  80 112 152 198 258 323 394 466
#     4  10  22  40  64  96 140 188 244 304 360 428
#     4  11  24  45  72 110 152 204 259 312 380 451
#     4  12  27  49  77 115 155 204 257 324 387 469
#
# _framework density 25.336867999999999
#
# number of rings (size 3 to 8) (size 9 to 14) (size 15 to 20)
#    0.000    0.571    1.429    6.857    0.000   10.286 
#    0.000    1.429    0.000    0.000    0.000    0.000 
#    0.000    0.000    0.000    0.000    0.000    0.000 
#
# Total GULP energy -78050.099314 kJ/mol
# GULP energy per Si atom -5575.007094 kJ/mol
# Density = 2.527920 g / cm^3
# Si number density = 25.336868 Si / 1000 Ang^3
#
#
#
# Elastic Constant Matrix: (Units=GPa)
#
#
# Indices 1 2 3 4 5 6 
#
# 1 194.3393 57.1087 36.1617 0.0000 0.0000 0.0000
# 2 57.1087 158.0316 57.2168 0.0000 0.0000 0.0000
# 3 36.1617 57.2168 131.9492 0.0000 0.0000 0.0000
# 4 0.0000 0.0000 0.0000 44.9261 0.0000 0.0000
# 5 0.0000 0.0000 0.0000 0.0000 31.8128 0.0000
# 6 0.0000 0.0000 0.0000 0.0000 0.0000 27.6927
#
#
#
# Elastic Compliance Matrix: (Units=1/GPa)
#
#
# Indices 1 2 3 4 5 6 
#
# 1 0.005829 -0.001813 -0.000812 0.000000 0.000000 0.000000
# 2 -0.001813 0.008070 -0.003003 0.000000 0.000000 0.000000
# 3 -0.000812 -0.003003 0.009103 0.000000 0.000000 0.000000
# 4 0.000000 0.000000 0.000000 0.022259 0.000000 0.000000
# 5 0.000000 0.000000 0.000000 0.000000 0.031434 0.000000
# 6 0.000000 0.000000 0.000000 0.000000 0.000000 0.036111
#
#
# Mechanical properties :
#
#
# Convention : Reuss Voigt Hill
#
# Bulk Modulus (GPa) = 85.11553 87.25494 86.18523
# Shear Modulus (GPa) = 39.06991 43.14185 41.10588
#
# Velocity S-wave (km/s) = 3.93111 4.13089 4.03224
# Velocity P-wave (km/s) = 7.36691 7.56737 7.46781
#
# Compressibility (1/GPa) = 0.01174874
#
# Stress axis : x y z
#
# Youngs Moduli (GPa) = 171.54596 123.91485 109.85283
#
# Poissons Ratio (x) = 0.22463 0.08915
# Poissons Ratio (y) = 0.31097 0.32984
# Poissons Ratio (z) = 0.13921 0.37207
#
# Static dielectric constant tensor:
#      x y z
#    x 1.996180 0.000000 0.000000 
#    y 0.000000 2.245500 0.000000 
#    z 0.000000 0.000000 2.105270 
# 
# From -- ./inp_files/633.got.cif
#   From: 2010.05.17/outbox.cif.g08.bks.cpg/sg17_1_cif.got.tgz:633.got - 2010.06.03 22:34:06.
