data_PCOD9311363
_publ_section_title
;
Structure prediction by ZEFSAII (Michael W. Deem and Ramdas Pophale) SiO2 
 PCOD9311363
Probable space group: P 2 2 21
;
_chemical_formula_sum "Si O2"
_cell_formula_units_Z 16
_cell_length_a 7.570361
_cell_length_b 8.466281
_cell_length_c 10.379235
_cell_angle_alpha 90.000000
_cell_angle_beta 90.000000
_cell_angle_gamma 90.000000
_cell_volume 665.234269
_symmetry_space_group_name_H-M "P 2 2 21"
_symmetry_group_IT_number 17
_symmetry_cell_setting 'orthorhombic'
loop_
_space_group_symop_operation_xyz
x,y,z
-x,-y,1/2+z
x,-y,-z
-x,y,1/2-z
loop_
_atom_site_type_symbol
_atom_site_label
_atom_site_fract_x
_atom_site_fract_y
_atom_site_fract_z
Si Si1 0.548828 0.174958 0.029614
Si Si2 0.951173 0.174958 0.029613
Si Si3 0.750000 0.390763 0.373314
Si Si4 0.250000 0.611182 0.373047
O O1 0.583498 0.273787 0.897737
O O2 0.419354 0.277550 0.115060
O O3 0.482562 0.000000 0.000000
O O4 0.750001 0.159133 0.083788
O O5 0.916502 0.273785 0.897735
O O6 0.017441 0.000000 0.000000
O O7 0.749998 0.500000 0.500000
O O8 0.750000 0.503659 0.250505
O O9 0.919354 0.277551 0.384942
O O10 0.249998 0.500000 0.500000
#
# Coordination Sequence:
#
# PCOD9311363 Si02
#       4
#     4   4   4   4
#     4   9  22  48  73 105 153 195 246 312 379 446
#     4   9  22  48  73 105 153 195 246 312 379 446
#     4  12  25  42  75 114 139 192 255 302 375 450
#     4  10  23  46  69 108 145 190 245 304 369 444
#
# _framework density 24.051676
#
# number of rings (size 3 to 8) (size 9 to 14) (size 15 to 20)
#    1.500    0.500    0.000    2.250    0.000    8.000 
#    4.500   15.000    0.000    0.000    0.000    0.000 
#    0.000    0.000    0.000    0.000    0.000    0.000 
#
# Total GULP energy -89455.686502 kJ/mol
# GULP energy per Si atom -5590.980406 kJ/mol
# Density = 2.399693 g / cm^3
# Si number density = 24.051676 Si / 1000 Ang^3
#
#
#
# Elastic Constant Matrix: (Units=GPa)
#
#
# Indices 1 2 3 4 5 6 
#
# 1 120.4482 58.5518 55.7090 0.0000 0.0000 0.0000
# 2 58.5518 238.5123 117.4744 0.0000 0.0000 0.0000
# 3 55.7090 117.4744 187.4203 0.0000 0.0000 0.0000
# 4 0.0000 0.0000 0.0000 41.7150 0.0000 0.0000
# 5 0.0000 0.0000 0.0000 0.0000 17.8516 0.0000
# 6 0.0000 0.0000 0.0000 0.0000 0.0000 40.7720
#
#
#
# Elastic Compliance Matrix: (Units=1/GPa)
#
#
# Indices 1 2 3 4 5 6 
#
# 1 0.009950 -0.001426 -0.002064 0.000000 0.000000 0.000000
# 2 -0.001426 0.006269 -0.003506 0.000000 0.000000 0.000000
# 3 -0.002064 -0.003506 0.008146 0.000000 0.000000 0.000000
# 4 0.000000 0.000000 0.000000 0.023972 0.000000 0.000000
# 5 0.000000 0.000000 0.000000 0.000000 0.056017 0.000000
# 6 0.000000 0.000000 0.000000 0.000000 0.000000 0.024527
#
#
# Mechanical properties :
#
#
# Convention : Reuss Voigt Hill
#
# Bulk Modulus (GPa) = 96.38788 112.20569 104.29679
# Shear Modulus (GPa) = 34.16899 41.04411 37.60655
#
# Velocity S-wave (km/s) = 3.77324 4.13546 3.95849
# Velocity P-wave (km/s) = 7.69061 8.34002 8.02189
#
# Compressibility (1/GPa) = 0.01037475
#
# Stress axis : x y z
#
# Youngs Moduli (GPa) = 100.50165 159.50339 122.75393
#
# Poissons Ratio (x) = 0.22749 0.25332
# Poissons Ratio (y) = 0.14334 0.43034
# Poissons Ratio (z) = 0.20740 0.55918
#
# Static dielectric constant tensor:
#      x y z
#    x 2.004960 0.000000 0.000000 
#    y 0.000000 1.944650 0.000000 
#    z 0.000000 0.000000 1.911380 
# 
# From -- ./inp_files/6274.got.cif
#   From: 2010.05.17/outbox.cif.g08.bks.cpg/sg17_4_cif.got.tgz:6274.got - 2010.06.03 22:34:06.
