data_PCOD9311045
_publ_section_title
;
Structure prediction by ZEFSAII (Michael W. Deem and Ramdas Pophale) SiO2 
 PCOD9311045
Probable space group: P 2 2 21
;
_chemical_formula_sum "Si O2"
_cell_formula_units_Z 30
_cell_length_a 9.399925
_cell_length_b 4.964153
_cell_length_c 30.530373
_cell_angle_alpha 90.000000
_cell_angle_beta 90.000000
_cell_angle_gamma 90.000000
_cell_volume 1424.628595
_symmetry_space_group_name_H-M "P 2 2 21"
_symmetry_group_IT_number 17
_symmetry_cell_setting 'orthorhombic'
loop_
_space_group_symop_operation_xyz
x,y,z
-x,-y,1/2+z
x,-y,-z
-x,y,1/2-z
loop_
_atom_site_type_symbol
_atom_site_label
_atom_site_fract_x
_atom_site_fract_y
_atom_site_fract_z
Si Si1 0.301581 0.559388 0.452458
Si Si2 0.000000 0.056838 0.250000
Si Si3 0.424864 0.440504 0.808156
Si Si4 0.122946 0.599115 0.632215
Si Si5 0.642595 0.051352 0.361434
Si Si6 0.732259 0.564114 0.775423
Si Si7 0.495545 0.061946 0.452733
Si Si8 0.038472 0.875529 0.154418
O O1 0.232219 0.500000 0.500000
O O2 0.210182 0.472026 0.410859
O O3 0.439385 0.366177 0.452015
O O4 0.358127 0.863867 0.449784
O O5 0.145738 0.229275 0.257603
O O6 0.018721 0.881451 0.206745
O O7 0.370078 0.644438 0.844754
O O8 0.567167 0.591561 0.791057
O O9 0.309619 0.401125 0.768958
O O10 0.448359 0.150754 0.830163
O O11 0.202470 0.499831 0.676665
O O12 0.077868 0.909403 0.636588
O O13 0.983928 0.414926 0.633789
O O14 0.590554 0.016134 0.410642
O O15 0.805037 0.971575 0.356055
O O16 0.562601 0.000000 0.500000
#
# Coordination Sequence:
#
# PCOD9311045 Si02
#       8
#     4   2   4   4   4   4   4   4
#     4  10  21  41  67  94 120 155 202 257 314 363
#     4  10  22  42  62  84 128 168 210 252 302 372
#     4  11  25  39  61  89 121 160 210 253 307 351
#     4  11  23  39  61  90 122 158 205 251 302 368
#     4  12  23  42  60  86 126 160 203 258 305 363
#     4  10  23  40  61  90 120 163 206 255 303 365
#     4  10  21  38  65  91 116 154 200 252 314 371
#     4  11  25  38  62  87 123 169 209 241 309 371
#
# _framework density 21.058119999999999
#
# number of rings (size 3 to 8) (size 9 to 14) (size 15 to 20)
#    0.000    1.333    1.333    4.000    3.733    5.867 
#    0.000    1.333    0.000    0.000    0.000    0.000 
#    0.000    0.000    0.000    0.000    0.000    0.000 
#
# Total GULP energy -167257.997754 kJ/mol
# GULP energy per Si atom -5575.266592 kJ/mol
# Density = 2.101019 g / cm^3
# Si number density = 21.058120 Si / 1000 Ang^3
#
#
#
# Elastic Constant Matrix: (Units=GPa)
#
#
# Indices 1 2 3 4 5 6 
#
# 1 64.1583 -0.7200 24.8880 0.0000 0.0000 0.0000
# 2 -0.7200 61.3960 14.0932 0.0000 0.0000 0.0000
# 3 24.8880 14.0932 170.9801 0.0000 0.0000 0.0000
# 4 0.0000 0.0000 0.0000 2.4441 0.0000 0.0000
# 5 0.0000 0.0000 0.0000 0.0000 33.5296 0.0000
# 6 0.0000 0.0000 0.0000 0.0000 0.0000 9.7601
#
#
#
# Elastic Compliance Matrix: (Units=1/GPa)
#
#
# Indices 1 2 3 4 5 6 
#
# 1 0.016554 0.000762 -0.002472 0.000000 0.000000 0.000000
# 2 0.000762 0.016637 -0.001482 0.000000 0.000000 0.000000
# 3 -0.002472 -0.001482 0.006331 0.000000 0.000000 0.000000
# 4 0.000000 0.000000 0.000000 0.409145 0.000000 0.000000
# 5 0.000000 0.000000 0.000000 0.000000 0.029824 0.000000
# 6 0.000000 0.000000 0.000000 0.000000 0.000000 0.102458
#
#
# Mechanical properties :
#
#
# Convention : Reuss Voigt Hill
#
# Bulk Modulus (GPa) = 30.17883 41.45076 35.81479
# Shear Modulus (GPa) = 8.35588 26.36497 17.36043
#
# Velocity S-wave (km/s) = 1.99415 3.54221 2.87436
# Velocity P-wave (km/s) = 4.43447 6.03791 5.29721
#
# Compressibility (1/GPa) = 0.03313581
#
# Stress axis : x y z
#
# Youngs Moduli (GPa) = 60.40803 60.10746 157.96062
#
# Poissons Ratio (x) = -0.04578 0.39054
# Poissons Ratio (y) = -0.04601 0.23413
# Poissons Ratio (z) = 0.14935 0.08909
#
# Static dielectric constant tensor:
#      x y z
#    x 1.764040 0.000000 0.000000 
#    y 0.000000 1.776430 0.000000 
#    z 0.000000 0.000000 1.753230 
# 
# From -- ./inp_files/11233.got.cif
#   From: 2010.05.17/outbox.cif.g08.bks.cpg/sg17_6_cif.got.tgz:11233.got - 2010.06.03 22:34:06.
