data_PCOD9311911
_publ_section_title
;
Structure prediction by ZEFSAII (Michael W. Deem and Ramdas Pophale) SiO2 
 PCOD9311911
Probable space group: P 21 21 2
;
_chemical_formula_sum "Si O2"
_cell_formula_units_Z 30
_cell_length_a 26.358896
_cell_length_b 8.894055
_cell_length_c 6.277739
_cell_angle_alpha 90.000000
_cell_angle_beta 90.000000
_cell_angle_gamma 90.000000
_cell_volume 1471.737253
_symmetry_space_group_name_H-M "P 21 21 2"
_symmetry_group_IT_number 18
_symmetry_cell_setting 'orthorhombic'
loop_
_space_group_symop_operation_xyz
x,y,z
-x,-y,z
1/2+x,1/2-y,-z
1/2-x,1/2+y,-z
loop_
_atom_site_type_symbol
_atom_site_label
_atom_site_fract_x
_atom_site_fract_y
_atom_site_fract_z
Si Si1 0.748757 0.732517 0.177033
Si Si2 0.646568 0.799367 0.553002
Si Si3 0.500000 0.000000 0.619985
Si Si4 0.363605 0.374211 0.155771
Si Si5 0.165602 0.196895 0.843881
Si Si6 0.750915 0.931957 0.546812
Si Si7 0.409415 0.951711 0.292874
Si Si8 0.933827 0.332394 0.077545
O O1 0.690746 0.706103 0.097040
O O2 0.751753 0.895037 0.295252
O O3 0.756235 0.596909 0.350575
O O4 0.794160 0.729106 0.007148
O O5 0.637489 0.650019 0.413478
O O6 0.703590 0.830031 0.619333
O O7 0.611051 0.819288 0.752208
O O8 0.631370 0.931733 0.389152
O O9 0.454241 0.946487 0.466866
O O10 0.517972 0.862991 0.772431
O O11 0.358297 0.542141 0.070437
O O12 0.416810 0.303904 0.075917
O O13 0.199092 0.138770 0.647185
O O14 0.121110 0.303815 0.765601
O O15 0.430485 0.024395 0.076672
#
# Coordination Sequence:
#
# PCOD9311911 Si02
#       8
#     4   4   2   4   4   4   4   4
#     4  10  21  34  53  83 122 168 201 232 275 334
#     4   9  18  34  56  81 115 159 195 231 278 335
#     4  10  22  40  68  88 106 142 196 256 302 348
#     4   9  21  35  54  86 123 158 196 233 279 347
#     4  11  22  35  56  87 125 157 191 240 289 341
#     4  10  20  34  52  82 122 160 199 233 273 339
#     4  10  21  37  61  91 111 142 201 250 289 350
#     4  10  19  38  64  83 109 148 190 240 296 347
#
# _framework density 20.384072
#
# number of rings (size 3 to 8) (size 9 to 14) (size 15 to 20)
#    0.000    2.133    0.000    2.800    0.000   11.733 
#    0.000    0.000    0.000   19.200    0.000    0.000 
#    0.000    0.000    0.000    0.000    0.000    0.000 
#
# Total GULP energy -167066.167908 kJ/mol
# GULP energy per Si atom -5568.872264 kJ/mol
# Density = 2.033768 g / cm^3
# Si number density = 20.384072 Si / 1000 Ang^3
#
#
#
# Elastic Constant Matrix: (Units=GPa)
#
#
# Indices 1 2 3 4 5 6 
#
# 1 72.1937 36.6611 23.8272 0.0000 0.0000 0.0000
# 2 36.6611 88.5320 33.2565 0.0000 0.0000 0.0000
# 3 23.8272 33.2565 65.1437 0.0000 0.0000 0.0000
# 4 0.0000 0.0000 0.0000 12.2097 0.0000 0.0000
# 5 0.0000 0.0000 0.0000 0.0000 37.8290 0.0000
# 6 0.0000 0.0000 0.0000 0.0000 0.0000 21.8668
#
#
#
# Elastic Compliance Matrix: (Units=1/GPa)
#
#
# Indices 1 2 3 4 5 6 
#
# 1 0.018152 -0.006214 -0.003467 0.000000 0.000000 0.000000
# 2 -0.006214 0.016103 -0.005948 0.000000 0.000000 0.000000
# 3 -0.003467 -0.005948 0.019655 0.000000 0.000000 0.000000
# 4 0.000000 0.000000 0.000000 0.081902 0.000000 0.000000
# 5 0.000000 0.000000 0.000000 0.000000 0.026435 0.000000
# 6 0.000000 0.000000 0.000000 0.000000 0.000000 0.045731
#
#
# Mechanical properties :
#
#
# Convention : Reuss Voigt Hill
#
# Bulk Modulus (GPa) = 44.14619 45.92877 45.03748
# Shear Modulus (GPa) = 20.26046 23.18940 21.72493
#
# Velocity S-wave (km/s) = 3.15610 3.37653 3.26817
# Velocity P-wave (km/s) = 5.91485 6.14669 6.03189
#
# Compressibility (1/GPa) = 0.02265201
#
# Stress axis : x y z
#
# Youngs Moduli (GPa) = 55.09181 62.10061 50.87750
#
# Poissons Ratio (x) = 0.38591 0.17638
# Poissons Ratio (y) = 0.34236 0.30261
# Poissons Ratio (z) = 0.19099 0.36936
#
# Static dielectric constant tensor:
#      x y z
#    x 1.723760 0.000000 0.000000 
#    y 0.000000 1.782300 0.000000 
#    z 0.000000 0.000000 1.802490 
# 
# From -- ./inp_files/2286.got.cif
#   From: 2010.05.17/outbox.cif.g08.bks.cpg/sg18_2_cif.got.tgz:2286.got - 2010.06.03 22:40:56.
