data_PCOD9311623
_publ_section_title
;
Structure prediction by ZEFSAII (Michael W. Deem and Ramdas Pophale) SiO2 
 PCOD9311623
Probable space group: P 21 21 2
;
_chemical_formula_sum "Si O2"
_cell_formula_units_Z 24
_cell_length_a 28.368553
_cell_length_b 5.133876
_cell_length_c 7.673708
_cell_angle_alpha 90.000000
_cell_angle_beta 90.000000
_cell_angle_gamma 90.000000
_cell_volume 1117.603694
_symmetry_space_group_name_H-M "P 21 21 2"
_symmetry_group_IT_number 18
_symmetry_cell_setting 'orthorhombic'
loop_
_space_group_symop_operation_xyz
x,y,z
-x,-y,z
1/2+x,1/2-y,-z
1/2-x,1/2+y,-z
loop_
_atom_site_type_symbol
_atom_site_label
_atom_site_fract_x
_atom_site_fract_y
_atom_site_fract_z
Si Si1 0.051372 0.944317 0.646434
Si Si2 0.860931 0.306065 0.061887
Si Si3 0.550854 0.052757 0.124154
Si Si4 0.696763 0.053404 0.645922
Si Si5 0.855875 0.058681 0.420106
Si Si6 0.770237 0.123676 0.901961
O O1 0.054711 0.152124 0.806460
O O2 0.050761 0.647710 0.712901
O O3 0.097056 0.978905 0.529042
O O4 0.000000 0.000000 0.563705
O O5 0.905912 0.451073 0.988655
O O6 0.826007 0.176835 0.920720
O O7 0.829511 0.514257 0.167552
O O8 0.871088 0.102090 0.217245
O O9 0.500000 0.000000 0.037099
O O10 0.678689 0.316927 0.566002
O O11 0.750252 0.052452 0.711616
O O12 0.675012 0.815274 0.538471
O O13 0.744429 0.389250 0.967342
#
# Coordination Sequence:
#
# PCOD9311623 Si02
#       6
#     4   4   4   4   4   4
#     4  10  22  40  56  75 109 161 189 218 283 355
#     4   9  21  32  59  85 111 141 188 235 284 315
#     4  10  22  39  56  78 113 151 191 230 282 341
#     4   9  18  31  53  86 109 139 178 239 275 332
#     4  10  19  34  55  82 110 138 190 230 276 318
#     4  10  16  30  51  84 115 143 175 223 287 348
#
# _framework density 21.474518
#
# number of rings (size 3 to 8) (size 9 to 14) (size 15 to 20)
#    1.000    1.333    1.667    1.000    2.333    0.000 
#    3.000    0.000    0.000    4.000    0.000    0.000 
#    0.000    0.000    0.000    0.000    0.000    0.000 
#
# Total GULP energy -133780.299903 kJ/mol
# GULP energy per Si atom -5574.179163 kJ/mol
# Density = 2.142564 g / cm^3
# Si number density = 21.474518 Si / 1000 Ang^3
#
#
#
# Elastic Constant Matrix: (Units=GPa)
#
#
# Indices 1 2 3 4 5 6 
#
# 1 118.7396 11.1155 54.8016 0.0000 0.0000 0.0000
# 2 11.1155 105.8191 9.6465 0.0000 0.0000 0.0000
# 3 54.8016 9.6465 30.8778 0.0000 0.0000 0.0000
# 4 0.0000 0.0000 0.0000 12.6679 0.0000 0.0000
# 5 0.0000 0.0000 0.0000 0.0000 34.5788 0.0000
# 6 0.0000 0.0000 0.0000 0.0000 0.0000 29.9091
#
#
#
# Elastic Compliance Matrix: (Units=1/GPa)
#
#
# Indices 1 2 3 4 5 6 
#
# 1 0.047331 0.002765 -0.084866 0.000000 0.000000 0.000000
# 2 0.002765 0.009889 -0.007996 0.000000 0.000000 0.000000
# 3 -0.084866 -0.007996 0.185503 0.000000 0.000000 0.000000
# 4 0.000000 0.000000 0.000000 0.078940 0.000000 0.000000
# 5 0.000000 0.000000 0.000000 0.000000 0.028919 0.000000
# 6 0.000000 0.000000 0.000000 0.000000 0.000000 0.033435
#
#
# Mechanical properties :
#
#
# Convention : Reuss Voigt Hill
#
# Bulk Modulus (GPa) = 15.99292 45.17375 30.58333
# Shear Modulus (GPa) = 8.54622 27.42268 17.98445
#
# Velocity S-wave (km/s) = 1.99708 3.57737 2.89706
# Velocity P-wave (km/s) = 3.57510 6.17617 5.04611
#
# Compressibility (1/GPa) = 0.06252768
#
# Stress axis : x y z
#
# Youngs Moduli (GPa) = 21.12781 101.12660 5.39075
#
# Poissons Ratio (x) = -0.27958 0.45749
# Poissons Ratio (y) = -0.05841 0.04310
# Poissons Ratio (z) = 1.79303 0.80860
#
# Static dielectric constant tensor:
#      x y z
#    x 1.816240 0.000000 0.000000 
#    y 0.000000 1.773700 0.000000 
#    z 0.000000 0.000000 1.790810 
# 
# From -- ./inp_files/4792.got.cif
#   From: 2010.05.17/outbox.cif.g08.bks.cpg/sg18_3_cif.got.tgz:4792.got - 2010.06.03 22:40:56.
