data_PCOD9311344
_publ_section_title
;
Structure prediction by ZEFSAII (Michael W. Deem and Ramdas Pophale) SiO2 
 PCOD9311344
Probable space group: P 2 2 21
;
_chemical_formula_sum "Si O2"
_cell_formula_units_Z 16
_cell_length_a 11.430040
_cell_length_b 11.163054
_cell_length_c 5.091216
_cell_angle_alpha 90.000000
_cell_angle_beta 90.000000
_cell_angle_gamma 90.000000
_cell_volume 649.609397
_symmetry_space_group_name_H-M "P 2 2 21"
_symmetry_group_IT_number 17
_symmetry_cell_setting 'orthorhombic'
loop_
_space_group_symop_operation_xyz
x,y,z
-x,-y,1/2+z
x,-y,-z
-x,y,1/2-z
loop_
_atom_site_type_symbol
_atom_site_label
_atom_site_fract_x
_atom_site_fract_y
_atom_site_fract_z
Si Si1 0.745319 0.303468 0.193193
Si Si2 0.928551 0.500000 0.000000
Si Si3 0.414055 0.139049 0.999082
Si Si4 0.923856 0.858050 0.002633
Si Si5 0.427946 0.500000 0.500000
O O1 0.690474 0.235732 0.447746
O O2 0.851078 0.401083 0.159270
O O3 0.796122 0.197252 0.017322
O O4 0.643619 0.384599 0.082802
O O5 0.000000 0.553011 0.250000
O O6 0.500000 0.149086 0.250000
O O7 0.500000 0.156475 0.750000
O O8 0.369107 0.000000 0.000000
O O9 0.000000 0.822298 0.750000
O O10 0.000000 0.822596 0.250000
O O11 0.912616 0.000000 0.000000
O O12 0.500000 0.536703 0.250000
#
# Coordination Sequence:
#
# PCOD9311344 Si02
#       5
#     4   2   4   4   2
#     4  11  25  45  76 101 140 196 239 293 368 432
#     4  11  26  47  72 108 146 189 250 307 358 426
#     4  10  24  44  68 106 150 189 238 299 363 438
#     4  10  23  42  66 103 144 180 230 294 358 433
#     4  11  28  49  68 100 140 185 248 307 354 418
#
# _framework density 24.630182999999999
#
# number of rings (size 3 to 8) (size 9 to 14) (size 15 to 20)
#    0.000    1.500    0.000    2.250    0.000   20.000 
#    0.000    2.500    0.000    0.000    0.000    0.000 
#    0.000    0.000    0.000    0.000    0.000    0.000 
#
# Total GULP energy -89391.586745 kJ/mol
# GULP energy per Si atom -5586.974172 kJ/mol
# Density = 2.457412 g / cm^3
# Si number density = 24.630183 Si / 1000 Ang^3
#
#
#
# Elastic Constant Matrix: (Units=GPa)
#
#
# Indices 1 2 3 4 5 6 
#
# 1 83.7119 78.0825 51.5673 0.0000 0.0000 0.0000
# 2 78.0825 177.1277 64.5521 0.0000 0.0000 0.0000
# 3 51.5673 64.5521 177.4992 0.0000 0.0000 0.0000
# 4 0.0000 0.0000 0.0000 47.4176 0.0000 0.0000
# 5 0.0000 0.0000 0.0000 0.0000 55.1267 0.0000
# 6 0.0000 0.0000 0.0000 0.0000 0.0000 64.9366
#
#
#
# Elastic Compliance Matrix: (Units=1/GPa)
#
#
# Indices 1 2 3 4 5 6 
#
# 1 0.021823 -0.008427 -0.003276 0.000000 0.000000 0.000000
# 2 -0.008427 0.009762 -0.001102 0.000000 0.000000 0.000000
# 3 -0.003276 -0.001102 0.006986 0.000000 0.000000 0.000000
# 4 0.000000 0.000000 0.000000 0.021089 0.000000 0.000000
# 5 0.000000 0.000000 0.000000 0.000000 0.018140 0.000000
# 6 0.000000 0.000000 0.000000 0.000000 0.000000 0.015400
#
#
# Mechanical properties :
#
#
# Convention : Reuss Voigt Hill
#
# Bulk Modulus (GPa) = 77.14219 91.86029 84.50124
# Shear Modulus (GPa) = 40.60741 49.77197 45.18969
#
# Velocity S-wave (km/s) = 4.06480 4.50018 4.28802
# Velocity P-wave (km/s) = 7.30879 8.02365 7.67454
#
# Compressibility (1/GPa) = 0.01296308
#
# Stress axis : x y z
#
# Youngs Moduli (GPa) = 45.82219 102.43859 143.13783
#
# Poissons Ratio (x) = 0.86321 0.46887
# Poissons Ratio (y) = 0.38612 0.15775
# Poissons Ratio (z) = 0.15010 0.11289
#
# Static dielectric constant tensor:
#      x y z
#    x 2.030630 0.000000 0.000000 
#    y 0.000000 1.957630 0.000000 
#    z 0.000000 0.000000 1.921560 
# 
# From -- ./inp_files/1323.got.cif
#   From: 2010.05.17/outbox.cif.g08.bks.cpg/sg17_1_cif.got.tgz:1323.got - 2010.06.03 22:34:06.
