data_PCOD9311413
_publ_section_title
;
Structure prediction by ZEFSAII (Michael W. Deem and Ramdas Pophale) SiO2 
 PCOD9311413
Probable space group: P 2 2 21
;
_chemical_formula_sum "Si O2"
_cell_formula_units_Z 18
_cell_length_a 5.605704
_cell_length_b 12.027668
_cell_length_c 11.578830
_cell_angle_alpha 90.000000
_cell_angle_beta 90.000000
_cell_angle_gamma 90.000000
_cell_volume 780.685784
_symmetry_space_group_name_H-M "P 2 2 21"
_symmetry_group_IT_number 17
_symmetry_cell_setting 'orthorhombic'
loop_
_space_group_symop_operation_xyz
x,y,z
-x,-y,1/2+z
x,-y,-z
-x,y,1/2-z
loop_
_atom_site_type_symbol
_atom_site_label
_atom_site_fract_x
_atom_site_fract_y
_atom_site_fract_z
Si Si1 0.890657 0.489086 0.374903
Si Si2 0.224684 0.875351 0.958472
Si Si3 0.860948 0.712577 0.931567
Si Si4 0.500000 0.776462 0.750000
Si Si5 0.474954 0.688669 0.115909
O O1 0.023895 0.500000 0.500000
O O2 0.662894 0.569248 0.389739
O O3 0.000000 0.519110 0.250000
O O4 0.908291 0.355271 0.383677
O O5 0.353973 0.853909 0.837331
O O6 0.950537 0.838569 0.941552
O O7 0.327853 0.785853 0.051383
O O8 0.252530 0.000000 0.000000
O O9 0.661711 0.701085 0.833598
O O10 0.728644 0.684945 0.051332
O O11 0.500000 0.714769 0.250000
#
# Coordination Sequence:
#
# PCOD9311413 Si02
#       5
#     4   4   4   2   4
#     4  12  25  46  72 107 146 193 244 301 371 443
#     4  11  25  48  77 105 142 191 243 302 363 432
#     4  11  25  50  71 104 153 189 246 293 370 442
#     4  10  24  48  74 108 140 190 242 304 360 444
#     4  11  27  48  71 107 150 190 238 304 368 435
#
# _framework density 23.056653000000001
#
# number of rings (size 3 to 8) (size 9 to 14) (size 15 to 20)
#    0.000    0.889    2.222    3.333    4.667    6.222 
#    6.000    0.000    0.000    0.000    0.000    0.000 
#    0.000    0.000    0.000    0.000    0.000    0.000 
#
# Total GULP energy -100342.601432 kJ/mol
# GULP energy per Si atom -5574.588968 kJ/mol
# Density = 2.300418 g / cm^3
# Si number density = 23.056653 Si / 1000 Ang^3
#
#
#
# Elastic Constant Matrix: (Units=GPa)
#
#
# Indices 1 2 3 4 5 6 
#
# 1 81.3905 44.7614 52.4120 0.0000 0.0000 0.0000
# 2 44.7614 116.2928 42.9200 0.0000 0.0000 0.0000
# 3 52.4120 42.9200 232.2242 0.0000 0.0000 0.0000
# 4 0.0000 0.0000 0.0000 32.9272 0.0000 0.0000
# 5 0.0000 0.0000 0.0000 0.0000 37.9088 0.0000
# 6 0.0000 0.0000 0.0000 0.0000 0.0000 22.7595
#
#
#
# Elastic Compliance Matrix: (Units=1/GPa)
#
#
# Indices 1 2 3 4 5 6 
#
# 1 0.017180 -0.005561 -0.002850 0.000000 0.000000 0.000000
# 2 -0.005561 0.011028 -0.000783 0.000000 0.000000 0.000000
# 3 -0.002850 -0.000783 0.005094 0.000000 0.000000 0.000000
# 4 0.000000 0.000000 0.000000 0.030370 0.000000 0.000000
# 5 0.000000 0.000000 0.000000 0.000000 0.026379 0.000000
# 6 0.000000 0.000000 0.000000 0.000000 0.000000 0.043938
#
#
# Mechanical properties :
#
#
# Convention : Reuss Voigt Hill
#
# Bulk Modulus (GPa) = 67.04719 78.89937 72.97328
# Shear Modulus (GPa) = 31.77669 38.04003 34.90836
#
# Velocity S-wave (km/s) = 3.71644 4.06624 3.89527
# Velocity P-wave (km/s) = 6.89626 7.50599 7.20757
#
# Compressibility (1/GPa) = 0.01491487
#
# Stress axis : x y z
#
# Youngs Moduli (GPa) = 58.20827 90.67479 196.30583
#
# Poissons Ratio (x) = 0.50422 0.55940
# Poissons Ratio (y) = 0.32368 0.15375
# Poissons Ratio (z) = 0.16587 0.07102
#
# Static dielectric constant tensor:
#      x y z
#    x 1.948130 0.000000 0.000000 
#    y 0.000000 2.018610 0.000000 
#    z 0.000000 0.000000 1.916870 
# 
# From -- ./inp_files/5829.got.cif
#   From: 2010.05.17/outbox.cif.g08.bks.cpg/sg17_3_cif.got.tgz:5829.got - 2010.06.03 22:34:06.
