data_PCOD9311962
_publ_section_title
;
Structure prediction by ZEFSAII (Michael W. Deem and Ramdas Pophale) SiO2 
 PCOD9311962
Probable space group: P 21 21 2
;
_chemical_formula_sum "Si O2"
_cell_formula_units_Z 28
_cell_length_a 18.236262
_cell_length_b 8.390333
_cell_length_c 8.921135
_cell_angle_alpha 90.000000
_cell_angle_beta 90.000000
_cell_angle_gamma 90.000000
_cell_volume 1365.007797
_symmetry_space_group_name_H-M "P 21 21 2"
_symmetry_group_IT_number 18
_symmetry_cell_setting 'orthorhombic'
loop_
_space_group_symop_operation_xyz
x,y,z
-x,-y,z
1/2+x,1/2-y,-z
1/2-x,1/2+y,-z
loop_
_atom_site_type_symbol
_atom_site_label
_atom_site_fract_x
_atom_site_fract_y
_atom_site_fract_z
Si Si1 0.000000 0.500000 0.080745
Si Si2 0.202977 0.817212 0.737246
Si Si3 0.500000 0.000000 0.399344
Si Si4 1.000000 0.246922 0.338724
Si Si5 0.871412 0.500000 0.842524
Si Si6 0.297023 0.682787 0.262754
Si Si7 0.337257 0.326419 0.608932
Si Si8 0.837257 0.826419 0.391068
O O1 0.926764 0.500000 0.981808
O O2 0.000000 0.350265 0.189675
O O3 0.173756 0.666962 0.833354
O O4 0.169364 0.795875 0.569113
O O5 0.289720 0.796869 0.704627
O O6 0.186932 1.000000 0.787641
O O7 0.500000 0.851996 0.510696
O O8 0.427694 0.000000 0.298097
O O9 0.921260 0.165759 0.345009
O O10 0.078740 0.165758 0.345009
O O11 0.826244 0.666962 0.833354
O O12 0.210280 0.703131 0.295373
O O13 0.330637 0.704125 0.430887
O O14 0.301648 0.500000 0.632712
#
# Coordination Sequence:
#
# PCOD9311962 Si02
#       8
#     2   4   2   4   4   4   4   4
#     4  10  28  40  64  86 130 164 226 240 320 364
#     4  10  21  35  64  99 126 157 205 261 315 367
#     4  10  20  32  66  84 116 162 202 252 322 342
#     4  11  21  38  59  91 121 168 203 265 301 374
#     4  11  20  46  60  93 122 167 205 266 296 383
#     4  10  21  35  64  99 126 157 205 261 315 367
#     4  10  20  35  61  99 128 156 205 262 313 373
#     4  10  20  35  61  99 128 156 205 262 313 373
#
# _framework density 20.512702999999998
#
# number of rings (size 3 to 8) (size 9 to 14) (size 15 to 20)
#    0.000    1.714    4.286    0.429    6.000    0.000 
#    0.000    7.143    0.000    0.000    0.000    0.000 
#    0.000    0.000    0.000    0.000    0.000    0.000 
#
# Total GULP energy -156087.559835 kJ/mol
# GULP energy per Si atom -5574.555708 kJ/mol
# Density = 2.046602 g / cm^3
# Si number density = 20.512703 Si / 1000 Ang^3
#
#
#
# Elastic Constant Matrix: (Units=GPa)
#
#
# Indices 1 2 3 4 5 6 
#
# 1 121.1854 42.8127 21.2696 0.0000 0.0000 0.0000
# 2 42.8127 120.4921 16.9104 0.0000 0.0000 0.0000
# 3 21.2696 16.9104 48.4526 0.0000 0.0000 0.0000
# 4 0.0000 0.0000 0.0000 -2.6422 0.0000 0.0000
# 5 0.0000 0.0000 0.0000 0.0000 14.2484 0.0000
# 6 0.0000 0.0000 0.0000 0.0000 0.0000 30.1779
#
#
#
# Elastic Compliance Matrix: (Units=1/GPa)
#
#
# Indices 1 2 3 4 5 6 
#
# 1 0.009909 -0.003060 -0.003282 0.000000 0.000000 0.000000
# 2 -0.003060 0.009672 -0.002032 0.000000 0.000000 0.000000
# 3 -0.003282 -0.002032 0.022789 0.000000 0.000000 0.000000
# 4 0.000000 0.000000 0.000000 -0.378466 0.000000 0.000000
# 5 0.000000 0.000000 0.000000 0.000000 0.070183 0.000000
# 6 0.000000 0.000000 0.000000 0.000000 0.000000 0.033137
#
#
# Mechanical properties :
#
#
# Convention : Reuss Voigt Hill
#
# Bulk Modulus (GPa) = 39.03044 50.23506 44.63275
# Shear Modulus (GPa) = -24.09777 22.29932 -0.89922
#
# Velocity S-wave (km/s) = -3.43121 3.30069 -0.66282
# Velocity P-wave (km/s) = 1.83606 6.25052 4.60652
#
# Compressibility (1/GPa) = 0.02562103
#
# Stress axis : x y z
#
# Youngs Moduli (GPa) = 100.91902 103.39285 43.88162
#
# Poissons Ratio (x) = 0.31640 0.14401
# Poissons Ratio (y) = 0.30883 0.08918
# Poissons Ratio (z) = 0.33119 0.21011
#
# Static dielectric constant tensor:
#      x y z
#    x 1.732280 0.000000 0.000000 
#    y 0.000000 1.755810 0.000000 
#    z 0.000000 0.000000 1.690050 
# 
# From -- ./inp_files/4545.got.cif
#   From: 2010.05.17/outbox.cif.g08.bks.cpg/sg18_3_cif.got.tgz:4545.got - 2010.06.03 22:40:56.
