data_PCOD9311936
_publ_section_title
;
Structure prediction by ZEFSAII (Michael W. Deem and Ramdas Pophale) SiO2 
 PCOD9311936
Probable space group: P 21 21 2
;
_chemical_formula_sum "Si O2"
_cell_formula_units_Z 32
_cell_length_a 11.949982
_cell_length_b 9.261244
_cell_length_c 14.570331
_cell_angle_alpha 90.000000
_cell_angle_beta 90.000000
_cell_angle_gamma 90.000000
_cell_volume 1612.523288
_symmetry_space_group_name_H-M "P 21 21 2"
_symmetry_group_IT_number 18
_symmetry_cell_setting 'orthorhombic'
loop_
_space_group_symop_operation_xyz
x,y,z
-x,-y,z
1/2+x,1/2-y,-z
1/2-x,1/2+y,-z
loop_
_atom_site_type_symbol
_atom_site_label
_atom_site_fract_x
_atom_site_fract_y
_atom_site_fract_z
Si Si1 0.705477 0.307795 0.826359
Si Si2 0.989242 0.176319 0.276133
Si Si3 0.406016 0.676470 0.155291
Si Si4 0.875255 0.140986 0.933349
Si Si5 0.823743 0.405481 0.646854
Si Si6 0.933013 0.716824 0.644140
Si Si7 0.089408 0.128174 0.458973
Si Si8 0.812324 0.142994 0.134188
O O1 0.583817 0.264026 0.791218
O O2 0.758267 0.205476 0.901002
O O3 0.782821 0.319946 0.736510
O O4 0.700741 0.471669 0.859858
O O5 0.023255 0.218314 0.379265
O O6 0.872100 0.201285 0.226695
O O7 0.000000 0.000000 0.277491
O O8 0.383169 0.520505 0.108677
O O9 0.523782 0.726980 0.113791
O O10 0.421142 0.683073 0.265648
O O11 0.305301 0.779125 0.127288
O O12 0.884803 0.159006 0.042090
O O13 0.866333 0.568403 0.665573
O O14 0.710937 0.413737 0.584377
O O15 0.937909 0.323459 0.618872
O O16 0.886501 0.789319 0.552562
O O17 0.000000 0.000000 0.479121
#
# Coordination Sequence:
#
# PCOD9311936 Si02
#       8
#     4   4   4   4   4   4   4   4
#     4  10  19  40  65  84 123 164 205 256 304 379
#     4   8  19  37  62  90 114 159 211 252 299 378
#     4  11  25  41  60  96 127 164 209 267 320 377
#     4  11  25  38  59  95 126 159 211 261 321 372
#     4  10  22  42  63  96 122 169 219 258 311 389
#     4  11  23  41  66  91 132 167 210 275 320 378
#     4  10  23  38  67  94 124 167 212 257 328 383
#     4  11  22  39  69  87 125 168 209 259 315 380
#
# _framework density 19.844677000000001
#
# number of rings (size 3 to 8) (size 9 to 14) (size 15 to 20)
#    0.000    1.750    2.500    1.500   10.500    0.500 
#    2.250    0.625    0.000    0.000    0.000    0.000 
#    0.000    0.000    0.000    0.000    0.000    0.000 
#
# Total GULP energy -178338.652456 kJ/mol
# GULP energy per Si atom -5573.082889 kJ/mol
# Density = 1.979951 g / cm^3
# Si number density = 19.844677 Si / 1000 Ang^3
#
#
#
# Elastic Constant Matrix: (Units=GPa)
#
#
# Indices 1 2 3 4 5 6 
#
# 1 52.5354 5.7715 17.1158 0.0000 0.0000 0.0000
# 2 5.7715 14.5312 9.3447 0.0000 0.0000 0.0000
# 3 17.1158 9.3447 91.3280 0.0000 0.0000 0.0000
# 4 0.0000 0.0000 0.0000 24.4597 0.0000 0.0000
# 5 0.0000 0.0000 0.0000 0.0000 20.6693 0.0000
# 6 0.0000 0.0000 0.0000 0.0000 0.0000 21.7347
#
#
#
# Elastic Compliance Matrix: (Units=1/GPa)
#
#
# Indices 1 2 3 4 5 6 
#
# 1 0.020774 -0.006152 -0.003264 0.000000 0.000000 0.000000
# 2 -0.006152 0.075487 -0.006571 0.000000 0.000000 0.000000
# 3 -0.003264 -0.006571 0.012234 0.000000 0.000000 0.000000
# 4 0.000000 0.000000 0.000000 0.040884 0.000000 0.000000
# 5 0.000000 0.000000 0.000000 0.000000 0.048381 0.000000
# 6 0.000000 0.000000 0.000000 0.000000 0.000000 0.046009
#
#
# Mechanical properties :
#
#
# Convention : Reuss Voigt Hill
#
# Bulk Modulus (GPa) = 13.06840 24.76209 18.91524
# Shear Modulus (GPa) = 16.59761 21.78358 19.19059
#
# Velocity S-wave (km/s) = 2.89515 3.31676 3.11310
# Velocity P-wave (km/s) = 4.21610 5.21276 4.74070
#
# Compressibility (1/GPa) = 0.07652045
#
# Stress axis : x y z
#
# Youngs Moduli (GPa) = 48.13712 13.24740 81.74255
#
# Poissons Ratio (x) = 0.08150 0.26679
# Poissons Ratio (y) = 0.29615 0.53711
# Poissons Ratio (z) = 0.15711 0.08705
#
# Static dielectric constant tensor:
#      x y z
#    x 1.718760 0.000000 0.000000 
#    y 0.000000 1.695150 0.000000 
#    z 0.000000 0.000000 1.732980 
# 
# From -- ./inp_files/6921.got.cif
#   From: 2010.05.17/outbox.cif.g08.bks.cpg/sg18_4_cif.got.tgz:6921.got - 2010.06.03 22:40:56.
