data_PCOD9311961
_publ_section_title
;
Structure prediction by ZEFSAII (Michael W. Deem and Ramdas Pophale) SiO2 
 PCOD9311961
Probable space group: P 21 21 2
;
_chemical_formula_sum "Si O2"
_cell_formula_units_Z 24
_cell_length_a 14.512257
_cell_length_b 8.627399
_cell_length_c 7.731541
_cell_angle_alpha 90.000000
_cell_angle_beta 90.000000
_cell_angle_gamma 90.000000
_cell_volume 968.012372
_symmetry_space_group_name_H-M "P 21 21 2"
_symmetry_group_IT_number 18
_symmetry_cell_setting 'orthorhombic'
loop_
_space_group_symop_operation_xyz
x,y,z
-x,-y,z
1/2+x,1/2-y,-z
1/2-x,1/2+y,-z
loop_
_atom_site_type_symbol
_atom_site_label
_atom_site_fract_x
_atom_site_fract_y
_atom_site_fract_z
Si Si1 0.366862 0.745497 0.670296
Si Si2 0.257952 0.589272 0.363232
Si Si3 0.060913 0.766502 0.960876
Si Si4 0.000000 0.500000 0.212616
Si Si5 0.143369 0.782618 0.601125
Si Si6 0.856548 0.896716 0.991184
Si Si7 0.500000 0.500000 0.582303
O O1 0.331962 0.674890 0.489231
O O2 0.449266 0.619223 0.704117
O O3 0.423836 0.902981 0.682784
O O4 0.313480 0.694534 0.845147
O O5 0.168536 0.662089 0.452551
O O6 0.268591 0.401915 0.380155
O O7 0.285222 0.621234 0.167731
O O8 0.106270 0.714928 0.779030
O O9 0.054059 0.623544 0.092007
O O10 0.954197 0.820087 0.932934
O O11 0.120075 0.919665 0.014698
O O12 0.064928 0.896935 0.536085
#
# Coordination Sequence:
#
# PCOD9311961 Si02
#       7
#     4   4   4   2   4   4   2
#     4  10  20  37  59  88 119 155 203 250 304 368
#     4  10  22  38  58  85 121 158 199 254 312 365
#     4   9  17  34  58  83 118 160 201 248 301 362
#     4  10  20  32  58  94 122 152 204 258 300 356
#     4  10  21  39  61  89 123 164 210 256 311 372
#     4   9  18  38  61  81 116 162 203 246 304 371
#     4  10  20  40  68  86 116 172 216 250 304 378
#
# _framework density 24.793073
#
# number of rings (size 3 to 8) (size 9 to 14) (size 15 to 20)
#    0.000    2.333    0.000    5.000    0.000    4.000 
#    0.000   17.500    0.000    0.000    0.000    0.000 
#    0.000    0.000    0.000    0.000    0.000    0.000 
#
# Total GULP energy -134051.782031 kJ/mol
# GULP energy per Si atom -5585.490918 kJ/mol
# Density = 2.473664 g / cm^3
# Si number density = 24.793073 Si / 1000 Ang^3
#
#
#
# Elastic Constant Matrix: (Units=GPa)
#
#
# Indices 1 2 3 4 5 6 
#
# 1 36.7495 13.7031 12.7047 0.0000 0.0000 0.0000
# 2 13.7031 124.1779 58.7667 0.0000 0.0000 0.0000
# 3 12.7047 58.7667 111.6129 0.0000 0.0000 0.0000
# 4 0.0000 0.0000 0.0000 32.8314 0.0000 0.0000
# 5 0.0000 0.0000 0.0000 0.0000 48.8495 0.0000
# 6 0.0000 0.0000 0.0000 0.0000 0.0000 17.1346
#
#
#
# Elastic Compliance Matrix: (Units=1/GPa)
#
#
# Indices 1 2 3 4 5 6 
#
# 1 0.028756 -0.002163 -0.002134 0.000000 0.000000 0.000000
# 2 -0.002163 0.010888 -0.005487 0.000000 0.000000 0.000000
# 3 -0.002134 -0.005487 0.012091 0.000000 0.000000 0.000000
# 4 0.000000 0.000000 0.000000 0.030459 0.000000 0.000000
# 5 0.000000 0.000000 0.000000 0.000000 0.020471 0.000000
# 6 0.000000 0.000000 0.000000 0.000000 0.000000 0.058362
#
#
# Mechanical properties :
#
#
# Convention : Reuss Voigt Hill
#
# Bulk Modulus (GPa) = 31.08772 49.20994 40.14883
# Shear Modulus (GPa) = 26.13465 32.25416 29.19440
#
# Velocity S-wave (km/s) = 3.25023 3.61076 3.43523
# Velocity P-wave (km/s) = 5.16250 6.10531 5.65359
#
# Compressibility (1/GPa) = 0.03216704
#
# Stress axis : x y z
#
# Youngs Moduli (GPa) = 34.77572 91.84249 82.70396
#
# Poissons Ratio (x) = 0.19867 0.17651
# Poissons Ratio (y) = 0.07523 0.45377
# Poissons Ratio (z) = 0.07422 0.50391
#
# Static dielectric constant tensor:
#      x y z
#    x 2.524810 0.000000 0.000000 
#    y 0.000000 1.591420 0.000000 
#    z 0.000000 0.000000 2.070140 
# 
# From -- ./inp_files/4501.got.cif
#   From: 2010.05.17/outbox.cif.g08.bks.cpg/sg18_3_cif.got.tgz:4501.got - 2010.06.03 22:40:56.
