data_PCOD9311991
_publ_section_title
;
Structure prediction by ZEFSAII (Michael W. Deem and Ramdas Pophale) SiO2 
 PCOD9311991
Probable space group: P 21 21 2
;
_chemical_formula_sum "Si O2"
_cell_formula_units_Z 20
_cell_length_a 7.819488
_cell_length_b 15.231793
_cell_length_c 6.700325
_cell_angle_alpha 90.000000
_cell_angle_beta 90.000000
_cell_angle_gamma 90.000000
_cell_volume 798.041020
_symmetry_space_group_name_H-M "P 21 21 2"
_symmetry_group_IT_number 18
_symmetry_cell_setting 'orthorhombic'
loop_
_space_group_symop_operation_xyz
x,y,z
-x,-y,z
1/2+x,1/2-y,-z
1/2-x,1/2+y,-z
loop_
_atom_site_type_symbol
_atom_site_label
_atom_site_fract_x
_atom_site_fract_y
_atom_site_fract_z
Si Si1 0.000000 0.500000 0.644068
Si Si2 0.741629 0.754751 0.153507
Si Si3 0.689059 0.073013 0.998116
Si Si4 0.029133 0.652663 0.331334
Si Si5 0.000000 0.000000 0.759016
Si Si6 0.893452 0.812820 0.775402
O O1 0.850505 0.530553 0.791887
O O2 0.962281 0.417943 0.504585
O O3 0.545795 0.759422 0.226357
O O4 0.871983 0.720961 0.322781
O O5 0.729683 0.670282 0.002785
O O6 0.836883 0.823783 0.011323
O O7 0.824690 0.016118 0.877568
O O8 0.482143 0.904549 0.869303
O O9 0.208439 0.700692 0.318561
O O10 0.032049 0.097935 0.673425
#
# Coordination Sequence:
#
# PCOD9311991 Si02
#       6
#     2   4   4   4   2   4
#     4  12  20  38  62  86 130 154 206 256 302 360
#     4   9  20  36  63  87 119 165 200 248 314 365
#     4   9  21  38  58  89 121 161 197 251 304 358
#     4  10  22  37  64  88 116 166 202 249 312 358
#     4  10  20  34  64  94 120 162 212 248 316 368
#     4  11  18  37  66  92 120 162 209 254 310 377
#
# _framework density 25.06137
#
# number of rings (size 3 to 8) (size 9 to 14) (size 15 to 20)
#    1.200    0.800    2.000    3.000    0.000    0.000 
#    3.600    0.000   13.200    0.000    0.000    0.000 
#    0.000    0.000    0.000    0.000    0.000    0.000 
#
# Total GULP energy -111443.869163 kJ/mol
# GULP energy per Si atom -5572.193458 kJ/mol
# Density = 2.500433 g / cm^3
# Si number density = 25.061370 Si / 1000 Ang^3
#
#
#
# Elastic Constant Matrix: (Units=GPa)
#
#
# Indices 1 2 3 4 5 6 
#
# 1 205.6410 14.4799 38.7905 0.0000 0.0000 0.0000
# 2 14.4799 70.4599 18.1921 0.0000 0.0000 0.0000
# 3 38.7905 18.1921 81.2997 0.0000 0.0000 0.0000
# 4 0.0000 0.0000 0.0000 47.4342 0.0000 0.0000
# 5 0.0000 0.0000 0.0000 0.0000 15.1907 0.0000
# 6 0.0000 0.0000 0.0000 0.0000 0.0000 39.6597
#
#
#
# Elastic Compliance Matrix: (Units=1/GPa)
#
#
# Indices 1 2 3 4 5 6 
#
# 1 0.005358 -0.000468 -0.002452 0.000000 0.000000 0.000000
# 2 -0.000468 0.015104 -0.003156 0.000000 0.000000 0.000000
# 3 -0.002452 -0.003156 0.014176 0.000000 0.000000 0.000000
# 4 0.000000 0.000000 0.000000 0.021082 0.000000 0.000000
# 5 0.000000 0.000000 0.000000 0.000000 0.065830 0.000000
# 6 0.000000 0.000000 0.000000 0.000000 0.000000 0.025215
#
#
# Mechanical properties :
#
#
# Convention : Reuss Voigt Hill
#
# Bulk Modulus (GPa) = 44.47285 55.59172 50.03228
# Shear Modulus (GPa) = 30.04592 39.51946 34.78269
#
# Velocity S-wave (km/s) = 3.46626 3.97534 3.72950
# Velocity P-wave (km/s) = 5.81413 6.58039 6.20909
#
# Compressibility (1/GPa) = 0.02248563
#
# Stress axis : x y z
#
# Youngs Moduli (GPa) = 186.62619 66.20934 70.54029
#
# Poissons Ratio (x) = 0.03099 0.17295
# Poissons Ratio (y) = 0.08736 0.22265
# Poissons Ratio (z) = 0.45758 0.20898
#
# Static dielectric constant tensor:
#      x y z
#    x 1.999460 0.000000 0.000000 
#    y 0.000000 2.079900 0.000000 
#    z 0.000000 0.000000 2.069770 
# 
# From -- ./inp_files/551.got.cif
#   From: 2010.05.17/outbox.cif.g08.bks.cpg/sg18_1_cif.got.tgz:551.got - 2010.06.03 22:40:56.
