data_PCOD9311367
_publ_section_title
;
Structure prediction by ZEFSAII (Michael W. Deem and Ramdas Pophale) SiO2 
 PCOD9311367
Probable space group: P 2 2 21
;
_chemical_formula_sum "Si O2"
_cell_formula_units_Z 22
_cell_length_a 13.903867
_cell_length_b 5.942272
_cell_length_c 11.649016
_cell_angle_alpha 90.000000
_cell_angle_beta 90.000000
_cell_angle_gamma 90.000000
_cell_volume 962.448220
_symmetry_space_group_name_H-M "P 2 2 21"
_symmetry_group_IT_number 17
_symmetry_cell_setting 'orthorhombic'
loop_
_space_group_symop_operation_xyz
x,y,z
-x,-y,1/2+z
x,-y,-z
-x,y,1/2-z
loop_
_atom_site_type_symbol
_atom_site_label
_atom_site_fract_x
_atom_site_fract_y
_atom_site_fract_z
Si Si1 0.748034 0.500000 0.000000
Si Si2 0.000000 0.125771 0.250000
Si Si3 0.328731 0.792968 0.929681
Si Si4 0.139045 0.471656 0.125238
Si Si5 0.502733 0.000000 0.000000
Si Si6 0.154559 0.171983 0.673449
Si Si7 0.341501 0.859180 0.670142
O O1 0.817177 0.662301 0.071866
O O2 0.684320 0.359382 0.092149
O O3 0.079506 0.282578 0.191900
O O4 0.056791 0.966561 0.338199
O O5 0.247059 0.613534 0.901638
O O6 0.427922 0.788689 0.002753
O O7 0.368836 0.831204 0.802057
O O8 0.278508 0.000000 0.000000
O O9 0.145674 0.686782 0.208126
O O10 0.092991 0.500000 0.000000
O O11 0.574378 0.990186 0.894007
O O12 0.243438 0.001094 0.676367
#
# Coordination Sequence:
#
# PCOD9311367 Si02
#       7
#     2   2   4   4   2   4   4
#     4  12  24  46  80 112 152 202 258 316 388 464
#     4  12  28  54  74 114 144 202 256 328 396 462
#     4  10  23  46  76 105 156 200 253 321 389 465
#     4  12  27  53  77 112 153 204 263 321 401 480
#     4  10  24  42  80 112 148 208 250 318 384 458
#     4  12  25  50  78 108 155 197 254 323 386 463
#     4  12  22  49  76 110 158 199 256 323 380 461
#
# _framework density 22.858371000000002
#
# number of rings (size 3 to 8) (size 9 to 14) (size 15 to 20)
#    0.545    0.000    5.455    2.182    0.000    0.000 
#   26.182    0.000    0.000    0.000    0.000    0.000 
#    0.000    0.000    0.000    0.000    0.000    0.000 
#
# Total GULP energy -122797.892064 kJ/mol
# GULP energy per Si atom -5581.722367 kJ/mol
# Density = 2.280634 g / cm^3
# Si number density = 22.858371 Si / 1000 Ang^3
#
#
#
# Elastic Constant Matrix: (Units=GPa)
#
#
# Indices 1 2 3 4 5 6 
#
# 1 139.1316 37.8815 19.7172 0.0000 0.0000 0.0000
# 2 37.8815 72.2167 40.0364 0.0000 0.0000 0.0000
# 3 19.7172 40.0364 126.0930 0.0000 0.0000 0.0000
# 4 0.0000 0.0000 0.0000 23.8620 0.0000 0.0000
# 5 0.0000 0.0000 0.0000 0.0000 3.5672 0.0000
# 6 0.0000 0.0000 0.0000 0.0000 0.0000 52.5075
#
#
#
# Elastic Compliance Matrix: (Units=1/GPa)
#
#
# Indices 1 2 3 4 5 6 
#
# 1 0.008386 -0.004456 0.000104 0.000000 0.000000 0.000000
# 2 -0.004456 0.019174 -0.005391 0.000000 0.000000 0.000000
# 3 0.000104 -0.005391 0.009626 0.000000 0.000000 0.000000
# 4 0.000000 0.000000 0.000000 0.041908 0.000000 0.000000
# 5 0.000000 0.000000 0.000000 0.000000 0.280335 0.000000
# 6 0.000000 0.000000 0.000000 0.000000 0.000000 0.019045
#
#
# Mechanical properties :
#
#
# Convention : Reuss Voigt Hill
#
# Bulk Modulus (GPa) = 56.50279 59.19017 57.84648
# Shear Modulus (GPa) = 12.38050 31.97440 22.17745
#
# Velocity S-wave (km/s) = 2.32979 3.74412 3.11820
# Velocity P-wave (km/s) = 5.65770 6.68145 6.19077
#
# Compressibility (1/GPa) = 0.01769824
#
# Stress axis : x y z
#
# Youngs Moduli (GPa) = 119.24487 52.15501 103.88327
#
# Poissons Ratio (x) = 0.23242 -0.01077
# Poissons Ratio (y) = 0.53141 0.56004
# Poissons Ratio (z) = -0.01236 0.28117
#
# Static dielectric constant tensor:
#      x y z
#    x 1.819890 0.000000 0.000000 
#    y 0.000000 1.939300 0.000000 
#    z 0.000000 0.000000 1.911540 
# 
# From -- ./inp_files/7204.got.cif
#   From: 2010.05.17/outbox.cif.g08.bks.cpg/sg17_4_cif.got.tgz:7204.got - 2010.06.03 22:34:06.
