data_PCOD9311130
_publ_section_title
;
Structure prediction by ZEFSAII (Michael W. Deem and Ramdas Pophale) SiO2 
 PCOD9311130
Probable space group: P 2 2 21
;
_chemical_formula_sum "Si O2"
_cell_formula_units_Z 18
_cell_length_a 5.224768
_cell_length_b 17.372515
_cell_length_c 9.222828
_cell_angle_alpha 90.000000
_cell_angle_beta 90.000000
_cell_angle_gamma 90.000000
_cell_volume 837.131753
_symmetry_space_group_name_H-M "P 2 2 21"
_symmetry_group_IT_number 17
_symmetry_cell_setting 'orthorhombic'
loop_
_space_group_symop_operation_xyz
x,y,z
-x,-y,1/2+z
x,-y,-z
-x,y,1/2-z
loop_
_atom_site_type_symbol
_atom_site_label
_atom_site_fract_x
_atom_site_fract_y
_atom_site_fract_z
Si Si1 0.881151 0.061397 0.596024
Si Si2 0.500000 0.947784 0.750000
Si Si3 0.111079 0.174185 0.394274
Si Si4 0.742477 0.276032 0.843171
Si Si5 0.745003 0.459446 0.844562
O O1 0.000000 0.084584 0.750000
O O2 0.884107 0.133760 0.489045
O O3 0.042228 0.000000 0.500000
O O4 0.647891 0.007331 0.645444
O O5 0.697361 0.891065 0.831870
O O6 0.243889 0.230658 0.506574
O O7 0.000000 0.212922 0.250000
O O8 0.500000 0.248902 0.750000
O O9 0.719090 0.367458 0.868584
O O10 0.000000 0.264639 0.750000
O O11 0.500000 0.484705 0.750000
O O12 0.000000 0.473047 0.750000
O O13 0.756657 0.500000 0.000000
#
# Coordination Sequence:
#
# PCOD9311130 Si02
#       5
#     4   2   4   4   4
#     4  12  24  43  61  87 120 160 220 282 357 413
#     4  12  26  42  68  84 126 166 222 304 350 414
#     4  12  27  44  64  97 129 172 235 297 356 421
#     4  10  25  49  69 100 144 189 229 277 349 422
#     4  10  21  42  73 109 149 186 233 283 339 415
#
# _framework density 21.501992999999999
#
# number of rings (size 3 to 8) (size 9 to 14) (size 15 to 20)
#    0.000    0.889    4.444    1.333    6.222    2.667 
#    4.000    0.000    0.000    0.000    0.000    0.000 
#    0.000    0.000    0.000    0.000    0.000    0.000 
#
# Total GULP energy -100503.162599 kJ/mol
# GULP energy per Si atom -5583.509033 kJ/mol
# Density = 2.145305 g / cm^3
# Si number density = 21.501993 Si / 1000 Ang^3
#
#
#
# Elastic Constant Matrix: (Units=GPa)
#
#
# Indices 1 2 3 4 5 6 
#
# 1 126.2915 36.2960 77.8070 0.0000 0.0000 0.0000
# 2 36.2960 58.0990 76.5602 0.0000 0.0000 0.0000
# 3 77.8070 76.5602 236.9391 0.0000 0.0000 0.0000
# 4 0.0000 0.0000 0.0000 33.5498 0.0000 0.0000
# 5 0.0000 0.0000 0.0000 0.0000 38.6358 0.0000
# 6 0.0000 0.0000 0.0000 0.0000 0.0000 13.5512
#
#
#
# Elastic Compliance Matrix: (Units=1/GPa)
#
#
# Indices 1 2 3 4 5 6 
#
# 1 0.010308 -0.003447 -0.002271 0.000000 0.000000 0.000000
# 2 -0.003447 0.031128 -0.008926 0.000000 0.000000 0.000000
# 3 -0.002271 -0.008926 0.007851 0.000000 0.000000 0.000000
# 4 0.000000 0.000000 0.000000 0.029806 0.000000 0.000000
# 5 0.000000 0.000000 0.000000 0.000000 0.025883 0.000000
# 6 0.000000 0.000000 0.000000 0.000000 0.000000 0.073794
#
#
# Mechanical properties :
#
#
# Convention : Reuss Voigt Hill
#
# Bulk Modulus (GPa) = 50.00493 89.18401 69.59447
# Shear Modulus (GPa) = 23.28564 32.52512 27.90538
#
# Velocity S-wave (km/s) = 3.29439 3.89351 3.60641
# Velocity P-wave (km/s) = 6.14631 7.86000 7.05538
#
# Compressibility (1/GPa) = 0.01999803
#
# Stress axis : x y z
#
# Youngs Moduli (GPa) = 97.01105 32.12557 127.37854
#
# Poissons Ratio (x) = 0.11073 0.28932
# Poissons Ratio (y) = 0.33437 1.13701
# Poissons Ratio (z) = 0.22034 0.28676
#
# Static dielectric constant tensor:
#      x y z
#    x 1.872300 0.000000 0.000000 
#    y 0.000000 1.771040 0.000000 
#    z 0.000000 0.000000 1.821740 
# 
# From -- ./inp_files/3483.got.cif
#   From: 2010.05.17/outbox.cif.g08.bks.cpg/sg17_2_cif.got.tgz:3483.got - 2010.06.03 22:34:06.
