data_PCOD9311536
_publ_section_title
;
Structure prediction by ZEFSAII (Michael W. Deem and Ramdas Pophale) SiO2 
 PCOD9311536
Probable space group: P 2 2 21
;
_chemical_formula_sum "Si O2"
_cell_formula_units_Z 20
_cell_length_a 13.499929
_cell_length_b 8.077750
_cell_length_c 8.273207
_cell_angle_alpha 90.000000
_cell_angle_beta 90.000000
_cell_angle_gamma 90.000000
_cell_volume 902.185376
_symmetry_space_group_name_H-M "P 2 2 21"
_symmetry_group_IT_number 17
_symmetry_cell_setting 'orthorhombic'
loop_
_space_group_symop_operation_xyz
x,y,z
-x,-y,1/2+z
x,-y,-z
-x,y,1/2-z
loop_
_atom_site_type_symbol
_atom_site_label
_atom_site_fract_x
_atom_site_fract_y
_atom_site_fract_z
Si Si1 0.363804 0.000000 0.000000
Si Si2 0.875013 0.304203 0.012616
Si Si3 0.500000 0.194853 0.250000
Si Si4 0.815209 0.812706 0.337608
Si Si5 0.313862 0.392968 0.337129
Si Si6 0.237132 0.500000 0.000000
Si Si7 0.021311 0.000000 0.000000
O O1 0.289514 0.110644 0.891165
O O2 0.435059 0.904811 0.878352
O O3 0.824385 0.257885 0.841358
O O4 0.956942 0.163323 0.037363
O O5 0.907156 0.500000 0.000000
O O6 0.788064 0.289275 0.145494
O O7 0.417024 0.299709 0.341506
O O8 0.828683 0.659451 0.460484
O O9 0.902317 0.944481 0.360359
O O10 0.310559 0.500000 0.500000
O O11 0.303220 0.476461 0.160955
#
# Coordination Sequence:
#
# PCOD9311536 Si02
#       7
#     2   4   2   4   4   2   2
#     4  11  28  45  72 112 152 199 256 315 390 460
#     4  11  25  50  75 112 156 202 255 321 383 460
#     4  12  28  44  74 110 146 206 254 320 384 458
#     4  11  25  50  72 111 155 200 253 319 385 459
#     4  11  26  47  75 111 149 202 256 321 381 454
#     4  12  22  48  78 106 154 200 256 322 380 454
#     4  11  28  45  80 116 154 207 256 309 394 472
#
# _framework density 22.168392000000001
#
# number of rings (size 3 to 8) (size 9 to 14) (size 15 to 20)
#    0.000    0.800    6.000    0.600    8.400    1.600 
#    0.000    0.000    0.000    0.000    0.000    0.000 
#    0.000    0.000    0.000    0.000    0.000    0.000 
#
# Total GULP energy -111729.912965 kJ/mol
# GULP energy per Si atom -5586.495648 kJ/mol
# Density = 2.211794 g / cm^3
# Si number density = 22.168392 Si / 1000 Ang^3
#
#
#
# Elastic Constant Matrix: (Units=GPa)
#
#
# Indices 1 2 3 4 5 6 
#
# 1 169.0246 92.8013 54.4046 0.0000 0.0000 0.0000
# 2 92.8013 129.3834 56.9506 0.0000 0.0000 0.0000
# 3 54.4046 56.9506 155.6606 0.0000 0.0000 0.0000
# 4 0.0000 0.0000 0.0000 30.5861 0.0000 0.0000
# 5 0.0000 0.0000 0.0000 0.0000 68.1620 0.0000
# 6 0.0000 0.0000 0.0000 0.0000 0.0000 87.4806
#
#
#
# Elastic Compliance Matrix: (Units=1/GPa)
#
#
# Indices 1 2 3 4 5 6 
#
# 1 0.009896 -0.006646 -0.001027 0.000000 0.000000 0.000000
# 2 -0.006646 0.013676 -0.002681 0.000000 0.000000 0.000000
# 3 -0.001027 -0.002681 0.007764 0.000000 0.000000 0.000000
# 4 0.000000 0.000000 0.000000 0.032695 0.000000 0.000000
# 5 0.000000 0.000000 0.000000 0.000000 0.014671 0.000000
# 6 0.000000 0.000000 0.000000 0.000000 0.000000 0.011431
#
#
# Mechanical properties :
#
#
# Convention : Reuss Voigt Hill
#
# Bulk Modulus (GPa) = 94.08943 95.82018 94.95480
# Shear Modulus (GPa) = 43.71338 53.90655 48.80997
#
# Velocity S-wave (km/s) = 4.44540 4.93656 4.69741
# Velocity P-wave (km/s) = 8.29964 8.70692 8.50572
#
# Compressibility (1/GPa) = 0.01062819
#
# Stress axis : x y z
#
# Youngs Moduli (GPa) = 101.05491 73.12343 128.79910
#
# Poissons Ratio (x) = 0.48595 0.13231
# Poissons Ratio (y) = 0.67157 0.34527
# Poissons Ratio (z) = 0.10381 0.19602
#
# Static dielectric constant tensor:
#      x y z
#    x 1.841760 0.000000 0.000000 
#    y 0.000000 1.899730 0.000000 
#    z 0.000000 0.000000 1.736350 
# 
# From -- ./inp_files/4683.got.cif
#   From: 2010.05.17/outbox.cif.g08.bks.cpg/sg17_3_cif.got.tgz:4683.got - 2010.06.03 22:34:06.
