data_PCOD9311488
_publ_section_title
;
Structure prediction by ZEFSAII (Michael W. Deem and Ramdas Pophale) SiO2 
 PCOD9311488
Probable space group: P 2 2 21
;
_chemical_formula_sum "Si O2"
_cell_formula_units_Z 16
_cell_length_a 5.258130
_cell_length_b 11.478669
_cell_length_c 10.836452
_cell_angle_alpha 90.000000
_cell_angle_beta 90.000000
_cell_angle_gamma 90.000000
_cell_volume 654.048514
_symmetry_space_group_name_H-M "P 2 2 21"
_symmetry_group_IT_number 17
_symmetry_cell_setting 'orthorhombic'
loop_
_space_group_symop_operation_xyz
x,y,z
-x,-y,1/2+z
x,-y,-z
-x,y,1/2-z
loop_
_atom_site_type_symbol
_atom_site_label
_atom_site_fract_x
_atom_site_fract_y
_atom_site_fract_z
Si Si1 0.746233 0.407327 0.322025
Si Si2 0.679377 0.671065 0.398086
Si Si3 0.378205 0.054921 0.378140
Si Si4 0.829515 0.814840 0.094566
O O1 0.500000 0.367998 0.250000
O O2 0.730714 0.548100 0.333289
O O3 0.722650 0.356901 0.457921
O O4 0.000000 0.376278 0.250000
O O5 0.398812 0.723868 0.378579
O O6 0.899261 0.763607 0.372691
O O7 0.500000 0.094780 0.250000
O O8 0.223836 0.938935 0.343529
O O9 0.534859 0.000000 0.500000
O O10 0.208489 0.150671 0.448836
#
# Coordination Sequence:
#
# PCOD9311488 Si02
#       4
#     4   4   4   4
#     4  11  24  39  62  92 126 167 208 269 316 386
#     4  11  22  43  60  94 126 163 220 255 328 388
#     4   8  20  40  64  96 133 169 222 270 326 386
#     4   9  22  37  66  88 128 173 210 269 320 392
#
# _framework density 24.463016
#
# number of rings (size 3 to 8) (size 9 to 14) (size 15 to 20)
#    1.500    0.500    0.000    3.000    0.000   14.000 
#    0.000    2.500    0.000    0.000    0.000    0.000 
#    0.000    0.000    0.000    0.000    0.000    0.000 
#
# Total GULP energy -89414.257356 kJ/mol
# GULP energy per Si atom -5588.391085 kJ/mol
# Density = 2.440734 g / cm^3
# Si number density = 24.463016 Si / 1000 Ang^3
#
#
#
# Elastic Constant Matrix: (Units=GPa)
#
#
# Indices 1 2 3 4 5 6 
#
# 1 140.1089 25.6609 32.8063 0.0000 0.0000 0.0000
# 2 25.6609 89.7964 6.7900 0.0000 0.0000 0.0000
# 3 32.8063 6.7900 131.1355 0.0000 0.0000 0.0000
# 4 0.0000 0.0000 0.0000 35.7628 0.0000 0.0000
# 5 0.0000 0.0000 0.0000 0.0000 36.7647 0.0000
# 6 0.0000 0.0000 0.0000 0.0000 0.0000 7.2263
#
#
#
# Elastic Compliance Matrix: (Units=1/GPa)
#
#
# Indices 1 2 3 4 5 6 
#
# 1 0.007969 -0.002135 -0.001883 0.000000 0.000000 0.000000
# 2 -0.002135 0.011752 -0.000074 0.000000 0.000000 0.000000
# 3 -0.001883 -0.000074 0.008101 0.000000 0.000000 0.000000
# 4 0.000000 0.000000 0.000000 0.027962 0.000000 0.000000
# 5 0.000000 0.000000 0.000000 0.000000 0.027200 0.000000
# 6 0.000000 0.000000 0.000000 0.000000 0.000000 0.138383
#
#
# Mechanical properties :
#
#
# Convention : Reuss Voigt Hill
#
# Bulk Modulus (GPa) = 50.92437 54.61725 52.77081
# Shear Modulus (GPa) = 21.17767 35.66968 28.42367
#
# Velocity S-wave (km/s) = 2.94547 3.82266 3.41237
# Velocity P-wave (km/s) = 5.69472 6.46982 6.09460
#
# Compressibility (1/GPa) = 0.01963696
#
# Stress axis : x y z
#
# Youngs Moduli (GPa) = 125.48219 85.09170 123.44677
#
# Poissons Ratio (x) = 0.18167 0.23247
# Poissons Ratio (y) = 0.26790 0.00918
# Poissons Ratio (z) = 0.23630 0.00633
#
# Static dielectric constant tensor:
#      x y z
#    x 1.908040 0.000000 0.000000 
#    y 0.000000 1.928860 0.000000 
#    z 0.000000 0.000000 1.980940 
# 
# From -- ./inp_files/5716.got.cif
#   From: 2010.05.17/outbox.cif.g08.bks.cpg/sg17_3_cif.got.tgz:5716.got - 2010.06.03 22:34:06.
