data_PCOD9311519
_publ_section_title
;
Structure prediction by ZEFSAII (Michael W. Deem and Ramdas Pophale) SiO2 
 PCOD9311519
Probable space group: P 2 2 21
;
_chemical_formula_sum "Si O2"
_cell_formula_units_Z 20
_cell_length_a 14.992745
_cell_length_b 11.235739
_cell_length_c 5.288214
_cell_angle_alpha 90.000000
_cell_angle_beta 90.000000
_cell_angle_gamma 90.000000
_cell_volume 890.823814
_symmetry_space_group_name_H-M "P 2 2 21"
_symmetry_group_IT_number 17
_symmetry_cell_setting 'orthorhombic'
loop_
_space_group_symop_operation_xyz
x,y,z
-x,-y,1/2+z
x,-y,-z
-x,y,1/2-z
loop_
_atom_site_type_symbol
_atom_site_label
_atom_site_fract_x
_atom_site_fract_y
_atom_site_fract_z
Si Si1 0.090210 0.117657 0.622193
Si Si2 0.866728 0.500000 0.500000
Si Si3 0.500000 0.072076 0.250000
Si Si4 0.500000 0.436625 0.250000
Si Si5 0.000000 0.309090 0.250000
Si Si6 0.231680 0.280440 0.860101
Si Si7 0.346441 0.743247 0.636344
O O1 0.055797 0.221780 0.433934
O O2 0.153162 0.184179 0.821549
O O3 0.000000 0.070805 0.750000
O O4 0.133888 0.000000 0.500000
O O5 0.929747 0.599506 0.625677
O O6 0.805232 0.584707 0.327237
O O7 0.588061 0.146986 0.185570
O O8 0.521583 0.000000 0.500000
O O9 0.535596 0.500000 0.500000
O O10 0.583694 0.363963 0.145599
O O11 0.299663 0.253075 0.634019
O O12 0.276101 0.269192 0.135235
#
# Coordination Sequence:
#
# PCOD9311519 Si02
#       7
#     4   2   2   2   2   4   4
#     4  12  26  48  73 100 143 198 254 315 377 440
#     4  12  26  44  76 102 152 202 250 314 368 446
#     4  11  24  49  82 106 146 199 242 305 374 444
#     4  11  24  45  72 100 140 193 228 283 360 432
#     4  12  24  50  70 102 140 200 266 302 376 446
#     4  12  27  46  73 111 152 195 247 311 370 440
#     4  11  27  47  70 111 147 183 249 296 364 443
#
# _framework density 22.451131
#
# number of rings (size 3 to 8) (size 9 to 14) (size 15 to 20)
#    0.000    0.400    3.000    4.800    4.200    7.200 
#    0.000    2.000    0.000    0.000    0.000    0.000 
#    0.000    0.000    0.000    0.000    0.000    0.000 
#
# Total GULP energy -111895.364851 kJ/mol
# GULP energy per Si atom -5594.768243 kJ/mol
# Density = 2.240003 g / cm^3
# Si number density = 22.451131 Si / 1000 Ang^3
#
#
#
# Elastic Constant Matrix: (Units=GPa)
#
#
# Indices 1 2 3 4 5 6 
#
# 1 70.1561 12.3806 -7.0347 0.0000 0.0000 0.0000
# 2 12.3806 117.0129 13.2100 0.0000 0.0000 0.0000
# 3 -7.0347 13.2100 54.0245 0.0000 0.0000 0.0000
# 4 0.0000 0.0000 0.0000 54.4479 0.0000 0.0000
# 5 0.0000 0.0000 0.0000 0.0000 51.1085 0.0000
# 6 0.0000 0.0000 0.0000 0.0000 0.0000 -101.6093
#
#
#
# Elastic Compliance Matrix: (Units=1/GPa)
#
#
# Indices 1 2 3 4 5 6 
#
# 1 0.014816 -0.001836 0.002378 0.000000 0.000000 0.000000
# 2 -0.001836 0.009016 -0.002444 0.000000 0.000000 0.000000
# 3 0.002378 -0.002444 0.019417 0.000000 0.000000 0.000000
# 4 0.000000 0.000000 0.000000 0.018366 0.000000 0.000000
# 5 0.000000 0.000000 0.000000 0.000000 0.019566 0.000000
# 6 0.000000 0.000000 0.000000 0.000000 0.000000 -0.009842
#
#
# Mechanical properties :
#
#
# Convention : Reuss Voigt Hill
#
# Bulk Modulus (GPa) = 25.35060 30.92281 28.13670
# Shear Modulus (GPa) = 56.62969 15.63194 36.13081
#
# Velocity S-wave (km/s) = 5.02775 2.64155 4.01597
# Velocity P-wave (km/s) = 6.70972 4.80697 5.83641
#
# Compressibility (1/GPa) = 0.03944680
#
# Stress axis : x y z
#
# Youngs Moduli (GPa) = 67.49267 110.91124 51.50033
#
# Poissons Ratio (x) = 0.20365 -0.12248
# Poissons Ratio (y) = 0.12393 0.12585
# Poissons Ratio (z) = -0.16052 0.27104
#
# Static dielectric constant tensor:
#      x y z
#    x 1.824050 0.000000 0.000000 
#    y 0.000000 1.843120 0.000000 
#    z 0.000000 0.000000 1.980950 
# 
# From -- ./inp_files/2093.got.cif
#   From: 2010.05.17/outbox.cif.g08.bks.cpg/sg17_2_cif.got.tgz:2093.got - 2010.06.03 22:34:06.
