data_PCOD9311924
_publ_section_title
;
Structure prediction by ZEFSAII (Michael W. Deem and Ramdas Pophale) SiO2 
 PCOD9311924
Probable space group: P 21 21 2
;
_chemical_formula_sum "Si O2"
_cell_formula_units_Z 30
_cell_length_a 16.371834
_cell_length_b 8.269578
_cell_length_c 11.822852
_cell_angle_alpha 90.000000
_cell_angle_beta 90.000000
_cell_angle_gamma 90.000000
_cell_volume 1600.674158
_symmetry_space_group_name_H-M "P 21 21 2"
_symmetry_group_IT_number 18
_symmetry_cell_setting 'orthorhombic'
loop_
_space_group_symop_operation_xyz
x,y,z
-x,-y,z
1/2+x,1/2-y,-z
1/2-x,1/2+y,-z
loop_
_atom_site_type_symbol
_atom_site_label
_atom_site_fract_x
_atom_site_fract_y
_atom_site_fract_z
Si Si1 0.904752 0.451892 0.549843
Si Si2 0.190961 0.548263 0.319123
Si Si3 0.545375 0.162963 0.114147
Si Si4 0.225824 0.647699 0.885827
Si Si5 0.146513 0.427132 0.077083
Si Si6 0.703991 0.135331 0.267954
Si Si7 0.352554 0.349909 0.307217
Si Si8 0.000000 0.000000 0.793789
O O1 0.870878 0.449577 0.422902
O O2 0.845797 0.568573 0.624019
O O3 0.890201 0.276350 0.605374
O O4 0.000000 0.500000 0.556754
O O5 0.146953 0.493561 0.203602
O O6 0.236788 0.718404 0.298062
O O7 0.265658 0.423289 0.342452
O O8 0.632226 0.175925 0.178371
O O9 0.503981 0.334385 0.135992
O O10 0.500000 0.000000 0.158085
O O11 0.564019 0.129840 0.983075
O O12 0.295628 0.769721 0.923083
O O13 0.252249 0.508029 0.797354
O O14 0.164367 0.754042 0.809857
O O15 0.184699 0.563580 0.993943
O O16 0.418984 0.486932 0.282133
#
# Coordination Sequence:
#
# PCOD9311924 Si02
#       8
#     4   4   4   4   4   4   4   2
#     4  11  23  39  61  89 120 159 203 261 318 375
#     4  11  22  39  62  88 122 166 202 247 312 385
#     4  11  22  37  59  95 127 162 205 257 315 366
#     4   9  19  33  59  86 118 149 201 252 302 363
#     4  10  20  35  55  86 121 155 196 240 306 375
#     4  10  19  39  61  87 116 154 209 264 305 354
#     4  10  22  38  60  94 115 158 210 259 309 364
#     4  12  20  36  64  92 128 152 210 266 320 350
#
# _framework density 18.742103
#
# number of rings (size 3 to 8) (size 9 to 14) (size 15 to 20)
#    0.000    1.600    1.333    6.000    1.867    0.533 
#    2.400    0.000    0.000    0.000    0.000    0.000 
#    0.000    0.000    0.000    0.000    0.000    0.000 
#
# Total GULP energy -167384.905543 kJ/mol
# GULP energy per Si atom -5579.496851 kJ/mol
# Density = 1.869945 g / cm^3
# Si number density = 18.742103 Si / 1000 Ang^3
#
#
#
# Elastic Constant Matrix: (Units=GPa)
#
#
# Indices 1 2 3 4 5 6 
#
# 1 53.9692 29.6608 40.2201 0.0000 0.0000 0.0000
# 2 29.6608 93.1164 23.4801 0.0000 0.0000 0.0000
# 3 40.2201 23.4801 104.9435 0.0000 0.0000 0.0000
# 4 0.0000 0.0000 0.0000 0.8866 0.0000 0.0000
# 5 0.0000 0.0000 0.0000 0.0000 22.0381 0.0000
# 6 0.0000 0.0000 0.0000 0.0000 0.0000 20.2583
#
#
#
# Elastic Compliance Matrix: (Units=1/GPa)
#
#
# Indices 1 2 3 4 5 6 
#
# 1 0.029677 -0.006979 -0.009812 0.000000 0.000000 0.000000
# 2 -0.006979 0.013023 -0.000239 0.000000 0.000000 0.000000
# 3 -0.009812 -0.000239 0.013343 0.000000 0.000000 0.000000
# 4 0.000000 0.000000 0.000000 1.127925 0.000000 0.000000
# 5 0.000000 0.000000 0.000000 0.000000 0.045376 0.000000
# 6 0.000000 0.000000 0.000000 0.000000 0.000000 0.049363
#
#
# Mechanical properties :
#
#
# Convention : Reuss Voigt Hill
#
# Bulk Modulus (GPa) = 45.49145 48.75011 47.12078
# Shear Modulus (GPa) = 3.78761 19.21446 11.50104
#
# Velocity S-wave (km/s) = 1.42313 3.20535 2.47988
# Velocity P-wave (km/s) = 5.19860 6.30607 5.77893
#
# Compressibility (1/GPa) = 0.02198215
#
# Stress axis : x y z
#
# Youngs Moduli (GPa) = 33.69579 76.78997 74.94520
#
# Poissons Ratio (x) = 0.53591 0.73540
# Poissons Ratio (y) = 0.23516 0.01791
# Poissons Ratio (z) = 0.33064 0.01835
#
# Static dielectric constant tensor:
#      x y z
#    x 1.720480 0.000000 0.000000 
#    y 0.000000 1.692630 0.000000 
#    z 0.000000 0.000000 1.648400 
# 
# From -- ./inp_files/6098.got.cif
#   From: 2010.05.17/outbox.cif.g08.bks.cpg/sg18_4_cif.got.tgz:6098.got - 2010.06.03 22:40:56.
