data_PCOD9311373
_publ_section_title
;
Structure prediction by ZEFSAII (Michael W. Deem and Ramdas Pophale) SiO2 
 PCOD9311373
Probable space group: P 2 2 21
;
_chemical_formula_sum "Si O2"
_cell_formula_units_Z 32
_cell_length_a 11.850945
_cell_length_b 13.471429
_cell_length_c 10.147588
_cell_angle_alpha 90.000000
_cell_angle_beta 90.000000
_cell_angle_gamma 90.000000
_cell_volume 1620.053942
_symmetry_space_group_name_H-M "P 2 2 21"
_symmetry_group_IT_number 17
_symmetry_cell_setting 'orthorhombic'
loop_
_space_group_symop_operation_xyz
x,y,z
-x,-y,1/2+z
x,-y,-z
-x,y,1/2-z
loop_
_atom_site_type_symbol
_atom_site_label
_atom_site_fract_x
_atom_site_fract_y
_atom_site_fract_z
Si Si1 0.409708 0.990422 0.641925
Si Si2 0.366101 0.609826 0.269632
Si Si3 0.224017 0.395580 0.998570
Si Si4 0.634131 0.386765 0.234138
Si Si5 0.831918 0.815931 0.500672
Si Si6 0.242721 0.185032 0.300190
Si Si7 0.081477 0.883621 0.490202
Si Si8 0.735185 0.181383 0.787540
O O1 0.500000 0.964655 0.750000
O O2 0.319178 0.902565 0.641726
O O3 0.465348 0.000000 0.500000
O O4 0.350065 0.094191 0.674265
O O5 0.500000 0.622724 0.250000
O O6 0.302420 0.607257 0.129550
O O7 0.350265 0.502248 0.672721
O O8 0.314364 0.710905 0.329127
O O9 0.143285 0.301931 0.002393
O O10 0.161302 0.500000 0.000000
O O11 0.308213 0.391342 0.122062
O O12 0.500000 0.369868 0.250000
O O13 0.696441 0.290718 0.174141
O O14 0.775439 0.834588 0.643538
O O15 0.755591 0.828176 0.370163
O O16 0.947470 0.873778 0.481887
O O17 0.126509 0.173441 0.380044
O O18 0.148593 0.838834 0.365665
O O19 0.110057 0.000000 0.500000
#
# Coordination Sequence:
#
# PCOD9311373 Si02
#       8
#     4   4   4   4   4   4   4   4
#     4  12  26  44  63  89 124 166 195 245 307 366
#     4   9  18  34  58  86 117 157 197 239 298 366
#     4   8  16  35  55  81 119 150 195 249 293 358
#     4   9  18  34  58  86 117 157 197 239 298 366
#     4  10  24  36  65  91 108 162 207 247 309 360
#     4  11  22  42  60  90 124 154 202 254 301 358
#     4  12  24  43  60  82 123 160 202 263 307 359
#     4  11  22  42  60  90 124 154 202 254 301 358
#
# _framework density 19.752428999999999
#
# number of rings (size 3 to 8) (size 9 to 14) (size 15 to 20)
#    0.000    1.750    2.500    1.500    3.500    2.000 
#    4.500    3.125    0.000    6.000    0.000    0.000 
#    0.000    0.000    0.000    0.000    0.000    0.000 
#
# Total GULP energy -178417.671548 kJ/mol
# GULP energy per Si atom -5575.552236 kJ/mol
# Density = 1.970747 g / cm^3
# Si number density = 19.752429 Si / 1000 Ang^3
#
#
#
# Elastic Constant Matrix: (Units=GPa)
#
#
# Indices 1 2 3 4 5 6 
#
# 1 41.3719 19.5409 -12.4125 0.0000 0.0000 0.0000
# 2 19.5409 133.3246 -8.1427 0.0000 0.0000 0.0000
# 3 -12.4125 -8.1427 62.1852 0.0000 0.0000 0.0000
# 4 0.0000 0.0000 0.0000 -45.0627 0.0000 0.0000
# 5 0.0000 0.0000 0.0000 0.0000 16.0210 0.0000
# 6 0.0000 0.0000 0.0000 0.0000 0.0000 29.9436
#
#
#
# Elastic Compliance Matrix: (Units=1/GPa)
#
#
# Indices 1 2 3 4 5 6 
#
# 1 0.027422 -0.003715 0.004987 0.000000 0.000000 0.000000
# 2 -0.003715 0.008064 0.000314 0.000000 0.000000 0.000000
# 3 0.004987 0.000314 0.017118 0.000000 0.000000 0.000000
# 4 0.000000 0.000000 0.000000 -0.022191 0.000000 0.000000
# 5 0.000000 0.000000 0.000000 0.000000 0.062418 0.000000
# 6 0.000000 0.000000 0.000000 0.000000 0.000000 0.033396
#
#
# Mechanical properties :
#
#
# Convention : Reuss Voigt Hill
#
# Bulk Modulus (GPa) = 17.92831 26.09479 22.01155
# Shear Modulus (GPa) = 35.29958 16.04010 25.66984
#
# Velocity S-wave (km/s) = 4.23200 2.85275 3.60888
# Velocity P-wave (km/s) = 5.74247 4.90821 5.34165
#
# Compressibility (1/GPa) = 0.05577772
#
# Stress axis : x y z
#
# Youngs Moduli (GPa) = 36.46746 124.00604 58.41924
#
# Poissons Ratio (x) = 0.46062 -0.29134
# Poissons Ratio (y) = 0.13546 -0.01837
# Poissons Ratio (z) = -0.18187 -0.03900
#
# Static dielectric constant tensor:
#      x y z
#    x 1.890220 0.000000 0.000000 
#    y 0.000000 1.731470 0.000000 
#    z 0.000000 0.000000 1.792190 
# 
# From -- ./inp_files/4941.got.cif
#   From: 2010.05.17/outbox.cif.g08.bks.cpg/sg17_3_cif.got.tgz:4941.got - 2010.06.03 22:34:06.
