data_PCOD9311897
_publ_section_title
;
Structure prediction by ZEFSAII (Michael W. Deem and Ramdas Pophale) SiO2 
 PCOD9311897
Probable space group: P 21 21 2
;
_chemical_formula_sum "Si O2"
_cell_formula_units_Z 22
_cell_length_a 8.671820
_cell_length_b 16.023857
_cell_length_c 8.674780
_cell_angle_alpha 90.000000
_cell_angle_beta 90.000000
_cell_angle_gamma 90.000000
_cell_volume 1205.412761
_symmetry_space_group_name_H-M "P 21 21 2"
_symmetry_group_IT_number 18
_symmetry_cell_setting 'orthorhombic'
loop_
_space_group_symop_operation_xyz
x,y,z
-x,-y,z
1/2+x,1/2-y,-z
1/2-x,1/2+y,-z
loop_
_atom_site_type_symbol
_atom_site_label
_atom_site_fract_x
_atom_site_fract_y
_atom_site_fract_z
Si Si1 0.611388 0.155469 0.477778
Si Si2 0.189472 0.626359 0.125033
Si Si3 0.586720 0.412519 0.868160
Si Si4 0.500000 0.000000 0.675045
Si Si5 0.406453 0.278250 0.673333
Si Si6 0.070434 0.592473 0.810120
O O1 0.536763 0.230034 0.576347
O O2 0.787262 0.174551 0.437211
O O3 0.519090 0.143620 0.318016
O O4 0.582010 0.070131 0.571267
O O5 0.125447 0.547998 0.220907
O O6 0.184352 0.706677 0.232331
O O7 0.350990 0.609521 0.039484
O O8 0.072617 0.634994 0.978789
O O9 0.500000 0.500000 0.867399
O O10 0.481903 0.342010 0.793153
O O11 0.747760 0.417387 0.773030
O O12 0.000000 0.500000 0.822586
#
# Coordination Sequence:
#
# PCOD9311897 Si02
#       6
#     4   4   4   2   4   4
#     4  11  23  40  64  94 129 169 210 258 330 377
#     4   9  22  39  64  90 123 160 220 252 318 369
#     4  10  22  40  63  94 122 164 214 261 312 377
#     4  10  20  42  64  92 120 174 206 258 318 390
#     4  11  24  42  62  94 130 168 209 270 315 384
#     4  10  19  37  66  90 120 169 206 260 310 382
#
# _framework density 18.251011999999999
#
# number of rings (size 3 to 8) (size 9 to 14) (size 15 to 20)
#    1.091    0.727    1.818    2.182    2.545    0.000 
#    6.545    0.000    0.000    0.000    0.000    0.000 
#    0.000    0.000    0.000    0.000    0.000    0.000 
#
# Total GULP energy -122642.988719 kJ/mol
# GULP energy per Si atom -5574.681305 kJ/mol
# Density = 1.820947 g / cm^3
# Si number density = 18.251012 Si / 1000 Ang^3
#
#
#
# Elastic Constant Matrix: (Units=GPa)
#
#
# Indices 1 2 3 4 5 6 
#
# 1 84.5810 44.9947 20.4197 0.0000 0.0000 0.0000
# 2 44.9947 97.5857 37.5339 0.0000 0.0000 0.0000
# 3 20.4197 37.5339 84.7264 0.0000 0.0000 0.0000
# 4 0.0000 0.0000 0.0000 -2.7779 0.0000 0.0000
# 5 0.0000 0.0000 0.0000 0.0000 41.7271 0.0000
# 6 0.0000 0.0000 0.0000 0.0000 0.0000 20.8544
#
#
#
# Elastic Compliance Matrix: (Units=1/GPa)
#
#
# Indices 1 2 3 4 5 6 
#
# 1 0.015699 -0.006971 -0.000695 0.000000 0.000000 0.000000
# 2 -0.006971 0.015448 -0.005163 0.000000 0.000000 0.000000
# 3 -0.000695 -0.005163 0.014258 0.000000 0.000000 0.000000
# 4 0.000000 0.000000 0.000000 -0.359982 0.000000 0.000000
# 5 0.000000 0.000000 0.000000 0.000000 0.023965 0.000000
# 6 0.000000 0.000000 0.000000 0.000000 0.000000 0.047952
#
#
# Mechanical properties :
#
#
# Convention : Reuss Voigt Hill
#
# Bulk Modulus (GPa) = 50.64588 52.53220 51.58904
# Shear Modulus (GPa) = -23.76203 22.89037 -0.43583
#
# Velocity S-wave (km/s) = -3.61218 3.54531 -0.48920
# Velocity P-wave (km/s) = 3.22688 6.75312 5.29232
#
# Compressibility (1/GPa) = 0.01974494
#
# Stress axis : x y z
#
# Youngs Moduli (GPa) = 63.69704 64.73528 70.13805
#
# Poissons Ratio (x) = 0.45128 0.04878
# Poissons Ratio (y) = 0.44404 0.36214
# Poissons Ratio (z) = 0.04430 0.33424
#
# Static dielectric constant tensor:
#      x y z
#    x 1.621180 0.000000 0.000000 
#    y 0.000000 1.597290 0.000000 
#    z 0.000000 0.000000 1.632070 
# 
# From -- ./inp_files/3092.got.cif
#   From: 2010.05.17/outbox.cif.g08.bks.cpg/sg18_2_cif.got.tgz:3092.got - 2010.06.03 22:40:56.
