data_PCOD9311497
_publ_section_title
;
Structure prediction by ZEFSAII (Michael W. Deem and Ramdas Pophale) SiO2 
 PCOD9311497
Probable space group: P 2 2 21
;
_chemical_formula_sum "Si O2"
_cell_formula_units_Z 24
_cell_length_a 13.173607
_cell_length_b 11.753129
_cell_length_c 6.789538
_cell_angle_alpha 90.000000
_cell_angle_beta 90.000000
_cell_angle_gamma 90.000000
_cell_volume 1051.231654
_symmetry_space_group_name_H-M "P 2 2 21"
_symmetry_group_IT_number 17
_symmetry_cell_setting 'orthorhombic'
loop_
_space_group_symop_operation_xyz
x,y,z
-x,-y,1/2+z
x,-y,-z
-x,y,1/2-z
loop_
_atom_site_type_symbol
_atom_site_label
_atom_site_fract_x
_atom_site_fract_y
_atom_site_fract_z
Si Si1 0.198227 0.373827 0.505583
Si Si2 0.301772 0.126173 0.994412
Si Si3 0.399434 0.882902 0.384066
Si Si4 0.608003 0.309015 0.211861
Si Si5 0.891998 0.809014 0.711855
Si Si6 0.899433 0.617096 0.384062
O O1 0.147647 0.500000 0.500000
O O2 0.301607 0.383846 0.378850
O O3 0.144233 0.266928 0.398532
O O4 0.194494 0.356984 0.739455
O O5 0.305506 0.143013 0.760541
O O6 0.355766 0.233072 0.101462
O O7 0.198392 0.116156 0.121143
O O8 0.352353 0.000000 0.000000
O O9 0.500000 0.884431 0.250000
O O10 0.409953 0.785292 0.544329
O O11 0.385287 0.000000 0.500000
O O12 0.500000 0.367559 0.250000
O O13 0.909956 0.714707 0.544324
O O14 0.000000 0.867559 0.750000
O O15 0.885280 0.500000 0.500000
O O16 0.000000 0.615561 0.250000
#
# Coordination Sequence:
#
# PCOD9311497 Si02
#       6
#     4   4   4   4   4   4
#     4  11  23  41  65  94 128 173 219 270 333 398
#     4  11  23  41  65  94 128 173 219 270 333 398
#     4  12  21  36  63  99 129 167 221 278 329 386
#     4  11  23  41  65  94 132 170 218 272 329 399
#     4  11  23  41  65  94 132 170 218 272 329 399
#     4  12  21  36  63  99 129 167 221 278 329 386
#
# _framework density 22.830362000000001
#
# number of rings (size 3 to 8) (size 9 to 14) (size 15 to 20)
#    0.000    0.667    6.667    3.000    0.000    0.000 
#    0.000    1.667    0.000    0.000    0.000    0.000 
#    0.000    0.000    0.000    0.000    0.000    0.000 
#
# Total GULP energy -133965.215054 kJ/mol
# GULP energy per Si atom -5581.883961 kJ/mol
# Density = 2.277840 g / cm^3
# Si number density = 22.830362 Si / 1000 Ang^3
#
#
#
# Elastic Constant Matrix: (Units=GPa)
#
#
# Indices 1 2 3 4 5 6 
#
# 1 64.3318 -9.5022 6.8929 0.0000 0.0000 0.0000
# 2 -9.5022 51.9067 15.1454 0.0000 0.0000 0.0000
# 3 6.8929 15.1454 125.9770 0.0000 0.0000 0.0000
# 4 0.0000 0.0000 0.0000 32.2755 0.0000 0.0000
# 5 0.0000 0.0000 0.0000 0.0000 51.7094 0.0000
# 6 0.0000 0.0000 0.0000 0.0000 0.0000 19.6210
#
#
#
# Elastic Compliance Matrix: (Units=1/GPa)
#
#
# Indices 1 2 3 4 5 6 
#
# 1 0.016175 0.003336 -0.001286 0.000000 0.000000 0.000000
# 2 0.003336 0.020654 -0.002666 0.000000 0.000000 0.000000
# 3 -0.001286 -0.002666 0.008329 0.000000 0.000000 0.000000
# 4 0.000000 0.000000 0.000000 0.030983 0.000000 0.000000
# 5 0.000000 0.000000 0.000000 0.000000 0.019339 0.000000
# 6 0.000000 0.000000 0.000000 0.000000 0.000000 0.050966
#
#
# Mechanical properties :
#
#
# Convention : Reuss Voigt Hill
#
# Bulk Modulus (GPa) = 22.76515 29.69863 26.23189
# Shear Modulus (GPa) = 30.80356 36.03311 33.41834
#
# Velocity S-wave (km/s) = 3.67718 3.97709 3.83007
# Velocity P-wave (km/s) = 5.29358 5.84177 5.57442
#
# Compressibility (1/GPa) = 0.04392679
#
# Stress axis : x y z
#
# Youngs Moduli (GPa) = 61.82378 48.41704 120.06528
#
# Poissons Ratio (x) = -0.16153 0.15442
# Poissons Ratio (y) = -0.20626 0.32005
# Poissons Ratio (z) = 0.07951 0.12906
#
# Static dielectric constant tensor:
#      x y z
#    x 2.000670 0.000000 0.000000 
#    y 0.000000 1.842740 0.000000 
#    z 0.000000 0.000000 1.913770 
# 
# From -- ./inp_files/2180.got.cif
#   From: 2010.05.17/outbox.cif.g08.bks.cpg/sg17_2_cif.got.tgz:2180.got - 2010.06.03 22:34:06.
