data_PCOD9311895
_publ_section_title
;
Structure prediction by ZEFSAII (Michael W. Deem and Ramdas Pophale) SiO2 
 PCOD9311895
Probable space group: P 21 21 2
;
_chemical_formula_sum "Si O2"
_cell_formula_units_Z 30
_cell_length_a 7.333851
_cell_length_b 23.565023
_cell_length_c 7.057899
_cell_angle_alpha 90.000000
_cell_angle_beta 90.000000
_cell_angle_gamma 90.000000
_cell_volume 1219.762815
_symmetry_space_group_name_H-M "P 21 21 2"
_symmetry_group_IT_number 18
_symmetry_cell_setting 'orthorhombic'
loop_
_space_group_symop_operation_xyz
x,y,z
-x,-y,z
1/2+x,1/2-y,-z
1/2-x,1/2+y,-z
loop_
_atom_site_type_symbol
_atom_site_label
_atom_site_fract_x
_atom_site_fract_y
_atom_site_fract_z
Si Si1 0.500000 0.500000 0.956715
Si Si2 0.441961 0.425108 0.317871
Si Si3 0.569533 0.182613 0.140799
Si Si4 0.101590 0.190222 0.789002
Si Si5 0.289781 0.558812 0.629562
Si Si6 0.478756 0.801756 0.712834
Si Si7 0.116424 0.400690 0.570459
Si Si8 0.634985 0.320758 0.782311
O O1 0.439531 0.450913 0.105782
O O2 0.342134 0.519200 0.808296
O O3 0.479452 0.357213 0.308000
O O4 0.615101 0.451640 0.427889
O O5 0.266347 0.433927 0.451680
O O6 0.603728 0.242510 0.240698
O O7 0.666387 0.127853 0.228925
O O8 0.351957 0.178826 0.175097
O O9 0.610675 0.188204 0.918895
O O10 0.312435 0.178589 0.742620
O O11 0.050846 0.183757 0.010058
O O12 0.074325 0.566971 0.600702
O O13 0.385762 0.618858 0.686276
O O14 0.414168 0.844030 0.553382
O O15 0.436818 0.735181 0.673804
#
# Coordination Sequence:
#
# PCOD9311895 Si02
#       8
#     2   4   4   4   4   4   4   4
#     4  12  28  56  82  98 146 206 266 332 398 430
#     4  12  26  47  77 110 139 197 260 321 380 451
#     4   9  21  35  58 105 153 195 233 283 359 467
#     4  10  19  37  65 103 154 194 239 292 364 450
#     4  11  25  49  75 106 148 193 255 326 376 451
#     4  10  20  36  64 105 152 198 230 288 362 463
#     4  11  25  42  73 112 147 184 245 304 386 453
#     4   9  19  38  63  99 152 199 236 287 369 447
#
# _framework density 24.594944999999999
#
# number of rings (size 3 to 8) (size 9 to 14) (size 15 to 20)
#    0.000    1.600    2.667    1.200    3.733    2.133 
#    0.000    4.000    0.000    0.000    0.000    0.000 
#    0.000    0.000    0.000    0.000    0.000    0.000 
#
# Total GULP energy -167660.210255 kJ/mol
# GULP energy per Si atom -5588.673675 kJ/mol
# Density = 2.453897 g / cm^3
# Si number density = 24.594945 Si / 1000 Ang^3
#
#
#
# Elastic Constant Matrix: (Units=GPa)
#
#
# Indices 1 2 3 4 5 6 
#
# 1 92.4677 30.9095 24.9919 0.0000 0.0000 0.0000
# 2 30.9095 90.8315 31.1806 0.0000 0.0000 0.0000
# 3 24.9919 31.1806 115.6391 0.0000 0.0000 0.0000
# 4 0.0000 0.0000 0.0000 42.6855 0.0000 0.0000
# 5 0.0000 0.0000 0.0000 0.0000 31.6938 0.0000
# 6 0.0000 0.0000 0.0000 0.0000 0.0000 32.6281
#
#
#
# Elastic Compliance Matrix: (Units=1/GPa)
#
#
# Indices 1 2 3 4 5 6 
#
# 1 0.012503 -0.003667 -0.001714 0.000000 0.000000 0.000000
# 2 -0.003667 0.013208 -0.002769 0.000000 0.000000 0.000000
# 3 -0.001714 -0.002769 0.009765 0.000000 0.000000 0.000000
# 4 0.000000 0.000000 0.000000 0.023427 0.000000 0.000000
# 5 0.000000 0.000000 0.000000 0.000000 0.031552 0.000000
# 6 0.000000 0.000000 0.000000 0.000000 0.000000 0.030648
#
#
# Mechanical properties :
#
#
# Convention : Reuss Voigt Hill
#
# Bulk Modulus (GPa) = 52.14453 52.56693 52.35573
# Shear Modulus (GPa) = 34.77207 35.52522 35.14865
#
# Velocity S-wave (km/s) = 3.76412 3.80466 3.78445
# Velocity P-wave (km/s) = 6.33552 6.38123 6.35842
#
# Compressibility (1/GPa) = 0.01917747
#
# Stress axis : x y z
#
# Youngs Moduli (GPa) = 79.97843 75.71393 102.41168
#
# Poissons Ratio (x) = 0.27761 0.17549
# Poissons Ratio (y) = 0.29325 0.28356
# Poissons Ratio (z) = 0.13705 0.20964
#
# Static dielectric constant tensor:
#      x y z
#    x 2.022640 0.000000 0.000000 
#    y 0.000000 2.038510 0.000000 
#    z 0.000000 0.000000 1.958730 
# 
# From -- ./inp_files/3524.got.cif
#   From: 2010.05.17/outbox.cif.g08.bks.cpg/sg18_2_cif.got.tgz:3524.got - 2010.06.03 22:40:56.
