data_PCOD9311090
_publ_section_title
;
Structure prediction by ZEFSAII (Michael W. Deem and Ramdas Pophale) SiO2 
 PCOD9311090
Probable space group: P 2 2 21
;
_chemical_formula_sum "Si O2"
_cell_formula_units_Z 12
_cell_length_a 10.936526
_cell_length_b 4.943028
_cell_length_c 8.865302
_cell_angle_alpha 90.000000
_cell_angle_beta 90.000000
_cell_angle_gamma 90.000000
_cell_volume 479.254274
_symmetry_space_group_name_H-M "P 2 2 21"
_symmetry_group_IT_number 17
_symmetry_cell_setting 'orthorhombic'
loop_
_space_group_symop_operation_xyz
x,y,z
-x,-y,1/2+z
x,-y,-z
-x,y,1/2-z
loop_
_atom_site_type_symbol
_atom_site_label
_atom_site_fract_x
_atom_site_fract_y
_atom_site_fract_z
Si Si1 0.750000 0.752621 0.112959
Si Si2 0.386001 0.575326 0.828057
Si Si3 0.886001 0.424674 0.328057
O O1 0.637567 0.692177 0.225384
O O2 0.862433 0.692177 0.225384
O O3 0.750000 0.500000 0.000000
O O4 0.750000 0.000000 0.000000
O O5 0.500000 0.719250 0.750000
O O6 0.250000 0.711167 0.824801
O O7 0.411254 0.500000 0.000000
O O8 0.911254 0.500000 0.500000
O O9 0.000000 0.280749 0.250000
#
# Coordination Sequence:
#
# PCOD9311090 Si02
#       3
#     4   4   4
#     4  10  21  40  65  92 130 176 220 276 338 402
#     4   9  19  37  65  99 136 179 230 284 345 413
#     4   9  19  37  65  99 136 179 230 284 345 413
#
# _framework density 25.038900000000002
#
# number of rings (size 3 to 8) (size 9 to 14) (size 15 to 20)
#    2.000    0.667    0.000    2.000    0.000    0.000 
#    0.000   16.667    0.000    0.000    0.000    0.000 
#    0.000    0.000    0.000    0.000    0.000    0.000 
#
# Total GULP energy -66861.202339 kJ/mol
# GULP energy per Si atom -5571.766862 kJ/mol
# Density = 2.498191 g / cm^3
# Si number density = 25.038900 Si / 1000 Ang^3
#
#
#
# Elastic Constant Matrix: (Units=GPa)
#
#
# Indices 1 2 3 4 5 6 
#
# 1 198.5794 7.8497 67.9428 0.0000 0.0000 0.0000
# 2 7.8497 121.0108 51.2532 0.0000 0.0000 0.0000
# 3 67.9428 51.2532 258.2087 0.0000 0.0000 0.0000
# 4 0.0000 0.0000 0.0000 30.1617 0.0000 0.0000
# 5 0.0000 0.0000 0.0000 0.0000 54.2797 0.0000
# 6 0.0000 0.0000 0.0000 0.0000 0.0000 -4.9240
#
#
#
# Elastic Compliance Matrix: (Units=1/GPa)
#
#
# Indices 1 2 3 4 5 6 
#
# 1 0.005543 0.000282 -0.001514 0.000000 0.000000 0.000000
# 2 0.000282 0.009037 -0.001868 0.000000 0.000000 0.000000
# 3 -0.001514 -0.001868 0.004642 0.000000 0.000000 0.000000
# 4 0.000000 0.000000 0.000000 0.033155 0.000000 0.000000
# 5 0.000000 0.000000 0.000000 0.000000 0.018423 0.000000
# 6 0.000000 0.000000 0.000000 0.000000 0.000000 -0.203089
#
#
# Mechanical properties :
#
#
# Convention : Reuss Voigt Hill
#
# Bulk Modulus (GPa) = 76.80159 92.43227 84.61693
# Shear Modulus (GPa) = -41.06821 45.95370 2.44274
#
# Velocity S-wave (km/s) = -4.05430 4.28868 0.98879
# Velocity P-wave (km/s) = 2.97035 7.84342 5.93053
#
# Compressibility (1/GPa) = 0.01302056
#
# Stress axis : x y z
#
# Youngs Moduli (GPa) = 180.41490 110.66149 215.41991
#
# Poissons Ratio (x) = -0.03119 0.32624
# Poissons Ratio (y) = -0.05085 0.40238
# Poissons Ratio (z) = 0.27323 0.20670
#
# Static dielectric constant tensor:
#      x y z
#    x 2.162780 0.000000 0.000000 
#    y 0.000000 1.980050 0.000000 
#    z 0.000000 0.000000 2.058650 
# 
# From -- ./inp_files/3326.got.cif
#   From: 2010.05.17/outbox.cif.g08.bks.cpg/sg17_2_cif.got.tgz:3326.got - 2010.06.03 22:34:06.
