data_PCOD9311166
_publ_section_title
;
Structure prediction by ZEFSAII (Michael W. Deem and Ramdas Pophale) SiO2 
 PCOD9311166
Probable space group: P 2 2 21
;
_chemical_formula_sum "Si O2"
_cell_formula_units_Z 16
_cell_length_a 9.774781
_cell_length_b 8.403541
_cell_length_c 7.920280
_cell_angle_alpha 90.000000
_cell_angle_beta 90.000000
_cell_angle_gamma 90.000000
_cell_volume 650.593761
_symmetry_space_group_name_H-M "P 2 2 21"
_symmetry_group_IT_number 17
_symmetry_cell_setting 'orthorhombic'
loop_
_space_group_symop_operation_xyz
x,y,z
-x,-y,1/2+z
x,-y,-z
-x,y,1/2-z
loop_
_atom_site_type_symbol
_atom_site_label
_atom_site_fract_x
_atom_site_fract_y
_atom_site_fract_z
Si Si1 0.589818 0.666901 0.414204
Si Si2 0.147493 0.305142 0.311055
Si Si3 0.847364 0.681094 0.214200
Si Si4 0.390062 0.884773 0.637943
O O1 0.625720 0.500000 0.500000
O O2 0.500000 0.627039 0.250000
O O3 0.728175 0.745178 0.336087
O O4 0.487616 0.760890 0.538926
O O5 0.169583 0.300150 0.513387
O O6 0.154219 0.489330 0.257748
O O7 0.274775 0.200414 0.251465
O O8 0.000000 0.245388 0.250000
O O9 0.000000 0.741350 0.250000
O O10 0.500000 0.979822 0.750000
O O11 0.325831 0.000000 0.500000
#
# Coordination Sequence:
#
# PCOD9311166 Si02
#       4
#     4   4   4   4
#     4  12  23  40  69 105 140 181 230 288 346 413
#     4  10  22  43  66  99 136 178 222 285 345 413
#     4  10  22  37  67 103 137 171 222 280 346 409
#     4  12  27  46  68  96 135 187 235 291 349 415
#
# _framework density 24.592919999999999
#
# number of rings (size 3 to 8) (size 9 to 14) (size 15 to 20)
#    0.000    1.000    2.500    4.500   10.500    0.000 
#    0.000    2.500    0.000    0.000    0.000    0.000 
#    0.000    0.000    0.000    0.000    0.000    0.000 
#
# Total GULP energy -89499.832056 kJ/mol
# GULP energy per Si atom -5593.739504 kJ/mol
# Density = 2.453695 g / cm^3
# Si number density = 24.592920 Si / 1000 Ang^3
#
#
#
# Elastic Constant Matrix: (Units=GPa)
#
#
# Indices 1 2 3 4 5 6 
#
# 1 205.7336 29.8008 46.4437 0.0000 0.0000 0.0000
# 2 29.8008 44.2178 0.8832 0.0000 0.0000 0.0000
# 3 46.4437 0.8832 54.8097 0.0000 0.0000 0.0000
# 4 0.0000 0.0000 0.0000 18.9759 0.0000 0.0000
# 5 0.0000 0.0000 0.0000 0.0000 58.2594 0.0000
# 6 0.0000 0.0000 0.0000 0.0000 0.0000 25.8732
#
#
#
# Elastic Compliance Matrix: (Units=1/GPa)
#
#
# Indices 1 2 3 4 5 6 
#
# 1 0.006790 -0.004462 -0.005681 0.000000 0.000000 0.000000
# 2 -0.004462 0.025555 0.003369 0.000000 0.000000 0.000000
# 3 -0.005681 0.003369 0.023005 0.000000 0.000000 0.000000
# 4 0.000000 0.000000 0.000000 0.052699 0.000000 0.000000
# 5 0.000000 0.000000 0.000000 0.000000 0.017165 0.000000
# 6 0.000000 0.000000 0.000000 0.000000 0.000000 0.038650
#
#
# Mechanical properties :
#
#
# Convention : Reuss Voigt Hill
#
# Bulk Modulus (GPa) = 23.92269 51.00186 37.46227
# Shear Modulus (GPa) = 26.13075 35.79724 30.96399
#
# Velocity S-wave (km/s) = 3.26319 3.81936 3.55217
# Velocity P-wave (km/s) = 4.89351 6.34299 5.66480
#
# Compressibility (1/GPa) = 0.04180132
#
# Stress axis : x y z
#
# Youngs Moduli (GPa) = 147.28445 39.13052 43.46919
#
# Poissons Ratio (x) = 0.17462 0.24696
# Poissons Ratio (y) = 0.65724 -0.14647
# Poissons Ratio (z) = 0.83677 -0.13185
#
# Static dielectric constant tensor:
#      x y z
#    x 1.981630 0.000000 0.000000 
#    y 0.000000 1.924190 0.000000 
#    z 0.000000 0.000000 2.103870 
# 
# From -- ./inp_files/3732.got.cif
#   From: 2010.05.17/outbox.cif.g08.bks.cpg/sg17_2_cif.got.tgz:3732.got - 2010.06.03 22:34:06.
