data_PCOD9311907
_publ_section_title
;
Structure prediction by ZEFSAII (Michael W. Deem and Ramdas Pophale) SiO2 
 PCOD9311907
Probable space group: P 21 21 2
;
_chemical_formula_sum "Si O2"
_cell_formula_units_Z 22
_cell_length_a 12.383472
_cell_length_b 10.430818
_cell_length_c 8.018109
_cell_angle_alpha 90.000000
_cell_angle_beta 90.000000
_cell_angle_gamma 90.000000
_cell_volume 1035.697076
_symmetry_space_group_name_H-M "P 21 21 2"
_symmetry_group_IT_number 18
_symmetry_cell_setting 'orthorhombic'
loop_
_space_group_symop_operation_xyz
x,y,z
-x,-y,z
1/2+x,1/2-y,-z
1/2-x,1/2+y,-z
loop_
_atom_site_type_symbol
_atom_site_label
_atom_site_fract_x
_atom_site_fract_y
_atom_site_fract_z
Si Si1 0.718128 0.571292 0.884497
Si Si2 0.000000 0.000000 0.943549
Si Si3 0.778352 0.014562 0.504373
Si Si4 0.141312 0.252569 0.425228
Si Si5 0.762119 0.303362 0.885183
Si Si6 0.456589 0.316401 0.328106
O O1 0.726774 0.560166 0.687364
O O2 0.779963 0.445936 0.951315
O O3 0.596988 0.547544 0.944993
O O4 0.752208 0.702255 0.968579
O O5 0.974195 0.881405 0.819647
O O6 0.684137 0.101716 0.581823
O O7 0.887280 0.071570 0.583391
O O8 0.784201 0.860087 0.513250
O O9 0.155711 0.204712 0.234270
O O10 0.030874 0.246670 0.530009
O O11 0.864347 0.266851 0.766430
#
# Coordination Sequence:
#
# PCOD9311907 Si02
#       6
#     4   2   4   4   4   4
#     4  10  22  37  59  90 121 150 196 244 304 355
#     4  10  20  32  62  84 114 158 198 236 294 356
#     4  10  21  35  60  88 114 156 201 251 290 356
#     4  10  20  37  61  83 117 155 205 246 291 356
#     4   9  22  38  59  93 119 153 198 246 303 351
#     4  10  19  38  61  87 113 159 208 239 290 360
#
# _framework density 21.241733
#
# number of rings (size 3 to 8) (size 9 to 14) (size 15 to 20)
#    0.000    2.182    1.818    0.000    7.636    0.000 
#    0.000    8.182    0.000    0.000    0.000    0.000 
#    0.000    0.000    0.000    0.000    0.000    0.000 
#
# Total GULP energy -122500.139016 kJ/mol
# GULP energy per Si atom -5568.188137 kJ/mol
# Density = 2.119339 g / cm^3
# Si number density = 21.241733 Si / 1000 Ang^3
#
#
#
# Elastic Constant Matrix: (Units=GPa)
#
#
# Indices 1 2 3 4 5 6 
#
# 1 22.5080 8.1940 -4.4983 0.0000 0.0000 0.0000
# 2 8.1940 64.4978 -9.1145 0.0000 0.0000 0.0000
# 3 -4.4983 -9.1145 29.5380 0.0000 0.0000 0.0000
# 4 0.0000 0.0000 0.0000 35.2939 0.0000 0.0000
# 5 0.0000 0.0000 0.0000 0.0000 -58.1974 0.0000
# 6 0.0000 0.0000 0.0000 0.0000 0.0000 21.4029
#
#
#
# Elastic Compliance Matrix: (Units=1/GPa)
#
#
# Indices 1 2 3 4 5 6 
#
# 1 0.047456 -0.005236 0.005611 0.000000 0.000000 0.000000
# 2 -0.005236 0.016789 0.004383 0.000000 0.000000 0.000000
# 3 0.005611 0.004383 0.036062 0.000000 0.000000 0.000000
# 4 0.000000 0.000000 0.000000 0.028333 0.000000 0.000000
# 5 0.000000 0.000000 0.000000 0.000000 -0.017183 0.000000
# 6 0.000000 0.000000 0.000000 0.000000 0.000000 0.046723
#
#
# Mechanical properties :
#
#
# Convention : Reuss Voigt Hill
#
# Bulk Modulus (GPa) = 9.10544 11.74511 10.42527
# Shear Modulus (GPa) = 26.98748 7.83072 17.40910
#
# Velocity S-wave (km/s) = 3.56826 1.92210 2.86592
# Velocity P-wave (km/s) = 4.61222 3.23531 3.98371
#
# Compressibility (1/GPa) = 0.10982445
#
# Stress axis : x y z
#
# Youngs Moduli (GPa) = 21.07202 59.56276 27.73017
#
# Poissons Ratio (x) = 0.31187 -0.15561
# Poissons Ratio (y) = 0.11033 -0.12155
# Poissons Ratio (z) = -0.11825 -0.26107
#
# Static dielectric constant tensor:
#      x y z
#    x 1.797680 0.000000 0.000000 
#    y 0.000000 1.833690 0.000000 
#    z 0.000000 0.000000 1.789540 
# 
# From -- ./inp_files/3093.got.cif
#   From: 2010.05.17/outbox.cif.g08.bks.cpg/sg18_2_cif.got.tgz:3093.got - 2010.06.03 22:40:56.
