data_PCOD9311966
_publ_section_title
;
Structure prediction by ZEFSAII (Michael W. Deem and Ramdas Pophale) SiO2 
 PCOD9311966
Probable space group: P 21 21 2
;
_chemical_formula_sum "Si O2"
_cell_formula_units_Z 22
_cell_length_a 12.472040
_cell_length_b 13.735994
_cell_length_c 6.740049
_cell_angle_alpha 90.000000
_cell_angle_beta 90.000000
_cell_angle_gamma 90.000000
_cell_volume 1154.677335
_symmetry_space_group_name_H-M "P 21 21 2"
_symmetry_group_IT_number 18
_symmetry_cell_setting 'orthorhombic'
loop_
_space_group_symop_operation_xyz
x,y,z
-x,-y,z
1/2+x,1/2-y,-z
1/2-x,1/2+y,-z
loop_
_atom_site_type_symbol
_atom_site_label
_atom_site_fract_x
_atom_site_fract_y
_atom_site_fract_z
Si Si1 0.540089 0.768167 0.036136
Si Si2 0.114769 0.184414 0.302121
Si Si3 0.336463 0.765471 0.299791
Si Si4 0.186190 0.903195 0.051331
Si Si5 0.500000 0.500000 0.688168
Si Si6 0.230789 0.603092 0.037299
O O1 0.456251 0.775615 0.213861
O O2 0.469628 0.736376 0.844812
O O3 0.627722 0.682434 0.070451
O O4 0.608408 0.864243 0.990223
O O5 0.160449 0.256833 0.465030
O O6 0.054648 0.093694 0.412435
O O7 0.205954 0.139527 0.160291
O O8 0.265671 0.851045 0.205485
O O9 0.283394 0.666746 0.212262
O O10 0.091023 0.955099 0.171128
O O11 0.247573 0.988852 0.937422
#
# Coordination Sequence:
#
# PCOD9311966 Si02
#       6
#     4   4   4   4   2   4
#     4   9  19  34  53  76 106 143 174 219 273 320
#     4   9  18  33  52  80 107 136 182 223 268 323
#     4  10  20  33  55  80 107 140 176 226 271 314
#     4   9  18  35  55  77 106 138 178 220 262 315
#     4   8  16  32  54  74 102 136 172 220 260 312
#     4   9  19  35  53  76 107 143 180 219 267 324
#
# _framework density 19.052941000000001
#
# number of rings (size 3 to 8) (size 9 to 14) (size 15 to 20)
#    0.000    2.909    0.000    1.091    0.000    6.545 
#    0.000    9.091    0.000    6.545    0.000    0.000 
#    0.000    0.000    0.000    0.000    0.000    0.000 
#
# Total GULP energy -122575.723384 kJ/mol
# GULP energy per Si atom -5571.623790 kJ/mol
# Density = 1.900958 g / cm^3
# Si number density = 19.052941 Si / 1000 Ang^3
#
#
#
# Elastic Constant Matrix: (Units=GPa)
#
#
# Indices 1 2 3 4 5 6 
#
# 1 58.3919 15.3142 11.7148 0.0000 0.0000 0.0000
# 2 15.3142 70.2199 1.3674 0.0000 0.0000 0.0000
# 3 11.7148 1.3674 44.5334 0.0000 0.0000 0.0000
# 4 0.0000 0.0000 0.0000 24.4381 0.0000 0.0000
# 5 0.0000 0.0000 0.0000 0.0000 6.4356 0.0000
# 6 0.0000 0.0000 0.0000 0.0000 0.0000 25.2454
#
#
#
# Elastic Compliance Matrix: (Units=1/GPa)
#
#
# Indices 1 2 3 4 5 6 
#
# 1 0.019185 -0.004088 -0.004921 0.000000 0.000000 0.000000
# 2 -0.004088 0.015121 0.000611 0.000000 0.000000 0.000000
# 3 -0.004921 0.000611 0.023731 0.000000 0.000000 0.000000
# 4 0.000000 0.000000 0.000000 0.040920 0.000000 0.000000
# 5 0.000000 0.000000 0.000000 0.000000 0.155385 0.000000
# 6 0.000000 0.000000 0.000000 0.000000 0.000000 0.039611
#
#
# Mechanical properties :
#
#
# Convention : Reuss Voigt Hill
#
# Bulk Modulus (GPa) = 24.24828 25.54866 24.89847
# Shear Modulus (GPa) = 15.40850 20.87376 18.14113
#
# Velocity S-wave (km/s) = 2.84689 3.31352 3.08903
# Velocity P-wave (km/s) = 4.85394 5.29884 5.08126
#
# Compressibility (1/GPa) = 0.04124003
#
# Stress axis : x y z
#
# Youngs Moduli (GPa) = 52.12349 66.13458 42.13927
#
# Poissons Ratio (x) = 0.27038 0.20738
# Poissons Ratio (y) = 0.21309 -0.02575
# Poissons Ratio (z) = 0.25651 -0.04042
#
# Static dielectric constant tensor:
#      x y z
#    x 1.670970 0.000000 0.000000 
#    y 0.000000 1.753180 0.000000 
#    z 0.000000 0.000000 1.627150 
# 
# From -- ./inp_files/1055.got.cif
#   From: 2010.05.17/outbox.cif.g08.bks.cpg/sg18_1_cif.got.tgz:1055.got - 2010.06.03 22:40:56.
