data_PCOD9311960
_publ_section_title
;
Structure prediction by ZEFSAII (Michael W. Deem and Ramdas Pophale) SiO2 
 PCOD9311960
Probable space group: P 21 21 2
;
_chemical_formula_sum "Si O2"
_cell_formula_units_Z 28
_cell_length_a 7.777561
_cell_length_b 26.451015
_cell_length_c 5.375174
_cell_angle_alpha 90.000000
_cell_angle_beta 90.000000
_cell_angle_gamma 90.000000
_cell_volume 1105.804353
_symmetry_space_group_name_H-M "P 21 21 2"
_symmetry_group_IT_number 18
_symmetry_cell_setting 'orthorhombic'
loop_
_space_group_symop_operation_xyz
x,y,z
-x,-y,z
1/2+x,1/2-y,-z
1/2-x,1/2+y,-z
loop_
_atom_site_type_symbol
_atom_site_label
_atom_site_fract_x
_atom_site_fract_y
_atom_site_fract_z
Si Si1 0.634473 0.427217 0.501292
Si Si2 0.234830 0.463899 0.507912
Si Si3 0.013453 0.688828 0.202957
Si Si4 0.575899 0.261399 0.145025
Si Si5 0.798364 0.242039 0.527716
Si Si6 0.068209 0.128146 0.005062
Si Si7 0.830194 0.591631 0.010543
O O1 0.435721 0.446613 0.510909
O O2 0.757754 0.475669 0.524067
O O3 0.648567 0.397897 0.240660
O O4 0.650776 0.394133 0.747230
O O5 0.167714 0.447805 0.238019
O O6 0.147726 0.435207 0.742285
O O7 0.838188 0.719276 0.278605
O O8 0.962539 0.634728 0.102245
O O9 0.144011 0.701502 0.428139
O O10 0.063538 0.723588 0.968781
O O11 0.716779 0.224539 0.266534
O O12 0.478207 0.282163 0.394649
O O13 0.600026 0.312227 0.997536
O O14 0.863458 0.115700 0.997659
#
# Coordination Sequence:
#
# PCOD9311960 Si02
#       7
#     4   4   4   4   4   4   4
#     4   9  18  32  51  81 116 147 186 241 301 355
#     4   9  18  32  51  81 116 147 186 241 301 355
#     4  11  23  38  58  85 120 161 202 245 293 356
#     4  11  23  38  58  85 120 161 202 245 293 356
#     4  10  24  38  58  80 122 156 202 244 294 340
#     4  10  20  32  56  82 114 153 191 238 298 357
#     4  10  20  32  56  82 114 153 191 238 298 357
#
# _framework density 25.320934999999999
#
# number of rings (size 3 to 8) (size 9 to 14) (size 15 to 20)
#    0.000    2.000    1.429    1.714    8.000    3.429 
#    0.000    0.000    0.000    0.000    0.000    6.000 
#    0.000    0.000    0.000    0.000    0.000    0.000 
#
# Total GULP energy -156151.397367 kJ/mol
# GULP energy per Si atom -5576.835620 kJ/mol
# Density = 2.526330 g / cm^3
# Si number density = 25.320935 Si / 1000 Ang^3
#
#
#
# Elastic Constant Matrix: (Units=GPa)
#
#
# Indices 1 2 3 4 5 6 
#
# 1 68.8281 17.7988 12.3932 0.0000 0.0000 0.0000
# 2 17.7988 97.1535 41.4170 0.0000 0.0000 0.0000
# 3 12.3932 41.4170 123.2904 0.0000 0.0000 0.0000
# 4 0.0000 0.0000 0.0000 45.8158 0.0000 0.0000
# 5 0.0000 0.0000 0.0000 0.0000 14.9609 0.0000
# 6 0.0000 0.0000 0.0000 0.0000 0.0000 30.0679
#
#
#
# Elastic Compliance Matrix: (Units=1/GPa)
#
#
# Indices 1 2 3 4 5 6 
#
# 1 0.015303 -0.002507 -0.000696 0.000000 0.000000 0.000000
# 2 -0.002507 0.012424 -0.003922 0.000000 0.000000 0.000000
# 3 -0.000696 -0.003922 0.009498 0.000000 0.000000 0.000000
# 4 0.000000 0.000000 0.000000 0.021827 0.000000 0.000000
# 5 0.000000 0.000000 0.000000 0.000000 0.066841 0.000000
# 6 0.000000 0.000000 0.000000 0.000000 0.000000 0.033258
#
#
# Mechanical properties :
#
#
# Convention : Reuss Voigt Hill
#
# Bulk Modulus (GPa) = 43.52384 48.05445 45.78914
# Shear Modulus (GPa) = 27.61544 32.67978 30.14761
#
# Velocity S-wave (km/s) = 3.30603 3.59642 3.45428
# Velocity P-wave (km/s) = 5.63909 6.02204 5.83371
#
# Compressibility (1/GPa) = 0.02297591
#
# Stress axis : x y z
#
# Youngs Moduli (GPa) = 65.34868 80.48913 105.28198
#
# Poissons Ratio (x) = 0.20176 0.07329
# Poissons Ratio (y) = 0.16381 0.41288
# Poissons Ratio (z) = 0.04549 0.31565
#
# Static dielectric constant tensor:
#      x y z
#    x 2.129630 0.000000 0.000000 
#    y 0.000000 1.932050 0.000000 
#    z 0.000000 0.000000 2.107780 
# 
# From -- ./inp_files/714.got.cif
#   From: 2010.05.17/outbox.cif.g08.bks.cpg/sg18_1_cif.got.tgz:714.got - 2010.06.03 22:40:56.
