data_PCOD9311937
_publ_section_title
;
Structure prediction by ZEFSAII (Michael W. Deem and Ramdas Pophale) SiO2 
 PCOD9311937
Probable space group: P 21 21 2
;
_chemical_formula_sum "Si O2"
_cell_formula_units_Z 32
_cell_length_a 8.500407
_cell_length_b 15.618532
_cell_length_c 10.604992
_cell_angle_alpha 90.000000
_cell_angle_beta 90.000000
_cell_angle_gamma 90.000000
_cell_volume 1407.959872
_symmetry_space_group_name_H-M "P 21 21 2"
_symmetry_group_IT_number 18
_symmetry_cell_setting 'orthorhombic'
loop_
_space_group_symop_operation_xyz
x,y,z
-x,-y,z
1/2+x,1/2-y,-z
1/2-x,1/2+y,-z
loop_
_atom_site_type_symbol
_atom_site_label
_atom_site_fract_x
_atom_site_fract_y
_atom_site_fract_z
Si Si1 0.283850 0.179935 0.237118
Si Si2 0.781793 0.178748 0.174068
Si Si3 0.601175 0.414019 0.438925
Si Si4 0.687703 0.491150 0.908505
Si Si5 0.015176 0.763999 0.400712
Si Si6 0.006784 0.771750 0.947467
Si Si7 0.570618 0.905217 0.449926
Si Si8 0.146814 0.060259 0.838560
O O1 0.230182 0.095251 0.162928
O O2 0.142712 0.218723 0.319904
O O3 0.344536 0.250621 0.140144
O O4 0.432707 0.147371 0.319763
O O5 0.626468 0.205951 0.096841
O O6 0.833337 0.211137 0.313620
O O7 0.771624 0.076041 0.168607
O O8 0.924385 0.217159 0.086954
O O9 0.500000 0.500000 0.449565
O O10 0.500625 0.330700 0.480894
O O11 0.743616 0.420790 0.535220
O O12 0.687905 0.410127 0.302167
O O13 0.500000 0.500000 0.920883
O O14 0.751613 0.485591 0.053794
O O15 0.018563 0.666093 0.448163
O O16 0.922930 0.858918 0.909798
O O17 0.500000 0.000000 0.454164
O O18 0.000000 0.000000 0.811671
#
# Coordination Sequence:
#
# PCOD9311937 Si02
#       8
#     4   4   4   4   4   4   4   4
#     4  11  26  44  71  99 139 183 244 291 363 438
#     4  12  25  41  74 100 145 185 237 298 359 440
#     4  10  24  41  70 101 134 189 235 290 358 432
#     4  11  21  44  70 101 135 191 230 295 353 427
#     4  11  24  46  68 101 140 193 238 296 360 430
#     4  12  24  42  67 107 135 183 233 300 360 418
#     4  11  27  45  64 100 141 181 235 307 361 430
#     4  10  19  40  65  94 133 173 232 276 345 420
#
# _framework density 22.727922
#
# number of rings (size 3 to 8) (size 9 to 14) (size 15 to 20)
#    0.000    1.000    3.750    3.000    5.250    5.000 
#    2.250    0.000    0.000    0.000    0.000    0.000 
#    0.000    0.000    0.000    0.000    0.000    0.000 
#
# Total GULP energy -178471.912987 kJ/mol
# GULP energy per Si atom -5577.247281 kJ/mol
# Density = 2.267619 g / cm^3
# Si number density = 22.727922 Si / 1000 Ang^3
#
#
#
# Elastic Constant Matrix: (Units=GPa)
#
#
# Indices 1 2 3 4 5 6 
#
# 1 40.8231 8.2807 0.0905 0.0000 0.0000 0.0000
# 2 8.2807 106.1531 26.2459 0.0000 0.0000 0.0000
# 3 0.0905 26.2459 99.0096 0.0000 0.0000 0.0000
# 4 0.0000 0.0000 0.0000 31.5937 0.0000 0.0000
# 5 0.0000 0.0000 0.0000 0.0000 19.9214 0.0000
# 6 0.0000 0.0000 0.0000 0.0000 0.0000 25.7808
#
#
#
# Elastic Compliance Matrix: (Units=1/GPa)
#
#
# Indices 1 2 3 4 5 6 
#
# 1 0.024915 -0.002074 0.000527 0.000000 0.000000 0.000000
# 2 -0.002074 0.010254 -0.002716 0.000000 0.000000 0.000000
# 3 0.000527 -0.002716 0.010820 0.000000 0.000000 0.000000
# 4 0.000000 0.000000 0.000000 0.031652 0.000000 0.000000
# 5 0.000000 0.000000 0.000000 0.000000 0.050197 0.000000
# 6 0.000000 0.000000 0.000000 0.000000 0.000000 0.038789
#
#
# Mechanical properties :
#
#
# Convention : Reuss Voigt Hill
#
# Bulk Modulus (GPa) = 26.69338 35.02446 30.85892
# Shear Modulus (GPa) = 26.64676 29.55043 28.09859
#
# Velocity S-wave (km/s) = 3.42778 3.60972 3.51992
# Velocity P-wave (km/s) = 5.23799 5.72863 5.48879
#
# Compressibility (1/GPa) = 0.03746247
#
# Stress axis : x y z
#
# Youngs Moduli (GPa) = 40.13580 97.52576 92.42508
#
# Poissons Ratio (x) = 0.20226 -0.04871
# Poissons Ratio (y) = 0.08324 0.25105
# Poissons Ratio (z) = -0.02115 0.26490
#
# Static dielectric constant tensor:
#      x y z
#    x 1.825350 0.000000 0.000000 
#    y 0.000000 1.800450 0.000000 
#    z 0.000000 0.000000 2.020850 
# 
# From -- ./inp_files/5683.got.cif
#   From: 2010.05.17/outbox.cif.g08.bks.cpg/sg18_3_cif.got.tgz:5683.got - 2010.06.03 22:40:56.
