data_PCOD9311195
_publ_section_title
;
Structure prediction by ZEFSAII (Michael W. Deem and Ramdas Pophale) SiO2 
 PCOD9311195
Probable space group: P 2 2 21
;
_chemical_formula_sum "Si O2"
_cell_formula_units_Z 14
_cell_length_a 8.169781
_cell_length_b 4.936709
_cell_length_c 17.556785
_cell_angle_alpha 90.000000
_cell_angle_beta 90.000000
_cell_angle_gamma 90.000000
_cell_volume 708.097292
_symmetry_space_group_name_H-M "P 2 2 21"
_symmetry_group_IT_number 17
_symmetry_cell_setting 'orthorhombic'
loop_
_space_group_symop_operation_xyz
x,y,z
-x,-y,1/2+z
x,-y,-z
-x,y,1/2-z
loop_
_atom_site_type_symbol
_atom_site_label
_atom_site_fract_x
_atom_site_fract_y
_atom_site_fract_z
Si Si1 0.218860 0.262601 0.052071
Si Si2 0.092481 0.500000 0.500000
Si Si3 0.504665 0.657082 0.840164
Si Si4 0.635180 0.131941 0.924153
O O1 0.331524 0.236636 0.125738
O O2 0.032530 0.368494 0.061303
O O3 0.296329 0.500000 0.000000
O O4 0.204284 0.000000 0.000000
O O5 0.204638 0.722516 0.458754
O O6 0.500000 0.633767 0.750000
O O7 0.543370 0.370011 0.879396
O O8 0.640116 0.875445 0.867990
O O9 0.553724 0.000000 0.000000
#
# Coordination Sequence:
#
# PCOD9311195 Si02
#       4
#     4   2   4   4
#     4  10  22  39  66  94 122 166 224 267 315 383
#     4  10  24  38  72  94 122 166 228 280 306 380
#     4  12  25  41  67 101 137 171 214 277 339 391
#     4  12  22  42  70  97 121 176 230 267 318 391
#
# _framework density 19.771291999999999
#
# number of rings (size 3 to 8) (size 9 to 14) (size 15 to 20)
#    0.857    0.000    2.857    6.000    0.000    0.000 
#    0.000    1.429    6.286    0.000    0.000    0.000 
#    0.000    0.000    0.000    0.000    0.000    0.000 
#
# Total GULP energy -78028.682124 kJ/mol
# GULP energy per Si atom -5573.477295 kJ/mol
# Density = 1.972629 g / cm^3
# Si number density = 19.771292 Si / 1000 Ang^3
#
#
#
# Elastic Constant Matrix: (Units=GPa)
#
#
# Indices 1 2 3 4 5 6 
#
# 1 91.2275 25.9272 56.2204 0.0000 0.0000 0.0000
# 2 25.9272 153.6380 61.0037 0.0000 0.0000 0.0000
# 3 56.2204 61.0037 154.0601 0.0000 0.0000 0.0000
# 4 0.0000 0.0000 0.0000 27.6853 0.0000 0.0000
# 5 0.0000 0.0000 0.0000 0.0000 9.1985 0.0000
# 6 0.0000 0.0000 0.0000 0.0000 0.0000 18.8043
#
#
#
# Elastic Compliance Matrix: (Units=1/GPa)
#
#
# Indices 1 2 3 4 5 6 
#
# 1 0.014163 -0.000401 -0.005010 0.000000 0.000000 0.000000
# 2 -0.000401 0.007734 -0.002916 0.000000 0.000000 0.000000
# 3 -0.005010 -0.002916 0.009474 0.000000 0.000000 0.000000
# 4 0.000000 0.000000 0.000000 0.036120 0.000000 0.000000
# 5 0.000000 0.000000 0.000000 0.000000 0.108713 0.000000
# 6 0.000000 0.000000 0.000000 0.000000 0.000000 0.053179
#
#
# Mechanical properties :
#
#
# Convention : Reuss Voigt Hill
#
# Bulk Modulus (GPa) = 67.94671 76.13647 72.04159
# Shear Modulus (GPa) = 19.92482 28.18924 24.05703
#
# Velocity S-wave (km/s) = 3.17798 3.78003 3.49200
# Velocity P-wave (km/s) = 6.92149 7.59234 7.26466
#
# Compressibility (1/GPa) = 0.01471742
#
# Stress axis : x y z
#
# Youngs Moduli (GPa) = 70.60745 129.29215 105.55322
#
# Poissons Ratio (x) = 0.05184 0.52878
# Poissons Ratio (y) = 0.02831 0.30783
# Poissons Ratio (z) = 0.35372 0.37706
#
# Static dielectric constant tensor:
#      x y z
#    x 1.750670 0.000000 0.000000 
#    y 0.000000 1.806380 0.000000 
#    z 0.000000 0.000000 1.690240 
# 
# From -- ./inp_files/7878.got.cif
#   From: 2010.05.17/outbox.cif.g08.bks.cpg/sg17_4_cif.got.tgz:7878.got - 2010.06.03 22:34:06.
