data_PCOD9311585
_publ_section_title
;
Structure prediction by ZEFSAII (Michael W. Deem and Ramdas Pophale) SiO2 
 PCOD9311585
Probable space group: P 2 2 21
;
_chemical_formula_sum "Si O2"
_cell_formula_units_Z 20
_cell_length_a 11.895454
_cell_length_b 8.439676
_cell_length_c 8.868413
_cell_angle_alpha 90.000000
_cell_angle_beta 90.000000
_cell_angle_gamma 90.000000
_cell_volume 890.333483
_symmetry_space_group_name_H-M "P 2 2 21"
_symmetry_group_IT_number 17
_symmetry_cell_setting 'orthorhombic'
loop_
_space_group_symop_operation_xyz
x,y,z
-x,-y,1/2+z
x,-y,-z
-x,y,1/2-z
loop_
_atom_site_type_symbol
_atom_site_label
_atom_site_fract_x
_atom_site_fract_y
_atom_site_fract_z
Si Si1 0.271096 0.394493 0.262006
Si Si2 0.500000 0.210343 0.250000
Si Si3 0.393301 0.000000 0.000000
Si Si4 0.000000 0.322852 0.750000
Si Si5 0.857068 0.500000 0.500000
Si Si6 0.635815 0.246072 0.749319
Si Si7 0.185837 0.819408 0.469703
O O1 0.391122 0.314030 0.279287
O O2 0.303239 0.581817 0.257768
O O3 0.195620 0.309606 0.392446
O O4 0.216827 0.375372 0.096505
O O5 0.531511 0.102214 0.389146
O O6 0.333613 0.127685 0.889004
O O7 0.065978 0.424355 0.872934
O O8 0.095144 0.233843 0.654545
O O9 0.500000 0.264467 0.750000
O O10 0.689976 0.169594 0.896950
O O11 0.153207 0.000000 0.500000
#
# Coordination Sequence:
#
# PCOD9311585 Si02
#       7
#     4   2   2   2   2   4   4
#     4  12  26  48  78 116 157 207 269 326 404 495
#     4  12  26  44  70 118 160 214 256 324 404 490
#     4  12  26  44  70 108 168 210 260 320 394 486
#     4  12  28  52  80 110 154 202 274 340 390 470
#     4  12  26  50  78 114 146 202 268 340 398 466
#     4  12  25  48  75 114 157 209 262 327 404 489
#     4  12  29  52  79 113 159 211 266 336 408 473
#
# _framework density 22.463494000000001
#
# number of rings (size 3 to 8) (size 9 to 14) (size 15 to 20)
#    0.000    0.000    4.000    5.400    2.800    1.600 
#    1.800    0.000    0.000    0.000    0.000    0.000 
#    0.000    0.000    0.000    0.000    0.000    0.000 
#
# Total GULP energy -111660.245911 kJ/mol
# GULP energy per Si atom -5583.012296 kJ/mol
# Density = 2.241237 g / cm^3
# Si number density = 22.463494 Si / 1000 Ang^3
#
#
#
# Elastic Constant Matrix: (Units=GPa)
#
#
# Indices 1 2 3 4 5 6 
#
# 1 99.1957 39.0667 39.9768 0.0000 0.0000 0.0000
# 2 39.0667 161.4862 79.1067 0.0000 0.0000 0.0000
# 3 39.9768 79.1067 168.4227 0.0000 0.0000 0.0000
# 4 0.0000 0.0000 0.0000 39.6208 0.0000 0.0000
# 5 0.0000 0.0000 0.0000 0.0000 52.4342 0.0000
# 6 0.0000 0.0000 0.0000 0.0000 0.0000 18.9643
#
#
#
# Elastic Compliance Matrix: (Units=1/GPa)
#
#
# Indices 1 2 3 4 5 6 
#
# 1 0.011575 -0.001889 -0.001860 0.000000 0.000000 0.000000
# 2 -0.001889 0.008351 -0.003474 0.000000 0.000000 0.000000
# 3 -0.001860 -0.003474 0.008011 0.000000 0.000000 0.000000
# 4 0.000000 0.000000 0.000000 0.025239 0.000000 0.000000
# 5 0.000000 0.000000 0.000000 0.000000 0.019072 0.000000
# 6 0.000000 0.000000 0.000000 0.000000 0.000000 0.052731
#
#
# Mechanical properties :
#
#
# Convention : Reuss Voigt Hill
#
# Bulk Modulus (GPa) = 74.12766 82.82276 78.47521
# Shear Modulus (GPa) = 34.74113 40.26749 37.50431
#
# Velocity S-wave (km/s) = 3.93690 4.23847 4.09047
# Velocity P-wave (km/s) = 7.33051 7.80403 7.57097
#
# Compressibility (1/GPa) = 0.01349024
#
# Stress axis : x y z
#
# Youngs Moduli (GPa) = 86.39563 119.74135 124.83197
#
# Poissons Ratio (x) = 0.22618 0.23221
# Poissons Ratio (y) = 0.16319 0.43369
# Poissons Ratio (z) = 0.16071 0.41601
#
# Static dielectric constant tensor:
#      x y z
#    x 1.863730 0.000000 0.000000 
#    y 0.000000 1.943470 0.000000 
#    z 0.000000 0.000000 1.887290 
# 
# From -- ./inp_files/4684.got.cif
#   From: 2010.05.17/outbox.cif.g08.bks.cpg/sg17_3_cif.got.tgz:4684.got - 2010.06.03 22:34:06.
