data_PCOD9311506
_publ_section_title
;
Structure prediction by ZEFSAII (Michael W. Deem and Ramdas Pophale) SiO2 
 PCOD9311506
Probable space group: P 2 2 21
;
_chemical_formula_sum "Si O2"
_cell_formula_units_Z 20
_cell_length_a 5.893398
_cell_length_b 6.843989
_cell_length_c 23.126187
_cell_angle_alpha 90.000000
_cell_angle_beta 90.000000
_cell_angle_gamma 90.000000
_cell_volume 932.779746
_symmetry_space_group_name_H-M "P 2 2 21"
_symmetry_group_IT_number 17
_symmetry_cell_setting 'orthorhombic'
loop_
_space_group_symop_operation_xyz
x,y,z
-x,-y,1/2+z
x,-y,-z
-x,y,1/2-z
loop_
_atom_site_type_symbol
_atom_site_label
_atom_site_fract_x
_atom_site_fract_y
_atom_site_fract_z
Si Si1 0.617040 0.195803 0.135080
Si Si2 0.230679 0.137371 0.055220
Si Si3 0.500000 0.602524 0.750000
Si Si4 0.000000 0.615876 0.250000
Si Si5 0.957611 0.862124 0.135936
Si Si6 0.106698 0.515139 0.561962
O O1 0.484739 0.168125 0.075106
O O2 0.485790 0.270923 0.191228
O O3 0.782608 0.370404 0.115640
O O4 0.734861 0.990312 0.148235
O O5 0.108293 0.345350 0.048143
O O6 0.127180 0.021931 0.110001
O O7 0.205249 0.000000 0.000000
O O8 0.751123 0.495171 0.753844
O O9 0.973973 0.750113 0.306581
O O10 0.932508 0.700274 0.086078
O O11 0.232067 0.500000 0.500000
#
# Coordination Sequence:
#
# PCOD9311506 Si02
#       6
#     4   4   2   2   4   4
#     4  11  28  43  73 104 144 188 247 308 369 440
#     4  11  25  43  70 106 143 189 242 303 371 440
#     4  12  28  52  76 110 152 192 250 310 374 440
#     4  12  28  50  80 106 150 196 250 306 376 444
#     4  11  26  46  73 102 141 192 246 299 372 436
#     4  11  23  47  69 101 144 185 239 304 366 445
#
# _framework density 21.441289000000001
#
# number of rings (size 3 to 8) (size 9 to 14) (size 15 to 20)
#    0.000    0.800    4.000    1.200   11.200    2.400 
#    0.000    0.000    0.000    0.000    0.000    0.000 
#    0.000    0.000    0.000    0.000    0.000    0.000 
#
# Total GULP energy -111473.401437 kJ/mol
# GULP energy per Si atom -5573.670072 kJ/mol
# Density = 2.139249 g / cm^3
# Si number density = 21.441289 Si / 1000 Ang^3
#
#
#
# Elastic Constant Matrix: (Units=GPa)
#
#
# Indices 1 2 3 4 5 6 
#
# 1 64.7291 34.1872 12.7394 0.0000 0.0000 0.0000
# 2 34.1872 122.6953 37.3327 0.0000 0.0000 0.0000
# 3 12.7394 37.3327 137.7985 0.0000 0.0000 0.0000
# 4 0.0000 0.0000 0.0000 31.4319 0.0000 0.0000
# 5 0.0000 0.0000 0.0000 0.0000 29.4364 0.0000
# 6 0.0000 0.0000 0.0000 0.0000 0.0000 11.1972
#
#
#
# Elastic Compliance Matrix: (Units=1/GPa)
#
#
# Indices 1 2 3 4 5 6 
#
# 1 0.018129 -0.004949 -0.000335 0.000000 0.000000 0.000000
# 2 -0.004949 0.010234 -0.002315 0.000000 0.000000 0.000000
# 3 -0.000335 -0.002315 0.007915 0.000000 0.000000 0.000000
# 4 0.000000 0.000000 0.000000 0.031815 0.000000 0.000000
# 5 0.000000 0.000000 0.000000 0.000000 0.033971 0.000000
# 6 0.000000 0.000000 0.000000 0.000000 0.000000 0.089308
#
#
# Mechanical properties :
#
#
# Convention : Reuss Voigt Hill
#
# Bulk Modulus (GPa) = 47.44083 54.86017 51.15050
# Shear Modulus (GPa) = 23.40848 30.47734 26.94291
#
# Velocity S-wave (km/s) = 3.30775 3.77428 3.54869
# Velocity P-wave (km/s) = 6.06318 6.68097 6.37956
#
# Compressibility (1/GPa) = 0.02107889
#
# Stress axis : x y z
#
# Youngs Moduli (GPa) = 55.16015 97.71605 126.34025
#
# Poissons Ratio (x) = 0.48364 0.04234
# Poissons Ratio (y) = 0.27301 0.29247
# Poissons Ratio (z) = 0.01848 0.22621
#
# Static dielectric constant tensor:
#      x y z
#    x 1.911360 0.000000 0.000000 
#    y 0.000000 1.790550 0.000000 
#    z 0.000000 0.000000 1.764200 
# 
# From -- ./inp_files/10773.got.cif
#   From: 2010.05.17/outbox.cif.g08.bks.cpg/sg17_6_cif.got.tgz:10773.got - 2010.06.03 22:34:06.
