data_PCOD9311688
_publ_section_title
;
Structure prediction by ZEFSAII (Michael W. Deem and Ramdas Pophale) SiO2 
 PCOD9311688
Probable space group: P 21 21 2
;
_chemical_formula_sum "Si O2"
_cell_formula_units_Z 26
_cell_length_a 5.286637
_cell_length_b 21.415970
_cell_length_c 9.702459
_cell_angle_alpha 90.000000
_cell_angle_beta 90.000000
_cell_angle_gamma 90.000000
_cell_volume 1098.497460
_symmetry_space_group_name_H-M "P 21 21 2"
_symmetry_group_IT_number 18
_symmetry_cell_setting 'orthorhombic'
loop_
_space_group_symop_operation_xyz
x,y,z
-x,-y,z
1/2+x,1/2-y,-z
1/2-x,1/2+y,-z
loop_
_atom_site_type_symbol
_atom_site_label
_atom_site_fract_x
_atom_site_fract_y
_atom_site_fract_z
Si Si1 0.348974 0.576459 0.329184
Si Si2 0.508306 0.743527 0.318586
Si Si3 0.478563 0.889376 0.038879
Si Si4 0.500000 0.000000 0.258141
Si Si5 0.500000 0.500000 0.561793
Si Si6 0.508722 0.822596 0.560634
Si Si7 0.018429 0.165191 0.926627
Si Si8 0.000000 0.500000 0.178951
O O1 0.504121 0.561824 0.465871
O O2 0.092376 0.610416 0.385094
O O3 0.462530 0.616962 0.204604
O O4 0.244589 0.511977 0.268789
O O5 0.525348 0.810208 0.395969
O O6 0.240035 0.717847 0.374225
O O7 0.504557 0.730578 0.155525
O O8 0.746022 0.703600 0.378884
O O9 0.728069 0.848126 0.012642
O O10 0.472758 0.939278 0.913843
O O11 0.222338 0.850349 0.020092
O O12 0.491328 0.936526 0.167127
O O13 0.751115 0.997976 0.347735
#
# Coordination Sequence:
#
# PCOD9311688 Si02
#       8
#     4   4   4   2   2   4   4   2
#     4  10  20  33  51  80 109 139 169 204 257 310
#     4   9  16  29  47  77 108 138 162 198 255 315
#     4  10  20  34  52  72  98 132 170 221 259 289
#     4  11  25  40  50  70 101 143 186 212 250 301
#     4  12  24  36  52  70 106 146 178 208 240 310
#     4   9  18  29  46  71 114 144 162 193 245 320
#     4  10  18  31  55  80 102 125 164 215 265 304
#     4   9  17  30  50  74 101 127 166 210 252 297
#
# _framework density 23.668696000000001
#
# number of rings (size 3 to 8) (size 9 to 14) (size 15 to 20)
#    0.000    2.154    0.000    5.077    0.000    9.231 
#    0.000    0.000    0.000    0.000    0.000    4.308 
#    0.000    0.000    0.000    0.000    0.000    0.000 
#
# Total GULP energy -145186.324051 kJ/mol
# GULP energy per Si atom -5584.089387 kJ/mol
# Density = 2.361483 g / cm^3
# Si number density = 23.668696 Si / 1000 Ang^3
#
#
#
# Elastic Constant Matrix: (Units=GPa)
#
#
# Indices 1 2 3 4 5 6 
#
# 1 177.7271 37.7580 55.3394 0.0000 0.0000 0.0000
# 2 37.7580 50.4804 49.0223 0.0000 0.0000 0.0000
# 3 55.3394 49.0223 86.3043 0.0000 0.0000 0.0000
# 4 0.0000 0.0000 0.0000 50.9876 0.0000 0.0000
# 5 0.0000 0.0000 0.0000 0.0000 31.2392 0.0000
# 6 0.0000 0.0000 0.0000 0.0000 0.0000 -73.5172
#
#
#
# Elastic Compliance Matrix: (Units=1/GPa)
#
#
# Indices 1 2 3 4 5 6 
#
# 1 0.007119 -0.001989 -0.003435 0.000000 0.000000 0.000000
# 2 -0.001989 0.044735 -0.024135 0.000000 0.000000 0.000000
# 3 -0.003435 -0.024135 0.027498 0.000000 0.000000 0.000000
# 4 0.000000 0.000000 0.000000 0.019613 0.000000 0.000000
# 5 0.000000 0.000000 0.000000 0.000000 0.032011 0.000000
# 6 0.000000 0.000000 0.000000 0.000000 0.000000 -0.013602
#
#
# Mechanical properties :
#
#
# Convention : Reuss Voigt Hill
#
# Bulk Modulus (GPa) = 49.41988 66.52791 57.97390
# Shear Modulus (GPa) = 27.28716 13.23474 20.26095
#
# Velocity S-wave (km/s) = 3.39909 2.36724 2.92896
# Velocity P-wave (km/s) = 6.02746 5.96999 5.99879
#
# Compressibility (1/GPa) = 0.02023477
#
# Stress axis : x y z
#
# Youngs Moduli (GPa) = 140.47579 22.35372 36.36572
#
# Poissons Ratio (x) = 0.04446 0.12491
# Poissons Ratio (y) = 0.27941 0.87769
# Poissons Ratio (z) = 0.48251 0.53951
#
# Static dielectric constant tensor:
#      x y z
#    x 1.886190 0.000000 0.000000 
#    y 0.000000 1.951380 0.000000 
#    z 0.000000 0.000000 1.910950 
# 
# From -- ./inp_files/2632.got.cif
#   From: 2010.05.17/outbox.cif.g08.bks.cpg/sg18_2_cif.got.tgz:2632.got - 2010.06.03 22:40:56.
