data_PCOD9311759
_publ_section_title
;
Structure prediction by ZEFSAII (Michael W. Deem and Ramdas Pophale) SiO2 
 PCOD9311759
Probable space group: P 21 21 2
;
_chemical_formula_sum "Si O2"
_cell_formula_units_Z 22
_cell_length_a 7.062669
_cell_length_b 13.168870
_cell_length_c 10.859932
_cell_angle_alpha 90.000000
_cell_angle_beta 90.000000
_cell_angle_gamma 90.000000
_cell_volume 1010.053713
_symmetry_space_group_name_H-M "P 21 21 2"
_symmetry_group_IT_number 18
_symmetry_cell_setting 'orthorhombic'
loop_
_space_group_symop_operation_xyz
x,y,z
-x,-y,z
1/2+x,1/2-y,-z
1/2-x,1/2+y,-z
loop_
_atom_site_type_symbol
_atom_site_label
_atom_site_fract_x
_atom_site_fract_y
_atom_site_fract_z
Si Si1 0.973020 0.167680 0.919102
Si Si2 0.500000 0.500000 0.898911
Si Si3 0.137305 0.885019 0.325812
Si Si4 0.313563 0.542173 0.503376
Si Si5 0.038437 0.386666 0.038995
Si Si6 0.280746 0.154318 0.726886
O O1 0.758721 0.129330 0.927433
O O2 0.987431 0.285865 0.958852
O O3 0.073828 0.149314 0.789641
O O4 0.075883 0.091949 0.017167
O O5 0.639051 0.556557 0.803744
O O6 0.187166 0.771298 0.303364
O O7 0.926217 0.893733 0.389627
O O8 0.267015 0.946485 0.422202
O O9 0.500000 0.500000 0.432814
O O10 0.194708 0.596440 0.401264
O O11 0.000000 0.500000 0.987151
O O12 0.922536 0.379441 0.166340
#
# Coordination Sequence:
#
# PCOD9311759 Si02
#       6
#     4   2   4   4   4   4
#     4  12  25  43  71 105 147 190 222 296 362 426
#     4  10  18  40  70  92 136 186 226 274 350 428
#     4   8  19  41  68  94 128 189 236 274 360 417
#     4   7  20  40  66  93 127 182 233 283 343 397
#     4  12  27  41  68 110 141 186 241 277 359 442
#     4  12  22  45  70 100 142 181 236 300 354 415
#
# _framework density 21.781018
#
# number of rings (size 3 to 8) (size 9 to 14) (size 15 to 20)
#    1.091    0.727    3.636    1.091    3.818    0.000 
#    6.545    0.000    0.000    2.182    0.000    0.000 
#    0.000    0.000    0.000    0.000    0.000    0.000 
#
# Total GULP energy -122552.307152 kJ/mol
# GULP energy per Si atom -5570.559416 kJ/mol
# Density = 2.173144 g / cm^3
# Si number density = 21.781018 Si / 1000 Ang^3
#
#
#
# Elastic Constant Matrix: (Units=GPa)
#
#
# Indices 1 2 3 4 5 6 
#
# 1 61.1213 3.0622 2.2455 0.0000 0.0000 0.0000
# 2 3.0622 144.4805 53.7793 0.0000 0.0000 0.0000
# 3 2.2455 53.7793 101.4566 0.0000 0.0000 0.0000
# 4 0.0000 0.0000 0.0000 15.0679 0.0000 0.0000
# 5 0.0000 0.0000 0.0000 0.0000 20.9503 0.0000
# 6 0.0000 0.0000 0.0000 0.0000 0.0000 24.8882
#
#
#
# Elastic Compliance Matrix: (Units=1/GPa)
#
#
# Indices 1 2 3 4 5 6 
#
# 1 0.016382 -0.000264 -0.000222 0.000000 0.000000 0.000000
# 2 -0.000264 0.008627 -0.004567 0.000000 0.000000 0.000000
# 3 -0.000222 -0.004567 0.012282 0.000000 0.000000 0.000000
# 4 0.000000 0.000000 0.000000 0.066366 0.000000 0.000000
# 5 0.000000 0.000000 0.000000 0.000000 0.047732 0.000000
# 6 0.000000 0.000000 0.000000 0.000000 0.000000 0.040180
#
#
# Mechanical properties :
#
#
# Convention : Reuss Voigt Hill
#
# Bulk Modulus (GPa) = 36.78678 47.24806 42.01742
# Shear Modulus (GPa) = 23.72609 28.71270 26.21939
#
# Velocity S-wave (km/s) = 3.30404 3.63470 3.47331
# Velocity P-wave (km/s) = 5.61085 6.27329 5.95129
#
# Compressibility (1/GPa) = 0.02718368
#
# Stress axis : x y z
#
# Youngs Moduli (GPa) = 61.04139 115.91623 81.41862
#
# Poissons Ratio (x) = 0.03065 0.01811
# Poissons Ratio (y) = 0.01614 0.37184
# Poissons Ratio (z) = 0.01358 0.52939
#
# Static dielectric constant tensor:
#      x y z
#    x 1.884410 0.000000 0.000000 
#    y 0.000000 1.816240 0.000000 
#    z 0.000000 0.000000 1.756710 
# 
# From -- ./inp_files/5101.got.cif
#   From: 2010.05.17/outbox.cif.g08.bks.cpg/sg18_3_cif.got.tgz:5101.got - 2010.06.03 22:40:56.
