data_PCOD9311511
_publ_section_title
;
Structure prediction by ZEFSAII (Michael W. Deem and Ramdas Pophale) SiO2 
 PCOD9311511
Probable space group: P 2 2 21
;
_chemical_formula_sum "Si O2"
_cell_formula_units_Z 16
_cell_length_a 11.920535
_cell_length_b 11.836635
_cell_length_c 4.882700
_cell_angle_alpha 90.000000
_cell_angle_beta 90.000000
_cell_angle_gamma 90.000000
_cell_volume 688.944194
_symmetry_space_group_name_H-M "P 2 2 21"
_symmetry_group_IT_number 17
_symmetry_cell_setting 'orthorhombic'
loop_
_space_group_symop_operation_xyz
x,y,z
-x,-y,1/2+z
x,-y,-z
-x,y,1/2-z
loop_
_atom_site_type_symbol
_atom_site_label
_atom_site_fract_x
_atom_site_fract_y
_atom_site_fract_z
Si Si1 0.500000 0.431654 0.250000
Si Si2 0.671478 0.253721 0.025049
Si Si3 0.500000 0.072374 0.250000
Si Si4 0.000000 0.417678 0.750000
Si Si5 0.078660 0.000000 0.000000
Si Si6 0.184646 0.241267 0.972179
O O1 0.552758 0.500000 0.500000
O O2 0.595434 0.358379 0.107254
O O3 0.597434 0.146595 0.113052
O O4 0.783320 0.253943 0.210059
O O5 0.703560 0.255977 0.708991
O O6 0.548522 0.000000 0.500000
O O7 0.904299 0.334284 0.628952
O O8 0.037287 0.500000 0.500000
O O9 0.145533 0.112682 0.921237
O O10 0.000000 0.965379 0.750000
#
# Coordination Sequence:
#
# PCOD9311511 Si02
#       6
#     2   4   2   2   2   4
#     4  11  24  45  72  98 138 185 234 293 342 404
#     4  11  26  43  68 104 135 177 236 280 341 416
#     4  11  24  43  64  98 142 179 218 279 342 410
#     4  12  28  48  70 100 142 184 232 294 350 416
#     4  12  26  46  74 100 146 190 230 296 348 422
#     4  12  26  46  71 104 139 184 234 286 354 422
#
# _framework density 23.223941
#
# number of rings (size 3 to 8) (size 9 to 14) (size 15 to 20)
#    0.000    0.500    1.250    6.000    7.000   10.000 
#    0.000    0.000    0.000    0.000    0.000    0.000 
#    0.000    0.000    0.000    0.000    0.000    0.000 
#
# Total GULP energy -89646.578866 kJ/mol
# GULP energy per Si atom -5602.911179 kJ/mol
# Density = 2.317108 g / cm^3
# Si number density = 23.223941 Si / 1000 Ang^3
#
#
#
# Elastic Constant Matrix: (Units=GPa)
#
#
# Indices 1 2 3 4 5 6 
#
# 1 46.6502 23.8511 -13.5302 0.0000 0.0000 0.0000
# 2 23.8511 125.5142 15.6395 0.0000 0.0000 0.0000
# 3 -13.5302 15.6395 82.1035 0.0000 0.0000 0.0000
# 4 0.0000 0.0000 0.0000 0.1071 0.0000 0.0000
# 5 0.0000 0.0000 0.0000 0.0000 51.0110 0.0000
# 6 0.0000 0.0000 0.0000 0.0000 0.0000 35.9408
#
#
#
# Elastic Compliance Matrix: (Units=1/GPa)
#
#
# Indices 1 2 3 4 5 6 
#
# 1 0.025826 -0.005570 0.005317 0.000000 0.000000 0.000000
# 2 -0.005570 0.009362 -0.002701 0.000000 0.000000 0.000000
# 3 0.005317 -0.002701 0.013571 0.000000 0.000000 0.000000
# 4 0.000000 0.000000 0.000000 9.334287 0.000000 0.000000
# 5 0.000000 0.000000 0.000000 0.000000 0.019604 0.000000
# 6 0.000000 0.000000 0.000000 0.000000 0.000000 0.027824
#
#
# Mechanical properties :
#
#
# Convention : Reuss Voigt Hill
#
# Bulk Modulus (GPa) = 23.33722 34.02099 28.67911
# Shear Modulus (GPa) = 0.52906 32.63229 16.58067
#
# Velocity S-wave (km/s) = 0.47781 3.75255 2.67488
# Velocity P-wave (km/s) = 3.22102 5.78415 4.68142
#
# Compressibility (1/GPa) = 0.04285000
#
# Stress axis : x y z
#
# Youngs Moduli (GPa) = 38.72047 106.81123 73.68914
#
# Poissons Ratio (x) = 0.59496 -0.39181
# Poissons Ratio (y) = 0.21568 0.19906
# Poissons Ratio (z) = -0.20588 0.28853
#
# Static dielectric constant tensor:
#      x y z
#    x 1.844610 0.000000 0.000000 
#    y 0.000000 1.912800 0.000000 
#    z 0.000000 0.000000 1.826770 
# 
# From -- ./inp_files/1251.got.cif
#   From: 2010.05.17/outbox.cif.g08.bks.cpg/sg17_1_cif.got.tgz:1251.got - 2010.06.03 22:34:06.
