data_PCOD9311175
_publ_section_title
;
Structure prediction by ZEFSAII (Michael W. Deem and Ramdas Pophale) SiO2 
 PCOD9311175
Probable space group: P 2 2 21
;
_chemical_formula_sum "Si O2"
_cell_formula_units_Z 20
_cell_length_a 11.266300
_cell_length_b 14.786351
_cell_length_c 5.511833
_cell_angle_alpha 90.000000
_cell_angle_beta 90.000000
_cell_angle_gamma 90.000000
_cell_volume 918.202294
_symmetry_space_group_name_H-M "P 2 2 21"
_symmetry_group_IT_number 17
_symmetry_cell_setting 'orthorhombic'
loop_
_space_group_symop_operation_xyz
x,y,z
-x,-y,1/2+z
x,-y,-z
-x,y,1/2-z
loop_
_atom_site_type_symbol
_atom_site_label
_atom_site_fract_x
_atom_site_fract_y
_atom_site_fract_z
Si Si1 0.286731 0.206891 0.974806
Si Si2 0.864131 0.056991 0.750289
Si Si3 0.500000 0.741918 0.750000
Si Si4 0.283397 0.500000 0.000000
Si Si5 0.859906 0.342863 0.249002
Si Si6 0.662683 0.632894 0.121776
O O1 0.400682 0.190482 0.141240
O O2 0.182950 0.246045 0.147808
O O3 0.233118 0.134201 0.792518
O O4 0.337378 0.289880 0.821955
O O5 0.000000 0.093321 0.750000
O O6 0.855545 0.000000 0.500000
O O7 0.847709 0.000000 0.000000
O O8 0.427990 0.671439 0.577527
O O9 0.198771 0.419073 0.082661
O O10 0.354421 0.539254 0.231853
O O11 0.000000 0.348853 0.250000
O O12 0.794109 0.363197 0.996100
#
# Coordination Sequence:
#
# PCOD9311175 Si02
#       6
#     4   4   2   2   4   4
#     4  10  23  41  72  96 135 183 227 281 347 421
#     4  10  24  43  72 113 150 180 222 287 357 434
#     4  10  22  44  72  94 132 182 246 288 344 426
#     4  10  22  38  62  96 134 176 228 294 348 396
#     4  10  23  36  64  97 135 179 227 277 345 417
#     4  10  22  41  67  94 130 180 234 288 349 407
#
# _framework density 21.781690000000001
#
# number of rings (size 3 to 8) (size 9 to 14) (size 15 to 20)
#    0.000    2.000    0.000    1.200   11.200    2.400 
#    0.000    0.000  162.800    0.000    0.000    0.000 
#    0.000    0.000    0.000    0.000    0.000    0.000 
#
# Total GULP energy -111568.324310 kJ/mol
# GULP energy per Si atom -5578.416216 kJ/mol
# Density = 2.173211 g / cm^3
# Si number density = 21.781690 Si / 1000 Ang^3
#
#
#
# Elastic Constant Matrix: (Units=GPa)
#
#
# Indices 1 2 3 4 5 6 
#
# 1 144.4151 49.6591 44.0125 0.0000 0.0000 0.0000
# 2 49.6591 55.9015 21.2432 0.0000 0.0000 0.0000
# 3 44.0125 21.2432 100.6238 0.0000 0.0000 0.0000
# 4 0.0000 0.0000 0.0000 26.2242 0.0000 0.0000
# 5 0.0000 0.0000 0.0000 0.0000 6.0915 0.0000
# 6 0.0000 0.0000 0.0000 0.0000 0.0000 0.2146
#
#
#
# Elastic Compliance Matrix: (Units=1/GPa)
#
#
# Indices 1 2 3 4 5 6 
#
# 1 0.010698 -0.008399 -0.002906 0.000000 0.000000 0.000000
# 2 -0.008399 0.026043 -0.001824 0.000000 0.000000 0.000000
# 3 -0.002906 -0.001824 0.011594 0.000000 0.000000 0.000000
# 4 0.000000 0.000000 0.000000 0.038133 0.000000 0.000000
# 5 0.000000 0.000000 0.000000 0.000000 0.164162 0.000000
# 6 0.000000 0.000000 0.000000 0.000000 0.000000 4.660652
#
#
# Mechanical properties :
#
#
# Convention : Reuss Voigt Hill
#
# Bulk Modulus (GPa) = 45.29744 58.97444 52.13594
# Shear Modulus (GPa) = 1.01114 18.90776 9.95945
#
# Velocity S-wave (km/s) = 0.68207 2.94948 2.14064
# Velocity P-wave (km/s) = 4.63266 6.22360 5.48611
#
# Compressibility (1/GPa) = 0.02207630
#
# Stress axis : x y z
#
# Youngs Moduli (GPa) = 93.47165 38.39761 86.24918
#
# Poissons Ratio (x) = 0.32252 0.25066
# Poissons Ratio (y) = 0.78510 0.15734
# Poissons Ratio (z) = 0.27165 0.07005
#
# Static dielectric constant tensor:
#      x y z
#    x 1.778130 0.000000 0.000000 
#    y 0.000000 1.817720 0.000000 
#    z 0.000000 0.000000 2.025110 
# 
# From -- ./inp_files/1557.got.cif
#   From: 2010.05.17/outbox.cif.g08.bks.cpg/sg17_1_cif.got.tgz:1557.got - 2010.06.03 22:34:06.
