data_PCOD9311635
_publ_section_title
;
Structure prediction by ZEFSAII (Michael W. Deem and Ramdas Pophale) SiO2 
 PCOD9311635
Probable space group: P 21 21 2
;
_chemical_formula_sum "Si O2"
_cell_formula_units_Z 24
_cell_length_a 15.118088
_cell_length_b 9.471799
_cell_length_c 6.833406
_cell_angle_alpha 90.000000
_cell_angle_beta 90.000000
_cell_angle_gamma 90.000000
_cell_volume 978.512926
_symmetry_space_group_name_H-M "P 21 21 2"
_symmetry_group_IT_number 18
_symmetry_cell_setting 'orthorhombic'
loop_
_space_group_symop_operation_xyz
x,y,z
-x,-y,z
1/2+x,1/2-y,-z
1/2-x,1/2+y,-z
loop_
_atom_site_type_symbol
_atom_site_label
_atom_site_fract_x
_atom_site_fract_y
_atom_site_fract_z
Si Si1 0.135127 0.743552 0.002870
Si Si2 0.334471 0.347716 0.426152
Si Si3 0.285951 0.952281 0.090235
Si Si4 0.689679 0.945528 0.540479
Si Si5 0.500000 0.000000 0.449986
Si Si6 0.048332 0.265955 0.874822
Si Si7 0.500000 0.500000 0.369939
O O1 0.134045 0.770635 0.769461
O O2 0.184980 0.593768 0.028360
O O3 0.029691 0.732890 0.038073
O O4 0.190469 0.878767 0.073290
O O5 0.296352 0.221680 0.557347
O O6 0.259511 0.454642 0.358101
O O7 0.422524 0.427375 0.495843
O O8 0.359040 0.829681 0.050594
O O9 0.293444 0.004698 0.315083
O O10 0.586744 0.971598 0.575714
O O11 0.522787 0.127081 0.302040
O O12 0.048925 0.112750 0.772180
#
# Coordination Sequence:
#
# PCOD9311635 Si02
#       7
#     4   4   4   4   2   4   2
#     4  10  20  37  57  86 112 143 191 228 275 334
#     4  10  22  36  58  86 114 144 191 233 275 337
#     4  10  21  35  60  83 112 146 186 233 277 327
#     4  10  21  36  59  85 112 147 189 232 281 329
#     4  10  16  38  58  78 108 152 186 230 268 332
#     4  10  18  36  58  80 110 149 190 228 267 334
#     4  10  20  34  58  86 108 146 200 226 266 336
#
# _framework density 24.527013
#
# number of rings (size 3 to 8) (size 9 to 14) (size 15 to 20)
#    0.000    2.000    6.667    0.000    9.333    0.000 
#    0.000    0.000   14.667    0.000    0.000    0.000 
#    0.000    0.000    0.000    0.000    0.000    0.000 
#
# Total GULP energy -134008.727298 kJ/mol
# GULP energy per Si atom -5583.696971 kJ/mol
# Density = 2.447119 g / cm^3
# Si number density = 24.527013 Si / 1000 Ang^3
#
#
#
# Elastic Constant Matrix: (Units=GPa)
#
#
# Indices 1 2 3 4 5 6 
#
# 1 90.9271 33.7538 -7.2208 0.0000 0.0000 0.0000
# 2 33.7538 136.5110 -1.7237 0.0000 0.0000 0.0000
# 3 -7.2208 -1.7237 23.1162 0.0000 0.0000 0.0000
# 4 0.0000 0.0000 0.0000 28.6720 0.0000 0.0000
# 5 0.0000 0.0000 0.0000 0.0000 16.5933 0.0000
# 6 0.0000 0.0000 0.0000 0.0000 0.0000 51.7316
#
#
#
# Elastic Compliance Matrix: (Units=1/GPa)
#
#
# Indices 1 2 3 4 5 6 
#
# 1 0.012410 -0.003022 0.003651 0.000000 0.000000 0.000000
# 2 -0.003022 0.008068 -0.000342 0.000000 0.000000 0.000000
# 3 0.003651 -0.000342 0.044375 0.000000 0.000000 0.000000
# 4 0.000000 0.000000 0.000000 0.034877 0.000000 0.000000
# 5 0.000000 0.000000 0.000000 0.000000 0.060265 0.000000
# 6 0.000000 0.000000 0.000000 0.000000 0.000000 0.019331
#
#
# Mechanical properties :
#
#
# Convention : Reuss Voigt Hill
#
# Bulk Modulus (GPa) = 15.28461 33.35253 24.31857
# Shear Modulus (GPa) = 24.92999 34.44904 29.68951
#
# Velocity S-wave (km/s) = 3.19161 3.75178 3.48297
# Velocity P-wave (km/s) = 4.45276 5.69171 5.10993
#
# Compressibility (1/GPa) = 0.06542530
#
# Stress axis : x y z
#
# Youngs Moduli (GPa) = 80.58208 123.94033 22.53539
#
# Poissons Ratio (x) = 0.37459 -0.08228
# Poissons Ratio (y) = 0.24355 0.00772
# Poissons Ratio (z) = -0.29421 0.04244
#
# Static dielectric constant tensor:
#      x y z
#    x 2.012260 0.000000 0.000000 
#    y 0.000000 1.955940 0.000000 
#    z 0.000000 0.000000 2.064250 
# 
# From -- ./inp_files/3206.got.cif
#   From: 2010.05.17/outbox.cif.g08.bks.cpg/sg18_2_cif.got.tgz:3206.got - 2010.06.03 22:40:56.
