data_PCOD9311751
_publ_section_title
;
Structure prediction by ZEFSAII (Michael W. Deem and Ramdas Pophale) SiO2 
 PCOD9311751
Probable space group: P 21 21 2
;
_chemical_formula_sum "Si O2"
_cell_formula_units_Z 30
_cell_length_a 7.721895
_cell_length_b 20.541445
_cell_length_c 9.649239
_cell_angle_alpha 90.000000
_cell_angle_beta 90.000000
_cell_angle_gamma 90.000000
_cell_volume 1530.551497
_symmetry_space_group_name_H-M "P 21 21 2"
_symmetry_group_IT_number 18
_symmetry_cell_setting 'orthorhombic'
loop_
_space_group_symop_operation_xyz
x,y,z
-x,-y,z
1/2+x,1/2-y,-z
1/2-x,1/2+y,-z
loop_
_atom_site_type_symbol
_atom_site_label
_atom_site_fract_x
_atom_site_fract_y
_atom_site_fract_z
Si Si1 0.381194 0.823765 0.647949
Si Si2 0.120604 0.124478 0.310097
Si Si3 0.084235 0.283473 0.820402
Si Si4 0.340770 0.960543 0.553939
Si Si5 0.819573 0.764194 0.115080
Si Si6 0.742508 0.281976 0.454597
Si Si7 0.000000 0.000000 0.432634
Si Si8 0.992443 0.573160 0.747897
O O1 0.313513 0.896253 0.641114
O O2 0.393467 0.797320 0.802511
O O3 0.250846 0.778931 0.559497
O O4 0.570550 0.812865 0.579127
O O5 0.082230 0.173702 0.183580
O O6 0.136731 0.166147 0.452071
O O7 0.994865 0.064489 0.338864
O O8 0.308770 0.093934 0.278097
O O9 0.156744 0.247774 0.683475
O O10 0.098995 0.362702 0.813085
O O11 0.879206 0.272058 0.839214
O O12 0.169002 0.249522 0.953674
O O13 0.405473 0.937477 0.402070
O O14 0.500000 0.000000 0.616045
O O15 0.169990 0.001899 0.527212
O O16 0.000000 0.500000 0.813774
#
# Coordination Sequence:
#
# PCOD9311751 Si02
#       8
#     4   4   4   4   4   4   2   4
#     4  11  21  36  58  90 120 155 196 256 301 363
#     4  10  21  36  57  94 117 154 198 256 303 369
#     4  11  22  40  60  87 121 166 197 261 303 372
#     4  11  21  37  55  92 123 158 199 255 303 368
#     4  10  24  38  57  86 124 153 208 249 313 362
#     4  11  20  34  59  88 123 152 196 250 307 356
#     4  12  22  32  66  88 122 162 202 250 310 362
#     4  10  18  39  59  86 124 155 202 251 304 366
#
# _framework density 19.600777000000001
#
# number of rings (size 3 to 8) (size 9 to 14) (size 15 to 20)
#    0.000    1.333    5.333    2.400    5.600    1.067 
#    0.000    0.667    0.000    2.400    0.000    0.000 
#    0.000    0.000    0.000    0.000    0.000    0.000 
#
# Total GULP energy -167382.993882 kJ/mol
# GULP energy per Si atom -5579.433129 kJ/mol
# Density = 1.955617 g / cm^3
# Si number density = 19.600777 Si / 1000 Ang^3
#
#
#
# Elastic Constant Matrix: (Units=GPa)
#
#
# Indices 1 2 3 4 5 6 
#
# 1 34.6133 8.1922 3.6067 0.0000 0.0000 0.0000
# 2 8.1922 129.5807 43.3866 0.0000 0.0000 0.0000
# 3 3.6067 43.3866 97.6248 0.0000 0.0000 0.0000
# 4 0.0000 0.0000 0.0000 7.7936 0.0000 0.0000
# 5 0.0000 0.0000 0.0000 0.0000 18.8759 0.0000
# 6 0.0000 0.0000 0.0000 0.0000 0.0000 29.5819
#
#
#
# Elastic Compliance Matrix: (Units=1/GPa)
#
#
# Indices 1 2 3 4 5 6 
#
# 1 0.029337 -0.001753 -0.000305 0.000000 0.000000 0.000000
# 2 -0.001753 0.009171 -0.004011 0.000000 0.000000 0.000000
# 3 -0.000305 -0.004011 0.012037 0.000000 0.000000 0.000000
# 4 0.000000 0.000000 0.000000 0.128310 0.000000 0.000000
# 5 0.000000 0.000000 0.000000 0.000000 0.052978 0.000000
# 6 0.000000 0.000000 0.000000 0.000000 0.000000 0.033804
#
#
# Mechanical properties :
#
#
# Convention : Reuss Voigt Hill
#
# Bulk Modulus (GPa) = 26.03616 41.35443 33.69530
# Shear Modulus (GPa) = 17.20712 25.02584 21.11648
#
# Velocity S-wave (km/s) = 2.96612 3.57708 3.28583
# Velocity P-wave (km/s) = 5.00425 6.18101 5.62349
#
# Compressibility (1/GPa) = 0.03840813
#
# Stress axis : x y z
#
# Youngs Moduli (GPa) = 34.08645 109.03944 83.07606
#
# Poissons Ratio (x) = 0.19111 0.02533
# Poissons Ratio (y) = 0.05974 0.33322
# Poissons Ratio (z) = 0.01039 0.43736
#
# Static dielectric constant tensor:
#      x y z
#    x 1.751820 0.000000 0.000000 
#    y 0.000000 1.747650 0.000000 
#    z 0.000000 0.000000 1.670650 
# 
# From -- ./inp_files/3495.got.cif
#   From: 2010.05.17/outbox.cif.g08.bks.cpg/sg18_2_cif.got.tgz:3495.got - 2010.06.03 22:40:56.
