data_PCOD9311386
_publ_section_title
;
Structure prediction by ZEFSAII (Michael W. Deem and Ramdas Pophale) SiO2 
 PCOD9311386
Probable space group: P 2 2 21
;
_chemical_formula_sum "Si O2"
_cell_formula_units_Z 14
_cell_length_a 8.696930
_cell_length_b 7.510168
_cell_length_c 9.155735
_cell_angle_alpha 90.000000
_cell_angle_beta 90.000000
_cell_angle_gamma 90.000000
_cell_volume 598.010543
_symmetry_space_group_name_H-M "P 2 2 21"
_symmetry_group_IT_number 17
_symmetry_cell_setting 'orthorhombic'
loop_
_space_group_symop_operation_xyz
x,y,z
-x,-y,1/2+z
x,-y,-z
-x,y,1/2-z
loop_
_atom_site_type_symbol
_atom_site_label
_atom_site_fract_x
_atom_site_fract_y
_atom_site_fract_z
Si Si1 0.687232 0.000000 0.500000
Si Si2 0.750423 0.216903 0.989115
Si Si3 0.832740 0.272109 0.296231
Si Si4 0.500000 0.189705 0.750000
Si Si5 0.017321 0.500000 0.000000
O O1 0.780347 0.838819 0.566214
O O2 0.592343 0.929100 0.364144
O O3 0.627015 0.271174 0.864056
O O4 0.718452 0.268498 0.159406
O O5 0.905500 0.332515 0.967003
O O6 0.766620 0.000000 0.000000
O O7 0.875302 0.462851 0.361509
O O8 0.000000 0.194847 0.250000
#
# Coordination Sequence:
#
# PCOD9311386 Si02
#       5
#     2   4   4   2   2
#     4  12  22  40  74 102 140 194 244 300 370 434
#     4  11  23  49  74 107 151 200 246 311 371 450
#     4  10  24  43  70 108 146 184 245 310 369 446
#     4  12  24  42  74 106 146 200 252 296 368 450
#     4  10  26  46  72 112 146 194 250 314 380 448
#
# _framework density 23.410957
#
# number of rings (size 3 to 8) (size 9 to 14) (size 15 to 20)
#    0.000    1.143    4.286    0.000    8.000    6.857 
#    0.000    8.571    0.000    0.000    0.000    0.000 
#    0.000    0.000    0.000    0.000    0.000    0.000 
#
# Total GULP energy -77991.439128 kJ/mol
# GULP energy per Si atom -5570.817081 kJ/mol
# Density = 2.335767 g / cm^3
# Si number density = 23.410957 Si / 1000 Ang^3
#
#
#
# Elastic Constant Matrix: (Units=GPa)
#
#
# Indices 1 2 3 4 5 6 
#
# 1 75.6187 30.0179 69.9044 0.0000 0.0000 0.0000
# 2 30.0179 85.5742 52.4041 0.0000 0.0000 0.0000
# 3 69.9044 52.4041 205.4073 0.0000 0.0000 0.0000
# 4 0.0000 0.0000 0.0000 43.6131 0.0000 0.0000
# 5 0.0000 0.0000 0.0000 0.0000 71.5094 0.0000
# 6 0.0000 0.0000 0.0000 0.0000 0.0000 8.3233
#
#
#
# Elastic Compliance Matrix: (Units=1/GPa)
#
#
# Indices 1 2 3 4 5 6 
#
# 1 0.020091 -0.003390 -0.005973 0.000000 0.000000 0.000000
# 2 -0.003390 0.014422 -0.002526 0.000000 0.000000 0.000000
# 3 -0.005973 -0.002526 0.007545 0.000000 0.000000 0.000000
# 4 0.000000 0.000000 0.000000 0.022929 0.000000 0.000000
# 5 0.000000 0.000000 0.000000 0.000000 0.013984 0.000000
# 6 0.000000 0.000000 0.000000 0.000000 0.000000 0.120144
#
#
# Mechanical properties :
#
#
# Convention : Reuss Voigt Hill
#
# Bulk Modulus (GPa) = 54.69984 74.58368 64.64176
# Shear Modulus (GPa) = 21.83543 38.97410 30.40476
#
# Velocity S-wave (km/s) = 3.05733 4.08460 3.60771
# Velocity P-wave (km/s) = 5.98989 7.36022 6.71013
#
# Compressibility (1/GPa) = 0.01828159
#
# Stress axis : x y z
#
# Youngs Moduli (GPa) = 49.77288 69.34062 132.53306
#
# Poissons Ratio (x) = 0.23508 0.79156
# Poissons Ratio (y) = 0.16874 0.33472
# Poissons Ratio (z) = 0.29727 0.17512
#
# Static dielectric constant tensor:
#      x y z
#    x 1.969360 0.000000 0.000000 
#    y 0.000000 1.949560 0.000000 
#    z 0.000000 0.000000 2.029390 
# 
# From -- ./inp_files/3696.got.cif
#   From: 2010.05.17/outbox.cif.g08.bks.cpg/sg17_2_cif.got.tgz:3696.got - 2010.06.03 22:34:06.
