data_PCOD9311599
_publ_section_title
;
Structure prediction by ZEFSAII (Michael W. Deem and Ramdas Pophale) SiO2 
 PCOD9311599
Probable space group: P 2 2 21
;
_chemical_formula_sum "Si O2"
_cell_formula_units_Z 18
_cell_length_a 26.389390
_cell_length_b 5.365258
_cell_length_c 5.107748
_cell_angle_alpha 90.000000
_cell_angle_beta 90.000000
_cell_angle_gamma 90.000000
_cell_volume 723.185025
_symmetry_space_group_name_H-M "P 2 2 21"
_symmetry_group_IT_number 17
_symmetry_cell_setting 'orthorhombic'
loop_
_space_group_symop_operation_xyz
x,y,z
-x,-y,1/2+z
x,-y,-z
-x,y,1/2-z
loop_
_atom_site_type_symbol
_atom_site_label
_atom_site_fract_x
_atom_site_fract_y
_atom_site_fract_z
Si Si1 0.034675 0.500000 0.500000
Si Si2 0.532048 0.000000 0.000000
Si Si3 0.618857 0.664338 0.236175
Si Si4 0.303299 0.000000 0.000000
Si Si5 0.889837 0.245825 0.335387
Si Si6 0.227235 0.749053 0.663923
O O1 0.072253 0.718642 0.593407
O O2 0.000000 0.563332 0.250000
O O3 0.500000 0.903836 0.750000
O O4 0.567430 0.211448 0.870919
O O5 0.611917 0.500000 0.500000
O O6 0.658478 0.882117 0.293031
O O7 0.639343 0.500000 0.000000
O O8 0.266620 0.782686 0.898230
O O9 0.895998 0.500000 0.500000
O O10 0.831108 0.240515 0.254043
O O11 0.901310 0.000000 0.500000
O O12 0.234447 0.500000 0.500000
O O13 0.235659 0.000000 0.500000
#
# Coordination Sequence:
#
# PCOD9311599 Si02
#       6
#     2   2   4   2   4   4
#     4  12  28  56  86 128 170 228 284 368 444 526
#     4  12  27  54  84 122 164 218 293 362 430 508
#     4  12  29  52  82 119 171 224 281 355 432 519
#     4  12  31  48  76 120 174 220 289 344 436 516
#     4  12  27  54  83 121 171 221 286 357 431 520
#     4  12  29  48  82 123 166 225 286 353 428 515
#
# _framework density 24.889894999999999
#
# number of rings (size 3 to 8) (size 9 to 14) (size 15 to 20)
#    0.000    0.000    3.333    4.667    7.778    1.778 
#    4.000    2.222    0.000    0.000    0.000    0.000 
#    0.000    0.000    0.000    0.000    0.000    0.000 
#
# Total GULP energy -101041.918077 kJ/mol
# GULP energy per Si atom -5613.439893 kJ/mol
# Density = 2.483324 g / cm^3
# Si number density = 24.889895 Si / 1000 Ang^3
#
#
#
# Elastic Constant Matrix: (Units=GPa)
#
#
# Indices 1 2 3 4 5 6 
#
# 1 181.8574 51.6816 88.9730 0.0000 0.0000 0.0000
# 2 51.6816 179.3880 84.9960 0.0000 0.0000 0.0000
# 3 88.9730 84.9960 184.8128 0.0000 0.0000 0.0000
# 4 0.0000 0.0000 0.0000 75.0034 0.0000 0.0000
# 5 0.0000 0.0000 0.0000 0.0000 -61.5331 0.0000
# 6 0.0000 0.0000 0.0000 0.0000 0.0000 169.0387
#
#
#
# Elastic Compliance Matrix: (Units=1/GPa)
#
#
# Indices 1 2 3 4 5 6 
#
# 1 0.007236 -0.000555 -0.003228 0.000000 0.000000 0.000000
# 2 -0.000555 0.007170 -0.003030 0.000000 0.000000 0.000000
# 3 -0.003228 -0.003030 0.008359 0.000000 0.000000 0.000000
# 4 0.000000 0.000000 0.000000 0.013333 0.000000 0.000000
# 5 0.000000 0.000000 0.000000 0.000000 -0.016251 0.000000
# 6 0.000000 0.000000 0.000000 0.000000 0.000000 0.005916
#
#
# Mechanical properties :
#
#
# Convention : Reuss Voigt Hill
#
# Bulk Modulus (GPa) = 109.43961 110.81771 110.12866
# Shear Modulus (GPa) = 117.82605 57.86232 87.84419
#
# Velocity S-wave (km/s) = 6.88779 4.82678 5.94725
# Velocity P-wave (km/s) = 10.35956 8.69963 9.56567
#
# Compressibility (1/GPa) = 0.00913746
#
# Stress axis : x y z
#
# Youngs Moduli (GPa) = 138.19816 139.46481 119.63534
#
# Poissons Ratio (x) = 0.07742 0.38622
# Poissons Ratio (y) = 0.07671 0.36254
# Poissons Ratio (z) = 0.44614 0.42263
#
# Static dielectric constant tensor:
#      x y z
#    x 1.960740 0.000000 0.000000 
#    y 0.000000 2.195150 0.000000 
#    z 0.000000 0.000000 2.003610 
# 
# From -- ./inp_files/3038.got.cif
#   From: 2010.05.17/outbox.cif.g08.bks.cpg/sg17_2_cif.got.tgz:3038.got - 2010.06.03 22:34:06.
