data_PCOD9311142
_publ_section_title
;
Structure prediction by ZEFSAII (Michael W. Deem and Ramdas Pophale) SiO2 
 PCOD9311142
Probable space group: P 2 2 21
;
_chemical_formula_sum "Si O2"
_cell_formula_units_Z 18
_cell_length_a 5.128304
_cell_length_b 5.215149
_cell_length_c 24.164791
_cell_angle_alpha 90.000000
_cell_angle_beta 90.000000
_cell_angle_gamma 90.000000
_cell_volume 646.284181
_symmetry_space_group_name_H-M "P 2 2 21"
_symmetry_group_IT_number 17
_symmetry_cell_setting 'orthorhombic'
loop_
_space_group_symop_operation_xyz
x,y,z
-x,-y,1/2+z
x,-y,-z
-x,y,1/2-z
loop_
_atom_site_type_symbol
_atom_site_label
_atom_site_fract_x
_atom_site_fract_y
_atom_site_fract_z
Si Si1 0.565857 0.000000 0.000000
Si Si2 0.957758 0.588977 0.056453
Si Si3 0.175861 0.097223 0.098997
Si Si4 0.243721 0.207373 0.712522
Si Si5 0.581283 0.292787 0.185870
O O1 0.731909 0.231116 0.971114
O O2 0.385546 0.895349 0.951072
O O3 0.952969 0.309073 0.085502
O O4 0.094988 0.797981 0.096253
O O5 0.103679 0.500000 0.000000
O O6 0.340675 0.189471 0.151413
O O7 0.500000 0.165057 0.750000
O O8 0.319880 0.426616 0.669512
O O9 0.000000 0.284842 0.750000
O O10 0.201934 0.929698 0.686191
O O11 0.500000 0.335932 0.250000
#
# Coordination Sequence:
#
# PCOD9311142 Si02
#       5
#     2   4   4   4   4
#     4  12  26  46  74 108 146 190 258 310 400 458
#     4  12  24  46  69 108 140 188 248 310 379 463
#     4  12  26  47  75 104 154 196 248 321 389 461
#     4  10  21  44  71  99 145 194 247 310 368 450
#     4  10  23  47  70 106 144 197 249 309 385 469
#
# _framework density 27.851524000000001
#
# number of rings (size 3 to 8) (size 9 to 14) (size 15 to 20)
#    0.000    0.889    4.444    2.000    3.111    0.000 
#   24.000    0.000    0.000    0.000    0.000    0.000 
#    0.000    0.000    0.000    0.000    0.000    0.000 
#
# Total GULP energy -100698.407311 kJ/mol
# GULP energy per Si atom -5594.355962 kJ/mol
# Density = 2.778813 g / cm^3
# Si number density = 27.851524 Si / 1000 Ang^3
#
#
#
# Elastic Constant Matrix: (Units=GPa)
#
#
# Indices 1 2 3 4 5 6 
#
# 1 114.3878 40.2150 23.7966 0.0000 0.0000 0.0000
# 2 40.2150 237.1149 26.2756 0.0000 0.0000 0.0000
# 3 23.7966 26.2756 116.5584 0.0000 0.0000 0.0000
# 4 0.0000 0.0000 0.0000 51.5874 0.0000 0.0000
# 5 0.0000 0.0000 0.0000 0.0000 53.1333 0.0000
# 6 0.0000 0.0000 0.0000 0.0000 0.0000 92.7795
#
#
#
# Elastic Compliance Matrix: (Units=1/GPa)
#
#
# Indices 1 2 3 4 5 6 
#
# 1 0.009590 -0.001446 -0.001632 0.000000 0.000000 0.000000
# 2 -0.001446 0.004543 -0.000729 0.000000 0.000000 0.000000
# 3 -0.001632 -0.000729 0.009077 0.000000 0.000000 0.000000
# 4 0.000000 0.000000 0.000000 0.019385 0.000000 0.000000
# 5 0.000000 0.000000 0.000000 0.000000 0.018821 0.000000
# 6 0.000000 0.000000 0.000000 0.000000 0.000000 0.010778
#
#
# Mechanical properties :
#
#
# Convention : Reuss Voigt Hill
#
# Bulk Modulus (GPa) = 64.11556 72.07062 68.09309
# Shear Modulus (GPa) = 58.81944 64.68496 61.75220
#
# Velocity S-wave (km/s) = 4.60052 4.82445 4.71382
# Velocity P-wave (km/s) = 7.16172 7.54763 7.35720
#
# Compressibility (1/GPa) = 0.01559684
#
# Stress axis : x y z
#
# Youngs Moduli (GPa) = 104.27603 220.10270 110.16937
#
# Poissons Ratio (x) = 0.31818 0.17980
# Poissons Ratio (y) = 0.15074 0.08032
# Poissons Ratio (z) = 0.17018 0.16047
#
# Static dielectric constant tensor:
#      x y z
#    x 2.320090 0.000000 0.000000 
#    y 0.000000 2.228900 0.000000 
#    z 0.000000 0.000000 2.545360 
# 
# From -- ./inp_files/10746.got.cif
#   From: 2010.05.17/outbox.cif.g08.bks.cpg/sg17_6_cif.got.tgz:10746.got - 2010.06.03 22:34:06.
