data_PCOD9311059
_publ_section_title
;
Structure prediction by ZEFSAII (Michael W. Deem and Ramdas Pophale) SiO2 
 PCOD9311059
Probable space group: P 2 2 21
;
_chemical_formula_sum "Si O2"
_cell_formula_units_Z 16
_cell_length_a 9.365992
_cell_length_b 11.891229
_cell_length_c 7.661935
_cell_angle_alpha 90.000000
_cell_angle_beta 90.000000
_cell_angle_gamma 90.000000
_cell_volume 853.333880
_symmetry_space_group_name_H-M "P 2 2 21"
_symmetry_group_IT_number 17
_symmetry_cell_setting 'orthorhombic'
loop_
_space_group_symop_operation_xyz
x,y,z
-x,-y,1/2+z
x,-y,-z
-x,y,1/2-z
loop_
_atom_site_type_symbol
_atom_site_label
_atom_site_fract_x
_atom_site_fract_y
_atom_site_fract_z
Si Si1 0.346279 0.773600 0.772446
Si Si2 0.239988 0.112907 0.575791
Si Si3 0.099580 0.620689 0.921862
Si Si4 0.500000 0.989145 0.750000
Si Si5 0.000000 0.756210 0.250000
O O1 0.500000 0.713922 0.750000
O O2 0.276824 0.805915 0.585935
O O3 0.234540 0.699012 0.875317
O O4 0.397260 0.896348 0.847579
O O5 0.388949 0.067819 0.651996
O O6 0.140034 0.169135 0.717945
O O7 0.166251 0.000000 0.500000
O O8 0.000000 0.608520 0.750000
O O9 0.142458 0.500000 0.000000
O O10 0.015838 0.682385 0.077095
#
# Coordination Sequence:
#
# PCOD9311059 Si02
#       5
#     4   4   4   2   2
#     4   9  21  41  67  92 138 168 218 280 316 399
#     4  10  21  39  61 103 137 179 217 258 336 399
#     4  12  25  47  68  97 131 176 229 284 339 388
#     4   8  20  38  66  96 138 180 206 262 324 400
#     4  12  26  38  70 100 132 184 218 276 330 402
#
# _framework density 18.749988999999999
#
# number of rings (size 3 to 8) (size 9 to 14) (size 15 to 20)
#    0.750    1.000    3.750    0.000    3.500    4.000 
#    0.000    3.750    0.000    0.000    0.000    0.000 
#    0.000    0.000    0.000    0.000    0.000    0.000 
#
# Total GULP energy -89079.063953 kJ/mol
# GULP energy per Si atom -5567.441497 kJ/mol
# Density = 1.870731 g / cm^3
# Si number density = 18.749989 Si / 1000 Ang^3
#
#
#
# Elastic Constant Matrix: (Units=GPa)
#
#
# Indices 1 2 3 4 5 6 
#
# 1 98.1900 57.3275 53.0316 0.0000 0.0000 0.0000
# 2 57.3275 103.5277 58.0814 0.0000 0.0000 0.0000
# 3 53.0316 58.0814 101.3045 0.0000 0.0000 0.0000
# 4 0.0000 0.0000 0.0000 41.5651 0.0000 0.0000
# 5 0.0000 0.0000 0.0000 0.0000 40.8063 0.0000
# 6 0.0000 0.0000 0.0000 0.0000 0.0000 22.2067
#
#
#
# Elastic Compliance Matrix: (Units=1/GPa)
#
#
# Indices 1 2 3 4 5 6 
#
# 1 0.016637 -0.006378 -0.005052 0.000000 0.000000 0.000000
# 2 -0.006378 0.016684 -0.006227 0.000000 0.000000 0.000000
# 3 -0.005052 -0.006227 0.016086 0.000000 0.000000 0.000000
# 4 0.000000 0.000000 0.000000 0.024059 0.000000 0.000000
# 5 0.000000 0.000000 0.000000 0.000000 0.024506 0.000000
# 6 0.000000 0.000000 0.000000 0.000000 0.000000 0.045032
#
#
# Mechanical properties :
#
#
# Convention : Reuss Voigt Hill
#
# Bulk Modulus (GPa) = 70.95849 71.10035 71.02942
# Shear Modulus (GPa) = 27.31998 29.88773 28.60385
#
# Velocity S-wave (km/s) = 3.82129 3.99684 3.91005
# Velocity P-wave (km/s) = 7.57604 7.70079 7.63867
#
# Compressibility (1/GPa) = 0.01409275
#
# Stress axis : x y z
#
# Youngs Moduli (GPa) = 60.10749 59.93600 62.16469
#
# Poissons Ratio (x) = 0.38227 0.31409
# Poissons Ratio (y) = 0.38336 0.38710
# Poissons Ratio (z) = 0.30369 0.37322
#
# Static dielectric constant tensor:
#      x y z
#    x 1.643210 0.000000 0.000000 
#    y 0.000000 1.656790 0.000000 
#    z 0.000000 0.000000 1.726490 
# 
# From -- ./inp_files/3867.got.cif
#   From: 2010.05.17/outbox.cif.g08.bks.cpg/sg17_2_cif.got.tgz:3867.got - 2010.06.03 22:34:06.
