data_PCOD9311921
_publ_section_title
;
Structure prediction by ZEFSAII (Michael W. Deem and Ramdas Pophale) SiO2 
 PCOD9311921
Probable space group: P 21 21 2
;
_chemical_formula_sum "Si O2"
_cell_formula_units_Z 22
_cell_length_a 6.208438
_cell_length_b 23.973462
_cell_length_c 6.027595
_cell_angle_alpha 90.000000
_cell_angle_beta 90.000000
_cell_angle_gamma 90.000000
_cell_volume 897.133693
_symmetry_space_group_name_H-M "P 21 21 2"
_symmetry_group_IT_number 18
_symmetry_cell_setting 'orthorhombic'
loop_
_space_group_symop_operation_xyz
x,y,z
-x,-y,z
1/2+x,1/2-y,-z
1/2-x,1/2+y,-z
loop_
_atom_site_type_symbol
_atom_site_label
_atom_site_fract_x
_atom_site_fract_y
_atom_site_fract_z
Si Si1 0.803069 0.425377 0.175329
Si Si2 0.554080 0.404411 0.786199
Si Si3 0.940349 0.824009 0.579951
Si Si4 0.900708 0.733934 0.913373
Si Si5 0.500000 0.500000 0.447771
Si Si6 0.789083 0.626081 0.139168
O O1 0.765742 0.426358 0.910397
O O2 0.051674 0.420166 0.224636
O O3 0.710718 0.367102 0.281587
O O4 0.685883 0.475926 0.292776
O O5 0.585778 0.343930 0.672106
O O6 0.462461 0.447231 0.607786
O O7 0.394409 0.400686 0.990900
O O8 0.896681 0.762124 0.668915
O O9 0.179754 0.840582 0.660010
O O10 0.904777 0.669121 0.972588
O O11 0.647044 0.747734 0.998649
#
# Coordination Sequence:
#
# PCOD9311921 Si02
#       6
#     4   4   4   4   2   4
#     4  10  20  41  63  88 125 168 213 277 329 400
#     4  10  22  41  61  95 125 164 223 278 333 403
#     4   9  20  39  60  90 132 172 216 260 331 397
#     4  10  19  38  67  99 138 190 222 267 340 408
#     4  10  22  42  66  84 126 174 212 282 352 398
#     4  10  21  39  63  91 132 167 216 276 331 400
#
# _framework density 24.522545999999998
#
# number of rings (size 3 to 8) (size 9 to 14) (size 15 to 20)
#    0.000    2.182    1.818    0.545    0.000    2.909 
#    3.273   21.818    0.000    0.000    0.000    0.000 
#    0.000    0.000    0.000    0.000    0.000    0.000 
#
# Total GULP energy -122571.199298 kJ/mol
# GULP energy per Si atom -5571.418150 kJ/mol
# Density = 2.446673 g / cm^3
# Si number density = 24.522546 Si / 1000 Ang^3
#
#
#
# Elastic Constant Matrix: (Units=GPa)
#
#
# Indices 1 2 3 4 5 6 
#
# 1 84.5613 22.5568 21.1722 0.0000 0.0000 0.0000
# 2 22.5568 69.9121 5.3440 0.0000 0.0000 0.0000
# 3 21.1722 5.3440 65.0036 0.0000 0.0000 0.0000
# 4 0.0000 0.0000 0.0000 37.5534 0.0000 0.0000
# 5 0.0000 0.0000 0.0000 0.0000 6.0786 0.0000
# 6 0.0000 0.0000 0.0000 0.0000 0.0000 44.1125
#
#
#
# Elastic Compliance Matrix: (Units=1/GPa)
#
#
# Indices 1 2 3 4 5 6 
#
# 1 0.014000 -0.004195 -0.004215 0.000000 0.000000 0.000000
# 2 -0.004195 0.015651 0.000080 0.000000 0.000000 0.000000
# 3 -0.004215 0.000080 0.016750 0.000000 0.000000 0.000000
# 4 0.000000 0.000000 0.000000 0.026629 0.000000 0.000000
# 5 0.000000 0.000000 0.000000 0.000000 0.164512 0.000000
# 6 0.000000 0.000000 0.000000 0.000000 0.000000 0.022669
#
#
# Mechanical properties :
#
#
# Convention : Reuss Voigt Hill
#
# Bulk Modulus (GPa) = 33.62409 35.29144 34.45776
# Shear Modulus (GPa) = 17.43463 28.90917 23.17190
#
# Velocity S-wave (km/s) = 2.66928 3.43721 3.07729
# Velocity P-wave (km/s) = 4.82093 5.49320 5.16801
#
# Compressibility (1/GPa) = 0.02974058
#
# Stress axis : x y z
#
# Youngs Moduli (GPa) = 71.42817 63.89350 59.70116
#
# Poissons Ratio (x) = 0.26802 0.25164
# Poissons Ratio (y) = 0.29963 -0.00475
# Poissons Ratio (z) = 0.30107 -0.00509
#
# Static dielectric constant tensor:
#      x y z
#    x 2.090280 0.000000 0.000000 
#    y 0.000000 1.946670 0.000000 
#    z 0.000000 0.000000 1.961260 
# 
# From -- ./inp_files/319.got.cif
#   From: 2010.05.17/outbox.cif.g08.bks.cpg/sg18_1_cif.got.tgz:319.got - 2010.06.03 22:40:56.
