data_PCOD9311654
_publ_section_title
;
Structure prediction by ZEFSAII (Michael W. Deem and Ramdas Pophale) SiO2 
 PCOD9311654
Probable space group: P 21 21 2
;
_chemical_formula_sum "Si O2"
_cell_formula_units_Z 22
_cell_length_a 5.167526
_cell_length_b 12.836511
_cell_length_c 20.173421
_cell_angle_alpha 90.000000
_cell_angle_beta 90.000000
_cell_angle_gamma 90.000000
_cell_volume 1338.163623
_symmetry_space_group_name_H-M "P 21 21 2"
_symmetry_group_IT_number 18
_symmetry_cell_setting 'orthorhombic'
loop_
_space_group_symop_operation_xyz
x,y,z
-x,-y,z
1/2+x,1/2-y,-z
1/2-x,1/2+y,-z
loop_
_atom_site_type_symbol
_atom_site_label
_atom_site_fract_x
_atom_site_fract_y
_atom_site_fract_z
Si Si1 0.000000 0.500000 0.274460
Si Si2 0.058871 0.839484 0.932955
Si Si3 0.443008 0.114486 0.020468
Si Si4 0.802472 0.088331 0.617907
Si Si5 0.000000 0.500000 0.506310
Si Si6 0.000000 0.000000 0.816509
Si Si7 0.478112 0.223616 0.458589
O O1 0.922840 0.590512 0.327344
O O2 0.754656 0.483504 0.227620
O O3 0.333570 0.866858 0.965832
O O4 0.831337 0.878738 0.982420
O O5 0.034002 0.900455 0.864495
O O6 0.040102 0.713817 0.930865
O O7 0.500000 0.000000 0.049137
O O8 0.919844 0.200386 0.602365
O O9 0.708967 0.042913 0.546763
O O10 0.000000 0.000000 0.641914
O O11 0.064520 0.600527 0.549770
O O12 0.766691 0.247229 0.484697
#
# Coordination Sequence:
#
# PCOD9311654 Si02
#       7
#     2   4   4   4   2   2   4
#     4  11  24  32  54  66 104 138 179 204 254 264
#     4  10  20  29  51  75 107 129 163 206 244 306
#     4  10  17  32  49  77 107 135 149 195 272 309
#     4  10  18  35  48  74 104 131 164 207 247 305
#     4   9  18  30  50  80 102 128 153 202 262 318
#     4  12  20  36  48  78  98 136 174 218 230 290
#     4  10  19  29  50  74 103 131 154 201 254 316
#
# _framework density 16.440442000000001
#
# number of rings (size 3 to 8) (size 9 to 14) (size 15 to 20)
#    0.000    1.818    4.545    1.091    0.000    0.000 
#    0.000    0.000    0.000    0.000    2.364    2.545 
#    0.000    0.000    0.000    0.000    0.000    0.000 
#
# Total GULP energy -122479.736494 kJ/mol
# GULP energy per Si atom -5567.260750 kJ/mol
# Density = 1.640302 g / cm^3
# Si number density = 16.440442 Si / 1000 Ang^3
#
#
#
# Elastic Constant Matrix: (Units=GPa)
#
#
# Indices 1 2 3 4 5 6 
#
# 1 66.6557 -1.2002 19.2795 0.0000 0.0000 0.0000
# 2 -1.2002 138.7754 37.1525 0.0000 0.0000 0.0000
# 3 19.2795 37.1525 69.8315 0.0000 0.0000 0.0000
# 4 0.0000 0.0000 0.0000 6.4818 0.0000 0.0000
# 5 0.0000 0.0000 0.0000 0.0000 18.7558 0.0000
# 6 0.0000 0.0000 0.0000 0.0000 0.0000 20.6628
#
#
#
# Elastic Compliance Matrix: (Units=1/GPa)
#
#
# Indices 1 2 3 4 5 6 
#
# 1 0.016603 0.001598 -0.005434 0.000000 0.000000 0.000000
# 2 0.001598 0.008557 -0.004994 0.000000 0.000000 0.000000
# 3 -0.005434 -0.004994 0.018477 0.000000 0.000000 0.000000
# 4 0.000000 0.000000 0.000000 0.154277 0.000000 0.000000
# 5 0.000000 0.000000 0.000000 0.000000 0.053317 0.000000
# 6 0.000000 0.000000 0.000000 0.000000 0.000000 0.048396
#
#
# Mechanical properties :
#
#
# Convention : Reuss Voigt Hill
#
# Bulk Modulus (GPa) = 38.49425 42.85848 40.67636
# Shear Modulus (GPa) = 15.33998 23.84881 19.59440
#
# Velocity S-wave (km/s) = 3.05792 3.81283 3.45605
# Velocity P-wave (km/s) = 5.99442 6.74604 6.38131
#
# Compressibility (1/GPa) = 0.02597791
#
# Stress axis : x y z
#
# Youngs Moduli (GPa) = 60.22981 116.86877 54.12038
#
# Poissons Ratio (x) = -0.18681 0.29411
# Poissons Ratio (y) = -0.09627 0.27026
# Poissons Ratio (z) = 0.32731 0.58361
#
# Static dielectric constant tensor:
#      x y z
#    x 1.621080 0.000000 0.000000 
#    y 0.000000 1.612610 0.000000 
#    z 0.000000 0.000000 1.528960 
# 
# From -- ./inp_files/7464.got.cif
#   From: 2010.05.17/outbox.cif.g08.bks.cpg/sg18_4_cif.got.tgz:7464.got - 2010.06.03 22:40:56.
