data_PCOD9311076
_publ_section_title
;
Structure prediction by ZEFSAII (Michael W. Deem and Ramdas Pophale) SiO2 
 PCOD9311076
Probable space group: P 2 2 21
;
_chemical_formula_sum "Si O2"
_cell_formula_units_Z 18
_cell_length_a 18.820025
_cell_length_b 8.772466
_cell_length_c 5.125720
_cell_angle_alpha 90.000000
_cell_angle_beta 90.000000
_cell_angle_gamma 90.000000
_cell_volume 846.246271
_symmetry_space_group_name_H-M "P 2 2 21"
_symmetry_group_IT_number 17
_symmetry_cell_setting 'orthorhombic'
loop_
_space_group_symop_operation_xyz
x,y,z
-x,-y,1/2+z
x,-y,-z
-x,y,1/2-z
loop_
_atom_site_type_symbol
_atom_site_label
_atom_site_fract_x
_atom_site_fract_y
_atom_site_fract_z
Si Si1 0.698402 0.324728 0.576852
Si Si2 0.767774 0.823898 0.911797
Si Si3 0.550275 0.824256 0.496889
Si Si4 0.929865 0.175918 0.074419
Si Si5 0.000000 0.398880 0.750000
O O1 0.713448 0.500000 0.500000
O O2 0.726837 0.215004 0.349731
O O3 0.614284 0.291348 0.559807
O O4 0.735390 0.276907 0.850525
O O5 0.850310 0.795208 0.833744
O O6 0.761821 0.000000 0.000000
O O7 0.500000 0.816297 0.250000
O O8 0.578196 0.000000 0.500000
O O9 0.500000 0.797893 0.750000
O O10 0.000000 0.205440 0.250000
O O11 0.937101 0.285748 0.826030
O O12 0.934903 0.000000 0.000000
O O13 0.983800 0.500000 0.500000
#
# Coordination Sequence:
#
# PCOD9311076 Si02
#       5
#     4   4   4   4   2
#     4  12  26  45  67 103 144 178 220 278 339 404
#     4  11  26  45  71  95 131 183 230 279 337 404
#     4  10  21  39  68 100 134 176 224 271 320 390
#     4  11  25  45  73  97 130 174 235 287 339 406
#     4  12  26  42  64  98 132 166 210 278 346 402
#
# _framework density 21.270405
#
# number of rings (size 3 to 8) (size 9 to 14) (size 15 to 20)
#    0.000    0.889    2.222    4.000    3.111    5.333 
#    0.000    0.000    0.000    0.000    0.000    0.000 
#    0.000    0.000    0.000    0.000    0.000    0.000 
#
# Total GULP energy -100497.482310 kJ/mol
# GULP energy per Si atom -5583.193462 kJ/mol
# Density = 2.122199 g / cm^3
# Si number density = 21.270405 Si / 1000 Ang^3
#
#
#
# Elastic Constant Matrix: (Units=GPa)
#
#
# Indices 1 2 3 4 5 6 
#
# 1 97.7038 24.6569 27.9684 0.0000 0.0000 0.0000
# 2 24.6569 67.7950 6.7099 0.0000 0.0000 0.0000
# 3 27.9684 6.7099 114.7645 0.0000 0.0000 0.0000
# 4 0.0000 0.0000 0.0000 5.6881 0.0000 0.0000
# 5 0.0000 0.0000 0.0000 0.0000 47.5390 0.0000
# 6 0.0000 0.0000 0.0000 0.0000 0.0000 72.9807
#
#
#
# Elastic Compliance Matrix: (Units=1/GPa)
#
#
# Indices 1 2 3 4 5 6 
#
# 1 0.012045 -0.004114 -0.002695 0.000000 0.000000 0.000000
# 2 -0.004114 0.016241 0.000053 0.000000 0.000000 0.000000
# 3 -0.002695 0.000053 0.009367 0.000000 0.000000 0.000000
# 4 0.000000 0.000000 0.000000 0.175806 0.000000 0.000000
# 5 0.000000 0.000000 0.000000 0.000000 0.021035 0.000000
# 6 0.000000 0.000000 0.000000 0.000000 0.000000 0.013702
#
#
# Mechanical properties :
#
#
# Convention : Reuss Voigt Hill
#
# Bulk Modulus (GPa) = 41.42211 44.32598 42.87404
# Shear Modulus (GPa) = 18.53529 39.97010 29.25270
#
# Velocity S-wave (km/s) = 2.95517 4.33961 3.71250
# Velocity P-wave (km/s) = 5.58215 6.78190 6.21106
#
# Compressibility (1/GPa) = 0.02414170
#
# Stress axis : x y z
#
# Youngs Moduli (GPa) = 83.02468 61.57131 106.75637
#
# Poissons Ratio (x) = 0.25330 0.28768
# Poissons Ratio (y) = 0.34155 -0.00566
# Poissons Ratio (z) = 0.22373 -0.00326
#
# Static dielectric constant tensor:
#      x y z
#    x 1.804430 0.000000 0.000000 
#    y 0.000000 1.742910 0.000000 
#    z 0.000000 0.000000 1.666440 
# 
# From -- ./inp_files/2447.got.cif
#   From: 2010.05.17/outbox.cif.g08.bks.cpg/sg17_2_cif.got.tgz:2447.got - 2010.06.03 22:34:06.
