data_PCOD9311077
_publ_section_title
;
Structure prediction by ZEFSAII (Michael W. Deem and Ramdas Pophale) SiO2 
 PCOD9311077
Probable space group: P 2 2 21
;
_chemical_formula_sum "Si O2"
_cell_formula_units_Z 20
_cell_length_a 5.615102
_cell_length_b 10.006564
_cell_length_c 14.742357
_cell_angle_alpha 90.000000
_cell_angle_beta 90.000000
_cell_angle_gamma 90.000000
_cell_volume 828.341750
_symmetry_space_group_name_H-M "P 2 2 21"
_symmetry_group_IT_number 17
_symmetry_cell_setting 'orthorhombic'
loop_
_space_group_symop_operation_xyz
x,y,z
-x,-y,1/2+z
x,-y,-z
-x,y,1/2-z
loop_
_atom_site_type_symbol
_atom_site_label
_atom_site_fract_x
_atom_site_fract_y
_atom_site_fract_z
Si Si1 0.245683 0.497433 0.201086
Si Si2 0.415126 0.707683 0.930616
Si Si3 0.807534 0.859742 0.994456
Si Si4 0.169985 0.928206 0.834674
Si Si5 0.815243 0.782575 0.376583
O O1 0.500000 0.472972 0.250000
O O2 0.290987 0.424971 0.104808
O O3 0.214717 0.655192 0.185712
O O4 0.000000 0.450176 0.250000
O O5 0.693164 0.728825 0.948823
O O6 0.363590 0.815264 0.851260
O O7 0.316767 0.750124 0.029056
O O8 0.010156 0.908961 0.925031
O O9 0.914135 0.812482 0.090222
O O10 0.657030 0.000000 0.000000
O O11 0.000000 0.905989 0.750000
O O12 0.268257 0.078335 0.833733
#
# Coordination Sequence:
#
# PCOD9311077 Si02
#       5
#     4   4   4   4   4
#     4  12  30  49  70 106 147 189 242 304 368 425
#     4  11  23  42  70 101 140 189 240 293 358 440
#     4   9  20  39  71 103 135 183 240 292 350 429
#     4  10  21  39  68 102 141 178 236 298 360 414
#     4  10  23  46  69  98 140 192 242 292 355 440
#
# _framework density 24.144621999999998
#
# number of rings (size 3 to 8) (size 9 to 14) (size 15 to 20)
#    0.000    1.600    0.000    4.800   11.200    0.000 
#    3.600    0.000    0.000    0.000    0.000    0.000 
#    0.000    0.000    0.000    0.000    0.000    0.000 
#
# Total GULP energy -111594.778979 kJ/mol
# GULP energy per Si atom -5579.738949 kJ/mol
# Density = 2.408967 g / cm^3
# Si number density = 24.144622 Si / 1000 Ang^3
#
#
#
# Elastic Constant Matrix: (Units=GPa)
#
#
# Indices 1 2 3 4 5 6 
#
# 1 73.8515 14.8772 15.1471 0.0000 0.0000 0.0000
# 2 14.8772 79.5343 -14.3265 0.0000 0.0000 0.0000
# 3 15.1471 -14.3265 61.0200 0.0000 0.0000 0.0000
# 4 0.0000 0.0000 0.0000 39.7836 0.0000 0.0000
# 5 0.0000 0.0000 0.0000 0.0000 34.1749 0.0000
# 6 0.0000 0.0000 0.0000 0.0000 0.0000 21.1155
#
#
#
# Elastic Compliance Matrix: (Units=1/GPa)
#
#
# Indices 1 2 3 4 5 6 
#
# 1 0.015237 -0.003687 -0.004648 0.000000 0.000000 0.000000
# 2 -0.003687 0.014021 0.004207 0.000000 0.000000 0.000000
# 3 -0.004648 0.004207 0.018530 0.000000 0.000000 0.000000
# 4 0.000000 0.000000 0.000000 0.025136 0.000000 0.000000
# 5 0.000000 0.000000 0.000000 0.000000 0.029261 0.000000
# 6 0.000000 0.000000 0.000000 0.000000 0.000000 0.047359
#
#
# Mechanical properties :
#
#
# Convention : Reuss Voigt Hill
#
# Bulk Modulus (GPa) = 25.29670 27.31126 26.30398
# Shear Modulus (GPa) = 29.24383 32.26202 30.75292
#
# Velocity S-wave (km/s) = 3.48400 3.65937 3.57276
# Velocity P-wave (km/s) = 5.16568 5.40285 5.28559
#
# Compressibility (1/GPa) = 0.03953085
#
# Stress axis : x y z
#
# Youngs Moduli (GPa) = 65.63058 71.32285 53.96764
#
# Poissons Ratio (x) = 0.26299 0.25084
# Poissons Ratio (y) = 0.24200 -0.22705
# Poissons Ratio (z) = 0.30505 -0.30007
#
# Static dielectric constant tensor:
#      x y z
#    x 2.124180 0.000000 0.000000 
#    y 0.000000 2.020060 0.000000 
#    z 0.000000 0.000000 1.903670 
# 
# From -- ./inp_files/7616.got.cif
#   From: 2010.05.17/outbox.cif.g08.bks.cpg/sg17_4_cif.got.tgz:7616.got - 2010.06.03 22:34:06.
