data_PCOD9311569
_publ_section_title
;
Structure prediction by ZEFSAII (Michael W. Deem and Ramdas Pophale) SiO2 
 PCOD9311569
Probable space group: P 2 2 21
;
_chemical_formula_sum "Si O2"
_cell_formula_units_Z 12
_cell_length_a 5.009961
_cell_length_b 5.384125
_cell_length_c 17.499488
_cell_angle_alpha 90.000000
_cell_angle_beta 90.000000
_cell_angle_gamma 90.000000
_cell_volume 472.035674
_symmetry_space_group_name_H-M "P 2 2 21"
_symmetry_group_IT_number 17
_symmetry_cell_setting 'orthorhombic'
loop_
_space_group_symop_operation_xyz
x,y,z
-x,-y,1/2+z
x,-y,-z
-x,y,1/2-z
loop_
_atom_site_type_symbol
_atom_site_label
_atom_site_fract_x
_atom_site_fract_y
_atom_site_fract_z
Si Si1 0.500000 0.541789 0.750000
Si Si2 0.701073 0.917775 0.625484
Si Si3 0.000000 0.821047 0.250000
Si Si4 0.437988 0.244474 0.519018
O O1 0.541525 0.731991 0.680012
O O2 0.751895 0.362181 0.759427
O O3 0.679398 0.777221 0.543833
O O4 0.951028 0.004331 0.675897
O O5 0.558261 0.178137 0.600863
O O6 0.301777 0.500000 0.500000
O O7 0.264888 0.000000 0.500000
#
# Coordination Sequence:
#
# PCOD9311569 Si02
#       4
#     2   4   2   4
#     4  12  24  42  72 104 144 182 234 292 354 414
#     4   9  22  38  68 103 138 180 236 285 348 418
#     4  12  24  42  72 104 144 182 234 292 354 414
#     4   8  18  38  68  98 138 184 232 286 348 416
#
# _framework density 25.421811000000002
#
# number of rings (size 3 to 8) (size 9 to 14) (size 15 to 20)
#    2.000    0.000    0.000    4.000    0.000    0.000 
#    0.000    0.000    0.000  170.000    0.000    0.000 
#    0.000    0.000    0.000    0.000    0.000    0.000 
#
# Total GULP energy -66848.084206 kJ/mol
# GULP energy per Si atom -5570.673684 kJ/mol
# Density = 2.536395 g / cm^3
# Si number density = 25.421811 Si / 1000 Ang^3
#
#
#
# Elastic Constant Matrix: (Units=GPa)
#
#
# Indices 1 2 3 4 5 6 
#
# 1 129.4666 47.6101 46.4697 0.0000 0.0000 0.0000
# 2 47.6101 164.7257 26.2968 0.0000 0.0000 0.0000
# 3 46.4697 26.2968 152.0365 0.0000 0.0000 0.0000
# 4 0.0000 0.0000 0.0000 50.8392 0.0000 0.0000
# 5 0.0000 0.0000 0.0000 0.0000 -8.0043 0.0000
# 6 0.0000 0.0000 0.0000 0.0000 0.0000 46.9920
#
#
#
# Elastic Compliance Matrix: (Units=1/GPa)
#
#
# Indices 1 2 3 4 5 6 
#
# 1 0.009480 -0.002342 -0.002492 0.000000 0.000000 0.000000
# 2 -0.002342 0.006822 -0.000464 0.000000 0.000000 0.000000
# 3 -0.002492 -0.000464 0.007419 0.000000 0.000000 0.000000
# 4 0.000000 0.000000 0.000000 0.019670 0.000000 0.000000
# 5 0.000000 0.000000 0.000000 0.000000 -0.124933 0.000000
# 6 0.000000 0.000000 0.000000 0.000000 0.000000 0.021280
#
#
# Mechanical properties :
#
#
# Convention : Reuss Voigt Hill
#
# Bulk Modulus (GPa) = 76.19658 76.33134 76.26396
# Shear Modulus (GPa) = -110.39888 39.68887 -35.35500
#
# Velocity S-wave (km/s) = -6.59705 3.95551 -3.73330
# Velocity P-wave (km/s) = 5.29057 7.13810 3.38839
#
# Compressibility (1/GPa) = 0.01312395
#
# Stress axis : x y z
#
# Youngs Moduli (GPa) = 105.48665 146.59113 134.78114
#
# Poissons Ratio (x) = 0.34332 0.33593
# Poissons Ratio (y) = 0.24705 0.06255
# Poissons Ratio (z) = 0.26292 0.06803
#
# Static dielectric constant tensor:
#      x y z
#    x 1.950700 0.000000 0.000000 
#    y 0.000000 2.105610 0.000000 
#    z 0.000000 0.000000 1.955660 
# 
# From -- ./inp_files/8769.got.cif
#   From: 2010.05.17/outbox.cif.g08.bks.cpg/sg17_5_cif.got.tgz:8769.got - 2010.06.03 22:34:06.
