data_PCOD9311796
_publ_section_title
;
Structure prediction by ZEFSAII (Michael W. Deem and Ramdas Pophale) SiO2 
 PCOD9311796
Probable space group: P 21 21 2
;
_chemical_formula_sum "Si O2"
_cell_formula_units_Z 24
_cell_length_a 22.190776
_cell_length_b 5.567506
_cell_length_c 9.277713
_cell_angle_alpha 90.000000
_cell_angle_beta 90.000000
_cell_angle_gamma 90.000000
_cell_volume 1146.236192
_symmetry_space_group_name_H-M "P 21 21 2"
_symmetry_group_IT_number 18
_symmetry_cell_setting 'orthorhombic'
loop_
_space_group_symop_operation_xyz
x,y,z
-x,-y,z
1/2+x,1/2-y,-z
1/2-x,1/2+y,-z
loop_
_atom_site_type_symbol
_atom_site_label
_atom_site_fract_x
_atom_site_fract_y
_atom_site_fract_z
Si Si1 0.724277 0.601971 0.550635
Si Si2 0.529483 0.752244 0.233079
Si Si3 0.850451 0.722537 0.961758
Si Si4 0.982758 0.747062 0.092468
Si Si5 0.743392 0.892341 0.154789
Si Si6 0.653421 0.558945 0.298553
O O1 0.733802 0.882142 0.510439
O O2 0.734775 0.573761 0.720412
O O3 0.662948 0.524057 0.468724
O O4 0.500000 0.500000 0.283550
O O5 0.599160 0.742047 0.273338
O O6 0.500000 0.000000 0.284841
O O7 0.520652 0.751849 0.058874
O O8 0.814738 0.477083 0.935068
O O9 0.861614 0.835206 0.803740
O O10 0.912984 0.729081 0.046003
O O11 0.799878 0.864057 0.051198
O O12 0.000000 0.500000 0.170552
O O13 0.000000 0.000000 0.164020
O O14 0.717040 0.661247 0.238127
#
# Coordination Sequence:
#
# PCOD9311796 Si02
#       6
#     4   4   4   4   4   4
#     4  10  22  38  58  82 121 159 194 233 299 362
#     4  10  19  32  54  82 108 141 198 251 287 331
#     4  12  21  35  59  88 121 158 199 257 302 360
#     4  10  20  34  53  82 112 148 195 249 293 340
#     4  11  23  36  56  91 125 157 198 244 311 368
#     4  11  21  37  57  85 119 160 196 253 298 366
#
# _framework density 20.938091
#
# number of rings (size 3 to 8) (size 9 to 14) (size 15 to 20)
#    0.000    1.333    6.667    2.000    0.000    0.000 
#    0.000    0.000    0.000    1.000    0.000    4.667 
#    0.000    0.000    0.000    0.000    0.000    0.000 
#
# Total GULP energy -133638.117238 kJ/mol
# GULP energy per Si atom -5568.254885 kJ/mol
# Density = 2.089043 g / cm^3
# Si number density = 20.938091 Si / 1000 Ang^3
#
#
#
# Elastic Constant Matrix: (Units=GPa)
#
#
# Indices 1 2 3 4 5 6 
#
# 1 91.9060 24.2819 11.3477 0.0000 0.0000 0.0000
# 2 24.2819 120.2758 8.9394 0.0000 0.0000 0.0000
# 3 11.3477 8.9394 20.4322 0.0000 0.0000 0.0000
# 4 0.0000 0.0000 0.0000 10.2889 0.0000 0.0000
# 5 0.0000 0.0000 0.0000 0.0000 13.8522 0.0000
# 6 0.0000 0.0000 0.0000 0.0000 0.0000 35.0988
#
#
#
# Elastic Compliance Matrix: (Units=1/GPa)
#
#
# Indices 1 2 3 4 5 6 
#
# 1 0.012136 -0.002015 -0.005859 0.000000 0.000000 0.000000
# 2 -0.002015 0.008928 -0.002787 0.000000 0.000000 0.000000
# 3 -0.005859 -0.002787 0.053416 0.000000 0.000000 0.000000
# 4 0.000000 0.000000 0.000000 0.097193 0.000000 0.000000
# 5 0.000000 0.000000 0.000000 0.000000 0.072191 0.000000
# 6 0.000000 0.000000 0.000000 0.000000 0.000000 0.028491
#
#
# Mechanical properties :
#
#
# Convention : Reuss Voigt Hill
#
# Bulk Modulus (GPa) = 18.81164 35.75023 27.28093
# Shear Modulus (GPa) = 16.05674 24.38431 20.22052
#
# Velocity S-wave (km/s) = 2.77224 3.41631 3.11099
# Velocity P-wave (km/s) = 4.38760 5.71602 5.09529
#
# Compressibility (1/GPa) = 0.05315857
#
# Stress axis : x y z
#
# Youngs Moduli (GPa) = 82.39695 112.00565 18.72107
#
# Poissons Ratio (x) = 0.22566 0.10968
# Poissons Ratio (y) = 0.16601 0.05218
# Poissons Ratio (z) = 0.48275 0.31219
#
# Static dielectric constant tensor:
#      x y z
#    x 1.759560 0.000000 0.000000 
#    y 0.000000 1.954610 0.000000 
#    z 0.000000 0.000000 1.775230 
# 
# From -- ./inp_files/4721.got.cif
#   From: 2010.05.17/outbox.cif.g08.bks.cpg/sg18_3_cif.got.tgz:4721.got - 2010.06.03 22:40:56.
