data_PCOD9311119
_publ_section_title
;
Structure prediction by ZEFSAII (Michael W. Deem and Ramdas Pophale) SiO2 
 PCOD9311119
Probable space group: P 2 2 21
;
_chemical_formula_sum "Si O2"
_cell_formula_units_Z 32
_cell_length_a 5.324039
_cell_length_b 8.817268
_cell_length_c 29.368549
_cell_angle_alpha 90.000000
_cell_angle_beta 90.000000
_cell_angle_gamma 90.000000
_cell_volume 1378.661855
_symmetry_space_group_name_H-M "P 2 2 21"
_symmetry_group_IT_number 17
_symmetry_cell_setting 'orthorhombic'
loop_
_space_group_symop_operation_xyz
x,y,z
-x,-y,1/2+z
x,-y,-z
-x,y,1/2-z
loop_
_atom_site_type_symbol
_atom_site_label
_atom_site_fract_x
_atom_site_fract_y
_atom_site_fract_z
Si Si1 0.823995 0.583987 0.044592
Si Si2 0.496782 0.519494 0.370787
Si Si3 0.178980 0.036983 0.379623
Si Si4 0.751860 0.894313 0.775330
Si Si5 0.835534 0.759878 0.401531
Si Si6 0.750132 0.472764 0.223082
Si Si7 0.463097 0.169911 0.990735
Si Si8 0.678313 0.784674 0.591366
O O1 0.620926 0.515243 0.078530
O O2 0.701983 0.735478 0.024716
O O3 0.053563 0.607270 0.077325
O O4 0.901689 0.500000 0.000000
O O5 0.639234 0.683065 0.366933
O O6 0.294828 0.514328 0.329847
O O7 0.643376 0.358015 0.373719
O O8 0.947160 0.141810 0.396584
O O9 0.230067 0.052404 0.326548
O O10 0.440787 0.100376 0.400337
O O11 0.063513 0.868209 0.386938
O O12 0.500000 0.943927 0.750000
O O13 0.754732 0.710687 0.775551
O O14 0.000000 0.948488 0.750000
O O15 0.711978 0.833846 0.446185
O O16 0.500000 0.522699 0.250000
O O17 0.000000 0.525450 0.250000
O O18 0.337357 0.239646 0.036383
O O19 0.541523 0.000000 0.000000
#
# Coordination Sequence:
#
# PCOD9311119 Si02
#       8
#     4   4   4   4   4   4   4   4
#     4  11  25  43  67 101 149 201 250 304 371 448
#     4  11  26  45  70 110 146 199 250 314 383 456
#     4  12  26  47  72 112 145 196 248 313 384 444
#     4  10  21  41  72 109 140 175 236 313 379 447
#     4  11  28  42  70 102 158 199 248 315 377 443
#     4  10  23  42  73 110 140 178 241 315 380 444
#     4  11  23  44  63 103 143 198 254 302 360 437
#     4  12  26  42  75 106 148 197 257 307 369 451
#
# _framework density 23.210913000000001
#
# number of rings (size 3 to 8) (size 9 to 14) (size 15 to 20)
#    0.000    1.000    3.750    1.500   12.250    0.500 
#    0.000    0.000    2.750    0.000    0.000    0.000 
#    0.000    0.000    0.000    0.000    0.000    0.000 
#
# Total GULP energy -178678.184582 kJ/mol
# GULP energy per Si atom -5583.693268 kJ/mol
# Density = 2.315808 g / cm^3
# Si number density = 23.210913 Si / 1000 Ang^3
#
#
#
# Elastic Constant Matrix: (Units=GPa)
#
#
# Indices 1 2 3 4 5 6 
#
# 1 135.0794 18.1448 72.5755 0.0000 0.0000 0.0000
# 2 18.1448 17.0784 54.6565 0.0000 0.0000 0.0000
# 3 72.5755 54.6565 73.9116 0.0000 0.0000 0.0000
# 4 0.0000 0.0000 0.0000 24.1159 0.0000 0.0000
# 5 0.0000 0.0000 0.0000 0.0000 19.0309 0.0000
# 6 0.0000 0.0000 0.0000 0.0000 0.0000 20.9880
#
#
#
# Elastic Compliance Matrix: (Units=1/GPa)
#
#
# Indices 1 2 3 4 5 6 
#
# 1 0.008483 -0.012911 0.001218 0.000000 0.000000 0.000000
# 2 -0.012911 -0.023195 0.029830 0.000000 0.000000 0.000000
# 3 0.001218 0.029830 -0.009725 0.000000 0.000000 0.000000
# 4 0.000000 0.000000 0.000000 0.041466 0.000000 0.000000
# 5 0.000000 0.000000 0.000000 0.000000 0.052546 0.000000
# 6 0.000000 0.000000 0.000000 0.000000 0.000000 0.047646
#
#
# Mechanical properties :
#
#
# Convention : Reuss Voigt Hill
#
# Bulk Modulus (GPa) = 84.48335 57.42480 70.95408
# Shear Modulus (GPa) = 58.89720 18.20647 38.55183
#
# Velocity S-wave (km/s) = 5.04280 2.80374 4.07988
# Velocity P-wave (km/s) = 8.38950 5.93931 7.26839
#
# Compressibility (1/GPa) = 0.01183665
#
# Stress axis : x y z
#
# Youngs Moduli (GPa) = 117.88492 -43.11367 -102.82380
#
# Poissons Ratio (x) = -0.55666 0.12527
# Poissons Ratio (y) = 1.52206 3.06723
# Poissons Ratio (z) = -0.14362 1.28608
#
# Static dielectric constant tensor:
#      x y z
#    x 1.929630 0.000000 0.000000 
#    y 0.000000 2.012700 0.000000 
#    z 0.000000 0.000000 1.932290 
# 
# From -- ./inp_files/11174.got.cif
#   From: 2010.05.17/outbox.cif.g08.bks.cpg/sg17_6_cif.got.tgz:11174.got - 2010.06.03 22:34:06.
