data_PCOD9311322
_publ_section_title
;
Structure prediction by ZEFSAII (Michael W. Deem and Ramdas Pophale) SiO2 
 PCOD9311322
Probable space group: P 2 2 21
;
_chemical_formula_sum "Si O2"
_cell_formula_units_Z 12
_cell_length_a 6.956158
_cell_length_b 7.245486
_cell_length_c 10.459533
_cell_angle_alpha 90.000000
_cell_angle_beta 90.000000
_cell_angle_gamma 90.000000
_cell_volume 527.168260
_symmetry_space_group_name_H-M "P 2 2 21"
_symmetry_group_IT_number 17
_symmetry_cell_setting 'orthorhombic'
loop_
_space_group_symop_operation_xyz
x,y,z
-x,-y,1/2+z
x,-y,-z
-x,y,1/2-z
loop_
_atom_site_type_symbol
_atom_site_label
_atom_site_fract_x
_atom_site_fract_y
_atom_site_fract_z
Si Si1 0.300802 0.500000 0.500000
Si Si2 0.500000 0.662386 0.750000
Si Si3 0.237909 0.019542 0.144072
Si Si4 0.810496 0.125088 0.895221
O O1 0.427708 0.554651 0.624029
O O2 0.173602 0.673341 0.454491
O O3 0.677219 0.792618 0.703043
O O4 0.285265 0.872170 0.255726
O O5 0.009470 0.985445 0.126338
O O6 0.310652 0.000000 0.000000
O O7 0.704789 0.000000 0.000000
#
# Coordination Sequence:
#
# PCOD9311322 Si02
#       4
#     2   2   4   4
#     4  12  28  48  76 116 150 192 256 316 370 446
#     4  12  28  46  78 114 152 194 250 318 382 428
#     4  10  24  46  77 100 146 200 245 297 381 437
#     4  10  22  51  74 101 145 202 248 302 365 458
#
# _framework density 22.763133
#
# number of rings (size 3 to 8) (size 9 to 14) (size 15 to 20)
#    0.000    1.333    3.333    0.000    9.333    0.000 
#   24.000    0.000    0.000    0.000    0.000    0.000 
#    0.000    0.000    0.000    0.000    0.000    0.000 
#
# Total GULP energy -66816.163928 kJ/mol
# GULP energy per Si atom -5568.013661 kJ/mol
# Density = 2.271132 g / cm^3
# Si number density = 22.763133 Si / 1000 Ang^3
#
#
#
# Elastic Constant Matrix: (Units=GPa)
#
#
# Indices 1 2 3 4 5 6 
#
# 1 154.3690 31.1723 28.6232 0.0000 0.0000 0.0000
# 2 31.1723 107.7863 60.0995 0.0000 0.0000 0.0000
# 3 28.6232 60.0995 261.6703 0.0000 0.0000 0.0000
# 4 0.0000 0.0000 0.0000 47.2239 0.0000 0.0000
# 5 0.0000 0.0000 0.0000 0.0000 -7.6389 0.0000
# 6 0.0000 0.0000 0.0000 0.0000 0.0000 -14.8802
#
#
#
# Elastic Compliance Matrix: (Units=1/GPa)
#
#
# Indices 1 2 3 4 5 6 
#
# 1 0.006906 -0.001808 -0.000340 0.000000 0.000000 0.000000
# 2 -0.001808 0.011113 -0.002355 0.000000 0.000000 0.000000
# 3 -0.000340 -0.002355 0.004400 0.000000 0.000000 0.000000
# 4 0.000000 0.000000 0.000000 0.021176 0.000000 0.000000
# 5 0.000000 0.000000 0.000000 0.000000 -0.130909 0.000000
# 6 0.000000 0.000000 0.000000 0.000000 0.000000 -0.067204
#
#
# Mechanical properties :
#
#
# Convention : Reuss Voigt Hill
#
# Bulk Modulus (GPa) = 74.54938 84.84617 79.69778
# Shear Modulus (GPa) = -35.45060 31.86968 -1.79046
#
# Velocity S-wave (km/s) = -3.95063 3.74579 -0.88785
# Velocity P-wave (km/s) = 3.46571 7.48748 5.83410
#
# Compressibility (1/GPa) = 0.01341393
#
# Stress axis : x y z
#
# Youngs Moduli (GPa) = 144.79992 89.98211 227.29051
#
# Poissons Ratio (x) = 0.16265 0.07734
# Poissons Ratio (y) = 0.26173 0.53521
# Poissons Ratio (z) = 0.04927 0.21189
#
# Static dielectric constant tensor:
#      x y z
#    x 1.967720 0.000000 0.000000 
#    y 0.000000 1.828450 0.000000 
#    z 0.000000 0.000000 2.052240 
# 
# From -- ./inp_files/5645.got.cif
#   From: 2010.05.17/outbox.cif.g08.bks.cpg/sg17_3_cif.got.tgz:5645.got - 2010.06.03 22:34:06.
