data_PCOD9311626
_publ_section_title
;
Structure prediction by ZEFSAII (Michael W. Deem and Ramdas Pophale) SiO2 
 PCOD9311626
Probable space group: P 21 21 2
;
_chemical_formula_sum "Si O2"
_cell_formula_units_Z 32
_cell_length_a 20.063088
_cell_length_b 15.215452
_cell_length_c 5.430246
_cell_angle_alpha 90.000000
_cell_angle_beta 90.000000
_cell_angle_gamma 90.000000
_cell_volume 1657.685508
_symmetry_space_group_name_H-M "P 21 21 2"
_symmetry_group_IT_number 18
_symmetry_cell_setting 'orthorhombic'
loop_
_space_group_symop_operation_xyz
x,y,z
-x,-y,z
1/2+x,1/2-y,-z
1/2-x,1/2+y,-z
loop_
_atom_site_type_symbol
_atom_site_label
_atom_site_fract_x
_atom_site_fract_y
_atom_site_fract_z
Si Si1 0.541003 0.410829 0.000149
Si Si2 0.818937 0.851500 0.999784
Si Si3 0.466172 0.094766 0.000151
Si Si4 0.593205 0.839155 0.500142
Si Si5 0.977179 0.801199 0.499846
Si Si6 0.647685 0.162960 0.500194
Si Si7 0.751072 0.311569 0.500214
Si Si8 0.889505 0.657409 0.999808
O O1 0.500000 0.500000 0.000154
O O2 0.525510 0.358478 0.748183
O O3 0.621164 0.420700 0.000114
O O4 0.525525 0.358486 0.252143
O O5 0.776732 0.855416 0.749863
O O6 0.855252 0.754358 0.999804
O O7 0.776682 0.855391 0.249596
O O8 0.425255 0.109804 0.249327
O O9 0.530631 0.160058 0.000174
O O10 0.425214 0.109868 0.751096
O O11 0.543637 0.756141 0.500115
O O12 0.669858 0.811744 0.499965
O O13 0.912299 0.736468 0.499816
O O14 0.717097 0.214632 0.500208
O O15 0.635543 0.112026 0.248742
O O16 0.635543 0.112025 0.751643
O O17 0.000000 0.500000 0.999988
#
# Coordination Sequence:
#
# PCOD9311626 Si02
#       8
#     4   4   4   4   4   4   4   4
#     4  12  22  34  59  92 115 149 190 239 283 338
#     4  10  17  35  56  79 108 149 196 227 276 355
#     4  12  23  37  57  87 119 147 189 244 297 332
#     4  12  23  38  60  88 115 147 193 254 278 332
#     4  12  19  38  59  86 114 148 195 238 280 332
#     4  10  16  32  59  80 101 141 194 228 267 331
#     4  10  20  32  58  84 108 146 196 235 281 334
#     4  10  16  32  56  80 101 143 187 237 265 327
#
# _framework density 19.304023000000001
#
# number of rings (size 3 to 8) (size 9 to 14) (size 15 to 20)
#    0.000    1.000    7.500    2.250    0.000    0.000 
#    0.000    0.000    0.000   18.000    0.000    0.000 
#    0.000    0.000    0.000    0.000    0.000    0.000 
#
# Total GULP energy -178643.122264 kJ/mol
# GULP energy per Si atom -5582.597571 kJ/mol
# Density = 1.926009 g / cm^3
# Si number density = 19.304023 Si / 1000 Ang^3
#
#
#
# Elastic Constant Matrix: (Units=GPa)
#
#
# Indices 1 2 3 4 5 6 
#
# 1 171.2994 37.2208 65.1157 0.0000 0.0000 0.0000
# 2 37.2208 43.8993 33.7482 0.0000 0.0000 0.0000
# 3 65.1157 33.7482 221.8423 0.0000 0.0000 0.0000
# 4 0.0000 0.0000 0.0000 -10.0732 0.0000 0.0000
# 5 0.0000 0.0000 0.0000 0.0000 17.6644 0.0000
# 6 0.0000 0.0000 0.0000 0.0000 0.0000 16.6969
#
#
#
# Elastic Compliance Matrix: (Units=1/GPa)
#
#
# Indices 1 2 3 4 5 6 
#
# 1 0.007522 -0.005300 -0.001402 0.000000 0.000000 0.000000
# 2 -0.005300 0.029531 -0.002937 0.000000 0.000000 0.000000
# 3 -0.001402 -0.002937 0.005366 0.000000 0.000000 0.000000
# 4 0.000000 0.000000 0.000000 -0.099273 0.000000 0.000000
# 5 0.000000 0.000000 0.000000 0.000000 0.056611 0.000000
# 6 0.000000 0.000000 0.000000 0.000000 0.000000 0.059891
#
#
# Mechanical properties :
#
#
# Convention : Reuss Voigt Hill
#
# Bulk Modulus (GPa) = 43.21186 78.80116 61.00651
# Shear Modulus (GPa) = 57.71055 24.92138 41.31597
#
# Velocity S-wave (km/s) = 5.47362 3.59694 4.63133
# Velocity P-wave (km/s) = 7.89815 7.62629 7.76341
#
# Compressibility (1/GPa) = 0.02314180
#
# Stress axis : x y z
#
# Youngs Moduli (GPa) = 132.93963 33.86271 186.36339
#
# Poissons Ratio (x) = 0.17948 0.26121
# Poissons Ratio (y) = 0.70462 0.54729
# Poissons Ratio (z) = 0.18633 0.09944
#
# Static dielectric constant tensor:
#      x y z
#    x 1.651460 0.000000 0.000000 
#    y 0.000000 1.674800 0.000000 
#    z 0.000000 0.000000 1.762630 
# 
# From -- ./inp_files/1880.got.cif
#   From: 2010.05.17/outbox.cif.g08.bks.cpg/sg18_1_cif.got.tgz:1880.got - 2010.06.03 22:40:56.
