data_PCOD9311974
_publ_section_title
;
Structure prediction by ZEFSAII (Michael W. Deem and Ramdas Pophale) SiO2 
 PCOD9311974
Probable space group: P 21 21 2
;
_chemical_formula_sum "Si O2"
_cell_formula_units_Z 24
_cell_length_a 16.844295
_cell_length_b 8.029221
_cell_length_c 8.850058
_cell_angle_alpha 90.000000
_cell_angle_beta 90.000000
_cell_angle_gamma 90.000000
_cell_volume 1196.939964
_symmetry_space_group_name_H-M "P 21 21 2"
_symmetry_group_IT_number 18
_symmetry_cell_setting 'orthorhombic'
loop_
_space_group_symop_operation_xyz
x,y,z
-x,-y,z
1/2+x,1/2-y,-z
1/2-x,1/2+y,-z
loop_
_atom_site_type_symbol
_atom_site_label
_atom_site_fract_x
_atom_site_fract_y
_atom_site_fract_z
Si Si1 0.419686 0.906426 0.605760
Si Si2 0.323496 0.361686 0.495963
Si Si3 0.742488 0.370695 0.918828
Si Si4 0.759295 0.506174 0.229716
Si Si5 0.585983 0.460992 0.744288
Si Si6 0.329542 0.996719 0.343577
O O1 0.344227 0.994629 0.687040
O O2 0.417843 0.718798 0.664299
O O3 0.500000 0.000000 0.645198
O O4 0.404941 0.915813 0.424890
O O5 0.308776 0.489728 0.357233
O O6 0.393409 0.409135 0.609699
O O7 0.325746 0.181815 0.418913
O O8 0.244237 0.387811 0.595278
O O9 0.744495 0.183562 0.856394
O O10 0.659142 0.449968 0.861274
O O11 0.813327 0.470070 0.832344
O O12 0.750591 0.374159 0.097797
O O13 0.500000 0.500000 0.812035
#
# Coordination Sequence:
#
# PCOD9311974 Si02
#       6
#     4   4   4   4   4   4
#     4  10  20  34  52  76 101 130 168 211 256 302
#     4   9  17  31  50  73  98 128 165 203 242 292
#     4   9  19  33  51  75 102 132 168 204 247 300
#     4   9  19  33  51  75 102 132 168 204 247 300
#     4  10  20  34  52  76 101 130 168 211 256 302
#     4   9  17  31  50  73  98 128 165 203 242 292
#
# _framework density 20.051133
#
# number of rings (size 3 to 8) (size 9 to 14) (size 15 to 20)
#    0.000    2.667    0.000    4.000    0.000    8.000 
#    0.000    1.667    0.000    4.000    0.000    0.000 
#    0.000    0.000    0.000    0.000    0.000    0.000 
#
# Total GULP energy -133801.967149 kJ/mol
# GULP energy per Si atom -5575.081965 kJ/mol
# Density = 2.000550 g / cm^3
# Si number density = 20.051133 Si / 1000 Ang^3
#
#
#
# Elastic Constant Matrix: (Units=GPa)
#
#
# Indices 1 2 3 4 5 6 
#
# 1 59.7219 6.0375 4.0254 0.0000 0.0000 0.0000
# 2 6.0375 42.0644 4.9349 0.0000 0.0000 0.0000
# 3 4.0254 4.9349 62.4604 0.0000 0.0000 0.0000
# 4 0.0000 0.0000 0.0000 32.1667 0.0000 0.0000
# 5 0.0000 0.0000 0.0000 0.0000 16.2307 0.0000
# 6 0.0000 0.0000 0.0000 0.0000 0.0000 22.7546
#
#
#
# Elastic Compliance Matrix: (Units=1/GPa)
#
#
# Indices 1 2 3 4 5 6 
#
# 1 0.017042 -0.002339 -0.000914 0.000000 0.000000 0.000000
# 2 -0.002339 0.024316 -0.001770 0.000000 0.000000 0.000000
# 3 -0.000914 -0.001770 0.016209 0.000000 0.000000 0.000000
# 4 0.000000 0.000000 0.000000 0.031088 0.000000 0.000000
# 5 0.000000 0.000000 0.000000 0.000000 0.061612 0.000000
# 6 0.000000 0.000000 0.000000 0.000000 0.000000 0.043947
#
#
# Mechanical properties :
#
#
# Convention : Reuss Voigt Hill
#
# Bulk Modulus (GPa) = 21.04296 21.58249 21.31272
# Shear Modulus (GPa) = 22.71686 24.18033 23.44859
#
# Velocity S-wave (km/s) = 3.36958 3.47642 3.42342
# Velocity P-wave (km/s) = 5.06519 5.18663 5.12627
#
# Compressibility (1/GPa) = 0.04752183
#
# Stress axis : x y z
#
# Youngs Moduli (GPa) = 58.67758 41.12441 61.69449
#
# Poissons Ratio (x) = 0.09619 0.05636
# Poissons Ratio (y) = 0.13724 0.10923
# Poissons Ratio (z) = 0.05360 0.07281
#
# Static dielectric constant tensor:
#      x y z
#    x 1.720520 0.000000 0.000000 
#    y 0.000000 1.766120 0.000000 
#    z 0.000000 0.000000 1.739370 
# 
# From -- ./inp_files/3294.got.cif
#   From: 2010.05.17/outbox.cif.g08.bks.cpg/sg18_2_cif.got.tgz:3294.got - 2010.06.03 22:40:56.
