data_PCOD9311456
_publ_section_title
;
Structure prediction by ZEFSAII (Michael W. Deem and Ramdas Pophale) SiO2 
 PCOD9311456
Probable space group: P 2 2 21
;
_chemical_formula_sum "Si O2"
_cell_formula_units_Z 22
_cell_length_a 12.419188
_cell_length_b 12.041087
_cell_length_c 6.946808
_cell_angle_alpha 90.000000
_cell_angle_beta 90.000000
_cell_angle_gamma 90.000000
_cell_volume 1038.829303
_symmetry_space_group_name_H-M "P 2 2 21"
_symmetry_group_IT_number 17
_symmetry_cell_setting 'orthorhombic'
loop_
_space_group_symop_operation_xyz
x,y,z
-x,-y,1/2+z
x,-y,-z
-x,y,1/2-z
loop_
_atom_site_type_symbol
_atom_site_label
_atom_site_fract_x
_atom_site_fract_y
_atom_site_fract_z
Si Si1 0.415039 0.500000 0.000000
Si Si2 0.500000 0.311420 0.750000
Si Si3 0.074872 0.266295 0.902589
Si Si4 0.000000 0.875929 0.750000
Si Si5 0.077661 0.500000 0.000000
Si Si6 0.827191 0.000000 0.000000
Si Si7 0.270048 0.229885 0.625911
Si Si8 0.753260 0.580574 0.818768
O O1 0.481314 0.395424 0.926530
O O2 0.344588 0.547115 0.822432
O O3 0.391305 0.245707 0.701962
O O4 0.021271 0.387105 0.938583
O O5 0.190245 0.274847 0.797217
O O6 0.000000 0.204532 0.750000
O O7 0.063058 0.199931 0.096961
O O8 0.092459 0.948894 0.655939
O O9 0.147827 0.549245 0.822180
O O10 0.758784 0.897718 0.084559
O O11 0.251266 0.300217 0.427197
O O12 0.753884 0.500000 0.000000
#
# Coordination Sequence:
#
# PCOD9311456 Si02
#       8
#     2   2   4   2   2   2   4   4
#     4  11  22  42  71 110 146 200 233 289 348 462
#     4  12  24  42  72 108 148 184 238 284 368 434
#     4  12  26  45  70 107 145 188 241 297 364 445
#     4  12  26  52  76 102 132 196 258 300 356 430
#     4  11  24  34  69 110 150 186 215 297 394 432
#     4  12  26  48  76  96 138 190 248 308 352 412
#     4  12  25  47  70 106 143 188 244 300 353 436
#     4  11  20  43  69 103 149 186 239 292 360 438
#
# _framework density 21.177686000000001
#
# number of rings (size 3 to 8) (size 9 to 14) (size 15 to 20)
#    0.000    0.364    5.455    4.364    1.273    0.000 
#    0.000    3.636    0.000    0.000    0.000    0.000 
#    0.000    0.000    0.000    0.000    0.000    0.000 
#
# Total GULP energy -122965.869360 kJ/mol
# GULP energy per Si atom -5589.357698 kJ/mol
# Density = 2.112948 g / cm^3
# Si number density = 21.177686 Si / 1000 Ang^3
#
#
#
# Elastic Constant Matrix: (Units=GPa)
#
#
# Indices 1 2 3 4 5 6 
#
# 1 111.3025 46.0800 52.4844 0.0000 0.0000 0.0000
# 2 46.0800 158.7889 55.5765 0.0000 0.0000 0.0000
# 3 52.4844 55.5765 150.3951 0.0000 0.0000 0.0000
# 4 0.0000 0.0000 0.0000 34.7677 0.0000 0.0000
# 5 0.0000 0.0000 0.0000 0.0000 24.9959 0.0000
# 6 0.0000 0.0000 0.0000 0.0000 0.0000 34.1329
#
#
#
# Elastic Compliance Matrix: (Units=1/GPa)
#
#
# Indices 1 2 3 4 5 6 
#
# 1 0.011385 -0.002197 -0.003161 0.000000 0.000000 0.000000
# 2 -0.002197 0.007657 -0.002063 0.000000 0.000000 0.000000
# 3 -0.003161 -0.002063 0.008515 0.000000 0.000000 0.000000
# 4 0.000000 0.000000 0.000000 0.028762 0.000000 0.000000
# 5 0.000000 0.000000 0.000000 0.000000 0.040007 0.000000
# 6 0.000000 0.000000 0.000000 0.000000 0.000000 0.029297
#
#
# Mechanical properties :
#
#
# Convention : Reuss Voigt Hill
#
# Bulk Modulus (GPa) = 78.65230 80.97426 79.81328
# Shear Modulus (GPa) = 34.55341 36.53568 35.54455
#
# Velocity S-wave (km/s) = 4.04368 4.15806 4.10127
# Velocity P-wave (km/s) = 7.68256 7.83398 7.75864
#
# Compressibility (1/GPa) = 0.01271419
#
# Stress axis : x y z
#
# Youngs Moduli (GPa) = 87.83595 130.59336 117.44602
#
# Poissons Ratio (x) = 0.28698 0.37125
# Poissons Ratio (y) = 0.19302 0.24227
# Poissons Ratio (z) = 0.27765 0.26939
#
# Static dielectric constant tensor:
#      x y z
#    x 1.811950 0.000000 0.000000 
#    y 0.000000 1.764950 0.000000 
#    z 0.000000 0.000000 1.843850 
# 
# From -- ./inp_files/2130.got.cif
#   From: 2010.05.17/outbox.cif.g08.bks.cpg/sg17_2_cif.got.tgz:2130.got - 2010.06.03 22:34:06.
