data_PCOD9311395
_publ_section_title
;
Structure prediction by ZEFSAII (Michael W. Deem and Ramdas Pophale) SiO2 
 PCOD9311395
Probable space group: P 2 2 21
;
_chemical_formula_sum "Si O2"
_cell_formula_units_Z 18
_cell_length_a 23.511009
_cell_length_b 5.054689
_cell_length_c 5.330279
_cell_angle_alpha 90.000000
_cell_angle_beta 90.000000
_cell_angle_gamma 90.000000
_cell_volume 633.454826
_symmetry_space_group_name_H-M "P 2 2 21"
_symmetry_group_IT_number 17
_symmetry_cell_setting 'orthorhombic'
loop_
_space_group_symop_operation_xyz
x,y,z
-x,-y,1/2+z
x,-y,-z
-x,y,1/2-z
loop_
_atom_site_type_symbol
_atom_site_label
_atom_site_fract_x
_atom_site_fract_y
_atom_site_fract_z
Si Si1 0.215086 0.074924 0.706475
Si Si2 0.442202 0.743798 0.358409
Si Si3 0.936955 0.181024 0.748555
Si Si4 0.729204 0.500000 0.500000
Si Si5 0.157392 0.500000 0.500000
Si Si6 0.349942 0.000000 0.000000
O O1 0.181383 0.795951 0.573771
O O2 0.265318 0.000000 0.500000
O O3 0.113145 0.392762 0.716875
O O4 0.204812 0.000000 0.000000
O O5 0.414142 0.500000 0.500000
O O6 0.500000 0.618759 0.250000
O O7 0.465618 0.000000 0.500000
O O8 0.393327 0.869734 0.192826
O O9 0.000000 0.305715 0.750000
O O10 0.930177 0.000000 0.500000
O O11 0.936168 0.000000 0.000000
O O12 0.768830 0.613388 0.276965
O O13 0.690579 0.751898 0.567843
#
# Coordination Sequence:
#
# PCOD9311395 Si02
#       6
#     4   4   4   2   2   2
#     4  12  28  54  82 118 164 214 281 351 421 508
#     4  12  26  48  81 118 165 216 271 333 405 497
#     4  10  24  45  70 110 160 207 266 335 411 504
#     4  12  28  56  83 114 165 214 278 354 424 496
#     4  12  26  46  85 112 155 218 270 344 424 492
#     4  12  28  54  82 120 162 214 274 346 414 486
#
# _framework density 28.415603999999998
#
# number of rings (size 3 to 8) (size 9 to 14) (size 15 to 20)
#    0.000    0.444    2.222    4.667    1.556    8.000 
#   10.000    0.000    0.000    0.000    0.000    0.000 
#    0.000    0.000    0.000    0.000    0.000    0.000 
#
# Total GULP energy -100264.173662 kJ/mol
# GULP energy per Si atom -5570.231870 kJ/mol
# Density = 2.835093 g / cm^3
# Si number density = 28.415604 Si / 1000 Ang^3
#
#
#
# Elastic Constant Matrix: (Units=GPa)
#
#
# Indices 1 2 3 4 5 6 
#
# 1 138.1801 76.8313 37.9940 0.0000 0.0000 0.0000
# 2 76.8313 286.8072 130.6670 0.0000 0.0000 0.0000
# 3 37.9940 130.6670 235.2884 0.0000 0.0000 0.0000
# 4 0.0000 0.0000 0.0000 94.8266 0.0000 0.0000
# 5 0.0000 0.0000 0.0000 0.0000 -4.8881 0.0000
# 6 0.0000 0.0000 0.0000 0.0000 0.0000 15.4203
#
#
#
# Elastic Compliance Matrix: (Units=1/GPa)
#
#
# Indices 1 2 3 4 5 6 
#
# 1 0.008507 -0.002213 -0.000145 0.000000 0.000000 0.000000
# 2 -0.002213 0.005243 -0.002555 0.000000 0.000000 0.000000
# 3 -0.000145 -0.002555 0.005692 0.000000 0.000000 0.000000
# 4 0.000000 0.000000 0.000000 0.010546 0.000000 0.000000
# 5 0.000000 0.000000 0.000000 0.000000 -0.204580 0.000000
# 6 0.000000 0.000000 0.000000 0.000000 0.000000 0.064849
#
#
# Mechanical properties :
#
#
# Convention : Reuss Voigt Hill
#
# Bulk Modulus (GPa) = 103.97042 127.91781 115.94411
# Shear Modulus (GPa) = -51.70026 48.72399 -1.48814
#
# Velocity S-wave (km/s) = -4.27011 4.14538 -0.72446
# Velocity P-wave (km/s) = 3.51523 8.24783 6.33970
#
# Compressibility (1/GPa) = 0.00961812
#
# Stress axis : x y z
#
# Youngs Moduli (GPa) = 117.54728 190.71928 175.68149
#
# Poissons Ratio (x) = 0.42206 0.02543
# Poissons Ratio (y) = 0.26013 0.44878
# Poissons Ratio (z) = 0.01701 0.48719
#
# Static dielectric constant tensor:
#      x y z
#    x 2.446430 0.000000 0.000000 
#    y 0.000000 2.310360 0.000000 
#    z 0.000000 0.000000 2.425510 
# 
# From -- ./inp_files/3164.got.cif
#   From: 2010.05.17/outbox.cif.g08.bks.cpg/sg17_2_cif.got.tgz:3164.got - 2010.06.03 22:34:06.
