data_PCOD9311443
_publ_section_title
;
Structure prediction by ZEFSAII (Michael W. Deem and Ramdas Pophale) SiO2 
 PCOD9311443
Probable space group: P 2 2 21
;
_chemical_formula_sum "Si O2"
_cell_formula_units_Z 18
_cell_length_a 8.768911
_cell_length_b 4.998434
_cell_length_c 16.439402
_cell_angle_alpha 90.000000
_cell_angle_beta 90.000000
_cell_angle_gamma 90.000000
_cell_volume 720.552517
_symmetry_space_group_name_H-M "P 2 2 21"
_symmetry_group_IT_number 17
_symmetry_cell_setting 'orthorhombic'
loop_
_space_group_symop_operation_xyz
x,y,z
-x,-y,1/2+z
x,-y,-z
-x,y,1/2-z
loop_
_atom_site_type_symbol
_atom_site_label
_atom_site_fract_x
_atom_site_fract_y
_atom_site_fract_z
Si Si1 0.302434 0.000000 0.000000
Si Si2 0.500000 0.324824 0.750000
Si Si3 0.846402 0.605311 0.880455
Si Si4 0.169058 0.102498 0.716387
Si Si5 0.521603 0.342060 0.082529
Si Si6 0.104389 0.500000 0.000000
O O1 0.410107 0.092514 0.074005
O O2 0.201367 0.751766 0.029444
O O3 0.337654 0.165203 0.752782
O O4 0.497034 0.505759 0.667882
O O5 0.823802 0.292586 0.863134
O O6 0.699664 0.720193 0.926148
O O7 0.999856 0.625450 0.930175
O O8 0.844823 0.787191 0.800312
O O9 0.000000 0.181398 0.750000
O O10 0.484238 0.500000 0.000000
#
# Coordination Sequence:
#
# PCOD9311443 Si02
#       6
#     2   2   4   4   4   2
#     4  12  28  44  80 122 158 210 268 344 400 490
#     4  10  28  52  82 122 160 216 272 342 408 490
#     4  11  26  49  78 109 158 216 259 332 402 491
#     4  11  26  49  78 114 159 209 269 332 410 479
#     4  11  26  53  79 115 164 212 272 329 411 485
#     4  12  26  48  74 120 156 206 270 334 404 484
#
# _framework density 24.980831999999999
#
# number of rings (size 3 to 8) (size 9 to 14) (size 15 to 20)
#    0.000    0.889    2.222    2.000    9.333    6.222 
#    8.000    0.000    0.000    0.000    0.000    0.000 
#    0.000    0.000    0.000    0.000    0.000    0.000 
#
# Total GULP energy -100543.106686 kJ/mol
# GULP energy per Si atom -5585.728149 kJ/mol
# Density = 2.492397 g / cm^3
# Si number density = 24.980832 Si / 1000 Ang^3
#
#
#
# Elastic Constant Matrix: (Units=GPa)
#
#
# Indices 1 2 3 4 5 6 
#
# 1 226.1022 66.3913 46.3896 0.0000 0.0000 0.0000
# 2 66.3913 117.0637 39.6303 0.0000 0.0000 0.0000
# 3 46.3896 39.6303 104.3368 0.0000 0.0000 0.0000
# 4 0.0000 0.0000 0.0000 29.9205 0.0000 0.0000
# 5 0.0000 0.0000 0.0000 0.0000 130.9149 0.0000
# 6 0.0000 0.0000 0.0000 0.0000 0.0000 139.8169
#
#
#
# Elastic Compliance Matrix: (Units=1/GPa)
#
#
# Indices 1 2 3 4 5 6 
#
# 1 0.005490 -0.002625 -0.001444 0.000000 0.000000 0.000000
# 2 -0.002625 0.011058 -0.003033 0.000000 0.000000 0.000000
# 3 -0.001444 -0.003033 0.011378 0.000000 0.000000 0.000000
# 4 0.000000 0.000000 0.000000 0.033422 0.000000 0.000000
# 5 0.000000 0.000000 0.000000 0.000000 0.007639 0.000000
# 6 0.000000 0.000000 0.000000 0.000000 0.000000 0.007152
#
#
# Mechanical properties :
#
#
# Convention : Reuss Voigt Hill
#
# Bulk Modulus (GPa) = 72.87273 83.59169 78.23221
# Shear Modulus (GPa) = 52.67825 79.80323 66.24074
#
# Velocity S-wave (km/s) = 4.59709 5.65819 5.15502
# Velocity P-wave (km/s) = 7.57710 8.73051 8.17417
#
# Compressibility (1/GPa) = 0.01372256
#
# Stress axis : x y z
#
# Youngs Moduli (GPa) = 182.15943 90.43477 87.88590
#
# Poissons Ratio (x) = 0.23736 0.12690
# Poissons Ratio (y) = 0.47810 0.26657
# Poissons Ratio (z) = 0.26302 0.27430
#
# Static dielectric constant tensor:
#      x y z
#    x 2.050130 0.000000 0.000000 
#    y 0.000000 1.809640 0.000000 
#    z 0.000000 0.000000 2.009170 
# 
# From -- ./inp_files/9234.got.cif
#   From: 2010.05.17/outbox.cif.g08.bks.cpg/sg17_5_cif.got.tgz:9234.got - 2010.06.03 22:34:06.
