data_PCOD9311790
_publ_section_title
;
Structure prediction by ZEFSAII (Michael W. Deem and Ramdas Pophale) SiO2 
 PCOD9311790
Probable space group: P 21 21 2
;
_chemical_formula_sum "Si O2"
_cell_formula_units_Z 32
_cell_length_a 5.188279
_cell_length_b 23.645401
_cell_length_c 11.366755
_cell_angle_alpha 90.000000
_cell_angle_beta 90.000000
_cell_angle_gamma 90.000000
_cell_volume 1394.461426
_symmetry_space_group_name_H-M "P 21 21 2"
_symmetry_group_IT_number 18
_symmetry_cell_setting 'orthorhombic'
loop_
_space_group_symop_operation_xyz
x,y,z
-x,-y,z
1/2+x,1/2-y,-z
1/2-x,1/2+y,-z
loop_
_atom_site_type_symbol
_atom_site_label
_atom_site_fract_x
_atom_site_fract_y
_atom_site_fract_z
Si Si1 0.258928 0.851187 0.149955
Si Si2 0.242327 0.964726 0.292082
Si Si3 0.259290 0.626561 0.357960
Si Si4 0.590220 0.753522 0.568619
Si Si5 0.616536 0.219281 0.954514
Si Si6 0.239822 0.430965 0.439097
Si Si7 0.249185 0.520234 0.214675
Si Si8 0.736253 0.292576 0.763911
O O1 0.276635 0.910570 0.211288
O O2 0.472432 0.812681 0.219952
O O3 0.962986 0.831015 0.162100
O O4 0.342381 0.840973 0.014960
O O5 0.198500 0.950526 0.430077
O O6 0.500000 0.000000 0.287873
O O7 0.000000 0.000000 0.249856
O O8 0.185267 0.691859 0.357936
O O9 0.546507 0.615174 0.403574
O O10 0.243428 0.586520 0.243085
O O11 0.044041 0.595844 0.438523
O O12 0.361364 0.771838 0.477741
O O13 0.411332 0.709724 0.640696
O O14 0.706007 0.230234 0.821919
O O15 0.324865 0.240653 0.975377
O O16 0.250560 0.480490 0.337393
O O17 0.500000 0.500000 0.149915
O O18 0.000000 0.500000 0.148880
#
# Coordination Sequence:
#
# PCOD9311790 Si02
#       8
#     4   4   4   4   4   4   4   4
#     4  10  21  36  61  82 109 153 182 233 293 332
#     4  12  23  34  50  82 118 146 179 225 281 363
#     4  10  20  33  48  64  97 138 187 222 262 316
#     4  12  26  37  48  77 114 155 196 233 286 340
#     4   8  16  34  59  83 102 133 189 233 272 326
#     4  10  19  32  50  69  95 142 186 221 261 326
#     4   8  14  27  44  63  80 114 169 215 250 289
#     4  10  21  39  56  80 113 150 198 240 270 336
#
# _framework density 22.947929999999999
#
# number of rings (size 3 to 8) (size 9 to 14) (size 15 to 20)
#    0.000    2.000    0.000    5.250    5.250    0.000 
#    0.000    0.000    0.000    0.000    0.000    2.625 
#    0.000   12.000    0.000    0.000    0.000    0.000 
#
# Total GULP energy -178399.697021 kJ/mol
# GULP energy per Si atom -5574.990532 kJ/mol
# Density = 2.289570 g / cm^3
# Si number density = 22.947930 Si / 1000 Ang^3
#
#
#
# Elastic Constant Matrix: (Units=GPa)
#
#
# Indices 1 2 3 4 5 6 
#
# 1 143.0418 8.9468 -4.9033 0.0000 0.0000 0.0000
# 2 8.9468 33.8231 -5.4213 0.0000 0.0000 0.0000
# 3 -4.9033 -5.4213 10.8642 0.0000 0.0000 0.0000
# 4 0.0000 0.0000 0.0000 4.5608 0.0000 0.0000
# 5 0.0000 0.0000 0.0000 0.0000 11.6040 0.0000
# 6 0.0000 0.0000 0.0000 0.0000 0.0000 38.5483
#
#
#
# Elastic Compliance Matrix: (Units=1/GPa)
#
#
# Indices 1 2 3 4 5 6 
#
# 1 0.007170 -0.001498 0.002489 0.000000 0.000000 0.000000
# 2 -0.001498 0.032449 0.015516 0.000000 0.000000 0.000000
# 3 0.002489 0.015516 0.100911 0.000000 0.000000 0.000000
# 4 0.000000 0.000000 0.000000 0.219262 0.000000 0.000000
# 5 0.000000 0.000000 0.000000 0.000000 0.086177 0.000000
# 6 0.000000 0.000000 0.000000 0.000000 0.000000 0.025941
#
#
# Mechanical properties :
#
#
# Convention : Reuss Voigt Hill
#
# Bulk Modulus (GPa) = 5.76222 20.55262 13.15742
# Shear Modulus (GPa) = 10.06555 23.54975 16.80765
#
# Velocity S-wave (km/s) = 2.09661 3.20695 2.70927
# Velocity P-wave (km/s) = 2.89439 4.76323 3.94118
#
# Compressibility (1/GPa) = 0.17354411
#
# Stress axis : x y z
#
# Youngs Moduli (GPa) = 139.47113 30.81783 9.90971
#
# Poissons Ratio (x) = 0.04616 -0.02466
# Poissons Ratio (y) = 0.20888 -0.15376
# Poissons Ratio (z) = -0.34709 -0.47818
#
# Static dielectric constant tensor:
#      x y z
#    x 1.880930 0.000000 0.000000 
#    y 0.000000 1.842440 0.000000 
#    z 0.000000 0.000000 1.975570 
# 
# From -- ./inp_files/5286.got.cif
#   From: 2010.05.17/outbox.cif.g08.bks.cpg/sg18_3_cif.got.tgz:5286.got - 2010.06.03 22:40:56.
