data_PCOD9311079
_publ_section_title
;
Structure prediction by ZEFSAII (Michael W. Deem and Ramdas Pophale) SiO2 
 PCOD9311079
Probable space group: P 2 2 21
;
_chemical_formula_sum "Si O2"
_cell_formula_units_Z 32
_cell_length_a 13.734821
_cell_length_b 9.213694
_cell_length_c 10.934788
_cell_angle_alpha 90.000000
_cell_angle_beta 90.000000
_cell_angle_gamma 90.000000
_cell_volume 1383.780339
_symmetry_space_group_name_H-M "P 2 2 21"
_symmetry_group_IT_number 17
_symmetry_cell_setting 'orthorhombic'
loop_
_space_group_symop_operation_xyz
x,y,z
-x,-y,1/2+z
x,-y,-z
-x,y,1/2-z
loop_
_atom_site_type_symbol
_atom_site_label
_atom_site_fract_x
_atom_site_fract_y
_atom_site_fract_z
Si Si1 0.272511 0.385744 0.821511
Si Si2 0.115100 0.158184 0.241469
Si Si3 0.406040 0.059086 0.616644
Si Si4 0.608897 0.626602 0.080893
Si Si5 0.109604 0.821023 0.296217
Si Si6 0.740201 0.295492 0.412069
Si Si7 0.823861 0.332737 0.026511
Si Si8 0.616939 0.951815 0.633650
O O1 0.355285 0.408232 0.718413
O O2 0.185327 0.289995 0.766349
O O3 0.240016 0.545864 0.860433
O O4 0.297978 0.311693 0.949976
O O5 0.162737 0.200723 0.111366
O O6 0.162021 0.268684 0.339368
O O7 0.000000 0.179595 0.250000
O O8 0.134097 0.989475 0.271776
O O9 0.444441 0.220842 0.593438
O O10 0.346965 0.000000 0.500000
O O11 0.500678 0.958024 0.624001
O O12 0.356834 0.050534 0.748986
O O13 0.709777 0.663776 0.009485
O O14 0.561319 0.500000 0.000000
O O15 0.119872 0.777372 0.437698
O O16 0.000000 0.796763 0.250000
O O17 0.657880 0.206618 0.340247
O O18 0.856554 0.500000 0.000000
O O19 0.654930 0.000000 0.500000
#
# Coordination Sequence:
#
# PCOD9311079 Si02
#       8
#     4   4   4   4   4   4   4   4
#     4  10  24  42  63 102 127 185 228 275 353 411
#     4  11  25  40  61 100 132 177 233 287 345 411
#     4  10  23  40  70 100 133 172 229 278 345 415
#     4  10  21  39  68  97 136 170 226 284 340 412
#     4  10  23  41  62  88 134 172 225 290 347 410
#     4  11  24  41  70  93 136 178 231 279 341 425
#     4  10  22  39  61  93 130 176 226 287 345 410
#     4  10  23  43  69  97 136 175 228 279 345 418
#
# _framework density 23.125057000000002
#
# number of rings (size 3 to 8) (size 9 to 14) (size 15 to 20)
#    0.000    1.750    0.000    3.375   10.500    2.000 
#    0.000    0.000   22.000    0.000    0.000    0.000 
#    0.000    0.000    0.000    0.000    0.000    0.000 
#
# Total GULP energy -178738.603303 kJ/mol
# GULP energy per Si atom -5585.581353 kJ/mol
# Density = 2.307242 g / cm^3
# Si number density = 23.125057 Si / 1000 Ang^3
#
#
#
# Elastic Constant Matrix: (Units=GPa)
#
#
# Indices 1 2 3 4 5 6 
#
# 1 57.6826 17.0119 -2.3860 0.0000 0.0000 0.0000
# 2 17.0119 143.9511 50.1953 0.0000 0.0000 0.0000
# 3 -2.3860 50.1953 135.1525 0.0000 0.0000 0.0000
# 4 0.0000 0.0000 0.0000 34.8665 0.0000 0.0000
# 5 0.0000 0.0000 0.0000 0.0000 12.5890 0.0000
# 6 0.0000 0.0000 0.0000 0.0000 0.0000 7.1233
#
#
#
# Elastic Compliance Matrix: (Units=1/GPa)
#
#
# Indices 1 2 3 4 5 6 
#
# 1 0.018154 -0.002593 0.001284 0.000000 0.000000 0.000000
# 2 -0.002593 0.008351 -0.003147 0.000000 0.000000 0.000000
# 3 0.001284 -0.003147 0.008591 0.000000 0.000000 0.000000
# 4 0.000000 0.000000 0.000000 0.028681 0.000000 0.000000
# 5 0.000000 0.000000 0.000000 0.000000 0.079434 0.000000
# 6 0.000000 0.000000 0.000000 0.000000 0.000000 0.140385
#
#
# Mechanical properties :
#
#
# Convention : Reuss Voigt Hill
#
# Bulk Modulus (GPa) = 38.19419 51.82539 45.00979
# Shear Modulus (GPa) = 16.59827 29.04676 22.82252
#
# Velocity S-wave (km/s) = 2.68201 3.54796 3.14493
# Velocity P-wave (km/s) = 5.11304 6.26447 5.71781
#
# Compressibility (1/GPa) = 0.02618199
#
# Stress axis : x y z
#
# Youngs Moduli (GPa) = 55.08407 119.75114 116.40680
#
# Poissons Ratio (x) = 0.31051 -0.14941
# Poissons Ratio (y) = 0.14283 0.36635
# Poissons Ratio (z) = -0.07070 0.37688
#
# Static dielectric constant tensor:
#      x y z
#    x 1.837670 0.000000 0.000000 
#    y 0.000000 1.881980 0.000000 
#    z 0.000000 0.000000 2.013310 
# 
# From -- ./inp_files/7295.got.cif
#   From: 2010.05.17/outbox.cif.g08.bks.cpg/sg17_4_cif.got.tgz:7295.got - 2010.06.03 22:34:06.
