data_PCOD9311993
_publ_section_title
;
Structure prediction by ZEFSAII (Michael W. Deem and Ramdas Pophale) SiO2 
 PCOD9311993
Probable space group: P 21 21 2
;
_chemical_formula_sum "Si O2"
_cell_formula_units_Z 24
_cell_length_a 8.776690
_cell_length_b 23.242806
_cell_length_c 5.504362
_cell_angle_alpha 90.000000
_cell_angle_beta 90.000000
_cell_angle_gamma 90.000000
_cell_volume 1122.861792
_symmetry_space_group_name_H-M "P 21 21 2"
_symmetry_group_IT_number 18
_symmetry_cell_setting 'orthorhombic'
loop_
_space_group_symop_operation_xyz
x,y,z
-x,-y,z
1/2+x,1/2-y,-z
1/2-x,1/2+y,-z
loop_
_atom_site_type_symbol
_atom_site_label
_atom_site_fract_x
_atom_site_fract_y
_atom_site_fract_z
Si Si1 0.290241 0.198042 0.337430
Si Si2 0.748679 0.568986 0.344502
Si Si3 0.746728 0.974389 0.020728
Si Si4 0.194869 0.640242 0.173800
Si Si5 0.000000 0.500000 0.627565
Si Si6 0.101864 0.313979 0.391044
Si Si7 0.500000 0.500000 0.632871
O O1 0.232404 0.168298 0.586749
O O2 0.198654 0.257888 0.324003
O O3 0.475721 0.199803 0.394484
O O4 0.257486 0.164017 0.089004
O O5 0.750661 0.540105 0.076137
O O6 0.894551 0.539597 0.468318
O O7 0.772847 0.635358 0.406287
O O8 0.600635 0.541811 0.469122
O O9 0.728952 0.927595 0.811768
O O10 0.604571 0.963397 0.194375
O O11 0.892172 0.965019 0.186029
O O12 0.017249 0.658622 0.196876
#
# Coordination Sequence:
#
# PCOD9311993 Si02
#       7
#     4   4   4   4   2   4   2
#     4  10  25  44  69 101 131 185 228 281 336 398
#     4  11  22  43  65  99 134 177 222 289 342 415
#     4  11  22  42  64 100 131 179 223 283 351 411
#     4  10  24  42  71  95 136 174 228 278 342 409
#     4  10  20  34  70  96 130 170 224 272 348 410
#     4  10  24  44  70  98 136 177 235 281 338 405
#     4  10  26  40  62  98 138 170 228 274 364 406
#
# _framework density 21.373954999999999
#
# number of rings (size 3 to 8) (size 9 to 14) (size 15 to 20)
#    1.000    0.667    0.000    4.000    7.000    2.667 
#    3.000    0.000    0.000    0.000    0.000    0.000 
#    0.000    0.000    0.000    0.000    0.000    0.000 
#
# Total GULP energy -133703.555174 kJ/mol
# GULP energy per Si atom -5570.981466 kJ/mol
# Density = 2.132531 g / cm^3
# Si number density = 21.373955 Si / 1000 Ang^3
#
#
#
# Elastic Constant Matrix: (Units=GPa)
#
#
# Indices 1 2 3 4 5 6 
#
# 1 60.5406 2.6252 12.2851 0.0000 0.0000 0.0000
# 2 2.6252 75.7920 3.4007 0.0000 0.0000 0.0000
# 3 12.2851 3.4007 78.1890 0.0000 0.0000 0.0000
# 4 0.0000 0.0000 0.0000 19.9465 0.0000 0.0000
# 5 0.0000 0.0000 0.0000 0.0000 31.8239 0.0000
# 6 0.0000 0.0000 0.0000 0.0000 0.0000 10.8225
#
#
#
# Elastic Compliance Matrix: (Units=1/GPa)
#
#
# Indices 1 2 3 4 5 6 
#
# 1 0.017079 -0.000472 -0.002663 0.000000 0.000000 0.000000
# 2 -0.000472 0.013233 -0.000501 0.000000 0.000000 0.000000
# 3 -0.002663 -0.000501 0.013230 0.000000 0.000000 0.000000
# 4 0.000000 0.000000 0.000000 0.050134 0.000000 0.000000
# 5 0.000000 0.000000 0.000000 0.000000 0.031423 0.000000
# 6 0.000000 0.000000 0.000000 0.000000 0.000000 0.092401
#
#
# Mechanical properties :
#
#
# Convention : Reuss Voigt Hill
#
# Bulk Modulus (GPa) = 27.57204 27.90483 27.73844
# Shear Modulus (GPa) = 21.10943 25.59929 23.35436
#
# Velocity S-wave (km/s) = 3.14606 3.46451 3.30912
# Velocity P-wave (km/s) = 5.11124 5.39330 5.25416
#
# Compressibility (1/GPa) = 0.03626863
#
# Stress axis : x y z
#
# Youngs Moduli (GPa) = 58.55258 75.56952 75.58743
#
# Poissons Ratio (x) = 0.03567 0.20128
# Poissons Ratio (y) = 0.02764 0.03790
# Poissons Ratio (z) = 0.15592 0.03789
#
# Static dielectric constant tensor:
#      x y z
#    x 1.817790 0.000000 0.000000 
#    y 0.000000 1.855620 0.000000 
#    z 0.000000 0.000000 1.800340 
# 
# From -- ./inp_files/638.got.cif
#   From: 2010.05.17/outbox.cif.g08.bks.cpg/sg18_1_cif.got.tgz:638.got - 2010.06.03 22:40:56.
