data_PCOD9311023
_publ_section_title
;
Structure prediction by ZEFSAII (Michael W. Deem and Ramdas Pophale) SiO2 
 PCOD9311023
Probable space group: P 2 2 21
;
_chemical_formula_sum "Si O2"
_cell_formula_units_Z 20
_cell_length_a 12.011064
_cell_length_b 16.220407
_cell_length_c 5.306602
_cell_angle_alpha 90.000000
_cell_angle_beta 90.000000
_cell_angle_gamma 90.000000
_cell_volume 1033.855267
_symmetry_space_group_name_H-M "P 2 2 21"
_symmetry_group_IT_number 17
_symmetry_cell_setting 'orthorhombic'
loop_
_space_group_symop_operation_xyz
x,y,z
-x,-y,1/2+z
x,-y,-z
-x,y,1/2-z
loop_
_atom_site_type_symbol
_atom_site_label
_atom_site_fract_x
_atom_site_fract_y
_atom_site_fract_z
Si Si1 0.422967 0.182629 0.501653
Si Si2 0.773932 0.309968 0.049809
Si Si3 0.623650 0.443544 0.253316
Si Si4 0.111522 0.421774 0.866850
Si Si5 0.000000 0.295726 0.250000
Si Si6 0.424829 0.000000 0.500000
O O1 0.500000 0.192109 0.250000
O O2 0.324429 0.248480 0.520836
O O3 0.369651 0.090121 0.494008
O O4 0.500000 0.189077 0.750000
O O5 0.716049 0.371527 0.252611
O O6 0.886541 0.260067 0.128257
O O7 0.813986 0.373762 0.834316
O O8 0.617868 0.500000 0.500000
O O9 0.500000 0.403411 0.250000
O O10 0.636778 0.500000 0.000000
O O11 0.000000 0.461871 0.750000
O O12 0.165784 0.500000 0.000000
O O13 0.057316 0.353213 0.042952
O O14 0.500000 0.998592 0.250000
#
# Coordination Sequence:
#
# PCOD9311023 Si02
#       6
#     4   4   4   4   2   2
#     4  10  22  40  68  99 130 160 197 250 313 380
#     4  11  25  37  60  87 120 162 207 262 311 371
#     4  10  24  41  55  77 115 158 199 245 302 364
#     4  10  21  38  56  79 110 159 213 270 306 347
#     4  10  24  38  56  82 116 154 216 270 312 348
#     4   8  16  36  64 100 128 152 192 242 302 372
#
# _framework density 19.345065999999999
#
# number of rings (size 3 to 8) (size 9 to 14) (size 15 to 20)
#    0.000    2.000    1.000    0.600    8.400    2.400 
#    3.600    0.000    0.000    0.000    7.800    0.000 
#    0.000    0.000    0.000    0.000    0.000    0.000 
#
# Total GULP energy -111403.386238 kJ/mol
# GULP energy per Si atom -5570.169312 kJ/mol
# Density = 1.930104 g / cm^3
# Si number density = 19.345066 Si / 1000 Ang^3
#
#
#
# Elastic Constant Matrix: (Units=GPa)
#
#
# Indices 1 2 3 4 5 6 
#
# 1 145.1599 55.2563 28.0673 0.0000 0.0000 0.0000
# 2 55.2563 105.5097 23.1988 0.0000 0.0000 0.0000
# 3 28.0673 23.1988 103.4370 0.0000 0.0000 0.0000
# 4 0.0000 0.0000 0.0000 13.4876 0.0000 0.0000
# 5 0.0000 0.0000 0.0000 0.0000 29.6244 0.0000
# 6 0.0000 0.0000 0.0000 0.0000 0.0000 -123.7036
#
#
#
# Elastic Compliance Matrix: (Units=1/GPa)
#
#
# Indices 1 2 3 4 5 6 
#
# 1 0.008799 -0.004295 -0.001424 0.000000 0.000000 0.000000
# 2 -0.004295 0.012066 -0.001541 0.000000 0.000000 0.000000
# 3 -0.001424 -0.001541 0.010400 0.000000 0.000000 0.000000
# 4 0.000000 0.000000 0.000000 0.074142 0.000000 0.000000
# 5 0.000000 0.000000 0.000000 0.000000 0.033756 0.000000
# 6 0.000000 0.000000 0.000000 0.000000 0.000000 -0.008084
#
#
# Mechanical properties :
#
#
# Convention : Reuss Voigt Hill
#
# Bulk Modulus (GPa) = 59.72027 63.01682 61.36855
# Shear Modulus (GPa) = 33.07296 0.38731 16.73013
#
# Velocity S-wave (km/s) = 4.13926 0.44793 2.94398
# Velocity P-wave (km/s) = 7.33367 5.73702 6.58392
#
# Compressibility (1/GPa) = 0.01674473
#
# Stress axis : x y z
#
# Youngs Moduli (GPa) = 113.64504 82.87790 96.15605
#
# Poissons Ratio (x) = 0.35597 0.13696
# Poissons Ratio (y) = 0.48812 0.14815
# Poissons Ratio (z) = 0.16187 0.12769
#
# Static dielectric constant tensor:
#      x y z
#    x 1.752680 0.000000 0.000000 
#    y 0.000000 1.654960 0.000000 
#    z 0.000000 0.000000 2.707780 
# 
# From -- ./inp_files/1540.got.cif
#   From: 2010.05.17/outbox.cif.g08.bks.cpg/sg17_1_cif.got.tgz:1540.got - 2010.06.03 22:34:06.
