data_PCOD9311607
_publ_section_title
;
Structure prediction by ZEFSAII (Michael W. Deem and Ramdas Pophale) SiO2 
 PCOD9311607
Probable space group: P 2 2 21
;
_chemical_formula_sum "Si O2"
_cell_formula_units_Z 16
_cell_length_a 9.000000
_cell_length_b 9.000000
_cell_length_c 9.000000
_cell_angle_alpha 90.000000
_cell_angle_beta 90.000000
_cell_angle_gamma 90.000000
_cell_volume 729.000000
_symmetry_space_group_name_H-M "P 2 2 21"
_symmetry_group_IT_number 17
_symmetry_cell_setting 'orthorhombic'
loop_
_space_group_symop_operation_xyz
x,y,z
-x,-y,1/2+z
x,-y,-z
-x,y,1/2-z
loop_
_atom_site_type_symbol
_atom_site_label
_atom_site_fract_x
_atom_site_fract_y
_atom_site_fract_z
Si Si1 0.326692 0.069692 0.225902
Si Si2 0.303384 0.718536 0.534719
Si Si3 0.651417 0.241727 0.563298
Si Si4 0.176306 0.547421 0.273146
O O1 0.500000 0.104603 0.250000
O O2 0.261658 0.129218 0.380234
O O3 0.327359 0.898155 0.176691
O O4 0.280250 0.174011 0.088255
O O5 0.474684 0.724888 0.470303
O O6 0.194797 0.672191 0.401827
O O7 0.272604 0.589616 0.658559
O O8 0.739218 0.380972 0.631614
O O9 0.000000 0.514786 0.250000
#
# Coordination Sequence:
#
# PCOD9311607 Si02
#       4
#     4   4   4   4
#     4   9  19  37  65  98 125 161 223 289 340 392
#     4  10  23  41  65  94 128 176 226 278 342 405
#     4  10  21  41  67  94 127 169 224 286 340 401
#     4  11  25  43  61  94 140 182 222 275 336 406
#
# _framework density 21.947873999999999
#
# number of rings (size 3 to 8) (size 9 to 14) (size 15 to 20)
#    0.000    2.000    0.000    2.250    0.000   20.000 
#    0.000    6.250    0.000    0.000    0.000    0.000 
#    0.000    0.000    0.000    0.000    0.000    0.000 
#
# Total GULP energy -89280.825857 kJ/mol
# GULP energy per Si atom -5580.051616 kJ/mol
# Density = 2.189792 g / cm^3
# Si number density = 21.947874 Si / 1000 Ang^3
#
#
#
# Elastic Constant Matrix: (Units=GPa)
#
#
# Indices 1 2 3 4 5 6 
#
# 1 79.0066 38.8491 23.9133 0.0000 0.0000 0.0000
# 2 38.8491 104.3689 84.6357 0.0000 0.0000 0.0000
# 3 23.9133 84.6357 89.5460 0.0000 0.0000 0.0000
# 4 0.0000 0.0000 0.0000 72.7562 0.0000 0.0000
# 5 0.0000 0.0000 0.0000 0.0000 29.5397 0.0000
# 6 0.0000 0.0000 0.0000 0.0000 0.0000 20.6243
#
#
#
# Elastic Compliance Matrix: (Units=1/GPa)
#
#
# Indices 1 2 3 4 5 6 
#
# 1 0.016184 -0.010787 0.005874 0.000000 0.000000 0.000000
# 2 -0.010787 0.048218 -0.042693 0.000000 0.000000 0.000000
# 3 0.005874 -0.042693 0.049950 0.000000 0.000000 0.000000
# 4 0.000000 0.000000 0.000000 0.013745 0.000000 0.000000
# 5 0.000000 0.000000 0.000000 0.000000 0.033853 0.000000
# 6 0.000000 0.000000 0.000000 0.000000 0.000000 0.048486
#
#
# Mechanical properties :
#
#
# Convention : Reuss Voigt Hill
#
# Bulk Modulus (GPa) = 52.24824 63.07974 57.66399
# Shear Modulus (GPa) = 16.02423 32.95225 24.48824
#
# Velocity S-wave (km/s) = 2.70497 3.87898 3.34390
# Velocity P-wave (km/s) = 5.79768 6.99035 6.42177
#
# Compressibility (1/GPa) = 0.01913940
#
# Stress axis : x y z
#
# Youngs Moduli (GPa) = 61.79073 20.73933 20.01983
#
# Poissons Ratio (x) = 0.22373 -0.11760
# Poissons Ratio (y) = 0.66657 0.85470
# Poissons Ratio (z) = -0.36297 0.88542
#
# Static dielectric constant tensor:
#      x y z
#    x 1.734920 0.000000 0.000000 
#    y 0.000000 1.882070 0.000000 
#    z 0.000000 0.000000 1.928300 
# 
# From -- ./inp_files/3762.got.cif
#   From: 2010.05.17/outbox.ucp.g08.bks.cvg/sg17_2_cif.got.tgz:3762.got - 2010.06.11 13:12:59.
