data_PCOD9311171
_publ_section_title
;
Structure prediction by ZEFSAII (Michael W. Deem and Ramdas Pophale) SiO2 
 PCOD9311171
Probable space group: P 2 2 21
;
_chemical_formula_sum "Si O2"
_cell_formula_units_Z 32
_cell_length_a 12.515717
_cell_length_b 8.838686
_cell_length_c 15.320504
_cell_angle_alpha 90.000000
_cell_angle_beta 90.000000
_cell_angle_gamma 90.000000
_cell_volume 1694.792341
_symmetry_space_group_name_H-M "P 2 2 21"
_symmetry_group_IT_number 17
_symmetry_cell_setting 'orthorhombic'
loop_
_space_group_symop_operation_xyz
x,y,z
-x,-y,1/2+z
x,-y,-z
-x,y,1/2-z
loop_
_atom_site_type_symbol
_atom_site_label
_atom_site_fract_x
_atom_site_fract_y
_atom_site_fract_z
Si Si1 0.775856 0.568851 0.903154
Si Si2 0.768471 0.432619 0.597367
Si Si3 0.375388 0.934558 0.753234
Si Si4 0.233074 0.069593 0.906677
Si Si5 0.994422 0.436311 0.901843
Si Si6 0.623247 0.430454 0.253935
Si Si7 0.004603 0.908882 0.354123
Si Si8 0.222423 0.930065 0.593489
O O1 0.683572 0.526186 0.835345
O O2 0.779482 0.749173 0.911912
O O3 0.888552 0.511300 0.863542
O O4 0.761546 0.500000 0.000000
O O5 0.756985 0.500000 0.500000
O O6 0.762415 0.251342 0.591424
O O7 0.887626 0.471109 0.633492
O O8 0.682326 0.497001 0.663792
O O9 0.500000 0.978727 0.750000
O O10 0.370916 0.752050 0.761967
O O11 0.309807 0.975265 0.665875
O O12 0.312517 0.007869 0.833488
O O13 0.109921 0.027160 0.884176
O O14 0.260483 0.000000 0.000000
O O15 0.980733 0.255700 0.898036
O O16 0.997197 0.500000 0.000000
O O17 0.500000 0.475291 0.250000
O O18 0.000000 0.886963 0.250000
O O19 0.105349 0.010924 0.378800
O O20 0.248832 0.000000 0.500000
#
# Coordination Sequence:
#
# PCOD9311171 Si02
#       8
#     4   4   4   4   4   4   4   4
#     4  10  22  38  60  89 118 155 196 244 297 357
#     4  10  22  39  60  89 119 156 195 242 298 353
#     4  10  23  43  61  87 122 157 206 254 299 357
#     4  11  23  39  63  90 122 160 198 248 302 361
#     4   9  20  37  58  89 122 153 190 235 290 352
#     4  10  23  41  61  84 117 158 201 249 297 349
#     4  11  22  38  62  93 126 160 198 247 299 359
#     4  11  22  39  63  88 121 160 198 247 303 361
#
# _framework density 18.881368999999999
#
# number of rings (size 3 to 8) (size 9 to 14) (size 15 to 20)
#    0.000    1.750    1.250    2.625    3.500    6.500 
#    0.000    2.500    0.000    0.000    0.000    0.000 
#    0.000    0.000    0.000    0.000    0.000    0.000 
#
# Total GULP energy -178748.277628 kJ/mol
# GULP energy per Si atom -5585.883676 kJ/mol
# Density = 1.883839 g / cm^3
# Si number density = 18.881369 Si / 1000 Ang^3
#
#
#
# Elastic Constant Matrix: (Units=GPa)
#
#
# Indices 1 2 3 4 5 6 
#
# 1 199.1156 60.9612 97.9147 0.0000 0.0000 0.0000
# 2 60.9612 48.8562 56.6454 0.0000 0.0000 0.0000
# 3 97.9147 56.6454 153.5970 0.0000 0.0000 0.0000
# 4 0.0000 0.0000 0.0000 19.3801 0.0000 0.0000
# 5 0.0000 0.0000 0.0000 0.0000 25.9526 0.0000
# 6 0.0000 0.0000 0.0000 0.0000 0.0000 9.1313
#
#
#
# Elastic Compliance Matrix: (Units=1/GPa)
#
#
# Indices 1 2 3 4 5 6 
#
# 1 0.008725 -0.007753 -0.002703 0.000000 0.000000 0.000000
# 2 -0.007753 0.042647 -0.010786 0.000000 0.000000 0.000000
# 3 -0.002703 -0.010786 0.012211 0.000000 0.000000 0.000000
# 4 0.000000 0.000000 0.000000 0.051599 0.000000 0.000000
# 5 0.000000 0.000000 0.000000 0.000000 0.038532 0.000000
# 6 0.000000 0.000000 0.000000 0.000000 0.000000 0.109514
#
#
# Mechanical properties :
#
#
# Convention : Reuss Voigt Hill
#
# Bulk Modulus (GPa) = 47.39180 92.51237 69.95209
# Shear Modulus (GPa) = 15.98750 23.29597 19.64173
#
# Velocity S-wave (km/s) = 2.91303 3.51637 3.22882
# Velocity P-wave (km/s) = 6.03892 8.09873 7.14346
#
# Compressibility (1/GPa) = 0.02110070
#
# Stress axis : x y z
#
# Youngs Moduli (GPa) = 114.61395 23.44805 81.89296
#
# Poissons Ratio (x) = 0.18180 0.22133
# Poissons Ratio (y) = 0.88862 0.88326
# Poissons Ratio (z) = 0.30976 0.25290
#
# Static dielectric constant tensor:
#      x y z
#    x 1.657560 0.000000 0.000000 
#    y 0.000000 1.633920 0.000000 
#    z 0.000000 0.000000 1.640430 
# 
# From -- ./inp_files/8565.got.cif
#   From: 2010.05.17/outbox.cif.g08.bks.cpg/sg17_5_cif.got.tgz:8565.got - 2010.06.03 22:34:06.
