data_PCOD9311783
_publ_section_title
;
Structure prediction by ZEFSAII (Michael W. Deem and Ramdas Pophale) SiO2 
 PCOD9311783
Probable space group: P 21 21 2
;
_chemical_formula_sum "Si O2"
_cell_formula_units_Z 30
_cell_length_a 23.928456
_cell_length_b 5.571386
_cell_length_c 12.058713
_cell_angle_alpha 90.000000
_cell_angle_beta 90.000000
_cell_angle_gamma 90.000000
_cell_volume 1607.603281
_symmetry_space_group_name_H-M "P 21 21 2"
_symmetry_group_IT_number 18
_symmetry_cell_setting 'orthorhombic'
loop_
_space_group_symop_operation_xyz
x,y,z
-x,-y,z
1/2+x,1/2-y,-z
1/2-x,1/2+y,-z
loop_
_atom_site_type_symbol
_atom_site_label
_atom_site_fract_x
_atom_site_fract_y
_atom_site_fract_z
Si Si1 0.668768 0.442582 0.467190
Si Si2 0.583870 0.664262 0.331221
Si Si3 0.178733 0.450615 0.725241
Si Si4 0.099320 0.205162 0.867141
Si Si5 0.233376 0.290278 0.349949
Si Si6 0.000000 0.500000 0.780432
Si Si7 0.676490 0.498030 0.972620
Si Si8 0.713644 0.996982 0.872412
O O1 0.607287 0.555561 0.446633
O O2 0.676223 0.246935 0.370105
O O3 0.719606 0.627867 0.440132
O O4 0.681527 0.314387 0.582597
O O5 0.588359 0.458831 0.239654
O O6 0.527094 0.803116 0.302842
O O7 0.632112 0.854304 0.303984
O O8 0.156688 0.349740 0.841132
O O9 0.237325 0.581816 0.722194
O O10 0.047391 0.385749 0.859972
O O11 0.116301 0.034533 0.967645
O O12 0.221351 0.495756 0.260673
O O13 0.684214 0.249524 0.904666
O O14 0.683051 0.751827 0.909410
O O15 0.726672 0.507720 0.064044
#
# Coordination Sequence:
#
# PCOD9311783 Si02
#       8
#     4   4   4   4   4   2   4   4
#     4  10  19  31  50  76 114 158 203 236 288 345
#     4   9  19  33  50  80 110 150 184 245 303 360
#     4   9  18  30  50  74 107 154 193 241 272 351
#     4  10  20  34  57  78 115 149 197 242 307 355
#     4  11  20  31  50  78 113 163 209 236 279 347
#     4  10  20  34  58  84 114 150 192 254 314 366
#     4  10  22  37  52  79 114 165 202 247 289 346
#     4  10  23  34  54  77 117 166 212 233 284 351
#
# _framework density 18.661321000000001
#
# number of rings (size 3 to 8) (size 9 to 14) (size 15 to 20)
#    0.000    2.133    1.333    2.800   11.200    0.000 
#    0.000    0.000    0.000    0.000    0.000    0.000 
#    0.000   25.600    0.000    0.267    0.533    0.000 
#
# Total GULP energy -167090.899171 kJ/mol
# GULP energy per Si atom -5569.696639 kJ/mol
# Density = 1.861885 g / cm^3
# Si number density = 18.661321 Si / 1000 Ang^3
#
#
#
# Elastic Constant Matrix: (Units=GPa)
#
#
# Indices 1 2 3 4 5 6 
#
# 1 68.1379 36.8580 36.8920 0.0000 0.0000 0.0000
# 2 36.8580 92.0364 29.2202 0.0000 0.0000 0.0000
# 3 36.8920 29.2202 61.9614 0.0000 0.0000 0.0000
# 4 0.0000 0.0000 0.0000 20.8632 0.0000 0.0000
# 5 0.0000 0.0000 0.0000 0.0000 15.3324 0.0000
# 6 0.0000 0.0000 0.0000 0.0000 0.0000 32.7864
#
#
#
# Elastic Compliance Matrix: (Units=1/GPa)
#
#
# Indices 1 2 3 4 5 6 
#
# 1 0.024194 -0.006016 -0.011568 0.000000 0.000000 0.000000
# 2 -0.006016 0.014275 -0.003150 0.000000 0.000000 0.000000
# 3 -0.011568 -0.003150 0.024512 0.000000 0.000000 0.000000
# 4 0.000000 0.000000 0.000000 0.047931 0.000000 0.000000
# 5 0.000000 0.000000 0.000000 0.000000 0.065221 0.000000
# 6 0.000000 0.000000 0.000000 0.000000 0.000000 0.030500
#
#
# Mechanical properties :
#
#
# Convention : Reuss Voigt Hill
#
# Bulk Modulus (GPa) = 46.48393 47.56400 47.02397
# Shear Modulus (GPa) = 19.58700 21.74077 20.66388
#
# Velocity S-wave (km/s) = 3.24327 3.41694 3.33124
# Velocity P-wave (km/s) = 6.24407 6.41176 6.32847
#
# Compressibility (1/GPa) = 0.02151281
#
# Stress axis : x y z
#
# Youngs Moduli (GPa) = 41.33317 70.05467 40.79660
#
# Poissons Ratio (x) = 0.42147 0.47192
# Poissons Ratio (y) = 0.24867 0.12849
# Poissons Ratio (z) = 0.47813 0.22064
#
# Static dielectric constant tensor:
#      x y z
#    x 1.681680 0.000000 0.000000 
#    y 0.000000 1.758430 0.000000 
#    z 0.000000 0.000000 1.677820 
# 
# From -- ./inp_files/6280.got.cif
#   From: 2010.05.17/outbox.cif.g08.bks.cpg/sg18_4_cif.got.tgz:6280.got - 2010.06.03 22:40:56.
