data_PCOD9311618
_publ_section_title
;
Structure prediction by ZEFSAII (Michael W. Deem and Ramdas Pophale) SiO2 
 PCOD9311618
Probable space group: P 21 21 2
;
_chemical_formula_sum "Si O2"
_cell_formula_units_Z 32
_cell_length_a 20.308225
_cell_length_b 9.650637
_cell_length_c 7.127088
_cell_angle_alpha 90.000000
_cell_angle_beta 90.000000
_cell_angle_gamma 90.000000
_cell_volume 1396.818788
_symmetry_space_group_name_H-M "P 21 21 2"
_symmetry_group_IT_number 18
_symmetry_cell_setting 'orthorhombic'
loop_
_space_group_symop_operation_xyz
x,y,z
-x,-y,z
1/2+x,1/2-y,-z
1/2-x,1/2+y,-z
loop_
_atom_site_type_symbol
_atom_site_label
_atom_site_fract_x
_atom_site_fract_y
_atom_site_fract_z
Si Si1 0.806704 0.645085 0.922662
Si Si2 0.059539 0.068329 0.009560
Si Si3 0.793562 0.932796 0.029916
Si Si4 0.705036 0.529744 0.407081
Si Si5 0.173972 0.271286 0.506959
Si Si6 0.055241 0.396226 0.958499
Si Si7 0.032064 0.365597 0.533344
Si Si8 0.056884 0.900823 0.609735
O O1 0.831740 0.718929 0.734090
O O2 0.869940 0.580694 0.024882
O O3 0.775245 0.771463 0.036263
O O4 0.755953 0.530250 0.864743
O O5 0.043535 0.231023 0.981382
O O6 0.131410 0.057987 0.094140
O O7 0.063370 0.974475 0.817904
O O8 0.000000 0.000000 0.119032
O O9 0.789995 0.989959 0.814867
O O10 0.769505 0.621150 0.448311
O O11 0.699718 0.384457 0.519312
O O12 0.633621 0.600625 0.449065
O O13 0.098759 0.302491 0.440632
O O14 0.055974 0.422644 0.735107
O O15 0.000000 0.500000 0.032694
O O16 0.000000 0.500000 0.437101
O O17 0.977260 0.248849 0.581169
O O18 0.000000 0.000000 0.523997
#
# Coordination Sequence:
#
# PCOD9311618 Si02
#       8
#     4   4   4   4   4   4   4   4
#     4   9  19  35  51  74 108 135 170 211 256 307
#     4   9  15  27  47  71  98 125 166 210 256 299
#     4   9  19  34  51  75 104 139 169 210 256 309
#     4  10  21  34  54  79 110 139 175 216 267 314
#     4  10  21  36  51  81 112 138 172 223 261 315
#     4   9  16  27  45  73 101 124 160 218 257 291
#     4  10  18  29  49  76 104 130 173 223 263 304
#     4  10  15  31  50  71 101 135 169 218 266 303
#
# _framework density 22.909200999999999
#
# number of rings (size 3 to 8) (size 9 to 14) (size 15 to 20)
#    0.000    2.500    3.750    1.500    1.750    2.000 
#    4.500    0.000    0.000    1.500    3.250    0.000 
#    0.000    0.000    0.000    0.000    0.000    0.000 
#
# Total GULP energy -178248.764005 kJ/mol
# GULP energy per Si atom -5570.273875 kJ/mol
# Density = 2.285706 g / cm^3
# Si number density = 22.909201 Si / 1000 Ang^3
#
#
#
# Elastic Constant Matrix: (Units=GPa)
#
#
# Indices 1 2 3 4 5 6 
#
# 1 132.7499 105.1469 -0.4142 0.0000 0.0000 0.0000
# 2 105.1469 151.8801 7.5733 0.0000 0.0000 0.0000
# 3 -0.4142 7.5733 63.3134 0.0000 0.0000 0.0000
# 4 0.0000 0.0000 0.0000 10.9089 0.0000 0.0000
# 5 0.0000 0.0000 0.0000 0.0000 -1.6912 0.0000
# 6 0.0000 0.0000 0.0000 0.0000 0.0000 48.2708
#
#
#
# Elastic Compliance Matrix: (Units=1/GPa)
#
#
# Indices 1 2 3 4 5 6 
#
# 1 0.016821 -0.011721 0.001512 0.000000 0.000000 0.000000
# 2 -0.011721 0.014791 -0.001846 0.000000 0.000000 0.000000
# 3 0.001512 -0.001846 0.016025 0.000000 0.000000 0.000000
# 4 0.000000 0.000000 0.000000 0.091669 0.000000 0.000000
# 5 0.000000 0.000000 0.000000 0.000000 -0.591295 0.000000
# 6 0.000000 0.000000 0.000000 0.000000 0.000000 0.020716
#
#
# Mechanical properties :
#
#
# Convention : Reuss Voigt Hill
#
# Bulk Modulus (GPa) = 42.50307 63.61726 53.06017
# Shear Modulus (GPa) = -12.52126 27.20685 7.34279
#
# Velocity S-wave (km/s) = -2.34040 3.44989 1.79224
# Velocity P-wave (km/s) = 3.36003 6.61049 5.24349
#
# Compressibility (1/GPa) = 0.02352771
#
# Stress axis : x y z
#
# Youngs Moduli (GPa) = 59.44793 67.61049 62.40197
#
# Poissons Ratio (x) = 0.79246 -0.09436
# Poissons Ratio (y) = 0.69678 0.11519
# Poissons Ratio (z) = -0.08989 0.12480
#
# Static dielectric constant tensor:
#      x y z
#    x 1.894360 0.000000 0.000000 
#    y 0.000000 1.876590 0.000000 
#    z 0.000000 0.000000 1.988960 
# 
# From -- ./inp_files/6234.got.cif
#   From: 2010.05.17/outbox.cif.g08.bks.cpg/sg18_4_cif.got.tgz:6234.got - 2010.06.03 22:40:56.
