data_PCOD9311159
_publ_section_title
;
Structure prediction by ZEFSAII (Michael W. Deem and Ramdas Pophale) SiO2 
 PCOD9311159
Probable space group: P 2 2 21
;
_chemical_formula_sum "Si O2"
_cell_formula_units_Z 20
_cell_length_a 9.386843
_cell_length_b 6.069840
_cell_length_c 12.869774
_cell_angle_alpha 90.000000
_cell_angle_beta 90.000000
_cell_angle_gamma 90.000000
_cell_volume 733.276417
_symmetry_space_group_name_H-M "P 2 2 21"
_symmetry_group_IT_number 17
_symmetry_cell_setting 'orthorhombic'
loop_
_space_group_symop_operation_xyz
x,y,z
-x,-y,1/2+z
x,-y,-z
-x,y,1/2-z
loop_
_atom_site_type_symbol
_atom_site_label
_atom_site_fract_x
_atom_site_fract_y
_atom_site_fract_z
Si Si1 0.989147 0.636701 0.123768
Si Si2 0.977577 0.144924 0.126359
Si Si3 0.407999 0.545052 0.886863
Si Si4 0.684289 0.668186 0.186827
Si Si5 0.644151 0.094862 0.114786
O O1 0.038119 0.386922 0.090339
O O2 0.818013 0.643338 0.113071
O O3 0.000000 0.638881 0.250000
O O4 0.028790 0.893286 0.092676
O O5 0.808005 0.176794 0.108944
O O6 0.000000 0.141042 0.250000
O O7 0.310711 0.483367 0.788714
O O8 0.540497 0.378665 0.875000
O O9 0.501057 0.763842 0.871267
O O10 0.344837 0.500000 0.000000
O O11 0.665910 0.924142 0.209915
O O12 0.623721 0.000000 0.000000
#
# Coordination Sequence:
#
# PCOD9311159 Si02
#       5
#     4   4   4   4   4
#     4   9  17  34  58  86 114 153 205 252 313 388
#     4   9  18  33  57  85 117 155 201 260 318 377
#     4  11  22  39  58  87 129 164 220 265 324 394
#     4  10  22  37  60  89 121 168 212 267 337 371
#     4  11  21  38  61  91 126 168 224 279 319 398
#
# _framework density 27.274843000000001
#
# number of rings (size 3 to 8) (size 9 to 14) (size 15 to 20)
#    0.000    2.000    4.000    0.000    0.000    3.200 
#    0.000    0.000    0.000   20.400    0.000    0.000 
#    0.000    0.000    0.000    0.000    0.000    0.000 
#
# Total GULP energy -111366.644742 kJ/mol
# GULP energy per Si atom -5568.332237 kJ/mol
# Density = 2.721276 g / cm^3
# Si number density = 27.274843 Si / 1000 Ang^3
#
#
#
# Elastic Constant Matrix: (Units=GPa)
#
#
# Indices 1 2 3 4 5 6 
#
# 1 69.4600 17.4075 28.4461 0.0000 0.0000 0.0000
# 2 17.4075 253.5303 87.7083 0.0000 0.0000 0.0000
# 3 28.4461 87.7083 124.5458 0.0000 0.0000 0.0000
# 4 0.0000 0.0000 0.0000 52.9749 0.0000 0.0000
# 5 0.0000 0.0000 0.0000 0.0000 17.1871 0.0000
# 6 0.0000 0.0000 0.0000 0.0000 0.0000 21.5147
#
#
#
# Elastic Compliance Matrix: (Units=1/GPa)
#
#
# Indices 1 2 3 4 5 6 
#
# 1 0.015891 0.000218 -0.003783 0.000000 0.000000 0.000000
# 2 0.000218 0.005218 -0.003724 0.000000 0.000000 0.000000
# 3 -0.003783 -0.003724 0.011516 0.000000 0.000000 0.000000
# 4 0.000000 0.000000 0.000000 0.018877 0.000000 0.000000
# 5 0.000000 0.000000 0.000000 0.000000 0.058183 0.000000
# 6 0.000000 0.000000 0.000000 0.000000 0.000000 0.046480
#
#
# Mechanical properties :
#
#
# Convention : Reuss Voigt Hill
#
# Bulk Modulus (GPa) = 55.41338 79.40665 67.41002
# Shear Modulus (GPa) = 28.28712 39.26697 33.77704
#
# Velocity S-wave (km/s) = 3.22392 3.79842 3.52290
# Velocity P-wave (km/s) = 5.84970 6.95802 6.42779
#
# Compressibility (1/GPa) = 0.01804618
#
# Stress axis : x y z
#
# Youngs Moduli (GPa) = 62.92701 191.65455 86.83736
#
# Poissons Ratio (x) = -0.04169 0.32849
# Poissons Ratio (y) = -0.01369 0.32339
# Poissons Ratio (z) = 0.23804 0.71375
#
# Static dielectric constant tensor:
#      x y z
#    x 2.110240 0.000000 0.000000 
#    y 0.000000 2.413380 0.000000 
#    z 0.000000 0.000000 2.305440 
# 
# From -- ./inp_files/7592.got.cif
#   From: 2010.05.17/outbox.cif.g08.bks.cpg/sg17_4_cif.got.tgz:7592.got - 2010.06.03 22:34:06.
