data_PCOD9311385
_publ_section_title
;
Structure prediction by ZEFSAII (Michael W. Deem and Ramdas Pophale) SiO2 
 PCOD9311385
Probable space group: P 2 2 21
;
_chemical_formula_sum "Si O2"
_cell_formula_units_Z 24
_cell_length_a 9.077283
_cell_length_b 5.187526
_cell_length_c 22.862828
_cell_angle_alpha 90.000000
_cell_angle_beta 90.000000
_cell_angle_gamma 90.000000
_cell_volume 1076.579513
_symmetry_space_group_name_H-M "P 2 2 21"
_symmetry_group_IT_number 17
_symmetry_cell_setting 'orthorhombic'
loop_
_space_group_symop_operation_xyz
x,y,z
-x,-y,1/2+z
x,-y,-z
-x,y,1/2-z
loop_
_atom_site_type_symbol
_atom_site_label
_atom_site_fract_x
_atom_site_fract_y
_atom_site_fract_z
Si Si1 0.150555 0.460800 0.375322
Si Si2 0.345990 0.686414 0.768251
Si Si3 0.898303 0.333299 0.701667
Si Si4 0.335733 0.007811 0.873192
Si Si5 0.332960 0.041198 0.661403
Si Si6 0.796457 0.000000 0.500000
Si Si7 0.996406 0.500000 0.000000
O O1 0.237810 0.715537 0.356322
O O2 0.102363 0.477084 0.442463
O O3 0.999320 0.479991 0.337998
O O4 0.252130 0.210556 0.365769
O O5 0.500000 0.560470 0.750000
O O6 0.207612 0.508979 0.758878
O O7 0.342396 0.741408 0.837045
O O8 0.339852 0.947171 0.729385
O O9 0.000000 0.187789 0.750000
O O10 0.795957 0.163406 0.659233
O O11 0.299050 0.984547 0.940936
O O12 0.501978 0.101227 0.860924
O O13 0.899751 0.250104 0.504040
#
# Coordination Sequence:
#
# PCOD9311385 Si02
#       7
#     4   4   4   4   4   2   2
#     4  12  26  47  73 108 144 197 250 308 377 445
#     4  10  24  43  70 106 149 194 240 312 384 445
#     4  12  24  42  77 107 146 193 255 310 380 451
#     4  11  27  45  74 106 151 200 250 307 378 453
#     4  11  27  48  74 108 151 193 247 316 383 451
#     4  12  26  48  76 110 148 198 252 306 368 458
#     4  12  26  48  74 106 154 192 250 318 370 436
#
# _framework density 22.292828
#
# number of rings (size 3 to 8) (size 9 to 14) (size 15 to 20)
#    0.000    0.667    3.333    3.000    7.000    2.667 
#    0.000    0.000    0.000    0.000    0.000    0.000 
#    0.000    0.000    0.000    0.000    0.000    0.000 
#
# Total GULP energy -134248.585758 kJ/mol
# GULP energy per Si atom -5593.691073 kJ/mol
# Density = 2.224209 g / cm^3
# Si number density = 22.292828 Si / 1000 Ang^3
#
#
#
# Elastic Constant Matrix: (Units=GPa)
#
#
# Indices 1 2 3 4 5 6 
#
# 1 152.6293 52.2625 72.7999 0.0000 0.0000 0.0000
# 2 52.2625 110.4707 38.2288 0.0000 0.0000 0.0000
# 3 72.7999 38.2288 202.3209 0.0000 0.0000 0.0000
# 4 0.0000 0.0000 0.0000 15.8630 0.0000 0.0000
# 5 0.0000 0.0000 0.0000 0.0000 40.6790 0.0000
# 6 0.0000 0.0000 0.0000 0.0000 0.0000 38.1544
#
#
#
# Elastic Compliance Matrix: (Units=1/GPa)
#
#
# Indices 1 2 3 4 5 6 
#
# 1 0.008923 -0.003328 -0.002582 0.000000 0.000000 0.000000
# 2 -0.003328 0.010927 -0.000867 0.000000 0.000000 0.000000
# 3 -0.002582 -0.000867 0.006036 0.000000 0.000000 0.000000
# 4 0.000000 0.000000 0.000000 0.063040 0.000000 0.000000
# 5 0.000000 0.000000 0.000000 0.000000 0.024583 0.000000
# 6 0.000000 0.000000 0.000000 0.000000 0.000000 0.026209
#
#
# Mechanical properties :
#
#
# Convention : Reuss Voigt Hill
#
# Bulk Modulus (GPa) = 81.09476 88.00037 84.54756
# Shear Modulus (GPa) = 31.77011 39.08126 35.42568
#
# Velocity S-wave (km/s) = 3.77918 4.19153 3.99068
# Velocity P-wave (km/s) = 7.44976 7.93635 7.69690
#
# Compressibility (1/GPa) = 0.01233125
#
# Stress axis : x y z
#
# Youngs Moduli (GPa) = 112.07278 91.51970 165.68630
#
# Poissons Ratio (x) = 0.30456 0.42777
# Poissons Ratio (y) = 0.37296 0.14368
# Poissons Ratio (z) = 0.28935 0.07936
#
# Static dielectric constant tensor:
#      x y z
#    x 1.958880 0.000000 0.000000 
#    y 0.000000 1.829030 0.000000 
#    z 0.000000 0.000000 1.824860 
# 
# From -- ./inp_files/10581.got.cif
#   From: 2010.05.17/outbox.cif.g08.bks.cpg/sg17_6_cif.got.tgz:10581.got - 2010.06.03 22:34:06.
