data_PCOD9311883
_publ_section_title
;
Structure prediction by ZEFSAII (Michael W. Deem and Ramdas Pophale) SiO2 
 PCOD9311883
Probable space group: P 21 21 2
;
_chemical_formula_sum "Si O2"
_cell_formula_units_Z 28
_cell_length_a 20.908819
_cell_length_b 7.332029
_cell_length_c 9.686855
_cell_angle_alpha 90.000000
_cell_angle_beta 90.000000
_cell_angle_gamma 90.000000
_cell_volume 1485.034270
_symmetry_space_group_name_H-M "P 21 21 2"
_symmetry_group_IT_number 18
_symmetry_cell_setting 'orthorhombic'
loop_
_space_group_symop_operation_xyz
x,y,z
-x,-y,z
1/2+x,1/2-y,-z
1/2-x,1/2+y,-z
loop_
_atom_site_type_symbol
_atom_site_label
_atom_site_fract_x
_atom_site_fract_y
_atom_site_fract_z
Si Si1 0.000000 0.500000 0.551024
Si Si2 0.832313 0.948852 0.497864
Si Si3 0.000000 0.500000 0.110815
Si Si4 0.597000 0.900520 0.674050
Si Si5 0.045450 0.161374 0.964783
Si Si6 0.576047 0.498551 0.745221
Si Si7 0.186572 0.625207 0.556269
Si Si8 0.386973 0.830217 0.288143
O O1 0.954448 0.385448 0.450170
O O2 0.955511 0.627833 0.642131
O O3 0.884409 0.908462 0.378508
O O4 0.762059 0.902392 0.441661
O O5 0.849681 0.823322 0.626813
O O6 0.831788 0.161691 0.543493
O O7 0.938408 0.520331 0.210850
O O8 0.001487 0.678588 0.018138
O O9 0.603137 0.703992 0.743208
O O10 0.659494 0.958913 0.589540
O O11 0.095607 0.253820 0.861607
O O12 0.079627 0.083072 0.101833
O O13 0.000000 0.000000 0.906240
O O14 0.500000 0.500000 0.713757
O O15 0.152815 0.516108 0.681462
#
# Coordination Sequence:
#
# PCOD9311883 Si02
#       8
#     2   4   2   4   4   4   4   4
#     4   9  19  34  60  98 118 156 204 262 332 366
#     4  11  22  39  70  87 127 161 219 270 320 370
#     4  11  19  36  60  86 128 172 196 268 308 388
#     4   9  18  33  61  89 117 154 214 254 307 372
#     4  11  24  37  57  92 133 163 208 245 329 381
#     4  10  19  37  59  93 119 157 209 258 308 385
#     4  10  22  39  63  97 118 166 217 270 317 373
#     4  11  23  39  61  91 132 159 203 268 320 382
#
# _framework density 18.854783000000001
#
# number of rings (size 3 to 8) (size 9 to 14) (size 15 to 20)
#    0.000    1.714    4.286    1.286    4.000    5.143 
#    0.000    0.000    6.286    0.000    0.000    0.000 
#    0.000    0.000    0.000    0.000    0.000    0.000 
#
# Total GULP energy -156078.550304 kJ/mol
# GULP energy per Si atom -5574.233939 kJ/mol
# Density = 1.881187 g / cm^3
# Si number density = 18.854783 Si / 1000 Ang^3
#
#
#
# Elastic Constant Matrix: (Units=GPa)
#
#
# Indices 1 2 3 4 5 6 
#
# 1 90.4138 8.4351 40.6335 0.0000 0.0000 0.0000
# 2 8.4351 80.1443 26.0429 0.0000 0.0000 0.0000
# 3 40.6335 26.0429 82.0612 0.0000 0.0000 0.0000
# 4 0.0000 0.0000 0.0000 31.3417 0.0000 0.0000
# 5 0.0000 0.0000 0.0000 0.0000 16.3945 0.0000
# 6 0.0000 0.0000 0.0000 0.0000 0.0000 28.2377
#
#
#
# Elastic Compliance Matrix: (Units=1/GPa)
#
#
# Indices 1 2 3 4 5 6 
#
# 1 0.014282 0.000886 -0.007353 0.000000 0.000000 0.000000
# 2 0.000886 0.013967 -0.004871 0.000000 0.000000 0.000000
# 3 -0.007353 -0.004871 0.017373 0.000000 0.000000 0.000000
# 4 0.000000 0.000000 0.000000 0.031906 0.000000 0.000000
# 5 0.000000 0.000000 0.000000 0.000000 0.060996 0.000000
# 6 0.000000 0.000000 0.000000 0.000000 0.000000 0.035414
#
#
# Mechanical properties :
#
#
# Convention : Reuss Voigt Hill
#
# Bulk Modulus (GPa) = 43.58139 44.76027 44.17083
# Shear Modulus (GPa) = 24.47813 27.02864 25.75339
#
# Velocity S-wave (km/s) = 3.60703 3.79029 3.69979
# Velocity P-wave (km/s) = 6.36490 6.55332 6.45980
#
# Compressibility (1/GPa) = 0.02294557
#
# Stress axis : x y z
#
# Youngs Moduli (GPa) = 70.01694 71.59631 57.56034
#
# Poissons Ratio (x) = -0.06345 0.42326
# Poissons Ratio (y) = -0.06205 0.28040
# Poissons Ratio (z) = 0.51485 0.34878
#
# Static dielectric constant tensor:
#      x y z
#    x 1.664940 0.000000 0.000000 
#    y 0.000000 1.730110 0.000000 
#    z 0.000000 0.000000 1.660260 
# 
# From -- ./inp_files/3519.got.cif
#   From: 2010.05.17/outbox.cif.g08.bks.cpg/sg18_2_cif.got.tgz:3519.got - 2010.06.03 22:40:56.
