data_PCOD9311527
_publ_section_title
;
Structure prediction by ZEFSAII (Michael W. Deem and Ramdas Pophale) SiO2 
 PCOD9311527
Probable space group: P 2 2 21
;
_chemical_formula_sum "Si O2"
_cell_formula_units_Z 20
_cell_length_a 11.627496
_cell_length_b 5.616119
_cell_length_c 11.697916
_cell_angle_alpha 90.000000
_cell_angle_beta 90.000000
_cell_angle_gamma 90.000000
_cell_volume 763.890306
_symmetry_space_group_name_H-M "P 2 2 21"
_symmetry_group_IT_number 17
_symmetry_cell_setting 'orthorhombic'
loop_
_space_group_symop_operation_xyz
x,y,z
-x,-y,1/2+z
x,-y,-z
-x,y,1/2-z
loop_
_atom_site_type_symbol
_atom_site_label
_atom_site_fract_x
_atom_site_fract_y
_atom_site_fract_z
Si Si1 0.082796 0.000000 0.500000
Si Si2 0.131342 0.629266 0.226025
Si Si3 0.349878 0.096870 0.794119
Si Si4 0.949224 0.500000 0.500000
Si Si5 0.545377 0.279784 0.935577
Si Si6 0.737883 0.250540 0.135337
O O1 0.016530 0.248342 0.512912
O O2 0.168412 0.047776 0.393931
O O3 0.221414 0.821972 0.180465
O O4 0.185644 0.477301 0.330534
O O5 0.000000 0.704777 0.250000
O O6 0.119902 0.458018 0.116314
O O7 0.440779 0.112400 0.895077
O O8 0.390995 0.272736 0.688688
O O9 0.340651 0.836628 0.739442
O O10 0.649645 0.749619 0.972036
O O11 0.485506 0.500000 0.000000
#
# Coordination Sequence:
#
# PCOD9311527 Si02
#       6
#     2   4   4   2   4   4
#     4  12  26  50  84 116 168 218 272 346 426 500
#     4  12  27  48  81 120 160 216 273 342 423 501
#     4  11  26  48  77 118 151 208 282 340 421 496
#     4  12  30  50  76 122 174 216 274 358 410 508
#     4  11  24  50  76 110 156 211 272 342 415 506
#     4  12  25  49  81 114 156 220 274 345 420 515
#
# _framework density 26.181768000000002
#
# number of rings (size 3 to 8) (size 9 to 14) (size 15 to 20)
#    0.000    0.400    6.000    1.200    5.600    0.800 
#   10.800    0.000    0.000    0.000    0.000    0.000 
#    0.000    0.000    0.000    0.000    0.000    0.000 
#
# Total GULP energy -111499.333000 kJ/mol
# GULP energy per Si atom -5574.966650 kJ/mol
# Density = 2.612218 g / cm^3
# Si number density = 26.181768 Si / 1000 Ang^3
#
#
#
# Elastic Constant Matrix: (Units=GPa)
#
#
# Indices 1 2 3 4 5 6 
#
# 1 174.6333 49.3045 65.2938 0.0000 0.0000 0.0000
# 2 49.3045 99.7472 25.3082 0.0000 0.0000 0.0000
# 3 65.2938 25.3082 131.8637 0.0000 0.0000 0.0000
# 4 0.0000 0.0000 0.0000 41.9430 0.0000 0.0000
# 5 0.0000 0.0000 0.0000 0.0000 44.7478 0.0000
# 6 0.0000 0.0000 0.0000 0.0000 0.0000 -53.5033
#
#
#
# Elastic Compliance Matrix: (Units=1/GPa)
#
#
# Indices 1 2 3 4 5 6 
#
# 1 0.007809 -0.003026 -0.003286 0.000000 0.000000 0.000000
# 2 -0.003026 0.011711 -0.000749 0.000000 0.000000 0.000000
# 3 -0.003286 -0.000749 0.009354 0.000000 0.000000 0.000000
# 4 0.000000 0.000000 0.000000 0.023842 0.000000 0.000000
# 5 0.000000 0.000000 0.000000 0.000000 0.022347 0.000000
# 6 0.000000 0.000000 0.000000 0.000000 0.000000 -0.018690
#
#
# Mechanical properties :
#
#
# Convention : Reuss Voigt Hill
#
# Bulk Modulus (GPa) = 67.78745 76.22860 72.00802
# Shear Modulus (GPa) = 66.30017 24.39337 45.34677
#
# Velocity S-wave (km/s) = 5.03766 3.05568 4.16624
# Velocity P-wave (km/s) = 7.73205 6.45197 7.12083
#
# Compressibility (1/GPa) = 0.01475199
#
# Stress axis : x y z
#
# Youngs Moduli (GPa) = 128.05165 85.38731 106.90042
#
# Poissons Ratio (x) = 0.25841 0.35128
# Poissons Ratio (y) = 0.38753 0.08009
# Poissons Ratio (z) = 0.42078 0.06397
#
# Static dielectric constant tensor:
#      x y z
#    x 2.042460 0.000000 0.000000 
#    y 0.000000 2.282480 0.000000 
#    z 0.000000 0.000000 2.140900 
# 
# From -- ./inp_files/8362.got.cif
#   From: 2010.05.17/outbox.cif.g08.bks.cpg/sg17_5_cif.got.tgz:8362.got - 2010.06.03 22:34:06.
