data_PCOD9311491
_publ_section_title
;
Structure prediction by ZEFSAII (Michael W. Deem and Ramdas Pophale) SiO2 
 PCOD9311491
Probable space group: P 2 2 21
;
_chemical_formula_sum "Si O2"
_cell_formula_units_Z 16
_cell_length_a 5.072366
_cell_length_b 5.134590
_cell_length_c 24.860052
_cell_angle_alpha 90.000000
_cell_angle_beta 90.000000
_cell_angle_gamma 90.000000
_cell_volume 647.468115
_symmetry_space_group_name_H-M "P 2 2 21"
_symmetry_group_IT_number 17
_symmetry_cell_setting 'orthorhombic'
loop_
_space_group_symop_operation_xyz
x,y,z
-x,-y,1/2+z
x,-y,-z
-x,y,1/2-z
loop_
_atom_site_type_symbol
_atom_site_label
_atom_site_fract_x
_atom_site_fract_y
_atom_site_fract_z
Si Si1 0.530016 0.538805 0.836493
Si Si2 0.177449 0.020479 0.697601
Si Si3 0.165982 0.810042 0.105430
Si Si4 0.335770 0.643050 0.445297
O O1 0.243357 0.428438 0.853299
O O2 0.677507 0.299601 0.806920
O O3 0.654465 0.559693 0.896081
O O4 0.596475 0.802972 0.807047
O O5 0.980724 0.999630 0.646231
O O6 0.000000 0.995733 0.750000
O O7 0.957298 0.752229 0.058602
O O8 0.444459 0.850612 0.075328
O O9 0.400719 0.500000 0.500000
#
# Coordination Sequence:
#
# PCOD9311491 Si02
#       4
#     4   4   4   4
#     4   9  23  40  67 101 139 173 239 284 346 423
#     4  11  22  44  70 100 140 192 230 295 355 418
#     4   9  21  40  64 103 139 172 237 286 343 428
#     4   9  18  40  71  97 138 184 228 291 360 415
#
# _framework density 24.711642000000001
#
# number of rings (size 3 to 8) (size 9 to 14) (size 15 to 20)
#    1.500    1.000    0.000    1.500    0.000    5.000 
#    0.000    7.500    5.500    0.000    0.000    0.000 
#    0.000    0.000    0.000    0.000    0.000    0.000 
#
# Total GULP energy -89205.136386 kJ/mol
# GULP energy per Si atom -5575.321024 kJ/mol
# Density = 2.465540 g / cm^3
# Si number density = 24.711642 Si / 1000 Ang^3
#
#
#
# Elastic Constant Matrix: (Units=GPa)
#
#
# Indices 1 2 3 4 5 6 
#
# 1 141.9795 24.5592 -4.2332 0.0000 0.0000 0.0000
# 2 24.5592 111.0364 6.5176 0.0000 0.0000 0.0000
# 3 -4.2332 6.5176 65.5174 0.0000 0.0000 0.0000
# 4 0.0000 0.0000 0.0000 27.8839 0.0000 0.0000
# 5 0.0000 0.0000 0.0000 0.0000 36.9293 0.0000
# 6 0.0000 0.0000 0.0000 0.0000 0.0000 43.0469
#
#
#
# Elastic Compliance Matrix: (Units=1/GPa)
#
#
# Indices 1 2 3 4 5 6 
#
# 1 0.007350 -0.001663 0.000640 0.000000 0.000000 0.000000
# 2 -0.001663 0.009435 -0.001046 0.000000 0.000000 0.000000
# 3 0.000640 -0.001046 0.015409 0.000000 0.000000 0.000000
# 4 0.000000 0.000000 0.000000 0.035863 0.000000 0.000000
# 5 0.000000 0.000000 0.000000 0.000000 0.027079 0.000000
# 6 0.000000 0.000000 0.000000 0.000000 0.000000 0.023230
#
#
# Mechanical properties :
#
#
# Convention : Reuss Voigt Hill
#
# Bulk Modulus (GPa) = 35.64305 41.35784 38.50045
# Shear Modulus (GPa) = 37.92009 41.01800 39.46904
#
# Velocity S-wave (km/s) = 3.92152 4.07856 4.00081
# Velocity P-wave (km/s) = 5.91264 6.24116 6.07912
#
# Compressibility (1/GPa) = 0.02805596
#
# Stress axis : x y z
#
# Youngs Moduli (GPa) = 136.05299 105.98444 64.89897
#
# Poissons Ratio (x) = 0.17628 -0.04156
# Poissons Ratio (y) = 0.22630 0.06789
# Poissons Ratio (z) = -0.08712 0.11087
#
# Static dielectric constant tensor:
#      x y z
#    x 2.014380 0.000000 0.000000 
#    y 0.000000 1.989090 0.000000 
#    z 0.000000 0.000000 1.942350 
# 
# From -- ./inp_files/10704.got.cif
#   From: 2010.05.17/outbox.cif.g08.bks.cpg/sg17_6_cif.got.tgz:10704.got - 2010.06.03 22:34:06.
