data_PCOD9311229
_publ_section_title
;
Structure prediction by ZEFSAII (Michael W. Deem and Ramdas Pophale) SiO2 
 PCOD9311229
Probable space group: P 2 2 21
;
_chemical_formula_sum "Si O2"
_cell_formula_units_Z 24
_cell_length_a 8.386311
_cell_length_b 10.930897
_cell_length_c 11.611289
_cell_angle_alpha 90.000000
_cell_angle_beta 90.000000
_cell_angle_gamma 90.000000
_cell_volume 1064.405722
_symmetry_space_group_name_H-M "P 2 2 21"
_symmetry_group_IT_number 17
_symmetry_cell_setting 'orthorhombic'
loop_
_space_group_symop_operation_xyz
x,y,z
-x,-y,1/2+z
x,-y,-z
-x,y,1/2-z
loop_
_atom_site_type_symbol
_atom_site_label
_atom_site_fract_x
_atom_site_fract_y
_atom_site_fract_z
Si Si1 0.156959 0.106395 0.316184
Si Si2 0.810220 0.825598 0.183924
Si Si3 0.878862 0.282536 0.595658
Si Si4 0.598330 0.144858 0.998809
Si Si5 0.385173 0.488317 0.861211
Si Si6 0.297687 0.757826 0.875848
O O1 0.238387 0.164350 0.428101
O O2 0.286500 0.136157 0.218011
O O3 0.000000 0.152647 0.250000
O O4 0.134625 0.963710 0.344917
O O5 0.804596 0.819254 0.320389
O O6 0.936844 0.726383 0.135201
O O7 0.640360 0.809714 0.127322
O O8 0.770093 0.400368 0.624564
O O9 0.849982 0.247485 0.464246
O O10 0.452951 0.215820 0.049990
O O11 0.565786 0.000000 0.000000
O O12 0.500000 0.453835 0.750000
O O13 0.321370 0.622900 0.825980
O O14 0.444473 0.500000 0.000000
#
# Coordination Sequence:
#
# PCOD9311229 Si02
#       6
#     4   4   4   4   4   4
#     4  11  21  39  61  91 133 170 206 266 335 395
#     4  10  22  41  62  94 127 165 222 268 328 400
#     4  10  22  41  66  88 124 178 221 273 323 394
#     4  10  23  36  61  97 128 164 211 264 330 407
#     4  10  23  43  68  96 131 177 231 284 341 403
#     4  11  24  41  65  93 135 169 217 274 339 396
#
# _framework density 22.547792999999999
#
# number of rings (size 3 to 8) (size 9 to 14) (size 15 to 20)
#    0.000    1.667    1.667    2.500    7.000    0.000 
#    3.000    0.000   14.667    0.000    0.000    0.000 
#    0.000    0.000    0.000    0.000    0.000    0.000 
#
# Total GULP energy -133642.761668 kJ/mol
# GULP energy per Si atom -5568.448403 kJ/mol
# Density = 2.249647 g / cm^3
# Si number density = 22.547793 Si / 1000 Ang^3
#
#
#
# Elastic Constant Matrix: (Units=GPa)
#
#
# Indices 1 2 3 4 5 6 
#
# 1 43.4009 31.3438 8.6910 0.0000 0.0000 0.0000
# 2 31.3438 59.9022 23.7710 0.0000 0.0000 0.0000
# 3 8.6910 23.7710 79.3143 0.0000 0.0000 0.0000
# 4 0.0000 0.0000 0.0000 24.4051 0.0000 0.0000
# 5 0.0000 0.0000 0.0000 0.0000 41.1173 0.0000
# 6 0.0000 0.0000 0.0000 0.0000 0.0000 16.5480
#
#
#
# Elastic Compliance Matrix: (Units=1/GPa)
#
#
# Indices 1 2 3 4 5 6 
#
# 1 0.037314 -0.020319 0.002001 0.000000 0.000000 0.000000
# 2 -0.020319 0.030011 -0.006768 0.000000 0.000000 0.000000
# 3 0.002001 -0.006768 0.014417 0.000000 0.000000 0.000000
# 4 0.000000 0.000000 0.000000 0.040975 0.000000 0.000000
# 5 0.000000 0.000000 0.000000 0.000000 0.024321 0.000000
# 6 0.000000 0.000000 0.000000 0.000000 0.000000 0.060430
#
#
# Mechanical properties :
#
#
# Convention : Reuss Voigt Hill
#
# Bulk Modulus (GPa) = 31.67458 34.46989 33.07224
# Shear Modulus (GPa) = 18.64525 24.33485 21.49005
#
# Velocity S-wave (km/s) = 2.87874 3.28877 3.09056
# Velocity P-wave (km/s) = 5.01276 5.45362 5.23783
#
# Compressibility (1/GPa) = 0.03157106
#
# Stress axis : x y z
#
# Youngs Moduli (GPa) = 26.79933 33.32064 69.36126
#
# Poissons Ratio (x) = 0.67703 -0.13878
# Poissons Ratio (y) = 0.54453 0.46945
# Poissons Ratio (z) = -0.05362 0.22552
#
# Static dielectric constant tensor:
#      x y z
#    x 1.892970 0.000000 0.000000 
#    y 0.000000 1.822790 0.000000 
#    z 0.000000 0.000000 1.896910 
# 
# From -- ./inp_files/6561.got.cif
#   From: 2010.05.17/outbox.cif.g08.bks.cpg/sg17_4_cif.got.tgz:6561.got - 2010.06.03 22:34:06.
