data_PCOD9311939
_publ_section_title
;
Structure prediction by ZEFSAII (Michael W. Deem and Ramdas Pophale) SiO2 
 PCOD9311939
Probable space group: P 21 21 2
;
_chemical_formula_sum "Si O2"
_cell_formula_units_Z 28
_cell_length_a 9.939453
_cell_length_b 13.722844
_cell_length_c 8.822238
_cell_angle_alpha 90.000000
_cell_angle_beta 90.000000
_cell_angle_gamma 90.000000
_cell_volume 1203.331763
_symmetry_space_group_name_H-M "P 21 21 2"
_symmetry_group_IT_number 18
_symmetry_cell_setting 'orthorhombic'
loop_
_space_group_symop_operation_xyz
x,y,z
-x,-y,z
1/2+x,1/2-y,-z
1/2-x,1/2+y,-z
loop_
_atom_site_type_symbol
_atom_site_label
_atom_site_fract_x
_atom_site_fract_y
_atom_site_fract_z
Si Si1 0.153257 0.849067 0.488637
Si Si2 0.295208 0.486511 0.258798
Si Si3 0.885871 0.150564 0.167415
Si Si4 0.422017 0.865266 0.135958
Si Si5 0.051500 0.623077 0.194424
Si Si6 0.997743 0.859286 0.871882
Si Si7 0.458071 0.825584 0.461141
O O1 0.190859 0.948636 0.572134
O O2 0.079373 0.877848 0.335769
O O3 0.298991 0.799970 0.457851
O O4 0.055905 0.767628 0.559218
O O5 0.155251 0.534797 0.217709
O O6 0.400576 0.570562 0.218989
O O7 0.349535 0.387936 0.176381
O O8 0.736307 0.112240 0.134728
O O9 0.882205 0.269471 0.168247
O O10 0.997361 0.117610 0.049561
O O11 0.448812 0.749583 0.139782
O O12 0.476401 0.890939 0.307162
O O13 0.481398 0.893123 0.970851
O O14 0.984189 0.635831 0.364740
#
# Coordination Sequence:
#
# PCOD9311939 Si02
#       7
#     4   4   4   4   4   4   4
#     4  10  22  41  69  96 141 178 233 288 348 412
#     4  11  22  40  64  98 138 173 213 297 354 398
#     4   9  20  41  64  93 127 179 234 275 330 438
#     4  10  19  40  67  93 125 181 230 282 326 423
#     4  10  22  37  66  99 130 174 232 277 346 412
#     4  10  21  38  66  92 133 173 219 278 354 403
#     4  10  22  41  67  99 130 186 238 278 337 431
#
# _framework density 23.268729
#
# number of rings (size 3 to 8) (size 9 to 14) (size 15 to 20)
#    0.000    2.000    2.857    0.000    2.000    0.571 
#    5.143    2.857    0.000    0.000    0.000    0.000 
#    0.000    0.000    0.000    0.000    0.000    0.000 
#
# Total GULP energy -155897.420824 kJ/mol
# GULP energy per Si atom -5567.765029 kJ/mol
# Density = 2.321577 g / cm^3
# Si number density = 23.268729 Si / 1000 Ang^3
#
#
#
# Elastic Constant Matrix: (Units=GPa)
#
#
# Indices 1 2 3 4 5 6 
#
# 1 58.2396 20.1043 42.0345 0.0000 0.0000 0.0000
# 2 20.1043 98.5490 18.1440 0.0000 0.0000 0.0000
# 3 42.0345 18.1440 148.8235 0.0000 0.0000 0.0000
# 4 0.0000 0.0000 0.0000 -44.6217 0.0000 0.0000
# 5 0.0000 0.0000 0.0000 0.0000 13.6776 0.0000
# 6 0.0000 0.0000 0.0000 0.0000 0.0000 39.3456
#
#
#
# Elastic Compliance Matrix: (Units=1/GPa)
#
#
# Indices 1 2 3 4 5 6 
#
# 1 0.022708 -0.003531 -0.005983 0.000000 0.000000 0.000000
# 2 -0.003531 0.010929 -0.000335 0.000000 0.000000 0.000000
# 3 -0.005983 -0.000335 0.008450 0.000000 0.000000 0.000000
# 4 0.000000 0.000000 0.000000 -0.022411 0.000000 0.000000
# 5 0.000000 0.000000 0.000000 0.000000 0.073112 0.000000
# 6 0.000000 0.000000 0.000000 0.000000 0.000000 0.025416
#
#
# Mechanical properties :
#
#
# Convention : Reuss Voigt Hill
#
# Bulk Modulus (GPa) = 44.66560 51.79751 48.23155
# Shear Modulus (GPa) = 34.39600 16.70225 25.54912
#
# Velocity S-wave (km/s) = 3.84892 2.68208 3.31721
# Velocity P-wave (km/s) = 6.24415 5.64804 5.95356
#
# Compressibility (1/GPa) = 0.02238859
#
# Stress axis : x y z
#
# Youngs Moduli (GPa) = 44.03798 91.49750 118.34096
#
# Poissons Ratio (x) = 0.32307 0.70806
# Poissons Ratio (y) = 0.15549 0.03966
# Poissons Ratio (z) = 0.26349 0.03067
#
# Static dielectric constant tensor:
#      x y z
#    x 2.301850 0.000000 0.000000 
#    y 0.000000 1.885330 0.000000 
#    z 0.000000 0.000000 2.045470 
# 
# From -- ./inp_files/3995.got.cif
#   From: 2010.05.17/outbox.cif.g08.bks.cpg/sg18_2_cif.got.tgz:3995.got - 2010.06.03 22:40:56.
