data_PCOD9311900
_publ_section_title
;
Structure prediction by ZEFSAII (Michael W. Deem and Ramdas Pophale) SiO2 
 PCOD9311900
Probable space group: P 21 21 2
;
_chemical_formula_sum "Si O2"
_cell_formula_units_Z 30
_cell_length_a 14.663179
_cell_length_b 10.688788
_cell_length_c 7.392733
_cell_angle_alpha 90.000000
_cell_angle_beta 90.000000
_cell_angle_gamma 90.000000
_cell_volume 1158.674958
_symmetry_space_group_name_H-M "P 21 21 2"
_symmetry_group_IT_number 18
_symmetry_cell_setting 'orthorhombic'
loop_
_space_group_symop_operation_xyz
x,y,z
-x,-y,z
1/2+x,1/2-y,-z
1/2-x,1/2+y,-z
loop_
_atom_site_type_symbol
_atom_site_label
_atom_site_fract_x
_atom_site_fract_y
_atom_site_fract_z
Si Si1 0.084650 0.906435 0.485923
Si Si2 0.062511 0.885215 0.921583
Si Si3 0.500000 0.000000 0.979447
Si Si4 0.771380 0.901162 0.381416
Si Si5 0.646870 0.988834 0.693509
Si Si6 0.562445 0.228683 0.545280
Si Si7 0.407190 0.784431 0.137128
Si Si8 0.742028 0.709133 0.099985
O O1 0.088703 0.901038 0.706690
O O2 0.040182 0.775501 0.423447
O O3 0.177313 0.963124 0.401068
O O4 0.000000 0.000000 0.446793
O O5 0.158162 0.852797 0.006002
O O6 0.994697 0.772976 0.958417
O O7 0.000000 0.000000 0.977228
O O8 0.574778 0.939219 0.841086
O O9 0.569728 0.071894 0.111093
O O10 0.860366 0.811412 0.358282
O O11 0.713900 0.829198 0.224196
O O12 0.708441 0.903371 0.561764
O O13 0.585998 0.084874 0.573415
O O14 0.712773 0.090234 0.795376
O O15 0.586237 0.260576 0.338819
O O16 0.315808 0.743869 0.042777
#
# Coordination Sequence:
#
# PCOD9311900 Si02
#       8
#     4   4   2   4   4   4   4   4
#     4   8  15  32  61  88 119 163 210 268 320 399
#     4  10  20  40  67  94 128 184 223 271 348 419
#     4  10  24  42  56  88 140 172 214 292 342 404
#     4  10  19  37  66  97 123 172 223 281 341 391
#     4  10  21  39  61  92 128 174 221 279 341 400
#     4   9  20  37  62  92 127 171 223 265 339 423
#     4  10  23  43  65  97 136 177 227 279 353 418
#     4  10  22  40  64  99 137 165 229 293 335 413
#
# _framework density 25.891643999999999
#
# number of rings (size 3 to 8) (size 9 to 14) (size 15 to 20)
#    0.000    2.400    1.333    0.800    0.000    4.800 
#    4.800    6.000    0.000    0.000    0.000    0.000 
#    0.000    0.000    0.000    0.000    0.000    0.000 
#
# Total GULP energy -167198.303764 kJ/mol
# GULP energy per Si atom -5573.276792 kJ/mol
# Density = 2.583271 g / cm^3
# Si number density = 25.891644 Si / 1000 Ang^3
#
#
#
# Elastic Constant Matrix: (Units=GPa)
#
#
# Indices 1 2 3 4 5 6 
#
# 1 128.5223 22.6711 20.7072 0.0000 0.0000 0.0000
# 2 22.6711 32.9334 18.4022 0.0000 0.0000 0.0000
# 3 20.7072 18.4022 33.1834 0.0000 0.0000 0.0000
# 4 0.0000 0.0000 0.0000 -22.6558 0.0000 0.0000
# 5 0.0000 0.0000 0.0000 0.0000 61.8378 0.0000
# 6 0.0000 0.0000 0.0000 0.0000 0.0000 41.0016
#
#
#
# Elastic Compliance Matrix: (Units=1/GPa)
#
#
# Indices 1 2 3 4 5 6 
#
# 1 0.009083 -0.004471 -0.003189 0.000000 0.000000 0.000000
# 2 -0.004471 0.046199 -0.022830 0.000000 0.000000 0.000000
# 3 -0.003189 -0.022830 0.044786 0.000000 0.000000 0.000000
# 4 0.000000 0.000000 0.000000 -0.044139 0.000000 0.000000
# 5 0.000000 0.000000 0.000000 0.000000 0.016171 0.000000
# 6 0.000000 0.000000 0.000000 0.000000 0.000000 0.024389
#
#
# Mechanical properties :
#
#
# Convention : Reuss Voigt Hill
#
# Bulk Modulus (GPa) = 25.58290 35.35554 30.46922
# Shear Modulus (GPa) = 29.32573 24.89397 27.10985
#
# Velocity S-wave (km/s) = 3.36911 3.10412 3.23933
# Velocity P-wave (km/s) = 5.00367 5.15094 5.07784
#
# Compressibility (1/GPa) = 0.03908861
#
# Stress axis : x y z
#
# Youngs Moduli (GPa) = 110.09350 21.64556 22.32841
#
# Poissons Ratio (x) = 0.09678 0.07120
# Poissons Ratio (y) = 0.49224 0.50976
# Poissons Ratio (z) = 0.35105 0.49417
#
# Static dielectric constant tensor:
#      x y z
#    x 2.154000 0.000000 0.000000 
#    y 0.000000 -1.455990 0.000000 
#    z 0.000000 0.000000 2.085800 
# 
# From -- ./inp_files/4268.got.cif
#   From: 2010.05.17/outbox.cif.g08.bks.cpg/sg18_3_cif.got.tgz:4268.got - 2010.06.03 22:40:56.
