data_PCOD9311362
_publ_section_title
;
Structure prediction by ZEFSAII (Michael W. Deem and Ramdas Pophale) SiO2 
 PCOD9311362
Probable space group: P 2 2 21
;
_chemical_formula_sum "Si O2"
_cell_formula_units_Z 24
_cell_length_a 9.421721
_cell_length_b 7.623866
_cell_length_c 14.761565
_cell_angle_alpha 90.000000
_cell_angle_beta 90.000000
_cell_angle_gamma 90.000000
_cell_volume 1060.322305
_symmetry_space_group_name_H-M "P 2 2 21"
_symmetry_group_IT_number 17
_symmetry_cell_setting 'orthorhombic'
loop_
_space_group_symop_operation_xyz
x,y,z
-x,-y,1/2+z
x,-y,-z
-x,y,1/2-z
loop_
_atom_site_type_symbol
_atom_site_label
_atom_site_fract_x
_atom_site_fract_y
_atom_site_fract_z
Si Si1 0.584685 0.220212 0.356019
Si Si2 0.142492 0.285374 0.689557
Si Si3 0.765646 0.211703 0.515523
Si Si4 0.270825 0.664465 0.686396
Si Si5 0.081709 0.209312 0.483783
Si Si6 0.369631 0.834866 0.199678
O O1 0.640713 0.275917 0.452533
O O2 0.714210 0.249208 0.285660
O O3 0.436139 0.316350 0.341288
O O4 0.561901 0.010678 0.343471
O O5 0.216570 0.470717 0.706908
O O6 0.129443 0.280972 0.581402
O O7 0.250890 0.136222 0.723670
O O8 0.000000 0.269859 0.750000
O O9 0.720623 0.249952 0.618187
O O10 0.918172 0.272435 0.480174
O O11 0.769583 0.000000 0.500000
O O12 0.172842 0.740229 0.604926
O O13 0.083927 0.000000 0.500000
O O14 0.500000 0.739688 0.250000
#
# Coordination Sequence:
#
# PCOD9311362 Si02
#       6
#     4   4   4   4   4   4
#     4  10  23  46  67 104 132 183 245 286 348 409
#     4  12  27  46  67 103 146 185 229 288 365 429
#     4   9  21  40  67 100 134 170 235 298 340 399
#     4  11  25  44  66  99 143 182 227 285 358 431
#     4  11  24  45  72 103 134 183 242 292 345 417
#     4  11  22  43  72 100 136 184 240 299 343 414
#
# _framework density 22.634629
#
# number of rings (size 3 to 8) (size 9 to 14) (size 15 to 20)
#    0.000    1.333    3.333    1.500    7.000    0.667 
#    0.000    0.833    0.000    0.000    0.000    0.000 
#    0.000    0.000    0.000    0.000    0.000    0.000 
#
# Total GULP energy -133807.319413 kJ/mol
# GULP energy per Si atom -5575.304976 kJ/mol
# Density = 2.258311 g / cm^3
# Si number density = 22.634629 Si / 1000 Ang^3
#
#
#
# Elastic Constant Matrix: (Units=GPa)
#
#
# Indices 1 2 3 4 5 6 
#
# 1 139.3130 15.4334 44.8999 0.0000 0.0000 0.0000
# 2 15.4334 50.2770 -13.0284 0.0000 0.0000 0.0000
# 3 44.8999 -13.0284 109.7844 0.0000 0.0000 0.0000
# 4 0.0000 0.0000 0.0000 12.2176 0.0000 0.0000
# 5 0.0000 0.0000 0.0000 0.0000 48.6304 0.0000
# 6 0.0000 0.0000 0.0000 0.0000 0.0000 17.6680
#
#
#
# Elastic Compliance Matrix: (Units=1/GPa)
#
#
# Indices 1 2 3 4 5 6 
#
# 1 0.008920 -0.003800 -0.004099 0.000000 0.000000 0.000000
# 2 -0.003800 0.022140 0.004182 0.000000 0.000000 0.000000
# 3 -0.004099 0.004182 0.011282 0.000000 0.000000 0.000000
# 4 0.000000 0.000000 0.000000 0.081849 0.000000 0.000000
# 5 0.000000 0.000000 0.000000 0.000000 0.020563 0.000000
# 6 0.000000 0.000000 0.000000 0.000000 0.000000 0.056600
#
#
# Mechanical properties :
#
#
# Convention : Reuss Voigt Hill
#
# Bulk Modulus (GPa) = 28.64844 43.77600 36.21222
# Shear Modulus (GPa) = 22.68342 32.50782 27.59562
#
# Velocity S-wave (km/s) = 3.16912 3.79383 3.49546
# Velocity P-wave (km/s) = 5.10641 6.21073 5.68545
#
# Compressibility (1/GPa) = 0.03490592
#
# Stress axis : x y z
#
# Youngs Moduli (GPa) = 112.10424 45.16702 88.64036
#
# Poissons Ratio (x) = 0.17166 0.36336
# Poissons Ratio (y) = 0.42605 -0.37067
# Poissons Ratio (z) = 0.45954 -0.18888
#
# Static dielectric constant tensor:
#      x y z
#    x 1.829510 0.000000 0.000000 
#    y 0.000000 1.937890 0.000000 
#    z 0.000000 0.000000 1.889640 
# 
# From -- ./inp_files/8113.got.cif
#   From: 2010.05.17/outbox.cif.g08.bks.cpg/sg17_5_cif.got.tgz:8113.got - 2010.06.03 22:34:06.
