data_PCOD9311074
_publ_section_title
;
Structure prediction by ZEFSAII (Michael W. Deem and Ramdas Pophale) SiO2 
 PCOD9311074
Probable space group: P 2 2 21
;
_chemical_formula_sum "Si O2"
_cell_formula_units_Z 16
_cell_length_a 25.214237
_cell_length_b 5.353496
_cell_length_c 5.024202
_cell_angle_alpha 90.000000
_cell_angle_beta 90.000000
_cell_angle_gamma 90.000000
_cell_volume 678.188475
_symmetry_space_group_name_H-M "P 2 2 21"
_symmetry_group_IT_number 17
_symmetry_cell_setting 'orthorhombic'
loop_
_space_group_symop_operation_xyz
x,y,z
-x,-y,1/2+z
x,-y,-z
-x,y,1/2-z
loop_
_atom_site_type_symbol
_atom_site_label
_atom_site_fract_x
_atom_site_fract_y
_atom_site_fract_z
Si Si1 0.659826 0.000000 0.500000
Si Si2 0.411694 0.000000 0.500000
Si Si3 0.500000 0.648204 0.250000
Si Si4 0.887245 0.178617 0.752437
Si Si5 0.275517 0.500000 0.000000
Si Si6 0.000000 0.814119 0.250000
Si Si7 0.205155 0.500000 0.500000
O O1 0.692332 0.249686 0.580608
O O2 0.624615 0.080509 0.246431
O O3 0.451929 0.200770 0.621665
O O4 0.522922 0.500000 0.500000
O O5 0.943482 0.326403 0.739429
O O6 0.878940 0.000000 0.500000
O O7 0.835473 0.330493 0.829877
O O8 0.895463 0.000000 0.000000
O O9 0.242385 0.592899 0.740338
O O10 0.996611 0.000000 0.500000
#
# Coordination Sequence:
#
# PCOD9311074 Si02
#       7
#     2   2   2   4   2   2   2
#     4  12  29  52  80 108 156 208 263 322 378 446
#     4  12  27  50  76 120 156 212 257 304 388 448
#     4  12  26  46  80 122 168 206 252 314 370 466
#     4  10  21  39  66  96 137 182 227 301 377 471
#     4  12  30  50  75 110 145 200 268 330 374 446
#     4   8  16  34  58  92 132 176 222 276 374 466
#     4  12  26  44  71 104 133 190 250 316 394 440
#
# _framework density 23.59226
#
# number of rings (size 3 to 8) (size 9 to 14) (size 15 to 20)
#    0.000    1.000    0.000    6.000   10.500    0.000 
#    0.000    8.750    0.000    0.000    0.000    0.000 
#    0.000    0.000    0.000    0.000    0.000    0.000 
#
# Total GULP energy -89355.630390 kJ/mol
# GULP energy per Si atom -5584.726899 kJ/mol
# Density = 2.353856 g / cm^3
# Si number density = 23.592260 Si / 1000 Ang^3
#
#
#
# Elastic Constant Matrix: (Units=GPa)
#
#
# Indices 1 2 3 4 5 6 
#
# 1 123.4125 45.5512 51.0425 0.0000 0.0000 0.0000
# 2 45.5512 81.6421 39.1788 0.0000 0.0000 0.0000
# 3 51.0425 39.1788 206.6938 0.0000 0.0000 0.0000
# 4 0.0000 0.0000 0.0000 55.0425 0.0000 0.0000
# 5 0.0000 0.0000 0.0000 0.0000 38.1231 0.0000
# 6 0.0000 0.0000 0.0000 0.0000 0.0000 31.6285
#
#
#
# Elastic Compliance Matrix: (Units=1/GPa)
#
#
# Indices 1 2 3 4 5 6 
#
# 1 0.010699 -0.005172 -0.001662 0.000000 0.000000 0.000000
# 2 -0.005172 0.015974 -0.001751 0.000000 0.000000 0.000000
# 3 -0.001662 -0.001751 0.005580 0.000000 0.000000 0.000000
# 4 0.000000 0.000000 0.000000 0.018168 0.000000 0.000000
# 5 0.000000 0.000000 0.000000 0.000000 0.026231 0.000000
# 6 0.000000 0.000000 0.000000 0.000000 0.000000 0.031617
#
#
# Mechanical properties :
#
#
# Convention : Reuss Voigt Hill
#
# Bulk Modulus (GPa) = 66.29179 75.92150 71.10665
# Shear Modulus (GPa) = 38.32394 43.35723 40.84058
#
# Velocity S-wave (km/s) = 4.03479 4.29158 4.16516
# Velocity P-wave (km/s) = 7.06159 7.53707 7.30320
#
# Compressibility (1/GPa) = 0.01508482
#
# Stress axis : x y z
#
# Youngs Moduli (GPa) = 93.46512 62.60025 179.20190
#
# Poissons Ratio (x) = 0.32377 0.29779
# Poissons Ratio (y) = 0.48340 0.31373
# Poissons Ratio (z) = 0.15532 0.10960
#
# Static dielectric constant tensor:
#      x y z
#    x 2.015020 0.000000 0.000000 
#    y 0.000000 2.002120 0.000000 
#    z 0.000000 0.000000 1.817270 
# 
# From -- ./inp_files/2837.got.cif
#   From: 2010.05.17/outbox.cif.g08.bks.cpg/sg17_2_cif.got.tgz:2837.got - 2010.06.03 22:34:06.
