data_PCOD9311297
_publ_section_title
;
Structure prediction by ZEFSAII (Michael W. Deem and Ramdas Pophale) SiO2 
 PCOD9311297
Probable space group: P 2 2 21
;
_chemical_formula_sum "Si O2"
_cell_formula_units_Z 16
_cell_length_a 5.258842
_cell_length_b 23.015006
_cell_length_c 5.248457
_cell_angle_alpha 90.000000
_cell_angle_beta 90.000000
_cell_angle_gamma 90.000000
_cell_volume 635.232718
_symmetry_space_group_name_H-M "P 2 2 21"
_symmetry_group_IT_number 17
_symmetry_cell_setting 'orthorhombic'
loop_
_space_group_symop_operation_xyz
x,y,z
-x,-y,1/2+z
x,-y,-z
-x,y,1/2-z
loop_
_atom_site_type_symbol
_atom_site_label
_atom_site_fract_x
_atom_site_fract_y
_atom_site_fract_z
Si Si1 0.246113 0.126650 0.077740
Si Si2 0.747614 0.252454 0.428162
Si Si3 0.000000 0.344290 0.750000
Si Si4 0.336382 0.000000 0.000000
Si Si5 0.674045 0.565469 0.997996
O O1 0.500000 0.126190 0.250000
O O2 0.259941 0.188583 0.937124
O O3 0.000000 0.131236 0.250000
O O4 0.212999 0.063197 0.952052
O O5 0.500000 0.259043 0.250000
O O6 0.000000 0.254793 0.250000
O O7 0.785946 0.302617 0.632880
O O8 0.113894 0.386027 0.534407
O O9 0.500000 0.008682 0.250000
O O10 0.500000 0.569187 0.250000
O O11 0.783990 0.500000 0.000000
O O12 0.500000 0.573315 0.750000
#
# Coordination Sequence:
#
# PCOD9311297 Si02
#       5
#     4   4   2   2   4
#     4   9  20  44  68 100 144 193 245 311 375 444
#     4  10  25  48  72 107 157 199 256 318 384 460
#     4  12  28  44  80 112 150 208 262 310 396 466
#     4  10  22  44  72 106 140 196 250 312 378 450
#     4  10  26  50  77 112 155 200 255 321 389 466
#
# _framework density 25.187621
#
# number of rings (size 3 to 8) (size 9 to 14) (size 15 to 20)
#    0.000    2.000    0.000    0.000    7.000    7.000 
#   24.750    0.000    0.000    0.000    0.000    0.000 
#    0.000    0.000    0.000    0.000    0.000    0.000 
#
# Total GULP energy -89534.589703 kJ/mol
# GULP energy per Si atom -5595.911856 kJ/mol
# Density = 2.513029 g / cm^3
# Si number density = 25.187621 Si / 1000 Ang^3
#
#
#
# Elastic Constant Matrix: (Units=GPa)
#
#
# Indices 1 2 3 4 5 6 
#
# 1 146.6443 58.3079 43.5985 0.0000 0.0000 0.0000
# 2 58.3079 290.2540 59.7494 0.0000 0.0000 0.0000
# 3 43.5985 59.7494 118.4789 0.0000 0.0000 0.0000
# 4 0.0000 0.0000 0.0000 3.4738 0.0000 0.0000
# 5 0.0000 0.0000 0.0000 0.0000 49.3436 0.0000
# 6 0.0000 0.0000 0.0000 0.0000 0.0000 40.0551
#
#
#
# Elastic Compliance Matrix: (Units=1/GPa)
#
#
# Indices 1 2 3 4 5 6 
#
# 1 0.007966 -0.001112 -0.002371 0.000000 0.000000 0.000000
# 2 -0.001112 0.004000 -0.001608 0.000000 0.000000 0.000000
# 3 -0.002371 -0.001608 0.010123 0.000000 0.000000 0.000000
# 4 0.000000 0.000000 0.000000 0.287871 0.000000 0.000000
# 5 0.000000 0.000000 0.000000 0.000000 0.020266 0.000000
# 6 0.000000 0.000000 0.000000 0.000000 0.000000 0.024966
#
#
# Mechanical properties :
#
#
# Convention : Reuss Voigt Hill
#
# Bulk Modulus (GPa) = 83.97570 97.63208 90.80389
# Shear Modulus (GPa) = 13.53757 44.82258 29.18007
#
# Velocity S-wave (km/s) = 2.32085 4.22305 3.40738
# Velocity P-wave (km/s) = 6.37136 7.91359 7.18398
#
# Compressibility (1/GPa) = 0.01190821
#
# Stress axis : x y z
#
# Youngs Moduli (GPa) = 125.52924 250.02093 98.78088
#
# Poissons Ratio (x) = 0.27811 0.23416
# Poissons Ratio (y) = 0.13963 0.15881
# Poissons Ratio (z) = 0.29757 0.40197
#
# Static dielectric constant tensor:
#      x y z
#    x 2.089230 0.000000 0.000000 
#    y 0.000000 2.101770 0.000000 
#    z 0.000000 0.000000 1.972530 
# 
# From -- ./inp_files/350.got.cif
#   From: 2010.05.17/outbox.cif.g08.bks.cpg/sg17_1_cif.got.tgz:350.got - 2010.06.03 22:34:06.
