data_PCOD9311671
_publ_section_title
;
Structure prediction by ZEFSAII (Michael W. Deem and Ramdas Pophale) SiO2 
 PCOD9311671
Probable space group: P 21 21 2
;
_chemical_formula_sum "Si O2"
_cell_formula_units_Z 32
_cell_length_a 7.041522
_cell_length_b 19.871120
_cell_length_c 10.547404
_cell_angle_alpha 90.000000
_cell_angle_beta 90.000000
_cell_angle_gamma 90.000000
_cell_volume 1475.823657
_symmetry_space_group_name_H-M "P 21 21 2"
_symmetry_group_IT_number 18
_symmetry_cell_setting 'orthorhombic'
loop_
_space_group_symop_operation_xyz
x,y,z
-x,-y,z
1/2+x,1/2-y,-z
1/2-x,1/2+y,-z
loop_
_atom_site_type_symbol
_atom_site_label
_atom_site_fract_x
_atom_site_fract_y
_atom_site_fract_z
Si Si1 0.636514 0.825167 0.328031
Si Si2 0.340099 0.132727 0.596198
Si Si3 0.906270 0.195320 0.051042
Si Si4 0.153436 0.656147 0.951887
Si Si5 0.916799 0.215418 0.330760
Si Si6 0.219923 0.554287 0.165100
Si Si7 0.090945 0.825021 0.600237
Si Si8 0.669838 0.595738 0.163095
O O1 0.591468 0.870095 0.451079
O O2 0.588238 0.855729 0.191991
O O3 0.552714 0.750014 0.345898
O O4 0.863428 0.808172 0.329943
O O5 0.408472 0.204349 0.652151
O O6 0.368582 0.075620 0.700174
O O7 0.111677 0.139719 0.586109
O O8 0.918174 0.271546 0.001009
O O9 0.798580 0.148328 0.950846
O O10 0.831656 0.196350 0.194911
O O11 0.119173 0.167062 0.056006
O O12 0.125744 0.597076 0.052507
O O13 0.827387 0.184929 0.459170
O O14 0.443106 0.577808 0.165423
O O15 0.225009 0.474675 0.147304
O O16 0.207264 0.866812 0.703539
#
# Coordination Sequence:
#
# PCOD9311671 Si02
#       8
#     4   4   4   4   4   4   4   4
#     4   9  17  27  43  68  92 110 142 189 226 257
#     4   9  16  28  45  65  88 116 147 180 221 267
#     4  10  18  29  46  68  92 118 150 188 227 266
#     4  10  18  29  46  68  92 118 150 188 227 266
#     4   9  17  27  43  68  92 110 142 189 226 257
#     4   9  17  29  45  65  91 123 154 183 222 273
#     4   9  16  28  45  65  88 116 147 180 221 267
#     4   9  17  29  45  65  91 123 154 183 222 273
#
# _framework density 21.682807
#
# number of rings (size 3 to 8) (size 9 to 14) (size 15 to 20)
#    0.000    2.750    2.500    0.000    0.000    0.000 
#    0.000    1.250    0.000   10.500    0.000    0.000 
#    0.000    6.000    0.000    0.000    0.000    0.000 
#
# Total GULP energy -178753.044836 kJ/mol
# GULP energy per Si atom -5586.032651 kJ/mol
# Density = 2.163346 g / cm^3
# Si number density = 21.682807 Si / 1000 Ang^3
#
#
#
# Elastic Constant Matrix: (Units=GPa)
#
#
# Indices 1 2 3 4 5 6 
#
# 1 65.7108 13.4193 13.7354 0.0000 0.0000 0.0000
# 2 13.4193 115.3580 97.6590 0.0000 0.0000 0.0000
# 3 13.7354 97.6590 220.3213 0.0000 0.0000 0.0000
# 4 0.0000 0.0000 0.0000 29.4122 0.0000 0.0000
# 5 0.0000 0.0000 0.0000 0.0000 2.2703 0.0000
# 6 0.0000 0.0000 0.0000 0.0000 0.0000 -0.5287
#
#
#
# Elastic Compliance Matrix: (Units=1/GPa)
#
#
# Indices 1 2 3 4 5 6 
#
# 1 0.015598 -0.001587 -0.000269 0.000000 0.000000 0.000000
# 2 -0.001587 0.014037 -0.006123 0.000000 0.000000 0.000000
# 3 -0.000269 -0.006123 0.007270 0.000000 0.000000 0.000000
# 4 0.000000 0.000000 0.000000 0.033999 0.000000 0.000000
# 5 0.000000 0.000000 0.000000 0.000000 0.440471 0.000000
# 6 0.000000 0.000000 0.000000 0.000000 0.000000 -1.891475
#
#
# Mechanical properties :
#
#
# Convention : Reuss Voigt Hill
#
# Bulk Modulus (GPa) = 47.73879 72.33527 60.03703
# Shear Modulus (GPa) = -3.68417 24.66920 10.49252
#
# Velocity S-wave (km/s) = -1.30492 3.37669 2.20218
# Velocity P-wave (km/s) = 4.44908 6.97393 5.84936
#
# Compressibility (1/GPa) = 0.02094733
#
# Stress axis : x y z
#
# Youngs Moduli (GPa) = 64.10874 71.24131 137.55797
#
# Poissons Ratio (x) = 0.11304 0.03702
# Poissons Ratio (y) = 0.10172 0.84227
# Poissons Ratio (z) = 0.01725 0.43621
#
# Static dielectric constant tensor:
#      x y z
#    x 1.879850 0.000000 0.000000 
#    y 0.000000 1.727250 0.000000 
#    z 0.000000 0.000000 1.808130 
# 
# From -- ./inp_files/4018.got.cif
#   From: 2010.05.17/outbox.cif.g08.bks.cpg/sg18_3_cif.got.tgz:4018.got - 2010.06.03 22:40:56.
