data_PCOD9311813
_publ_section_title
;
Structure prediction by ZEFSAII (Michael W. Deem and Ramdas Pophale) SiO2 
 PCOD9311813
Probable space group: P 21 21 2
;
_chemical_formula_sum "Si O2"
_cell_formula_units_Z 24
_cell_length_a 12.371202
_cell_length_b 7.934714
_cell_length_c 9.407739
_cell_angle_alpha 90.000000
_cell_angle_beta 90.000000
_cell_angle_gamma 90.000000
_cell_volume 923.482003
_symmetry_space_group_name_H-M "P 21 21 2"
_symmetry_group_IT_number 18
_symmetry_cell_setting 'orthorhombic'
loop_
_space_group_symop_operation_xyz
x,y,z
-x,-y,z
1/2+x,1/2-y,-z
1/2-x,1/2+y,-z
loop_
_atom_site_type_symbol
_atom_site_label
_atom_site_fract_x
_atom_site_fract_y
_atom_site_fract_z
Si Si1 0.187845 0.760295 0.446228
Si Si2 0.069727 0.346139 0.650900
Si Si3 0.827909 0.535076 0.241094
Si Si4 0.663238 0.968126 0.087422
Si Si5 0.583986 0.621216 0.201311
Si Si6 0.180705 0.103876 0.319767
O O1 0.316015 0.798615 0.414763
O O2 0.141533 0.623867 0.336451
O O3 0.209160 0.664039 0.596068
O O4 0.138205 0.944455 0.409210
O O5 0.099743 0.404014 0.811204
O O6 0.000000 0.500000 0.587750
O O7 0.989053 0.190487 0.668379
O O8 0.695866 0.537883 0.250138
O O9 0.874550 0.715307 0.293007
O O10 0.846978 0.516042 0.074660
O O11 0.619898 0.779392 0.107589
O O12 0.780964 0.961859 0.164206
O O13 0.500000 0.500000 0.122746
#
# Coordination Sequence:
#
# PCOD9311813 Si02
#       6
#     4   4   4   4   4   4
#     4  11  20  37  60  88 122 155 202 255 305 360
#     4   9  19  37  58  86 115 161 210 254 301 370
#     4  11  22  38  60  94 124 157 210 260 303 366
#     4   9  22  37  59  92 122 156 205 263 306 358
#     4  10  19  33  58  90 114 164 206 253 297 368
#     4  10  22  35  58  93 117 153 194 257 310 352
#
# _framework density 25.988596000000001
#
# number of rings (size 3 to 8) (size 9 to 14) (size 15 to 20)
#    0.000    2.000    3.333    1.000    9.333    0.000 
#    0.000    0.000    0.000    5.000   13.000    0.000 
#    0.000    0.000    0.000    0.000    0.000    0.000 
#
# Total GULP energy -134021.954151 kJ/mol
# GULP energy per Si atom -5584.248090 kJ/mol
# Density = 2.592945 g / cm^3
# Si number density = 25.988596 Si / 1000 Ang^3
#
#
#
# Elastic Constant Matrix: (Units=GPa)
#
#
# Indices 1 2 3 4 5 6 
#
# 1 74.2782 5.8023 -19.4230 0.0000 0.0000 0.0000
# 2 5.8023 175.1919 51.2017 0.0000 0.0000 0.0000
# 3 -19.4230 51.2017 143.5237 0.0000 0.0000 0.0000
# 4 0.0000 0.0000 0.0000 36.6845 0.0000 0.0000
# 5 0.0000 0.0000 0.0000 0.0000 15.9089 0.0000
# 6 0.0000 0.0000 0.0000 0.0000 0.0000 21.3979
#
#
#
# Elastic Compliance Matrix: (Units=1/GPa)
#
#
# Indices 1 2 3 4 5 6 
#
# 1 0.014161 -0.001149 0.002326 0.000000 0.000000 0.000000
# 2 -0.001149 0.006466 -0.002462 0.000000 0.000000 0.000000
# 3 0.002326 -0.002462 0.008161 0.000000 0.000000 0.000000
# 4 0.000000 0.000000 0.000000 0.027259 0.000000 0.000000
# 5 0.000000 0.000000 0.000000 0.000000 0.062858 0.000000
# 6 0.000000 0.000000 0.000000 0.000000 0.000000 0.046733
#
#
# Mechanical properties :
#
#
# Convention : Reuss Voigt Hill
#
# Bulk Modulus (GPa) = 38.14200 52.01732 45.07966
# Shear Modulus (GPa) = 28.25711 38.49245 33.37478
#
# Velocity S-wave (km/s) = 3.30098 3.85272 3.58747
# Velocity P-wave (km/s) = 5.40712 6.31270 5.87738
#
# Compressibility (1/GPa) = 0.02621782
#
# Stress axis : x y z
#
# Youngs Moduli (GPa) = 70.61675 154.66356 122.53935
#
# Poissons Ratio (x) = 0.17769 -0.28506
# Poissons Ratio (y) = 0.08113 0.30170
# Poissons Ratio (z) = -0.16427 0.38079
#
# Static dielectric constant tensor:
#      x y z
#    x 2.148900 0.000000 0.000000 
#    y 0.000000 2.132310 0.000000 
#    z 0.000000 0.000000 2.099090 
# 
# From -- ./inp_files/4466.got.cif
#   From: 2010.05.17/outbox.cif.g08.bks.cpg/sg18_3_cif.got.tgz:4466.got - 2010.06.03 22:40:56.
