data_PCOD9311775
_publ_section_title
;
Structure prediction by ZEFSAII (Michael W. Deem and Ramdas Pophale) SiO2 
 PCOD9311775
Probable space group: P 21 21 2
;
_chemical_formula_sum "Si O2"
_cell_formula_units_Z 30
_cell_length_a 17.374944
_cell_length_b 13.214442
_cell_length_c 6.272618
_cell_angle_alpha 90.000000
_cell_angle_beta 90.000000
_cell_angle_gamma 90.000000
_cell_volume 1440.194283
_symmetry_space_group_name_H-M "P 21 21 2"
_symmetry_group_IT_number 18
_symmetry_cell_setting 'orthorhombic'
loop_
_space_group_symop_operation_xyz
x,y,z
-x,-y,z
1/2+x,1/2-y,-z
1/2-x,1/2+y,-z
loop_
_atom_site_type_symbol
_atom_site_label
_atom_site_fract_x
_atom_site_fract_y
_atom_site_fract_z
Si Si1 0.767168 0.669660 0.129046
Si Si2 0.350111 0.119978 0.822287
Si Si3 0.770584 0.845304 0.448134
Si Si4 0.624938 0.301665 0.173138
Si Si5 0.500000 0.000000 0.275358
Si Si6 0.407887 0.922033 0.656876
Si Si7 0.013119 0.691368 0.012225
Si Si8 0.289551 0.525167 0.932346
O O1 0.742407 0.763926 0.273498
O O2 0.820631 0.609190 0.297545
O O3 0.821320 0.717487 0.944174
O O4 0.711655 0.589548 0.015268
O O5 0.296287 0.141745 0.620647
O O6 0.410809 0.033866 0.756413
O O7 0.401637 0.213805 0.899808
O O8 0.293134 0.070108 0.992433
O O9 0.845439 0.809219 0.583843
O O10 0.792231 0.946655 0.316898
O O11 0.537506 0.270268 0.123266
O O12 0.647773 0.406487 0.055944
O O13 0.435802 0.944761 0.420312
O O14 0.528412 0.906431 0.136490
O O15 0.458660 0.842105 0.789137
#
# Coordination Sequence:
#
# PCOD9311775 Si02
#       8
#     4   4   4   4   2   4   4   4
#     4   9  19  35  54  77 110 148 187 240 270 322
#     4  10  19  32  49  79 113 145 184 228 272 336
#     4  10  20  35  52  80 109 151 199 223 279 338
#     4   9  20  35  52  79 114 149 185 231 275 342
#     4  12  18  26  48  74 114 154 178 206 266 352
#     4  10  19  31  46  79 113 148 183 211 279 349
#     4  11  20  32  47  78 121 148 184 222 279 336
#     4   9  20  35  54  76 111 146 190 236 274 326
#
# _framework density 20.830524
#
# number of rings (size 3 to 8) (size 9 to 14) (size 15 to 20)
#    0.000    2.133    2.667    0.800    1.867    3.200 
#    0.000    0.000    0.000    0.000    0.000   10.267 
#    0.000    0.267    0.000    0.000    0.000    0.000 
#
# Total GULP energy -167154.936330 kJ/mol
# GULP energy per Si atom -5571.831211 kJ/mol
# Density = 2.078311 g / cm^3
# Si number density = 20.830524 Si / 1000 Ang^3
#
#
#
# Elastic Constant Matrix: (Units=GPa)
#
#
# Indices 1 2 3 4 5 6 
#
# 1 23.7858 -3.3977 9.7887 0.0000 0.0000 0.0000
# 2 -3.3977 44.6603 10.4434 0.0000 0.0000 0.0000
# 3 9.7887 10.4434 85.9681 0.0000 0.0000 0.0000
# 4 0.0000 0.0000 0.0000 20.4515 0.0000 0.0000
# 5 0.0000 0.0000 0.0000 0.0000 23.6084 0.0000
# 6 0.0000 0.0000 0.0000 0.0000 0.0000 19.0018
#
#
#
# Elastic Compliance Matrix: (Units=1/GPa)
#
#
# Indices 1 2 3 4 5 6 
#
# 1 0.045073 0.004765 -0.005711 0.000000 0.000000 0.000000
# 2 0.004765 0.023550 -0.003403 0.000000 0.000000 0.000000
# 3 -0.005711 -0.003403 0.012696 0.000000 0.000000 0.000000
# 4 0.000000 0.000000 0.000000 0.048896 0.000000 0.000000
# 5 0.000000 0.000000 0.000000 0.000000 0.042358 0.000000
# 6 0.000000 0.000000 0.000000 0.000000 0.000000 0.052627
#
#
# Mechanical properties :
#
#
# Convention : Reuss Voigt Hill
#
# Bulk Modulus (GPa) = 13.77054 20.89810 17.33432
# Shear Modulus (GPa) = 19.37199 21.78432 20.57815
#
# Velocity S-wave (km/s) = 3.05287 3.23737 3.14647
# Velocity P-wave (km/s) = 4.36483 4.90187 4.64113
#
# Compressibility (1/GPa) = 0.07261878
#
# Stress axis : x y z
#
# Youngs Moduli (GPa) = 22.18634 42.46363 78.76543
#
# Poissons Ratio (x) = -0.20232 0.44983
# Poissons Ratio (y) = -0.10571 0.26806
# Poissons Ratio (z) = 0.12671 0.14452
#
# Static dielectric constant tensor:
#      x y z
#    x 1.797110 0.000000 0.000000 
#    y 0.000000 1.809850 0.000000 
#    z 0.000000 0.000000 1.824520 
# 
# From -- ./inp_files/1851.got.cif
#   From: 2010.05.17/outbox.cif.g08.bks.cpg/sg18_1_cif.got.tgz:1851.got - 2010.06.03 22:40:56.
