data_PCOD9311323
_publ_section_title
;
Structure prediction by ZEFSAII (Michael W. Deem and Ramdas Pophale) SiO2 
 PCOD9311323
Probable space group: P 2 2 21
;
_chemical_formula_sum "Si O2"
_cell_formula_units_Z 16
_cell_length_a 22.718933
_cell_length_b 5.108129
_cell_length_c 5.269834
_cell_angle_alpha 90.000000
_cell_angle_beta 90.000000
_cell_angle_gamma 90.000000
_cell_volume 611.570773
_symmetry_space_group_name_H-M "P 2 2 21"
_symmetry_group_IT_number 17
_symmetry_cell_setting 'orthorhombic'
loop_
_space_group_symop_operation_xyz
x,y,z
-x,-y,1/2+z
x,-y,-z
-x,y,1/2-z
loop_
_atom_site_type_symbol
_atom_site_label
_atom_site_fract_x
_atom_site_fract_y
_atom_site_fract_z
Si Si1 0.437408 0.818001 0.250214
Si Si2 0.128739 0.232840 0.335365
Si Si3 0.690858 0.818523 0.247370
Si Si4 0.784566 0.500000 0.500000
Si Si5 0.000000 0.321328 0.250000
O O1 0.500000 0.667991 0.250000
O O2 0.373854 0.682539 0.253852
O O3 0.437604 0.000000 0.500000
O O4 0.437410 0.000000 0.000000
O O5 0.126657 0.500000 0.500000
O O6 0.171215 0.283340 0.102928
O O7 0.061392 0.168382 0.261641
O O8 0.153137 0.000000 0.500000
O O9 0.741991 0.608972 0.283024
O O10 0.693745 0.000000 0.500000
O O11 0.696358 0.000000 0.000000
O O12 0.995869 0.500000 0.500000
#
# Coordination Sequence:
#
# PCOD9311323 Si02
#       5
#     4   4   4   2   2
#     4   8  14  30  58  93 130 180 242 309 378 446
#     4  11  28  49  80 114 157 206 262 322 393 466
#     4  10  24  42  69 101 145 198 253 315 385 462
#     4  12  28  46  74 110 158 200 262 312 394 464
#     4  10  22  52  80 116 156 202 258 328 390 462
#
# _framework density 26.162140000000001
#
# number of rings (size 3 to 8) (size 9 to 14) (size 15 to 20)
#    0.000    2.000    1.250    0.000    7.000    4.000 
#    0.000    0.000    0.000   15.000    0.000    0.000 
#    0.000    0.000    0.000    0.000    0.000    0.000 
#
# Total GULP energy -89699.657209 kJ/mol
# GULP energy per Si atom -5606.228576 kJ/mol
# Density = 2.610259 g / cm^3
# Si number density = 26.162140 Si / 1000 Ang^3
#
#
#
# Elastic Constant Matrix: (Units=GPa)
#
#
# Indices 1 2 3 4 5 6 
#
# 1 248.2751 31.6398 33.0511 0.0000 0.0000 0.0000
# 2 31.6398 78.0714 43.9043 0.0000 0.0000 0.0000
# 3 33.0511 43.9043 190.8811 0.0000 0.0000 0.0000
# 4 0.0000 0.0000 0.0000 61.5772 0.0000 0.0000
# 5 0.0000 0.0000 0.0000 0.0000 19.3587 0.0000
# 6 0.0000 0.0000 0.0000 0.0000 0.0000 -75.8447
#
#
#
# Elastic Compliance Matrix: (Units=1/GPa)
#
#
# Indices 1 2 3 4 5 6 
#
# 1 0.004273 -0.001511 -0.000392 0.000000 0.000000 0.000000
# 2 -0.001511 0.015246 -0.003245 0.000000 0.000000 0.000000
# 3 -0.000392 -0.003245 0.006053 0.000000 0.000000 0.000000
# 4 0.000000 0.000000 0.000000 0.016240 0.000000 0.000000
# 5 0.000000 0.000000 0.000000 0.000000 0.051656 0.000000
# 6 0.000000 0.000000 0.000000 0.000000 0.000000 -0.013185
#
#
# Mechanical properties :
#
#
# Convention : Reuss Voigt Hill
#
# Bulk Modulus (GPa) = 65.46569 81.60202 73.53386
# Shear Modulus (GPa) = 52.26221 28.26039 40.26130
#
# Velocity S-wave (km/s) = 4.47433 3.29021 3.92716
# Velocity P-wave (km/s) = 7.19515 6.75963 6.98079
#
# Compressibility (1/GPa) = 0.01527518
#
# Stress axis : x y z
#
# Youngs Moduli (GPa) = 234.05160 65.59077 165.20218
#
# Poissons Ratio (x) = 0.09910 0.06480
# Poissons Ratio (y) = 0.35364 0.53610
# Poissons Ratio (z) = 0.09181 0.21285
#
# Static dielectric constant tensor:
#      x y z
#    x 2.069480 0.000000 0.000000 
#    y 0.000000 2.049770 0.000000 
#    z 0.000000 0.000000 2.120830 
# 
# From -- ./inp_files/2806.got.cif
#   From: 2010.05.17/outbox.cif.g08.bks.cpg/sg17_2_cif.got.tgz:2806.got - 2010.06.03 22:34:06.
