data_PCOD9311553
_publ_section_title
;
Structure prediction by ZEFSAII (Michael W. Deem and Ramdas Pophale) SiO2 
 PCOD9311553
Probable space group: P 2 2 21
;
_chemical_formula_sum "Si O2"
_cell_formula_units_Z 20
_cell_length_a 8.922570
_cell_length_b 11.525089
_cell_length_c 8.260533
_cell_angle_alpha 90.000000
_cell_angle_beta 90.000000
_cell_angle_gamma 90.000000
_cell_volume 849.458805
_symmetry_space_group_name_H-M "P 2 2 21"
_symmetry_group_IT_number 17
_symmetry_cell_setting 'orthorhombic'
loop_
_space_group_symop_operation_xyz
x,y,z
-x,-y,1/2+z
x,-y,-z
-x,y,1/2-z
loop_
_atom_site_type_symbol
_atom_site_label
_atom_site_fract_x
_atom_site_fract_y
_atom_site_fract_z
Si Si1 0.533538 0.315520 0.570539
Si Si2 0.215863 0.500000 0.000000
Si Si3 0.000000 0.114537 0.750000
Si Si4 0.000000 0.387251 0.250000
Si Si5 0.268387 0.239494 0.356375
Si Si6 0.249602 0.139016 0.991648
Si Si7 0.212037 0.000000 0.500000
O O1 0.500000 0.360258 0.750000
O O2 0.673523 0.392159 0.516216
O O3 0.400914 0.316510 0.436841
O O4 0.601705 0.186688 0.592966
O O5 0.109642 0.468541 0.148495
O O6 0.894133 0.177575 0.617530
O O7 0.891311 0.031703 0.849277
O O8 0.109341 0.306974 0.361465
O O9 0.266780 0.193464 0.171088
O O10 0.287259 0.120941 0.457610
O O11 0.243064 0.000000 0.000000
#
# Coordination Sequence:
#
# PCOD9311553 Si02
#       7
#     4   2   2   2   4   4   2
#     4  12  31  51  80 115 159 218 274 346 419 500
#     4  12  32  54  88 114 156 210 288 352 414 486
#     4  12  21  39  68 114 158 210 266 324 400 488
#     4  12  29  55  82 122 150 220 278 358 410 490
#     4  12  27  51  79 117 171 213 274 335 424 500
#     4  12  25  46  78 116 164 217 273 336 423 503
#     4  12  22  40  74 112 166 214 252 338 402 514
#
# _framework density 23.544402999999999
#
# number of rings (size 3 to 8) (size 9 to 14) (size 15 to 20)
#    0.000    0.000    5.000    3.600    7.000    0.800 
#    0.000    0.000    0.000    0.000    0.000    0.000 
#    0.000    0.000    0.000    0.000    0.000    0.000 
#
# Total GULP energy -111678.519546 kJ/mol
# GULP energy per Si atom -5583.925977 kJ/mol
# Density = 2.349082 g / cm^3
# Si number density = 23.544403 Si / 1000 Ang^3
#
#
#
# Elastic Constant Matrix: (Units=GPa)
#
#
# Indices 1 2 3 4 5 6 
#
# 1 176.2037 57.8270 79.7635 0.0000 0.0000 0.0000
# 2 57.8270 85.2715 45.1088 0.0000 0.0000 0.0000
# 3 79.7635 45.1088 144.9291 0.0000 0.0000 0.0000
# 4 0.0000 0.0000 0.0000 21.8134 0.0000 0.0000
# 5 0.0000 0.0000 0.0000 0.0000 59.3548 0.0000
# 6 0.0000 0.0000 0.0000 0.0000 0.0000 28.8004
#
#
#
# Elastic Compliance Matrix: (Units=1/GPa)
#
#
# Indices 1 2 3 4 5 6 
#
# 1 0.008546 -0.003959 -0.003471 0.000000 0.000000 0.000000
# 2 -0.003959 0.015873 -0.002761 0.000000 0.000000 0.000000
# 3 -0.003471 -0.002761 0.009670 0.000000 0.000000 0.000000
# 4 0.000000 0.000000 0.000000 0.045843 0.000000 0.000000
# 5 0.000000 0.000000 0.000000 0.000000 0.016848 0.000000
# 6 0.000000 0.000000 0.000000 0.000000 0.000000 0.034722
#
#
# Mechanical properties :
#
#
# Convention : Reuss Voigt Hill
#
# Bulk Modulus (GPa) = 72.96469 85.75589 79.36029
# Shear Modulus (GPa) = 31.95841 36.90738 34.43290
#
# Velocity S-wave (km/s) = 3.68824 3.96354 3.82837
# Velocity P-wave (km/s) = 7.01392 7.57947 7.30217
#
# Compressibility (1/GPa) = 0.01370526
#
# Stress axis : x y z
#
# Youngs Moduli (GPa) = 117.01597 63.00006 103.41549
#
# Poissons Ratio (x) = 0.24943 0.35896
# Poissons Ratio (y) = 0.46329 0.28558
# Poissons Ratio (z) = 0.40616 0.17397
#
# Static dielectric constant tensor:
#      x y z
#    x 1.910720 0.000000 0.000000 
#    y 0.000000 2.070710 0.000000 
#    z 0.000000 0.000000 1.961650 
# 
# From -- ./inp_files/4101.got.cif
#   From: 2010.05.17/outbox.cif.g08.bks.cpg/sg17_3_cif.got.tgz:4101.got - 2010.06.03 22:34:06.
