data_PCOD9311864
_publ_section_title
;
Structure prediction by ZEFSAII (Michael W. Deem and Ramdas Pophale) SiO2 
 PCOD9311864
Probable space group: P 21 21 2
;
_chemical_formula_sum "Si O2"
_cell_formula_units_Z 30
_cell_length_a 17.573567
_cell_length_b 10.519664
_cell_length_c 7.108870
_cell_angle_alpha 90.000000
_cell_angle_beta 90.000000
_cell_angle_gamma 90.000000
_cell_volume 1314.202722
_symmetry_space_group_name_H-M "P 21 21 2"
_symmetry_group_IT_number 18
_symmetry_cell_setting 'orthorhombic'
loop_
_space_group_symop_operation_xyz
x,y,z
-x,-y,z
1/2+x,1/2-y,-z
1/2-x,1/2+y,-z
loop_
_atom_site_type_symbol
_atom_site_label
_atom_site_fract_x
_atom_site_fract_y
_atom_site_fract_z
Si Si1 0.000000 0.500000 0.702230
Si Si2 0.691238 0.011764 0.654921
Si Si3 0.207759 0.637927 0.687686
Si Si4 0.125879 0.228914 0.386784
Si Si5 0.152555 0.434798 0.922615
Si Si6 0.918266 0.822328 0.985886
Si Si7 0.944439 0.241846 0.716223
Si Si8 0.371516 0.506015 0.322305
O O1 0.071796 0.475752 0.836786
O O2 0.020168 0.635758 0.607492
O O3 0.637345 0.122415 0.566802
O O4 0.783003 0.031507 0.651482
O O5 0.682487 0.887298 0.527316
O O6 0.666219 0.009919 0.870545
O O7 0.289005 0.699652 0.688928
O O8 0.212934 0.499940 0.785313
O O9 0.140033 0.715838 0.783213
O O10 0.112675 0.133918 0.558414
O O11 0.073700 0.193415 0.209543
O O12 0.146067 0.283328 0.932700
O O13 0.996767 0.786206 0.883164
O O14 0.890388 0.953808 0.892869
O O15 0.925783 0.109185 0.615969
#
# Coordination Sequence:
#
# PCOD9311864 Si02
#       8
#     2   4   4   4   4   4   4   4
#     4   8  18  36  60  82 116 160 204 254 304 368
#     4  10  20  35  59  90 120 157 206 256 312 369
#     4  10  19  36  59  87 122 157 208 259 311 368
#     4  10  21  38  61  91 124 161 207 261 311 372
#     4   9  18  35  57  84 117 156 202 253 306 362
#     4  10  21  38  59  85 121 165 205 251 314 370
#     4  10  20  39  61  85 120 163 204 254 309 372
#     4  11  21  37  60  87 123 165 203 257 312 370
#
# _framework density 22.827528000000001
#
# number of rings (size 3 to 8) (size 9 to 14) (size 15 to 20)
#    0.000    2.133    1.333    2.000    0.000    0.000 
#    0.000   14.667    0.000    0.000    0.000    0.000 
#    0.000    0.000    0.000    0.000    0.000    0.000 
#
# Total GULP energy -167298.638100 kJ/mol
# GULP energy per Si atom -5576.621270 kJ/mol
# Density = 2.277557 g / cm^3
# Si number density = 22.827528 Si / 1000 Ang^3
#
#
#
# Elastic Constant Matrix: (Units=GPa)
#
#
# Indices 1 2 3 4 5 6 
#
# 1 89.3353 0.0103 21.9460 0.0000 0.0000 0.0000
# 2 0.0103 60.5530 9.5828 0.0000 0.0000 0.0000
# 3 21.9460 9.5828 65.2623 0.0000 0.0000 0.0000
# 4 0.0000 0.0000 0.0000 21.2434 0.0000 0.0000
# 5 0.0000 0.0000 0.0000 0.0000 22.1153 0.0000
# 6 0.0000 0.0000 0.0000 0.0000 0.0000 36.4369
#
#
#
# Elastic Compliance Matrix: (Units=1/GPa)
#
#
# Indices 1 2 3 4 5 6 
#
# 1 0.012228 0.000664 -0.004209 0.000000 0.000000 0.000000
# 2 0.000664 0.016943 -0.002711 0.000000 0.000000 0.000000
# 3 -0.004209 -0.002711 0.017136 0.000000 0.000000 0.000000
# 4 0.000000 0.000000 0.000000 0.047073 0.000000 0.000000
# 5 0.000000 0.000000 0.000000 0.000000 0.045218 0.000000
# 6 0.000000 0.000000 0.000000 0.000000 0.000000 0.027445
#
#
# Mechanical properties :
#
#
# Convention : Reuss Voigt Hill
#
# Bulk Modulus (GPa) = 29.59056 30.91430 30.25243
# Shear Modulus (GPa) = 26.34058 28.19988 27.27023
#
# Velocity S-wave (km/s) = 3.40059 3.51856 3.46008
# Velocity P-wave (km/s) = 5.33005 5.48443 5.40779
#
# Compressibility (1/GPa) = 0.03379456
#
# Stress axis : x y z
#
# Youngs Moduli (GPa) = 81.78098 59.01995 58.35530
#
# Poissons Ratio (x) = -0.03919 0.24564
# Poissons Ratio (y) = -0.05431 0.15821
# Poissons Ratio (z) = 0.34425 0.16002
#
# Static dielectric constant tensor:
#      x y z
#    x 1.852360 0.000000 0.000000 
#    y 0.000000 2.004360 0.000000 
#    z 0.000000 0.000000 1.850570 
# 
# From -- ./inp_files/2005.got.cif
#   From: 2010.05.17/outbox.cif.g08.bks.cpg/sg18_2_cif.got.tgz:2005.got - 2010.06.03 22:40:56.
