data_PCOD9311211
_publ_section_title
;
Structure prediction by ZEFSAII (Michael W. Deem and Ramdas Pophale) SiO2 
 PCOD9311211
Probable space group: P 2 2 21
;
_chemical_formula_sum "Si O2"
_cell_formula_units_Z 16
_cell_length_a 7.786708
_cell_length_b 17.819252
_cell_length_c 5.142691
_cell_angle_alpha 90.000000
_cell_angle_beta 90.000000
_cell_angle_gamma 90.000000
_cell_volume 713.565409
_symmetry_space_group_name_H-M "P 2 2 21"
_symmetry_group_IT_number 17
_symmetry_cell_setting 'orthorhombic'
loop_
_space_group_symop_operation_xyz
x,y,z
-x,-y,1/2+z
x,-y,-z
-x,y,1/2-z
loop_
_atom_site_type_symbol
_atom_site_label
_atom_site_fract_x
_atom_site_fract_y
_atom_site_fract_z
Si Si1 0.377266 0.719713 0.005671
Si Si2 0.122190 0.141064 0.000985
Si Si3 0.622920 0.000000 0.500000
Si Si4 0.168594 0.581646 0.881662
Si Si5 0.500000 0.455920 0.250000
O O1 0.500000 0.712671 0.750000
O O2 0.241319 0.785823 0.967115
O O3 0.266807 0.643532 0.055968
O O4 0.500000 0.734233 0.250000
O O5 0.000000 0.130618 0.250000
O O6 0.252747 0.071570 0.972563
O O7 0.000000 0.147573 0.750000
O O8 0.500000 0.007773 0.250000
O O9 0.317465 0.576026 0.661839
O O10 0.000000 0.614209 0.750000
O O11 0.116745 0.500000 0.000000
O O12 0.559858 0.500000 0.500000
#
# Coordination Sequence:
#
# PCOD9311211 Si02
#       5
#     4   4   2   4   2
#     4  12  27  46  71  99 140 185 233 291 357 421
#     4  12  25  46  72 105 144 184 235 288 348 414
#     4  12  24  44  74 108 146 186 234 280 348 420
#     4  11  25  42  70  99 137 178 240 290 363 423
#     4  10  22  40  64  90 130 168 220 284 348 412
#
# _framework density 22.422609000000001
#
# number of rings (size 3 to 8) (size 9 to 14) (size 15 to 20)
#    0.000    0.500    1.250    6.750    7.000    3.000 
#    0.000    0.000    0.000    0.000    0.000    0.000 
#    0.000    0.000    0.000    0.000    0.000    0.000 
#
# Total GULP energy -89266.892896 kJ/mol
# GULP energy per Si atom -5579.180806 kJ/mol
# Density = 2.237157 g / cm^3
# Si number density = 22.422609 Si / 1000 Ang^3
#
#
#
# Elastic Constant Matrix: (Units=GPa)
#
#
# Indices 1 2 3 4 5 6 
#
# 1 177.9095 34.0176 52.5306 0.0000 0.0000 0.0000
# 2 34.0176 134.0098 -1.8413 0.0000 0.0000 0.0000
# 3 52.5306 -1.8413 121.8484 0.0000 0.0000 0.0000
# 4 0.0000 0.0000 0.0000 24.2782 0.0000 0.0000
# 5 0.0000 0.0000 0.0000 0.0000 46.9463 0.0000
# 6 0.0000 0.0000 0.0000 0.0000 0.0000 42.4928
#
#
#
# Elastic Compliance Matrix: (Units=1/GPa)
#
#
# Indices 1 2 3 4 5 6 
#
# 1 0.006839 -0.001777 -0.002975 0.000000 0.000000 0.000000
# 2 -0.001777 0.007925 0.000886 0.000000 0.000000 0.000000
# 3 -0.002975 0.000886 0.009503 0.000000 0.000000 0.000000
# 4 0.000000 0.000000 0.000000 0.041189 0.000000 0.000000
# 5 0.000000 0.000000 0.000000 0.000000 0.021301 0.000000
# 6 0.000000 0.000000 0.000000 0.000000 0.000000 0.023533
#
#
# Mechanical properties :
#
#
# Convention : Reuss Voigt Hill
#
# Bulk Modulus (GPa) = 60.47899 67.02018 63.74958
# Shear Modulus (GPa) = 40.47425 46.01419 43.24422
#
# Velocity S-wave (km/s) = 4.25321 4.53496 4.39635
# Velocity P-wave (km/s) = 7.15197 7.57467 7.36635
#
# Compressibility (1/GPa) = 0.01653467
#
# Stress axis : x y z
#
# Youngs Moduli (GPa) = 146.21800 126.17688 105.22999
#
# Poissons Ratio (x) = 0.22421 0.31309
# Poissons Ratio (y) = 0.25982 -0.09322
# Poissons Ratio (z) = 0.43504 -0.11177
#
# Static dielectric constant tensor:
#      x y z
#    x 1.843970 0.000000 0.000000 
#    y 0.000000 1.964350 0.000000 
#    z 0.000000 0.000000 1.846440 
# 
# From -- ./inp_files/772.got.cif
#   From: 2010.05.17/outbox.cif.g08.bks.cpg/sg17_1_cif.got.tgz:772.got - 2010.06.03 22:34:06.
