data_PCOD9311199
_publ_section_title
;
Structure prediction by ZEFSAII (Michael W. Deem and Ramdas Pophale) SiO2 
 PCOD9311199
Probable space group: P 2 2 21
;
_chemical_formula_sum "Si O2"
_cell_formula_units_Z 20
_cell_length_a 5.235528
_cell_length_b 5.043300
_cell_length_c 28.146472
_cell_angle_alpha 90.000000
_cell_angle_beta 90.000000
_cell_angle_gamma 90.000000
_cell_volume 743.188970
_symmetry_space_group_name_H-M "P 2 2 21"
_symmetry_group_IT_number 17
_symmetry_cell_setting 'orthorhombic'
loop_
_space_group_symop_operation_xyz
x,y,z
-x,-y,1/2+z
x,-y,-z
-x,y,1/2-z
loop_
_atom_site_type_symbol
_atom_site_label
_atom_site_fract_x
_atom_site_fract_y
_atom_site_fract_z
Si Si1 0.918688 0.431178 0.853253
Si Si2 0.070796 0.566393 0.549028
Si Si3 0.000000 0.574470 0.250000
Si Si4 0.500000 0.921061 0.250000
Si Si5 0.432902 0.932853 0.450625
Si Si6 0.582954 0.083675 0.147355
O O1 0.068458 0.498548 0.901552
O O2 0.670171 0.616400 0.858805
O O3 0.028162 0.539215 0.803219
O O4 0.824326 0.126350 0.851952
O O5 0.928017 0.500000 0.500000
O O6 0.193286 0.857766 0.549446
O O7 0.307542 0.356068 0.548031
O O8 0.747023 0.743682 0.244718
O O9 0.468950 0.067509 0.200014
O O10 0.564684 0.990546 0.399981
O O11 0.572871 0.000000 0.500000
#
# Coordination Sequence:
#
# PCOD9311199 Si02
#       6
#     4   4   2   2   4   4
#     4   9  18  32  51  78 110 145 185 229 278 332
#     4   8  13  23  42  70 102 136 175 220 270 324
#     4  10  22  40  60  86 116 152 192 236 284 338
#     4  10  22  40  60  86 116 152 192 236 284 338
#     4   8  13  23  42  70 102 136 175 220 270 324
#     4   9  18  32  51  78 110 145 185 229 278 332
#
# _framework density 26.911052999999999
#
# number of rings (size 3 to 8) (size 9 to 14) (size 15 to 20)
#    0.000    3.200    0.000    0.000    0.000    6.400 
#    0.000    0.000    0.000    0.000    0.000   56.000 
#    0.000    0.000    0.000    0.000    0.000    0.000 
#
# Total GULP energy -111637.413243 kJ/mol
# GULP energy per Si atom -5581.870662 kJ/mol
# Density = 2.684980 g / cm^3
# Si number density = 26.911053 Si / 1000 Ang^3
#
#
#
# Elastic Constant Matrix: (Units=GPa)
#
#
# Indices 1 2 3 4 5 6 
#
# 1 76.8726 33.6713 6.0934 0.0000 0.0000 0.0000
# 2 33.6713 128.4666 7.6486 0.0000 0.0000 0.0000
# 3 6.0934 7.6486 331.1992 0.0000 0.0000 0.0000
# 4 0.0000 0.0000 0.0000 25.9369 0.0000 0.0000
# 5 0.0000 0.0000 0.0000 0.0000 0.9293 0.0000
# 6 0.0000 0.0000 0.0000 0.0000 0.0000 44.6514
#
#
#
# Elastic Compliance Matrix: (Units=1/GPa)
#
#
# Indices 1 2 3 4 5 6 
#
# 1 0.014707 -0.003844 -0.000182 0.000000 0.000000 0.000000
# 2 -0.003844 0.008799 -0.000132 0.000000 0.000000 0.000000
# 3 -0.000182 -0.000132 0.003026 0.000000 0.000000 0.000000
# 4 0.000000 0.000000 0.000000 0.038555 0.000000 0.000000
# 5 0.000000 0.000000 0.000000 0.000000 1.076106 0.000000
# 6 0.000000 0.000000 0.000000 0.000000 0.000000 0.022396
#
#
# Mechanical properties :
#
#
# Convention : Reuss Voigt Hill
#
# Bulk Modulus (GPa) = 54.89798 70.15168 62.52483
# Shear Modulus (GPa) = 4.24457 46.91185 25.57821
#
# Velocity S-wave (km/s) = 1.25725 4.17972 3.08632
# Velocity P-wave (km/s) = 4.74886 7.02979 5.99873
#
# Compressibility (1/GPa) = 0.01821560
#
# Stress axis : x y z
#
# Youngs Moduli (GPa) = 67.99677 113.64307 330.49815
#
# Poissons Ratio (x) = 0.43682 0.06009
# Poissons Ratio (y) = 0.26137 0.04379
# Poissons Ratio (z) = 0.01236 0.01506
#
# Static dielectric constant tensor:
#      x y z
#    x 2.209850 0.000000 0.000000 
#    y 0.000000 2.017540 0.000000 
#    z 0.000000 0.000000 2.402160 
# 
# From -- ./inp_files/11042.got.cif
#   From: 2010.05.17/outbox.cif.g08.bks.cpg/sg17_6_cif.got.tgz:11042.got - 2010.06.03 22:34:06.
