data_PCOD9311245
_publ_section_title
;
Structure prediction by ZEFSAII (Michael W. Deem and Ramdas Pophale) SiO2 
 PCOD9311245
Probable space group: P 2 2 21
;
_chemical_formula_sum "Si O2"
_cell_formula_units_Z 20
_cell_length_a 14.819030
_cell_length_b 7.844929
_cell_length_c 8.300784
_cell_angle_alpha 90.000000
_cell_angle_beta 90.000000
_cell_angle_gamma 90.000000
_cell_volume 965.001320
_symmetry_space_group_name_H-M "P 2 2 21"
_symmetry_group_IT_number 17
_symmetry_cell_setting 'orthorhombic'
loop_
_space_group_symop_operation_xyz
x,y,z
-x,-y,1/2+z
x,-y,-z
-x,y,1/2-z
loop_
_atom_site_type_symbol
_atom_site_label
_atom_site_fract_x
_atom_site_fract_y
_atom_site_fract_z
Si Si1 0.878421 0.500000 0.000000
Si Si2 0.328042 0.590363 0.170063
Si Si3 0.500000 0.200523 0.750000
Si Si4 0.249723 0.265898 0.313763
Si Si5 0.000000 0.309676 0.750000
Si Si6 0.842674 0.295816 0.530590
Si Si7 0.375689 0.000000 0.500000
O O1 0.822957 0.662835 0.938538
O O2 0.936424 0.431459 0.853491
O O3 0.421296 0.684200 0.179225
O O4 0.311995 0.435138 0.290852
O O5 0.239959 0.711108 0.159561
O O6 0.326034 0.500000 0.000000
O O7 0.555750 0.095919 0.881293
O O8 0.310927 0.119514 0.390859
O O9 0.198197 0.229949 0.141569
O O10 0.931973 0.221638 0.618880
O O11 0.861722 0.500000 0.500000
#
# Coordination Sequence:
#
# PCOD9311245 Si02
#       7
#     2   4   2   4   2   4   2
#     4  12  18  34  66  96 134 168 236 282 340 398
#     4   9  21  41  68  92 128 172 226 285 337 388
#     4  12  28  42  66 100 128 186 236 286 330 418
#     4  10  22  42  62  92 138 182 217 281 354 409
#     4  12  18  30  66 112 126 166 236 302 322 396
#     4   9  18  36  59 100 133 169 210 292 342 390
#     4  12  30  42  64 100 142 186 230 278 358 424
#
# _framework density 20.725359000000001
#
# number of rings (size 3 to 8) (size 9 to 14) (size 15 to 20)
#    0.000    2.000    5.000    1.200    8.400    0.000 
#    0.000    0.000    0.000    3.600    0.000    0.000 
#    0.000    0.000    0.000    0.000    0.000    0.000 
#
# Total GULP energy -111406.930466 kJ/mol
# GULP energy per Si atom -5570.346523 kJ/mol
# Density = 2.067819 g / cm^3
# Si number density = 20.725359 Si / 1000 Ang^3
#
#
#
# Elastic Constant Matrix: (Units=GPa)
#
#
# Indices 1 2 3 4 5 6 
#
# 1 172.5462 50.0052 70.7252 0.0000 0.0000 0.0000
# 2 50.0052 37.9661 44.6858 0.0000 0.0000 0.0000
# 3 70.7252 44.6858 116.8353 0.0000 0.0000 0.0000
# 4 0.0000 0.0000 0.0000 10.0513 0.0000 0.0000
# 5 0.0000 0.0000 0.0000 0.0000 34.3045 0.0000
# 6 0.0000 0.0000 0.0000 0.0000 0.0000 54.4014
#
#
#
# Elastic Compliance Matrix: (Units=1/GPa)
#
#
# Indices 1 2 3 4 5 6 
#
# 1 0.009570 -0.010524 -0.001768 0.000000 0.000000 0.000000
# 2 -0.010524 0.059476 -0.016377 0.000000 0.000000 0.000000
# 3 -0.001768 -0.016377 0.015893 0.000000 0.000000 0.000000
# 4 0.000000 0.000000 0.000000 0.099490 0.000000 0.000000
# 5 0.000000 0.000000 0.000000 0.000000 0.029151 0.000000
# 6 0.000000 0.000000 0.000000 0.000000 0.000000 0.018382
#
#
# Mechanical properties :
#
#
# Convention : Reuss Voigt Hill
#
# Bulk Modulus (GPa) = 36.23062 73.13111 54.68087
# Shear Modulus (GPa) = 16.75040 30.54686 23.64863
#
# Velocity S-wave (km/s) = 2.84598 3.84329 3.38160
# Velocity P-wave (km/s) = 5.32154 7.42003 6.45661
#
# Compressibility (1/GPa) = 0.02760096
#
# Stress axis : x y z
#
# Youngs Moduli (GPa) = 104.49131 16.81356 62.91994
#
# Poissons Ratio (x) = 0.17694 0.11126
# Poissons Ratio (y) = 1.09963 1.03045
# Poissons Ratio (z) = 0.18477 0.27536
#
# Static dielectric constant tensor:
#      x y z
#    x 1.848430 0.000000 0.000000 
#    y 0.000000 1.743470 0.000000 
#    z 0.000000 0.000000 1.740910 
# 
# From -- ./inp_files/5043.got.cif
#   From: 2010.05.17/outbox.cif.g08.bks.cpg/sg17_3_cif.got.tgz:5043.got - 2010.06.03 22:34:06.
