data_PCOD9311022
_publ_section_title
;
Structure prediction by ZEFSAII (Michael W. Deem and Ramdas Pophale) SiO2 
 PCOD9311022
Probable space group: P 2 2 21
;
_chemical_formula_sum "Si O2"
_cell_formula_units_Z 18
_cell_length_a 16.768024
_cell_length_b 13.296216
_cell_length_c 5.090654
_cell_angle_alpha 90.000000
_cell_angle_beta 90.000000
_cell_angle_gamma 90.000000
_cell_volume 1134.967769
_symmetry_space_group_name_H-M "P 2 2 21"
_symmetry_group_IT_number 17
_symmetry_cell_setting 'orthorhombic'
loop_
_space_group_symop_operation_xyz
x,y,z
-x,-y,1/2+z
x,-y,-z
-x,y,1/2-z
loop_
_atom_site_type_symbol
_atom_site_label
_atom_site_fract_x
_atom_site_fract_y
_atom_site_fract_z
Si Si1 0.844169 0.307059 0.588799
Si Si2 0.413435 0.573229 0.748048
Si Si3 0.056721 0.883220 0.000121
Si Si4 0.755127 0.382392 0.082055
Si Si5 0.000000 0.430952 0.750000
O O1 0.870649 0.194053 0.519814
O O2 0.812581 0.360016 0.325861
O O3 0.923928 0.363438 0.683389
O O4 0.781398 0.319702 0.826347
O O5 0.420673 0.500000 0.500000
O O6 0.500000 0.626373 0.750000
O O7 0.334377 0.636696 0.689721
O O8 0.401031 0.500000 0.000000
O O9 0.000000 0.868675 0.250000
O O10 0.000000 0.863342 0.750000
O O11 0.082119 0.000000 0.000000
O O12 0.759471 0.500000 0.000000
O O13 0.018287 0.500000 0.500000
#
# Coordination Sequence:
#
# PCOD9311022 Si02
#       5
#     4   4   4   4   2
#     4  12  22  34  49  69  96 129 168 201 243 285
#     4   9  17  30  48  68  94 132 170 198 232 280
#     4  10  21  38  55  69  87 120 168 218 257 284
#     4  11  21  33  47  71 103 133 160 196 237 285
#     4  12  24  32  44  64  96 134 166 190 220 282
#
# _framework density 15.85948
#
# number of rings (size 3 to 8) (size 9 to 14) (size 15 to 20)
#    0.000    1.333    1.111    8.000    1.556    0.000 
#    0.000    0.000    0.000    0.000    0.000    0.000 
#    0.000    3.556    0.000    3.111    0.000    0.000 
#
# Total GULP energy -100463.942221 kJ/mol
# GULP energy per Si atom -5581.330123 kJ/mol
# Density = 1.582338 g / cm^3
# Si number density = 15.859480 Si / 1000 Ang^3
#
#
#
# Elastic Constant Matrix: (Units=GPa)
#
#
# Indices 1 2 3 4 5 6 
#
# 1 103.8343 51.0691 36.7262 0.0000 0.0000 0.0000
# 2 51.0691 70.9876 32.8696 0.0000 0.0000 0.0000
# 3 36.7262 32.8696 130.7939 0.0000 0.0000 0.0000
# 4 0.0000 0.0000 0.0000 25.8493 0.0000 0.0000
# 5 0.0000 0.0000 0.0000 0.0000 26.4377 0.0000
# 6 0.0000 0.0000 0.0000 0.0000 0.0000 5.7833
#
#
#
# Elastic Compliance Matrix: (Units=1/GPa)
#
#
# Indices 1 2 3 4 5 6 
#
# 1 0.015241 -0.010166 -0.001725 0.000000 0.000000 0.000000
# 2 -0.010166 0.022723 -0.002856 0.000000 0.000000 0.000000
# 3 -0.001725 -0.002856 0.008848 0.000000 0.000000 0.000000
# 4 0.000000 0.000000 0.000000 0.038686 0.000000 0.000000
# 5 0.000000 0.000000 0.000000 0.000000 0.037825 0.000000
# 6 0.000000 0.000000 0.000000 0.000000 0.000000 0.172913
#
#
# Mechanical properties :
#
#
# Convention : Reuss Voigt Hill
#
# Bulk Modulus (GPa) = 57.74268 60.77173 59.25721
# Shear Modulus (GPa) = 15.08299 23.94412 19.51356
#
# Velocity S-wave (km/s) = 3.08724 3.88979 3.51152
# Velocity P-wave (km/s) = 7.01399 7.65349 7.34071
#
# Compressibility (1/GPa) = 0.01731821
#
# Stress axis : x y z
#
# Youngs Moduli (GPa) = 65.61456 44.00918 113.02439
#
# Poissons Ratio (x) = 0.44738 0.19494
# Poissons Ratio (y) = 0.66701 0.32279
# Poissons Ratio (z) = 0.11317 0.12569
#
# Static dielectric constant tensor:
#      x y z
#    x 1.583710 0.000000 0.000000 
#    y 0.000000 1.532270 0.000000 
#    z 0.000000 0.000000 1.538840 
# 
# From -- ./inp_files/2000.got.cif
#   From: 2010.05.17/outbox.cif.g08.bks.cpg/sg17_1_cif.got.tgz:2000.got - 2010.06.03 22:34:06.
