data_PCOD9311709
_publ_section_title
;
Structure prediction by ZEFSAII (Michael W. Deem and Ramdas Pophale) SiO2 
 PCOD9311709
Probable space group: P 21 21 2
;
_chemical_formula_sum "Si O2"
_cell_formula_units_Z 26
_cell_length_a 8.134197
_cell_length_b 18.565435
_cell_length_c 6.830103
_cell_angle_alpha 90.000000
_cell_angle_beta 90.000000
_cell_angle_gamma 90.000000
_cell_volume 1031.447360
_symmetry_space_group_name_H-M "P 21 21 2"
_symmetry_group_IT_number 18
_symmetry_cell_setting 'orthorhombic'
loop_
_space_group_symop_operation_xyz
x,y,z
-x,-y,z
1/2+x,1/2-y,-z
1/2-x,1/2+y,-z
loop_
_atom_site_type_symbol
_atom_site_label
_atom_site_fract_x
_atom_site_fract_y
_atom_site_fract_z
Si Si1 0.743327 0.022919 0.201029
Si Si2 0.222108 0.738224 0.957498
Si Si3 0.495680 0.153235 0.537491
Si Si4 0.061528 0.120106 0.247758
Si Si5 0.000000 0.500000 0.448208
Si Si6 0.544691 0.141459 0.085045
Si Si7 0.876114 0.198154 0.565108
O O1 0.616768 0.061873 0.052876
O O2 0.892677 0.079307 0.196203
O O3 0.812289 0.942949 0.183759
O O4 0.654833 0.019134 0.412031
O O5 0.367122 0.691387 0.854876
O O6 0.113311 0.780646 0.793139
O O7 0.096619 0.679013 0.042280
O O8 0.307515 0.800296 0.081294
O O9 0.473613 0.137692 0.304726
O O10 0.689338 0.170242 0.557723
O O11 0.394619 0.227157 0.555047
O O12 0.458074 0.077560 0.643179
O O13 0.014122 0.145692 0.471019
#
# Coordination Sequence:
#
# PCOD9311709 Si02
#       7
#     4   4   4   4   2   4   4
#     4  10  20  34  60  88 123 163 219 257 310 393
#     4  11  23  37  66  91 132 162 221 268 326 384
#     4  10  21  35  60  87 131 159 225 262 323 385
#     4  11  20  35  59  94 121 170 212 262 318 381
#     4  10  18  34  54  88 116 168 204 262 304 390
#     4  10  21  38  57  94 119 170 210 266 316 390
#     4  11  20  36  58  95 123 168 211 276 315 384
#
# _framework density 25.207297000000001
#
# number of rings (size 3 to 8) (size 9 to 14) (size 15 to 20)
#    0.000    1.538    4.615    3.692    0.000    0.000 
#    0.000    0.000    0.000   18.462    0.000    0.000 
#    0.000    0.000    0.000    0.000    0.000    0.000 
#
# Total GULP energy -144846.248334 kJ/mol
# GULP energy per Si atom -5571.009551 kJ/mol
# Density = 2.514992 g / cm^3
# Si number density = 25.207297 Si / 1000 Ang^3
#
#
#
# Elastic Constant Matrix: (Units=GPa)
#
#
# Indices 1 2 3 4 5 6 
#
# 1 97.5278 79.3542 6.2915 0.0000 0.0000 0.0000
# 2 79.3542 203.1199 32.1350 0.0000 0.0000 0.0000
# 3 6.2915 32.1350 45.5440 0.0000 0.0000 0.0000
# 4 0.0000 0.0000 0.0000 38.3264 0.0000 0.0000
# 5 0.0000 0.0000 0.0000 0.0000 23.0446 0.0000
# 6 0.0000 0.0000 0.0000 0.0000 0.0000 71.4335
#
#
#
# Elastic Compliance Matrix: (Units=1/GPa)
#
#
# Indices 1 2 3 4 5 6 
#
# 1 0.015254 -0.006333 0.002361 0.000000 0.000000 0.000000
# 2 -0.006333 0.008171 -0.004891 0.000000 0.000000 0.000000
# 3 0.002361 -0.004891 0.025081 0.000000 0.000000 0.000000
# 4 0.000000 0.000000 0.000000 0.026092 0.000000 0.000000
# 5 0.000000 0.000000 0.000000 0.000000 0.043394 0.000000
# 6 0.000000 0.000000 0.000000 0.000000 0.000000 0.013999
#
#
# Mechanical properties :
#
#
# Convention : Reuss Voigt Hill
#
# Bulk Modulus (GPa) = 32.48666 64.63921 48.56294
# Shear Modulus (GPa) = 31.25465 41.78831 36.52148
#
# Velocity S-wave (km/s) = 3.52505 4.07601 3.81050
# Velocity P-wave (km/s) = 5.42989 6.91741 6.21829
#
# Compressibility (1/GPa) = 0.03078186
#
# Stress axis : x y z
#
# Youngs Moduli (GPa) = 65.55649 122.38327 39.87039
#
# Poissons Ratio (x) = 0.77505 -0.09414
# Poissons Ratio (y) = 0.41517 0.19499
# Poissons Ratio (z) = -0.15479 0.59852
#
# Static dielectric constant tensor:
#      x y z
#    x 2.072300 0.000000 0.000000 
#    y 0.000000 2.054440 0.000000 
#    z 0.000000 0.000000 2.050020 
# 
# From -- ./inp_files/3377.got.cif
#   From: 2010.05.17/outbox.cif.g08.bks.cpg/sg18_2_cif.got.tgz:3377.got - 2010.06.03 22:40:56.
