data_PCOD9311411
_publ_section_title
;
Structure prediction by ZEFSAII (Michael W. Deem and Ramdas Pophale) SiO2 
 PCOD9311411
Probable space group: P 2 2 21
;
_chemical_formula_sum "Si O2"
_cell_formula_units_Z 20
_cell_length_a 7.520885
_cell_length_b 5.603142
_cell_length_c 17.934233
_cell_angle_alpha 90.000000
_cell_angle_beta 90.000000
_cell_angle_gamma 90.000000
_cell_volume 755.759099
_symmetry_space_group_name_H-M "P 2 2 21"
_symmetry_group_IT_number 17
_symmetry_cell_setting 'orthorhombic'
loop_
_space_group_symop_operation_xyz
x,y,z
-x,-y,1/2+z
x,-y,-z
-x,y,1/2-z
loop_
_atom_site_type_symbol
_atom_site_label
_atom_site_fract_x
_atom_site_fract_y
_atom_site_fract_z
Si Si1 0.507908 0.159166 0.878372
Si Si2 0.500000 0.530753 0.750000
Si Si3 0.882449 0.552381 0.688924
Si Si4 0.661764 0.500000 0.000000
Si Si5 0.828056 0.849787 0.884037
Si Si6 0.137198 0.149116 0.924100
O O1 0.550046 0.358917 0.818338
O O2 0.306895 0.066898 0.875375
O O3 0.636483 0.941036 0.860886
O O4 0.544801 0.297609 0.956867
O O5 0.692029 0.625836 0.722363
O O6 0.855464 0.421843 0.608110
O O7 0.000000 0.399273 0.750000
O O8 0.024591 0.756237 0.671999
O O9 0.784655 0.355026 0.056899
O O10 0.931614 0.080676 0.914343
O O11 0.177063 0.000000 0.000000
#
# Coordination Sequence:
#
# PCOD9311411 Si02
#       6
#     4   2   4   2   4   4
#     4  11  26  46  71 101 143 185 233 291 350 418
#     4  10  24  48  68 102 146 184 230 288 350 420
#     4  11  25  43  69 102 142 185 232 290 354 419
#     4  12  24  46  72 100 144 186 234 298 354 410
#     4  12  24  42  70 101 135 184 237 292 351 415
#     4  11  24  43  68 102 139 184 239 293 349 415
#
# _framework density 26.463459
#
# number of rings (size 3 to 8) (size 9 to 14) (size 15 to 20)
#    0.000    0.800    0.000    7.800    0.000   12.000 
#    0.000    4.000    0.000    0.000    0.000    0.000 
#    0.000    0.000    0.000    0.000    0.000    0.000 
#
# Total GULP energy -111516.479727 kJ/mol
# GULP energy per Si atom -5575.823986 kJ/mol
# Density = 2.640323 g / cm^3
# Si number density = 26.463459 Si / 1000 Ang^3
#
#
#
# Elastic Constant Matrix: (Units=GPa)
#
#
# Indices 1 2 3 4 5 6 
#
# 1 156.3694 27.2515 -10.7215 0.0000 0.0000 0.0000
# 2 27.2515 58.9106 18.8229 0.0000 0.0000 0.0000
# 3 -10.7215 18.8229 70.2077 0.0000 0.0000 0.0000
# 4 0.0000 0.0000 0.0000 21.9220 0.0000 0.0000
# 5 0.0000 0.0000 0.0000 0.0000 30.4896 0.0000
# 6 0.0000 0.0000 0.0000 0.0000 0.0000 32.6108
#
#
#
# Elastic Compliance Matrix: (Units=1/GPa)
#
#
# Indices 1 2 3 4 5 6 
#
# 1 0.007253 -0.004056 0.002195 0.000000 0.000000 0.000000
# 2 -0.004056 0.020834 -0.006205 0.000000 0.000000 0.000000
# 3 0.002195 -0.006205 0.016242 0.000000 0.000000 0.000000
# 4 0.000000 0.000000 0.000000 0.045616 0.000000 0.000000
# 5 0.000000 0.000000 0.000000 0.000000 0.032798 0.000000
# 6 0.000000 0.000000 0.000000 0.000000 0.000000 0.030665
#
#
# Mechanical properties :
#
#
# Convention : Reuss Voigt Hill
#
# Bulk Modulus (GPa) = 35.46600 39.57707 37.52153
# Shear Modulus (GPa) = 27.94248 33.68014 30.81131
#
# Velocity S-wave (km/s) = 3.25297 3.57137 3.41588
# Velocity P-wave (km/s) = 5.24786 5.65633 5.45592
#
# Compressibility (1/GPa) = 0.02819602
#
# Stress axis : x y z
#
# Youngs Moduli (GPa) = 137.88279 47.99868 61.56774
#
# Poissons Ratio (x) = 0.19470 -0.13514
# Poissons Ratio (y) = 0.55930 0.38203
# Poissons Ratio (z) = -0.30266 0.29784
#
# Static dielectric constant tensor:
#      x y z
#    x 1.993030 0.000000 0.000000 
#    y 0.000000 2.376370 0.000000 
#    z 0.000000 0.000000 2.439800 
# 
# From -- ./inp_files/9279.got.cif
#   From: 2010.05.17/outbox.cif.g08.bks.cpg/sg17_5_cif.got.tgz:9279.got - 2010.06.03 22:34:06.
