data_PCOD9311739
_publ_section_title
;
Structure prediction by ZEFSAII (Michael W. Deem and Ramdas Pophale) SiO2 
 PCOD9311739
Probable space group: P 21 21 2
;
_chemical_formula_sum "Si O2"
_cell_formula_units_Z 16
_cell_length_a 5.020979
_cell_length_b 17.257565
_cell_length_c 6.293467
_cell_angle_alpha 90.000000
_cell_angle_beta 90.000000
_cell_angle_gamma 90.000000
_cell_volume 545.328107
_symmetry_space_group_name_H-M "P 21 21 2"
_symmetry_group_IT_number 18
_symmetry_cell_setting 'orthorhombic'
loop_
_space_group_symop_operation_xyz
x,y,z
-x,-y,z
1/2+x,1/2-y,-z
1/2-x,1/2+y,-z
loop_
_atom_site_type_symbol
_atom_site_label
_atom_site_fract_x
_atom_site_fract_y
_atom_site_fract_z
Si Si1 0.454034 0.214381 0.113197
Si Si2 0.850860 0.159897 0.598247
Si Si3 0.159620 0.569927 0.301826
Si Si4 0.132794 0.074135 0.245974
O O1 0.428212 0.252634 0.347003
O O2 0.348012 0.126533 0.123956
O O3 0.736837 0.235598 0.017415
O O4 0.557194 0.136840 0.666959
O O5 0.920874 0.132782 0.359098
O O6 0.054411 0.108265 0.745395
O O7 0.231425 0.540117 0.540928
O O8 0.000000 0.500000 0.192964
O O9 0.000000 0.000000 0.136290
#
# Coordination Sequence:
#
# PCOD9311739 Si02
#       4
#     4   4   4   4
#     4  12  29  46  67 107 160 199 235 298 388 453
#     4  10  22  40  72 102 135 184 249 303 350 428
#     4  10  18  37  70 109 128 167 241 314 354 396
#     4  10  24  44  79 105 138 190 261 307 358 426
#
# _framework density 29.340133000000002
#
# number of rings (size 3 to 8) (size 9 to 14) (size 15 to 20)
#    1.500    0.000    2.500    2.250    7.000    0.000 
#    0.000    6.250    0.000    1.500    0.000    0.000 
#    0.000    0.000    0.000    0.000    0.000    0.000 
#
# Total GULP energy -89589.610273 kJ/mol
# GULP energy per Si atom -5599.350642 kJ/mol
# Density = 2.927335 g / cm^3
# Si number density = 29.340133 Si / 1000 Ang^3
#
#
#
# Elastic Constant Matrix: (Units=GPa)
#
#
# Indices 1 2 3 4 5 6 
#
# 1 154.8120 24.0116 29.6577 0.0000 0.0000 0.0000
# 2 24.0116 171.5454 38.3216 0.0000 0.0000 0.0000
# 3 29.6577 38.3216 70.2521 0.0000 0.0000 0.0000
# 4 0.0000 0.0000 0.0000 48.3698 0.0000 0.0000
# 5 0.0000 0.0000 0.0000 0.0000 54.2382 0.0000
# 6 0.0000 0.0000 0.0000 0.0000 0.0000 50.8383
#
#
#
# Elastic Compliance Matrix: (Units=1/GPa)
#
#
# Indices 1 2 3 4 5 6 
#
# 1 0.007048 -0.000367 -0.002775 0.000000 0.000000 0.000000
# 2 -0.000367 0.006657 -0.003477 0.000000 0.000000 0.000000
# 3 -0.002775 -0.003477 0.017303 0.000000 0.000000 0.000000
# 4 0.000000 0.000000 0.000000 0.020674 0.000000 0.000000
# 5 0.000000 0.000000 0.000000 0.000000 0.018437 0.000000
# 6 0.000000 0.000000 0.000000 0.000000 0.000000 0.019670
#
#
# Mechanical properties :
#
#
# Convention : Reuss Voigt Hill
#
# Bulk Modulus (GPa) = 56.27295 64.51015 60.39155
# Shear Modulus (GPa) = 45.89243 50.99717 48.44480
#
# Velocity S-wave (km/s) = 3.95923 4.17362 4.06784
# Velocity P-wave (km/s) = 6.33418 6.72757 6.53383
#
# Compressibility (1/GPa) = 0.01777053
#
# Stress axis : x y z
#
# Youngs Moduli (GPa) = 141.88428 150.21027 57.79456
#
# Poissons Ratio (x) = 0.05505 0.16041
# Poissons Ratio (y) = 0.05200 0.20094
# Poissons Ratio (z) = 0.39379 0.52224
#
# Static dielectric constant tensor:
#      x y z
#    x 2.225270 0.000000 0.000000 
#    y 0.000000 2.213600 0.000000 
#    z 0.000000 0.000000 2.508420 
# 
# From -- ./inp_files/2426.got.cif
#   From: 2010.05.17/outbox.cif.g08.bks.cpg/sg18_2_cif.got.tgz:2426.got - 2010.06.03 22:40:56.
