data_PCOD9311703
_publ_section_title
;
Structure prediction by ZEFSAII (Michael W. Deem and Ramdas Pophale) SiO2 
 PCOD9311703
Probable space group: P 21 21 2
;
_chemical_formula_sum "Si O2"
_cell_formula_units_Z 32
_cell_length_a 14.564439
_cell_length_b 10.704206
_cell_length_c 8.936714
_cell_angle_alpha 90.000000
_cell_angle_beta 90.000000
_cell_angle_gamma 90.000000
_cell_volume 1393.240463
_symmetry_space_group_name_H-M "P 21 21 2"
_symmetry_group_IT_number 18
_symmetry_cell_setting 'orthorhombic'
loop_
_space_group_symop_operation_xyz
x,y,z
-x,-y,z
1/2+x,1/2-y,-z
1/2-x,1/2+y,-z
loop_
_atom_site_type_symbol
_atom_site_label
_atom_site_fract_x
_atom_site_fract_y
_atom_site_fract_z
Si Si1 0.049120 0.633473 0.007417
Si Si2 0.606857 0.200892 0.775476
Si Si3 0.391652 0.505610 0.262972
Si Si4 0.102950 0.049742 0.408889
Si Si5 0.225879 0.496211 0.061574
Si Si6 0.280490 0.974420 0.293697
Si Si7 0.391732 0.225379 0.315889
Si Si8 0.444371 0.876756 0.458334
O O1 0.145839 0.599258 0.083999
O O2 0.000000 0.500000 0.977729
O O3 0.980554 0.705760 0.115318
O O4 0.067085 0.697798 0.849383
O O5 0.621667 0.335109 0.702136
O O6 0.687872 0.132125 0.864761
O O7 0.584527 0.116609 0.630178
O O8 0.500000 0.500000 0.221632
O O9 0.382655 0.582778 0.416429
O O10 0.321872 0.540308 0.131454
O O11 0.359064 0.366429 0.310079
O O12 0.181820 0.952183 0.365152
O O13 0.000000 0.000000 0.391298
O O14 0.228893 0.475703 0.884185
O O15 0.320332 0.112302 0.342833
O O16 0.355792 0.877053 0.353129
O O17 0.476246 0.223784 0.432004
O O18 0.500000 0.000000 0.412927
#
# Coordination Sequence:
#
# PCOD9311703 Si02
#       8
#     4   4   4   4   4   4   4   4
#     4   9  19  38  64  94 122 149 198 257 301 355
#     4  11  21  38  64  92 121 160 200 246 303 362
#     4  11  24  42  59  83 123 164 204 250 298 356
#     4  11  25  43  57  82 123 163 202 246 295 360
#     4  10  21  40  63  91 120 152 201 254 303 359
#     4  10  22  39  63  91 121 155 201 253 303 360
#     4  10  20  39  63  89 120 160 199 245 302 356
#     4  10  18  33  61  92 120 153 199 253 303 350
#
# _framework density 22.968039000000001
#
# number of rings (size 3 to 8) (size 9 to 14) (size 15 to 20)
#    0.000    1.750    0.000    6.750    0.000    3.500 
#    0.000   12.500    0.000    0.000    0.000    0.000 
#    0.000    0.000    0.000    0.000    0.000    0.000 
#
# Total GULP energy -178855.268559 kJ/mol
# GULP energy per Si atom -5589.227142 kJ/mol
# Density = 2.291576 g / cm^3
# Si number density = 22.968039 Si / 1000 Ang^3
#
#
#
# Elastic Constant Matrix: (Units=GPa)
#
#
# Indices 1 2 3 4 5 6 
#
# 1 153.1126 -2.3069 48.6528 0.0000 0.0000 0.0000
# 2 -2.3069 44.6749 -1.5237 0.0000 0.0000 0.0000
# 3 48.6528 -1.5237 82.1909 0.0000 0.0000 0.0000
# 4 0.0000 0.0000 0.0000 6.2116 0.0000 0.0000
# 5 0.0000 0.0000 0.0000 0.0000 26.3545 0.0000
# 6 0.0000 0.0000 0.0000 0.0000 0.0000 17.9942
#
#
#
# Elastic Compliance Matrix: (Units=1/GPa)
#
#
# Indices 1 2 3 4 5 6 
#
# 1 0.008047 0.000253 -0.004759 0.000000 0.000000 0.000000
# 2 0.000253 0.022406 0.000265 0.000000 0.000000 0.000000
# 3 -0.004759 0.000265 0.014989 0.000000 0.000000 0.000000
# 4 0.000000 0.000000 0.000000 0.160990 0.000000 0.000000
# 5 0.000000 0.000000 0.000000 0.000000 0.037944 0.000000
# 6 0.000000 0.000000 0.000000 0.000000 0.000000 0.055573
#
#
# Mechanical properties :
#
#
# Convention : Reuss Voigt Hill
#
# Bulk Modulus (GPa) = 27.05505 41.06920 34.06213
# Shear Modulus (GPa) = 15.58847 25.78914 20.68880
#
# Velocity S-wave (km/s) = 2.60802 3.35450 3.00453
# Velocity P-wave (km/s) = 4.56881 5.73789 5.18640
#
# Compressibility (1/GPa) = 0.03696167
#
# Stress axis : x y z
#
# Youngs Moduli (GPa) = 124.26839 44.63081 66.71702
#
# Poissons Ratio (x) = -0.01130 0.31749
# Poissons Ratio (y) = -0.03147 -0.01771
# Poissons Ratio (z) = 0.59137 -0.01185
#
# Static dielectric constant tensor:
#      x y z
#    x 1.899320 0.000000 0.000000 
#    y 0.000000 1.942900 0.000000 
#    z 0.000000 0.000000 1.809660 
# 
# From -- ./inp_files/4312.got.cif
#   From: 2010.05.17/outbox.cif.g08.bks.cpg/sg18_3_cif.got.tgz:4312.got - 2010.06.03 22:40:56.
