data_PCOD9311861
_publ_section_title
;
Structure prediction by ZEFSAII (Michael W. Deem and Ramdas Pophale) SiO2 
 PCOD9311861
Probable space group: P 21 21 2
;
_chemical_formula_sum "Si O2"
_cell_formula_units_Z 24
_cell_length_a 12.826025
_cell_length_b 11.370908
_cell_length_c 8.892780
_cell_angle_alpha 90.000000
_cell_angle_beta 90.000000
_cell_angle_gamma 90.000000
_cell_volume 1296.954607
_symmetry_space_group_name_H-M "P 21 21 2"
_symmetry_group_IT_number 18
_symmetry_cell_setting 'orthorhombic'
loop_
_space_group_symop_operation_xyz
x,y,z
-x,-y,z
1/2+x,1/2-y,-z
1/2-x,1/2+y,-z
loop_
_atom_site_type_symbol
_atom_site_label
_atom_site_fract_x
_atom_site_fract_y
_atom_site_fract_z
Si Si1 0.379750 0.021552 0.429294
Si Si2 0.815870 0.324532 0.096871
Si Si3 0.270250 0.942187 0.722385
Si Si4 0.614479 0.175024 0.174635
Si Si5 0.109621 0.747696 0.764142
Si Si6 0.034525 0.368271 0.157527
O O1 0.298949 0.997891 0.562460
O O2 0.368263 0.929914 0.291736
O O3 0.500000 0.000000 0.479674
O O4 0.367940 0.152149 0.364626
O O5 0.783035 0.456010 0.150767
O O6 0.721350 0.242849 0.146774
O O7 0.928134 0.295939 0.174034
O O8 0.842278 0.305023 0.920559
O O9 0.163391 0.872215 0.734553
O O10 0.362100 0.844901 0.748515
O O11 0.516131 0.253780 0.227225
O O12 0.571957 0.130119 0.014673
O O13 0.000000 0.500000 0.194972
#
# Coordination Sequence:
#
# PCOD9311861 Si02
#       6
#     4   4   4   4   4   4
#     4  10  21  37  58  84 114 150 192 232 276 336
#     4  10  20  34  60  83 112 147 186 236 276 329
#     4  11  21  36  59  85 113 149 188 232 281 334
#     4  10  19  36  59  84 115 147 184 232 286 331
#     4  10  22  37  58  87 114 148 191 233 277 337
#     4   9  17  34  56  83 106 143 195 229 262 329
#
# _framework density 18.504888999999999
#
# number of rings (size 3 to 8) (size 9 to 14) (size 15 to 20)
#    0.000    2.000    1.667    5.000    2.333    0.667 
#    0.000    0.000    0.000    1.000    0.000    0.000 
#    0.000    0.000    0.000    0.000    0.000    0.000 
#
# Total GULP energy -133684.290373 kJ/mol
# GULP energy per Si atom -5570.178766 kJ/mol
# Density = 1.846277 g / cm^3
# Si number density = 18.504889 Si / 1000 Ang^3
#
#
#
# Elastic Constant Matrix: (Units=GPa)
#
#
# Indices 1 2 3 4 5 6 
#
# 1 56.5460 4.9786 16.4111 0.0000 0.0000 0.0000
# 2 4.9786 29.2627 10.8244 0.0000 0.0000 0.0000
# 3 16.4111 10.8244 54.9510 0.0000 0.0000 0.0000
# 4 0.0000 0.0000 0.0000 14.0482 0.0000 0.0000
# 5 0.0000 0.0000 0.0000 0.0000 24.7344 0.0000
# 6 0.0000 0.0000 0.0000 0.0000 0.0000 32.0204
#
#
#
# Elastic Compliance Matrix: (Units=1/GPa)
#
#
# Indices 1 2 3 4 5 6 
#
# 1 0.019405 -0.001249 -0.005549 0.000000 0.000000 0.000000
# 2 -0.001249 0.036939 -0.006903 0.000000 0.000000 0.000000
# 3 -0.005549 -0.006903 0.021215 0.000000 0.000000 0.000000
# 4 0.000000 0.000000 0.000000 0.071183 0.000000 0.000000
# 5 0.000000 0.000000 0.000000 0.000000 0.040429 0.000000
# 6 0.000000 0.000000 0.000000 0.000000 0.000000 0.031230
#
#
# Mechanical properties :
#
#
# Convention : Reuss Voigt Hill
#
# Bulk Modulus (GPa) = 19.93762 22.79867 21.36814
# Shear Modulus (GPa) = 18.90182 21.39699 20.14941
#
# Velocity S-wave (km/s) = 3.19948 3.40411 3.30338
# Velocity P-wave (km/s) = 4.94434 5.27236 5.11098
#
# Compressibility (1/GPa) = 0.05015645
#
# Stress axis : x y z
#
# Youngs Moduli (GPa) = 51.53243 27.07149 47.13600
#
# Poissons Ratio (x) = 0.03381 0.26158
# Poissons Ratio (y) = 0.06435 0.32540
# Poissons Ratio (z) = 0.28597 0.18689
#
# Static dielectric constant tensor:
#      x y z
#    x 1.697200 0.000000 0.000000 
#    y 0.000000 1.625460 0.000000 
#    z 0.000000 0.000000 1.677670 
# 
# From -- ./inp_files/3720.got.cif
#   From: 2010.05.17/outbox.cif.g08.bks.cpg/sg18_2_cif.got.tgz:3720.got - 2010.06.03 22:40:56.
