data_PCOD9311902
_publ_section_title
;
Structure prediction by ZEFSAII (Michael W. Deem and Ramdas Pophale) SiO2 
 PCOD9311902
Probable space group: P 21 21 2
;
_chemical_formula_sum "Si O2"
_cell_formula_units_Z 32
_cell_length_a 13.827070
_cell_length_b 18.129155
_cell_length_c 6.237377
_cell_angle_alpha 90.000000
_cell_angle_beta 90.000000
_cell_angle_gamma 90.000000
_cell_volume 1563.542599
_symmetry_space_group_name_H-M "P 21 21 2"
_symmetry_group_IT_number 18
_symmetry_cell_setting 'orthorhombic'
loop_
_space_group_symop_operation_xyz
x,y,z
-x,-y,z
1/2+x,1/2-y,-z
1/2-x,1/2+y,-z
loop_
_atom_site_type_symbol
_atom_site_label
_atom_site_fract_x
_atom_site_fract_y
_atom_site_fract_z
Si Si1 0.321390 0.872524 0.307588
Si Si2 0.583936 0.447921 0.957764
Si Si3 0.166916 0.179067 0.340837
Si Si4 0.681622 0.704073 0.358207
Si Si5 0.731499 0.566789 0.071839
Si Si6 0.434563 0.929455 0.689158
Si Si7 0.519472 0.323645 0.281701
Si Si8 0.945363 0.706649 0.044311
O O1 0.254556 0.826601 0.463750
O O2 0.407840 0.904473 0.449913
O O3 0.365653 0.824595 0.118422
O O4 0.257156 0.930943 0.180091
O O5 0.500000 0.500000 0.857911
O O6 0.655404 0.501272 0.090359
O O7 0.532250 0.393914 0.128965
O O8 0.641879 0.396800 0.786114
O O9 0.276473 0.212593 0.328291
O O10 0.117247 0.178972 0.576293
O O11 0.106669 0.240836 0.212431
O O12 0.694017 0.646342 0.158844
O O13 0.572840 0.686332 0.435377
O O14 0.830874 0.553798 0.200585
O O15 0.500000 0.000000 0.692214
O O16 0.483301 0.862896 0.823392
O O17 0.494136 0.257383 0.114418
#
# Coordination Sequence:
#
# PCOD9311902 Si02
#       8
#     4   4   4   4   4   4   4   4
#     4  10  19  37  68  85 126 166 220 266 322 381
#     4  11  25  43  64 100 138 174 218 267 336 400
#     4  11  23  42  65  99 129 168 222 274 319 400
#     4  11  21  40  66  95 123 174 219 262 334 385
#     4  10  22  42  63  92 128 176 215 265 325 394
#     4  10  21  37  64  94 127 171 222 264 329 395
#     4  11  24  39  68  96 136 172 215 277 328 396
#     4  10  19  41  60  88 129 165 215 265 321 377
#
# _framework density 20.466342000000001
#
# number of rings (size 3 to 8) (size 9 to 14) (size 15 to 20)
#    0.000    1.500    6.250    0.000    1.750    5.500 
#    0.000    3.750    0.000    0.000    0.000    0.000 
#    0.000    0.000    0.000    0.000    0.000    0.000 
#
# Total GULP energy -178199.484121 kJ/mol
# GULP energy per Si atom -5568.733879 kJ/mol
# Density = 2.041976 g / cm^3
# Si number density = 20.466342 Si / 1000 Ang^3
#
#
#
# Elastic Constant Matrix: (Units=GPa)
#
#
# Indices 1 2 3 4 5 6 
#
# 1 59.6789 36.0642 -3.2455 0.0000 0.0000 0.0000
# 2 36.0642 106.1056 30.1928 0.0000 0.0000 0.0000
# 3 -3.2455 30.1928 72.2552 0.0000 0.0000 0.0000
# 4 0.0000 0.0000 0.0000 16.1504 0.0000 0.0000
# 5 0.0000 0.0000 0.0000 0.0000 8.9835 0.0000
# 6 0.0000 0.0000 0.0000 0.0000 0.0000 36.1691
#
#
#
# Elastic Compliance Matrix: (Units=1/GPa)
#
#
# Indices 1 2 3 4 5 6 
#
# 1 0.022444 -0.008984 0.004762 0.000000 0.000000 0.000000
# 2 -0.008984 0.014292 -0.006376 0.000000 0.000000 0.000000
# 3 0.004762 -0.006376 0.016718 0.000000 0.000000 0.000000
# 4 0.000000 0.000000 0.000000 0.061918 0.000000 0.000000
# 5 0.000000 0.000000 0.000000 0.000000 0.111316 0.000000
# 6 0.000000 0.000000 0.000000 0.000000 0.000000 0.027648
#
#
# Mechanical properties :
#
#
# Convention : Reuss Voigt Hill
#
# Bulk Modulus (GPa) = 30.99834 40.45140 35.72487
# Shear Modulus (GPa) = 17.46521 23.92916 20.69718
#
# Velocity S-wave (km/s) = 2.92441 3.42306 3.18351
# Velocity P-wave (km/s) = 5.15575 5.95238 5.56833
#
# Compressibility (1/GPa) = 0.03225979
#
# Stress axis : x y z
#
# Youngs Moduli (GPa) = 44.55504 69.96803 59.81602
#
# Poissons Ratio (x) = 0.62856 -0.28485
# Poissons Ratio (y) = 0.40026 0.38137
# Poissons Ratio (z) = -0.21217 0.44610
#
# Static dielectric constant tensor:
#      x y z
#    x 1.858290 0.000000 0.000000 
#    y 0.000000 1.779330 0.000000 
#    z 0.000000 0.000000 1.778030 
# 
# From -- ./inp_files/1641.got.cif
#   From: 2010.05.17/outbox.cif.g08.bks.cpg/sg18_1_cif.got.tgz:1641.got - 2010.06.03 22:40:56.
