data_PCOD9311820
_publ_section_title
;
Structure prediction by ZEFSAII (Michael W. Deem and Ramdas Pophale) SiO2 
 PCOD9311820
Probable space group: P 21 21 2
;
_chemical_formula_sum "Si O2"
_cell_formula_units_Z 32
_cell_length_a 12.224787
_cell_length_b 14.062499
_cell_length_c 7.672144
_cell_angle_alpha 90.000000
_cell_angle_beta 90.000000
_cell_angle_gamma 90.000000
_cell_volume 1318.926369
_symmetry_space_group_name_H-M "P 21 21 2"
_symmetry_group_IT_number 18
_symmetry_cell_setting 'orthorhombic'
loop_
_space_group_symop_operation_xyz
x,y,z
-x,-y,z
1/2+x,1/2-y,-z
1/2-x,1/2+y,-z
loop_
_atom_site_type_symbol
_atom_site_label
_atom_site_fract_x
_atom_site_fract_y
_atom_site_fract_z
Si Si1 0.938787 0.349674 0.888562
Si Si2 0.640738 0.296812 0.458743
Si Si3 0.129504 0.125448 0.030995
Si Si4 0.551825 0.639989 0.235677
Si Si5 0.751135 0.535695 0.131967
Si Si6 0.924147 0.679618 0.201408
Si Si7 0.186032 0.372182 0.774986
Si Si8 0.250063 0.555279 0.671061
O O1 0.912737 0.247564 0.804809
O O2 0.847622 0.416061 0.804281
O O3 0.057518 0.383456 0.820470
O O4 0.962144 0.335995 0.095837
O O5 0.537420 0.355401 0.386777
O O6 0.591478 0.227518 0.609855
O O7 0.690091 0.231856 0.305568
O O8 0.734697 0.367633 0.523069
O O9 0.015931 0.110246 0.935364
O O10 0.219690 0.073000 0.909531
O O11 0.135274 0.237918 0.078897
O O12 0.140921 0.072422 0.214614
O O13 0.655370 0.574429 0.254416
O O14 0.864837 0.577053 0.202247
O O15 0.747266 0.594568 0.946483
O O16 0.226057 0.447164 0.629999
#
# Coordination Sequence:
#
# PCOD9311820 Si02
#       8
#     4   4   4   4   4   4   4   4
#     4   9  18  35  61  83 109 156 201 241 294 365
#     4  10  21  36  55  87 128 156 189 254 311 354
#     4   9  19  34  55  84 115 154 206 247 281 354
#     4  10  19  34  55  82 117 154 195 242 292 350
#     4  10  19  36  61  81 110 162 205 240 293 357
#     4   9  19  37  58  87 122 150 196 256 302 360
#     4   9  20  37  60  89 121 156 202 254 299 358
#     4  10  19  37  61  85 122 164 200 246 308 358
#
# _framework density 24.262156000000001
#
# number of rings (size 3 to 8) (size 9 to 14) (size 15 to 20)
#    0.000    2.500    0.000    3.000    0.000    1.000 
#    0.000   17.500    0.000   18.000    0.000    0.000 
#    0.000    0.000    0.000    0.000    0.000    0.000 
#
# Total GULP energy -178413.229024 kJ/mol
# GULP energy per Si atom -5575.413407 kJ/mol
# Density = 2.420693 g / cm^3
# Si number density = 24.262156 Si / 1000 Ang^3
#
#
#
# Elastic Constant Matrix: (Units=GPa)
#
#
# Indices 1 2 3 4 5 6 
#
# 1 62.1538 27.4215 16.2237 0.0000 0.0000 0.0000
# 2 27.4215 69.4138 19.9109 0.0000 0.0000 0.0000
# 3 16.2237 19.9109 82.8580 0.0000 0.0000 0.0000
# 4 0.0000 0.0000 0.0000 24.1685 0.0000 0.0000
# 5 0.0000 0.0000 0.0000 0.0000 27.0234 0.0000
# 6 0.0000 0.0000 0.0000 0.0000 0.0000 28.8304
#
#
#
# Elastic Compliance Matrix: (Units=1/GPa)
#
#
# Indices 1 2 3 4 5 6 
#
# 1 0.019835 -0.007219 -0.002149 0.000000 0.000000 0.000000
# 2 -0.007219 0.018101 -0.002936 0.000000 0.000000 0.000000
# 3 -0.002149 -0.002936 0.013195 0.000000 0.000000 0.000000
# 4 0.000000 0.000000 0.000000 0.041376 0.000000 0.000000
# 5 0.000000 0.000000 0.000000 0.000000 0.037005 0.000000
# 6 0.000000 0.000000 0.000000 0.000000 0.000000 0.034686
#
#
# Mechanical properties :
#
#
# Convention : Reuss Voigt Hill
#
# Bulk Modulus (GPa) = 37.70429 37.94865 37.82647
# Shear Modulus (GPa) = 25.29765 26.06243 25.68004
#
# Velocity S-wave (km/s) = 3.23256 3.28106 3.25690
# Velocity P-wave (km/s) = 5.43201 5.47986 5.45598
#
# Compressibility (1/GPa) = 0.02652218
#
# Stress axis : x y z
#
# Youngs Moduli (GPa) = 50.41554 55.24708 75.78553
#
# Poissons Ratio (x) = 0.39885 0.16286
# Poissons Ratio (y) = 0.36397 0.22251
# Poissons Ratio (z) = 0.10834 0.16221
#
# Static dielectric constant tensor:
#      x y z
#    x 1.938270 0.000000 0.000000 
#    y 0.000000 2.016290 0.000000 
#    z 0.000000 0.000000 2.012350 
# 
# From -- ./inp_files/3952.got.cif
#   From: 2010.05.17/outbox.cif.g08.bks.cpg/sg18_2_cif.got.tgz:3952.got - 2010.06.03 22:40:56.
