data_PCOD9311414
_publ_section_title
;
Structure prediction by ZEFSAII (Michael W. Deem and Ramdas Pophale) SiO2 
 PCOD9311414
Probable space group: P 2 2 21
;
_chemical_formula_sum "Si O2"
_cell_formula_units_Z 22
_cell_length_a 11.712143
_cell_length_b 6.810588
_cell_length_c 12.722958
_cell_angle_alpha 90.000000
_cell_angle_beta 90.000000
_cell_angle_gamma 90.000000
_cell_volume 1014.866854
_symmetry_space_group_name_H-M "P 2 2 21"
_symmetry_group_IT_number 17
_symmetry_cell_setting 'orthorhombic'
loop_
_space_group_symop_operation_xyz
x,y,z
-x,-y,1/2+z
x,-y,-z
-x,y,1/2-z
loop_
_atom_site_type_symbol
_atom_site_label
_atom_site_fract_x
_atom_site_fract_y
_atom_site_fract_z
Si Si1 0.699743 0.790791 0.696844
Si Si2 0.791483 0.594449 0.204305
Si Si3 0.070244 0.125410 0.092267
Si Si4 0.940797 0.500000 0.000000
Si Si5 0.000000 0.160370 0.750000
Si Si6 0.409580 0.876659 0.333093
Si Si7 0.574131 0.000000 0.500000
O O1 0.716571 0.565134 0.732006
O O2 0.833234 0.841036 0.679111
O O3 0.632757 0.911487 0.787320
O O4 0.641072 0.868423 0.587557
O O5 0.860901 0.523828 0.102217
O O6 0.703809 0.753896 0.163137
O O7 0.890740 0.701664 0.272028
O O8 0.018972 0.317670 0.038055
O O9 0.980548 0.981245 0.149838
O O10 0.125493 0.000000 0.000000
O O11 0.500000 0.795500 0.250000
O O12 0.484610 0.868777 0.436476
#
# Coordination Sequence:
#
# PCOD9311414 Si02
#       7
#     4   4   4   2   2   4   2
#     4  11  24  47  74 102 147 195 249 318 372 452
#     4  12  26  44  72 109 152 190 243 310 384 455
#     4  12  24  45  72 102 148 192 241 298 372 448
#     4  12  28  42  70 118 144 196 250 294 380 472
#     4  12  24  48  74 108 154 198 240 308 376 464
#     4  10  25  48  71 104 139 191 255 316 377 440
#     4  10  24  48  78 100 140 202 264 312 378 450
#
# _framework density 21.677720000000001
#
# number of rings (size 3 to 8) (size 9 to 14) (size 15 to 20)
#    0.000    0.727    4.545    2.182    2.545    2.182 
#    0.000    0.000    0.000    0.000    0.000    0.000 
#    0.000    0.000    0.000    0.000    0.000    0.000 
#
# Total GULP energy -122568.262054 kJ/mol
# GULP energy per Si atom -5571.284639 kJ/mol
# Density = 2.162838 g / cm^3
# Si number density = 21.677720 Si / 1000 Ang^3
#
#
#
# Elastic Constant Matrix: (Units=GPa)
#
#
# Indices 1 2 3 4 5 6 
#
# 1 113.3606 51.6061 14.5320 0.0000 0.0000 0.0000
# 2 51.6061 111.6784 40.6247 0.0000 0.0000 0.0000
# 3 14.5320 40.6247 67.1155 0.0000 0.0000 0.0000
# 4 0.0000 0.0000 0.0000 18.8342 0.0000 0.0000
# 5 0.0000 0.0000 0.0000 0.0000 -31.6566 0.0000
# 6 0.0000 0.0000 0.0000 0.0000 0.0000 29.0991
#
#
#
# Elastic Compliance Matrix: (Units=1/GPa)
#
#
# Indices 1 2 3 4 5 6 
#
# 1 0.011215 -0.005513 0.000909 0.000000 0.000000 0.000000
# 2 -0.005513 0.014192 -0.007397 0.000000 0.000000 0.000000
# 3 0.000909 -0.007397 0.019180 0.000000 0.000000 0.000000
# 4 0.000000 0.000000 0.000000 0.053095 0.000000 0.000000
# 5 0.000000 0.000000 0.000000 0.000000 -0.031589 0.000000
# 6 0.000000 0.000000 0.000000 0.000000 0.000000 0.034365
#
#
# Mechanical properties :
#
#
# Convention : Reuss Voigt Hill
#
# Bulk Modulus (GPa) = 48.57874 56.18666 52.38270
# Shear Modulus (GPa) = 38.07420 15.61477 26.84449
#
# Velocity S-wave (km/s) = 4.19546 2.68678 3.52283
# Velocity P-wave (km/s) = 6.77697 5.96661 6.38466
#
# Compressibility (1/GPa) = 0.02058514
#
# Stress axis : x y z
#
# Youngs Moduli (GPa) = 89.17000 70.45994 52.13675
#
# Poissons Ratio (x) = 0.38843 -0.04737
# Poissons Ratio (y) = 0.49157 0.38566
# Poissons Ratio (z) = -0.08102 0.52119
#
# Static dielectric constant tensor:
#      x y z
#    x 1.760820 0.000000 0.000000 
#    y 0.000000 1.925150 0.000000 
#    z 0.000000 0.000000 1.637720 
# 
# From -- ./inp_files/8434.got.cif
#   From: 2010.05.17/outbox.cif.g08.bks.cpg/sg17_5_cif.got.tgz:8434.got - 2010.06.03 22:34:06.
