data_PCOD9311475
_publ_section_title
;
Structure prediction by ZEFSAII (Michael W. Deem and Ramdas Pophale) SiO2 
 PCOD9311475
Probable space group: P 2 2 21
;
_chemical_formula_sum "Si O2"
_cell_formula_units_Z 32
_cell_length_a 14.546505
_cell_length_b 7.543948
_cell_length_c 14.760961
_cell_angle_alpha 90.000000
_cell_angle_beta 90.000000
_cell_angle_gamma 90.000000
_cell_volume 1619.839479
_symmetry_space_group_name_H-M "P 2 2 21"
_symmetry_group_IT_number 17
_symmetry_cell_setting 'orthorhombic'
loop_
_space_group_symop_operation_xyz
x,y,z
-x,-y,1/2+z
x,-y,-z
-x,y,1/2-z
loop_
_atom_site_type_symbol
_atom_site_label
_atom_site_fract_x
_atom_site_fract_y
_atom_site_fract_z
Si Si1 0.741460 0.783203 0.646189
Si Si2 0.405523 0.214048 0.000000
Si Si3 0.240182 0.206708 0.349174
Si Si4 0.899539 0.781749 0.000000
Si Si5 0.258541 0.783204 0.146189
Si Si6 0.890138 0.215639 0.500000
Si Si7 0.380576 0.705907 0.500000
Si Si8 0.240182 0.206707 0.650826
O O1 0.652474 0.727132 0.588098
O O2 0.745627 0.718108 0.749091
O O3 0.830841 0.731293 0.587753
O O4 0.738857 1.000000 0.646959
O O5 0.510681 0.270268 0.000000
O O6 0.347526 0.272867 0.911902
O O7 0.404800 0.000000 0.000000
O O8 0.157832 0.278407 0.411874
O O9 0.331144 0.216865 0.411106
O O10 0.218153 0.000000 0.335599
O O11 0.842168 0.721594 0.088126
O O12 0.004905 0.724620 0.000000
O O13 0.897508 0.000000 0.000000
O O14 0.254374 0.718109 0.249091
O O15 0.169159 0.731294 0.087753
O O16 0.891831 0.000000 0.500000
O O17 0.358045 0.500000 0.500000
O O18 0.331143 0.783136 0.411107
#
# Coordination Sequence:
#
# PCOD9311475 Si02
#       8
#     4   4   4   4   4   4   4   4
#     4   8  15  27  46  69  95 123 153 186 224 267
#     4   9  17  32  50  68  90 121 155 189 226 271
#     4   9  17  31  48  69  94 123 155 187 222 269
#     4   8  14  23  40  67 100 127 149 182 224 261
#     4   8  15  27  46  69  95 123 153 186 224 267
#     4   8  13  23  40  71 104 123 145 186 229 263
#     4  11  22  34  47  66  90 119 151 193 239 277
#     4   9  17  31  48  69  94 123 155 187 222 269
#
# _framework density 19.755044999999999
#
# number of rings (size 3 to 8) (size 9 to 14) (size 15 to 20)
#    0.000    3.250    0.000    3.375    0.000    2.000 
#    0.000   11.250    0.000    0.000    0.000   28.000 
#    0.000    0.000    0.000    0.000    0.000    0.000 
#
# Total GULP energy -178394.968339 kJ/mol
# GULP energy per Si atom -5574.842761 kJ/mol
# Density = 1.971008 g / cm^3
# Si number density = 19.755045 Si / 1000 Ang^3
#
#
#
# Elastic Constant Matrix: (Units=GPa)
#
#
# Indices 1 2 3 4 5 6 
#
# 1 183.6330 -12.9663 98.1194 0.0000 0.0000 0.0000
# 2 -12.9663 43.5367 -2.2456 0.0000 0.0000 0.0000
# 3 98.1194 -2.2456 213.2456 0.0000 0.0000 0.0000
# 4 0.0000 0.0000 0.0000 -22.9454 0.0000 0.0000
# 5 0.0000 0.0000 0.0000 0.0000 5.4803 0.0000
# 6 0.0000 0.0000 0.0000 0.0000 0.0000 -28.7395
#
#
#
# Elastic Compliance Matrix: (Units=1/GPa)
#
#
# Indices 1 2 3 4 5 6 
#
# 1 0.007396 0.002028 -0.003382 0.000000 0.000000 0.000000
# 2 0.002028 0.023538 -0.000685 0.000000 0.000000 0.000000
# 3 -0.003382 -0.000685 0.006238 0.000000 0.000000 0.000000
# 4 0.000000 0.000000 0.000000 -0.043582 0.000000 0.000000
# 5 0.000000 0.000000 0.000000 0.000000 0.182470 0.000000
# 6 0.000000 0.000000 0.000000 0.000000 0.000000 -0.034795
#
#
# Mechanical properties :
#
#
# Convention : Reuss Voigt Hill
#
# Bulk Modulus (GPa) = 30.21676 67.35892 48.78784
# Shear Modulus (GPa) = 31.97468 14.59294 23.28381
#
# Velocity S-wave (km/s) = 4.02749 2.72084 3.43684
# Velocity P-wave (km/s) = 6.07919 6.63639 6.36389
#
# Compressibility (1/GPa) = 0.03309422
#
# Stress axis : x y z
#
# Youngs Moduli (GPa) = 135.21337 42.48480 160.30361
#
# Poissons Ratio (x) = -0.08617 0.54208
# Poissons Ratio (y) = -0.27424 0.10987
# Poissons Ratio (z) = 0.45724 0.02912
#
# Static dielectric constant tensor:
#      x y z
#    x 1.655950 0.000000 0.000000 
#    y 0.000000 1.729140 0.000000 
#    z 0.000000 0.000000 1.704550 
# 
# From -- ./inp_files/8651.got.cif
#   From: 2010.05.17/outbox.cif.g08.bks.cpg/sg17_5_cif.got.tgz:8651.got - 2010.06.03 22:34:06.
