data_PCOD9311965
_publ_section_title
;
Structure prediction by ZEFSAII (Michael W. Deem and Ramdas Pophale) SiO2 
 PCOD9311965
Probable space group: P 21 21 2
;
_chemical_formula_sum "Si O2"
_cell_formula_units_Z 32
_cell_length_a 29.955278
_cell_length_b 9.877620
_cell_length_c 5.403336
_cell_angle_alpha 90.000000
_cell_angle_beta 90.000000
_cell_angle_gamma 90.000000
_cell_volume 1598.776085
_symmetry_space_group_name_H-M "P 21 21 2"
_symmetry_group_IT_number 18
_symmetry_cell_setting 'orthorhombic'
loop_
_space_group_symop_operation_xyz
x,y,z
-x,-y,z
1/2+x,1/2-y,-z
1/2-x,1/2+y,-z
loop_
_atom_site_type_symbol
_atom_site_label
_atom_site_fract_x
_atom_site_fract_y
_atom_site_fract_z
Si Si1 0.400776 0.837000 0.821276
Si Si2 0.099224 0.663000 0.178724
Si Si3 0.551545 0.165140 0.317667
Si Si4 0.682827 0.850232 0.511331
Si Si5 0.273017 0.650861 0.193905
Si Si6 0.317173 0.850232 0.511331
Si Si7 0.273017 0.349139 0.193905
Si Si8 0.448455 0.165140 0.317667
O O1 0.418780 0.787309 0.084606
O O2 0.349796 0.813667 0.737157
O O3 0.405509 1.000000 0.832942
O O4 0.429630 0.790252 0.583909
O O5 0.150204 0.686333 0.262843
O O6 0.081220 0.712691 0.915394
O O7 0.070371 0.709748 0.416091
O O8 0.500000 0.204237 0.284103
O O9 0.552803 0.000000 0.320621
O O10 0.733252 0.865519 0.606093
O O11 0.685677 0.730611 0.313888
O O12 0.668510 0.000000 0.413437
O O13 0.314323 0.730610 0.313888
O O14 0.283586 0.500000 0.099649
O O15 0.250000 0.750000 0.000000
O O16 0.266748 0.865518 0.606093
#
# Coordination Sequence:
#
# PCOD9311965 Si02
#       8
#     4   4   4   4   4   4   4   4
#     4   9  17  27  44  67  96 132 168 205 250 308
#     4   9  17  27  44  67  96 132 168 205 250 308
#     4   9  16  26  41  65  98 133 164 200 252 310
#     4   9  19  33  49  71  99 135 174 211 257 309
#     4  10  20  33  51  72 100 135 172 217 261 310
#     4   9  19  33  49  71  99 135 174 211 257 309
#     4  10  20  33  51  72 100 135 172 217 261 310
#     4   9  16  26  41  65  98 133 164 200 252 310
#
# _framework density 20.015312999999999
#
# number of rings (size 3 to 8) (size 9 to 14) (size 15 to 20)
#    0.000    2.750    0.000    1.500    3.500    4.000 
#    0.000    0.000    0.000    0.000    0.000    0.000 
#    0.000    6.000    0.000    0.000    0.000    0.000 
#
# Total GULP energy -178224.758748 kJ/mol
# GULP energy per Si atom -5569.523711 kJ/mol
# Density = 1.996976 g / cm^3
# Si number density = 20.015313 Si / 1000 Ang^3
#
#
#
# Elastic Constant Matrix: (Units=GPa)
#
#
# Indices 1 2 3 4 5 6 
#
# 1 72.7758 -1.9822 8.7771 0.0000 0.0000 0.0000
# 2 -1.9822 80.3773 15.5948 0.0000 0.0000 0.0000
# 3 8.7771 15.5948 70.4803 0.0000 0.0000 0.0000
# 4 0.0000 0.0000 0.0000 14.8203 0.0000 0.0000
# 5 0.0000 0.0000 0.0000 0.0000 33.9248 0.0000
# 6 0.0000 0.0000 0.0000 0.0000 0.0000 9.6498
#
#
#
# Elastic Compliance Matrix: (Units=1/GPa)
#
#
# Indices 1 2 3 4 5 6 
#
# 1 0.013989 0.000714 -0.001900 0.000000 0.000000 0.000000
# 2 0.000714 0.013036 -0.002973 0.000000 0.000000 0.000000
# 3 -0.001900 -0.002973 0.015083 0.000000 0.000000 0.000000
# 4 0.000000 0.000000 0.000000 0.067475 0.000000 0.000000
# 5 0.000000 0.000000 0.000000 0.000000 0.029477 0.000000
# 6 0.000000 0.000000 0.000000 0.000000 0.000000 0.103629
#
#
# Mechanical properties :
#
#
# Convention : Reuss Voigt Hill
#
# Bulk Modulus (GPa) = 29.59558 29.82362 29.70960
# Shear Modulus (GPa) = 19.06427 25.09524 22.07976
#
# Velocity S-wave (km/s) = 3.08958 3.54475 3.32496
# Velocity P-wave (km/s) = 5.24842 5.62907 5.44207
#
# Compressibility (1/GPa) = 0.03378882
#
# Stress axis : x y z
#
# Youngs Moduli (GPa) = 71.48256 76.71186 66.30044
#
# Poissons Ratio (x) = -0.05475 0.12597
# Poissons Ratio (y) = -0.05101 0.19713
# Poissons Ratio (z) = 0.13582 0.22808
#
# Static dielectric constant tensor:
#      x y z
#    x 1.735270 0.000000 0.000000 
#    y 0.000000 1.780280 0.000000 
#    z 0.000000 0.000000 1.769860 
# 
# From -- ./inp_files/2312.got.cif
#   From: 2010.05.17/outbox.cif.g08.bks.cpg/sg18_2_cif.got.tgz:2312.got - 2010.06.03 22:40:56.
