data_PCOD9311893
_publ_section_title
;
Structure prediction by ZEFSAII (Michael W. Deem and Ramdas Pophale) SiO2 
 PCOD9311893
Probable space group: P 21 21 2
;
_chemical_formula_sum "Si O2"
_cell_formula_units_Z 30
_cell_length_a 13.213169
_cell_length_b 18.113269
_cell_length_c 6.477323
_cell_angle_alpha 90.000000
_cell_angle_beta 90.000000
_cell_angle_gamma 90.000000
_cell_volume 1550.241579
_symmetry_space_group_name_H-M "P 21 21 2"
_symmetry_group_IT_number 18
_symmetry_cell_setting 'orthorhombic'
loop_
_space_group_symop_operation_xyz
x,y,z
-x,-y,z
1/2+x,1/2-y,-z
1/2-x,1/2+y,-z
loop_
_atom_site_type_symbol
_atom_site_label
_atom_site_fract_x
_atom_site_fract_y
_atom_site_fract_z
Si Si1 0.514047 0.196330 0.553033
Si Si2 0.523804 0.335107 0.849460
Si Si3 0.865911 0.057151 0.312077
Si Si4 0.605035 0.749520 0.176093
Si Si5 0.000000 0.000000 0.682725
Si Si6 0.678675 0.836972 0.785254
Si Si7 0.165101 0.066876 0.977368
Si Si8 0.752640 0.695744 0.522725
O O1 0.512522 0.276092 0.667384
O O2 0.465478 0.204262 0.328975
O O3 0.431444 0.149676 0.681609
O O4 0.631744 0.178094 0.534201
O O5 0.466417 0.408799 0.787322
O O6 0.468357 0.303264 0.048211
O O7 0.637088 0.358529 0.897545
O O8 0.911221 0.030013 0.530850
O O9 0.792453 0.126964 0.349012
O O10 0.822437 0.997153 0.149831
O O11 0.685344 0.706505 0.317217
O O12 0.656876 0.799650 0.004986
O O13 0.067506 0.050771 0.833416
O O14 0.742998 0.910390 0.828327
O O15 0.736268 0.773405 0.648441
#
# Coordination Sequence:
#
# PCOD9311893 Si02
#       8
#     4   4   4   4   2   4   4   4
#     4  10  22  37  62  92 123 164 212 261 310 375
#     4  11  19  38  57  96 126 156 207 250 321 380
#     4  12  23  38  57  97 130 160 215 249 325 391
#     4  10  19  37  64  87 127 156 204 267 308 378
#     4  12  24  38  64  90 128 166 198 266 324 384
#     4  10  23  39  60  93 123 162 215 251 323 379
#     4  12  24  38  62  92 132 167 196 264 322 383
#     4  11  22  38  62  93 125 167 211 264 314 381
#
# _framework density 19.351823
#
# number of rings (size 3 to 8) (size 9 to 14) (size 15 to 20)
#    0.000    1.067    6.667    2.400    1.867    3.200 
#    0.000    0.000    0.000    4.800    0.000    0.000 
#    0.000    0.000    0.000    0.000    0.000    0.000 
#
# Total GULP energy -167232.656966 kJ/mol
# GULP energy per Si atom -5574.421899 kJ/mol
# Density = 1.930778 g / cm^3
# Si number density = 19.351823 Si / 1000 Ang^3
#
#
#
# Elastic Constant Matrix: (Units=GPa)
#
#
# Indices 1 2 3 4 5 6 
#
# 1 104.6495 23.0311 16.0673 0.0000 0.0000 0.0000
# 2 23.0311 40.4179 28.7284 0.0000 0.0000 0.0000
# 3 16.0673 28.7284 93.7716 0.0000 0.0000 0.0000
# 4 0.0000 0.0000 0.0000 -4.8524 0.0000 0.0000
# 5 0.0000 0.0000 0.0000 0.0000 25.6018 0.0000
# 6 0.0000 0.0000 0.0000 0.0000 0.0000 27.5776
#
#
#
# Elastic Compliance Matrix: (Units=1/GPa)
#
#
# Indices 1 2 3 4 5 6 
#
# 1 0.010926 -0.006258 0.000045 0.000000 0.000000 0.000000
# 2 -0.006258 0.035213 -0.009716 0.000000 0.000000 0.000000
# 3 0.000045 -0.009716 0.013633 0.000000 0.000000 0.000000
# 4 0.000000 0.000000 0.000000 -0.206084 0.000000 0.000000
# 5 0.000000 0.000000 0.000000 0.000000 0.039060 0.000000
# 6 0.000000 0.000000 0.000000 0.000000 0.000000 0.036261
#
#
# Mechanical properties :
#
#
# Convention : Reuss Voigt Hill
#
# Bulk Modulus (GPa) = 35.82307 41.61028 38.71667
# Shear Modulus (GPa) = -167.62852 21.06620 -73.28116
#
# Velocity S-wave (km/s) = -9.31717 3.30296 -6.16036
# Velocity P-wave (km/s) = 9.85873 6.00789 5.52720
#
# Compressibility (1/GPa) = 0.02791498
#
# Stress axis : x y z
#
# Youngs Moduli (GPa) = 91.52461 28.39831 73.35089
#
# Poissons Ratio (x) = 0.17772 -0.00331
# Poissons Ratio (y) = 0.57276 0.71267
# Poissons Ratio (z) = -0.00413 0.27591
#
# Static dielectric constant tensor:
#      x y z
#    x 1.849110 0.000000 0.000000 
#    y 0.000000 1.747760 0.000000 
#    z 0.000000 0.000000 1.747500 
# 
# From -- ./inp_files/1270.got.cif
#   From: 2010.05.17/outbox.cif.g08.bks.cpg/sg18_1_cif.got.tgz:1270.got - 2010.06.03 22:40:56.
