data_PCOD9311842
_publ_section_title
;
Structure prediction by ZEFSAII (Michael W. Deem and Ramdas Pophale) SiO2 
 PCOD9311842
Probable space group: P 21 21 2
;
_chemical_formula_sum "Si O2"
_cell_formula_units_Z 28
_cell_length_a 16.852271
_cell_length_b 11.396517
_cell_length_c 7.111024
_cell_angle_alpha 90.000000
_cell_angle_beta 90.000000
_cell_angle_gamma 90.000000
_cell_volume 1365.723308
_symmetry_space_group_name_H-M "P 21 21 2"
_symmetry_group_IT_number 18
_symmetry_cell_setting 'orthorhombic'
loop_
_space_group_symop_operation_xyz
x,y,z
-x,-y,z
1/2+x,1/2-y,-z
1/2-x,1/2+y,-z
loop_
_atom_site_type_symbol
_atom_site_label
_atom_site_fract_x
_atom_site_fract_y
_atom_site_fract_z
Si Si1 0.084578 0.636665 0.023799
Si Si2 0.000000 0.500000 0.358355
Si Si3 0.653781 0.617356 0.845027
Si Si4 0.225195 0.504573 0.113893
Si Si5 0.787114 0.764108 0.691251
Si Si6 0.563520 0.260001 0.042331
Si Si7 0.500000 0.500000 0.920091
Si Si8 0.625869 0.177587 0.650910
O O1 0.123569 0.762806 0.058226
O O2 0.155543 0.549285 0.971615
O O3 0.053764 0.579471 0.218834
O O4 0.005235 0.665505 0.907659
O O5 0.937815 0.590169 0.449815
O O6 0.718892 0.664124 0.697375
O O7 0.573674 0.547769 0.796687
O O8 0.701058 0.539190 0.994373
O O9 0.248521 0.613669 0.245667
O O10 0.190401 0.402304 0.242852
O O11 0.830968 0.762301 0.492993
O O12 0.856071 0.740722 0.844492
O O13 0.530332 0.392375 0.050257
O O14 0.581266 0.242191 0.820679
#
# Coordination Sequence:
#
# PCOD9311842 Si02
#       8
#     4   2   4   4   4   4   2   4
#     4   8  18  32  60  82 113 158 189 240 309 351
#     4   8  16  38  58  82 124 156 190 250 306 346
#     4  10  19  35  59  87 116 161 200 247 305 362
#     4  10  19  38  59  83 126 155 197 260 302 352
#     4  11  22  37  62  92 120 156 213 251 300 373
#     4  10  19  38  61  87 120 162 200 253 304 367
#     4  10  20  36  66  84 124 168 204 246 320 366
#     4  10  21  38  60  87 123 158 199 257 300 367
#
# _framework density 20.501958999999999
#
# number of rings (size 3 to 8) (size 9 to 14) (size 15 to 20)
#    0.000    2.286    2.857    0.000    0.000    1.143 
#    2.571    0.714   34.571    0.000    0.000    0.000 
#    0.000    0.000    0.000    0.000    0.000    0.000 
#
# Total GULP energy -155986.209004 kJ/mol
# GULP energy per Si atom -5570.936036 kJ/mol
# Density = 2.045530 g / cm^3
# Si number density = 20.501959 Si / 1000 Ang^3
#
#
#
# Elastic Constant Matrix: (Units=GPa)
#
#
# Indices 1 2 3 4 5 6 
#
# 1 121.5241 34.8216 17.4732 0.0000 0.0000 0.0000
# 2 34.8216 84.6512 15.3237 0.0000 0.0000 0.0000
# 3 17.4732 15.3237 28.2921 0.0000 0.0000 0.0000
# 4 0.0000 0.0000 0.0000 11.4217 0.0000 0.0000
# 5 0.0000 0.0000 0.0000 0.0000 0.1161 0.0000
# 6 0.0000 0.0000 0.0000 0.0000 0.0000 47.0669
#
#
#
# Elastic Compliance Matrix: (Units=1/GPa)
#
#
# Indices 1 2 3 4 5 6 
#
# 1 0.009774 -0.003246 -0.004278 0.000000 0.000000 0.000000
# 2 -0.003246 0.014175 -0.005673 0.000000 0.000000 0.000000
# 3 -0.004278 -0.005673 0.041061 0.000000 0.000000 0.000000
# 4 0.000000 0.000000 0.000000 0.087553 0.000000 0.000000
# 5 0.000000 0.000000 0.000000 0.000000 8.610130 0.000000
# 6 0.000000 0.000000 0.000000 0.000000 0.000000 0.021246
#
#
# Mechanical properties :
#
#
# Convention : Reuss Voigt Hill
#
# Bulk Modulus (GPa) = 25.89651 41.07826 33.48739
# Shear Modulus (GPa) = 0.56669 22.84419 11.70544
#
# Velocity S-wave (km/s) = 0.52631 3.34165 2.39203
# Velocity P-wave (km/s) = 3.60943 5.91343 4.89881
#
# Compressibility (1/GPa) = 0.03861525
#
# Stress axis : x y z
#
# Youngs Moduli (GPa) = 102.31083 70.54459 24.35429
#
# Poissons Ratio (x) = 0.22900 0.10420
# Poissons Ratio (y) = 0.33212 0.13816
# Poissons Ratio (z) = 0.43772 0.40019
#
# Static dielectric constant tensor:
#      x y z
#    x 1.805860 0.000000 0.000000 
#    y 0.000000 1.768010 0.000000 
#    z 0.000000 0.000000 1.686530 
# 
# From -- ./inp_files/4014.got.cif
#   From: 2010.05.17/outbox.cif.g08.bks.cpg/sg18_3_cif.got.tgz:4014.got - 2010.06.03 22:40:56.
