data_PCOD9311080
_publ_section_title
;
Structure prediction by ZEFSAII (Michael W. Deem and Ramdas Pophale) SiO2 
 PCOD9311080
Probable space group: P 2 2 21
;
_chemical_formula_sum "Si O2"
_cell_formula_units_Z 22
_cell_length_a 6.365985
_cell_length_b 14.461881
_cell_length_c 10.372212
_cell_angle_alpha 90.000000
_cell_angle_beta 90.000000
_cell_angle_gamma 90.000000
_cell_volume 954.908544
_symmetry_space_group_name_H-M "P 2 2 21"
_symmetry_group_IT_number 17
_symmetry_cell_setting 'orthorhombic'
loop_
_space_group_symop_operation_xyz
x,y,z
-x,-y,1/2+z
x,-y,-z
-x,y,1/2-z
loop_
_atom_site_type_symbol
_atom_site_label
_atom_site_fract_x
_atom_site_fract_y
_atom_site_fract_z
Si Si1 0.774490 0.173905 0.535517
Si Si2 0.244283 0.500000 0.000000
Si Si3 0.000000 0.446720 0.250000
Si Si4 0.163645 0.715746 0.585543
Si Si5 0.614682 0.109559 0.135445
Si Si6 0.514577 0.663876 0.390131
Si Si7 0.972087 0.000000 0.000000
O O1 0.570307 0.132726 0.463472
O O2 0.669865 0.248446 0.630067
O O3 0.942090 0.236290 0.453759
O O4 0.897734 0.080425 0.571287
O O5 0.111697 0.499167 0.866733
O O6 0.383461 0.407919 0.990493
O O7 0.855345 0.376459 0.168198
O O8 0.290278 0.790566 0.669500
O O9 0.297220 0.696467 0.455512
O O10 0.500000 0.058926 0.250000
O O11 0.813552 0.052542 0.092860
O O12 0.500000 0.618141 0.250000
#
# Coordination Sequence:
#
# PCOD9311080 Si02
#       7
#     4   2   2   4   4   4   2
#     4  10  21  47  67 103 144 189 237 299 359 442
#     4  12  30  44  78 112 154 194 252 304 364 444
#     4  12  26  48  74 110 142 196 244 304 368 440
#     4  10  23  43  73  99 139 193 243 300 361 429
#     4  10  21  39  69  99 133 181 240 300 359 432
#     4  11  27  47  71 106 151 200 243 304 372 440
#     4  10  22  40  68 102 142 178 242 298 364 436
#
# _framework density 23.038858000000001
#
# number of rings (size 3 to 8) (size 9 to 14) (size 15 to 20)
#    0.000    1.455    1.818    1.636    7.636    2.909 
#    0.000   21.818    0.000    0.000    0.000    0.000 
#    0.000    0.000    0.000    0.000    0.000    0.000 
#
# Total GULP energy -122733.143676 kJ/mol
# GULP energy per Si atom -5578.779258 kJ/mol
# Density = 2.298642 g / cm^3
# Si number density = 23.038858 Si / 1000 Ang^3
#
#
#
# Elastic Constant Matrix: (Units=GPa)
#
#
# Indices 1 2 3 4 5 6 
#
# 1 106.9621 37.6458 21.9494 0.0000 0.0000 0.0000
# 2 37.6458 80.6018 0.5128 0.0000 0.0000 0.0000
# 3 21.9494 0.5128 69.7821 0.0000 0.0000 0.0000
# 4 0.0000 0.0000 0.0000 10.7516 0.0000 0.0000
# 5 0.0000 0.0000 0.0000 0.0000 27.6944 0.0000
# 6 0.0000 0.0000 0.0000 0.0000 0.0000 -0.0475
#
#
#
# Elastic Compliance Matrix: (Units=1/GPa)
#
#
# Indices 1 2 3 4 5 6 
#
# 1 0.012103 -0.005629 -0.003766 0.000000 0.000000 0.000000
# 2 -0.005629 0.015025 0.001660 0.000000 0.000000 0.000000
# 3 -0.003766 0.001660 0.015503 0.000000 0.000000 0.000000
# 4 0.000000 0.000000 0.000000 0.093010 0.000000 0.000000
# 5 0.000000 0.000000 0.000000 0.000000 0.036108 0.000000
# 6 0.000000 0.000000 0.000000 0.000000 0.000000-21.036282
#
#
# Mechanical properties :
#
#
# Convention : Reuss Voigt Hill
#
# Bulk Modulus (GPa) = 36.81607 41.95135 39.38371
# Shear Modulus (GPa) = -0.23992 20.82889 10.29448
#
# Velocity S-wave (km/s) = -0.32305 3.01005 2.11613
# Velocity P-wave (km/s) = 3.98441 5.50718 4.80648
#
# Compressibility (1/GPa) = 0.02716205
#
# Stress axis : x y z
#
# Youngs Moduli (GPa) = 82.62481 66.55529 64.50559
#
# Poissons Ratio (x) = 0.37463 0.24290
# Poissons Ratio (y) = 0.46508 -0.10708
# Poissons Ratio (z) = 0.31112 -0.11049
#
# Static dielectric constant tensor:
#      x y z
#    x 1.892080 0.000000 0.000000 
#    y 0.000000 1.960460 0.000000 
#    z 0.000000 0.000000 2.000770 
# 
# From -- ./inp_files/5979.got.cif
#   From: 2010.05.17/outbox.cif.g08.bks.cpg/sg17_3_cif.got.tgz:5979.got - 2010.06.03 22:34:06.
