data_PCOD9311686
_publ_section_title
;
Structure prediction by ZEFSAII (Michael W. Deem and Ramdas Pophale) SiO2 
 PCOD9311686
Probable space group: P 21 21 2
;
_chemical_formula_sum "Si O2"
_cell_formula_units_Z 24
_cell_length_a 5.111198
_cell_length_b 14.175822
_cell_length_c 12.813777
_cell_angle_alpha 90.000000
_cell_angle_beta 90.000000
_cell_angle_gamma 90.000000
_cell_volume 928.427762
_symmetry_space_group_name_H-M "P 21 21 2"
_symmetry_group_IT_number 18
_symmetry_cell_setting 'orthorhombic'
loop_
_space_group_symop_operation_xyz
x,y,z
-x,-y,z
1/2+x,1/2-y,-z
1/2-x,1/2+y,-z
loop_
_atom_site_type_symbol
_atom_site_label
_atom_site_fract_x
_atom_site_fract_y
_atom_site_fract_z
Si Si1 0.018931 0.387509 0.066073
Si Si2 0.907288 0.854952 0.295896
Si Si3 0.505384 0.386429 0.945931
Si Si4 0.073916 0.360454 0.595164
Si Si5 0.138186 0.365324 0.299968
Si Si6 0.159451 0.132877 0.589802
O O1 0.163225 0.367588 0.176167
O O2 0.000000 0.500000 0.064243
O O3 0.223825 0.352567 0.981671
O O4 0.732857 0.355959 0.026769
O O5 0.967742 0.859605 0.174696
O O6 0.611622 0.889649 0.309237
O O7 0.886767 0.745270 0.327105
O O8 0.134180 0.895278 0.373453
O O9 0.500000 0.500000 0.948164
O O10 0.115892 0.246895 0.583741
O O11 0.868450 0.388904 0.503158
O O12 0.367155 0.401422 0.377985
O O13 0.843264 0.401908 0.315844
#
# Coordination Sequence:
#
# PCOD9311686 Si02
#       6
#     4   4   4   4   4   4
#     4  10  21  37  55  75 103 142 180 215 265 324
#     4  10  20  32  52  81 106 134 174 219 262 304
#     4  10  21  37  55  75 103 142 180 215 265 324
#     4  10  18  31  51  78 109 138 171 212 260 314
#     4  10  20  32  52  81 106 134 174 219 262 304
#     4  10  18  31  51  78 109 138 171 212 260 314
#
# _framework density 25.850152000000001
#
# number of rings (size 3 to 8) (size 9 to 14) (size 15 to 20)
#    0.000    2.000    0.000    6.000    0.000    1.333 
#    0.000    0.000    0.000    4.000    0.000    9.333 
#    0.000    0.000    0.000    0.000    0.000    0.000 
#
# Total GULP energy -133696.454048 kJ/mol
# GULP energy per Si atom -5570.685585 kJ/mol
# Density = 2.579132 g / cm^3
# Si number density = 25.850152 Si / 1000 Ang^3
#
#
#
# Elastic Constant Matrix: (Units=GPa)
#
#
# Indices 1 2 3 4 5 6 
#
# 1 208.0434 22.5575 44.5264 0.0000 0.0000 0.0000
# 2 22.5575 88.7494 -11.1091 0.0000 0.0000 0.0000
# 3 44.5264 -11.1091 121.9631 0.0000 0.0000 0.0000
# 4 0.0000 0.0000 0.0000 24.7017 0.0000 0.0000
# 5 0.0000 0.0000 0.0000 0.0000 47.9182 0.0000
# 6 0.0000 0.0000 0.0000 0.0000 0.0000 10.5186
#
#
#
# Elastic Compliance Matrix: (Units=1/GPa)
#
#
# Indices 1 2 3 4 5 6 
#
# 1 0.005443 -0.001651 -0.002138 0.000000 0.000000 0.000000
# 2 -0.001651 0.011898 0.001687 0.000000 0.000000 0.000000
# 3 -0.002138 0.001687 0.009133 0.000000 0.000000 0.000000
# 4 0.000000 0.000000 0.000000 0.040483 0.000000 0.000000
# 5 0.000000 0.000000 0.000000 0.000000 0.020869 0.000000
# 6 0.000000 0.000000 0.000000 0.000000 0.000000 0.095069
#
#
# Mechanical properties :
#
#
# Convention : Reuss Voigt Hill
#
# Bulk Modulus (GPa) = 44.90217 58.96727 51.93472
# Shear Modulus (GPa) = 25.70376 40.81311 33.25843
#
# Velocity S-wave (km/s) = 3.15673 3.97777 3.59079
# Velocity P-wave (km/s) = 5.54026 6.63005 6.10950
#
# Compressibility (1/GPa) = 0.02227064
#
# Stress axis : x y z
#
# Youngs Moduli (GPa) = 183.71521 84.04456 109.49044
#
# Poissons Ratio (x) = 0.13876 0.23405
# Poissons Ratio (y) = 0.30333 -0.18466
# Poissons Ratio (z) = 0.39271 -0.14175
#
# Static dielectric constant tensor:
#      x y z
#    x 2.032670 0.000000 0.000000 
#    y 0.000000 2.145890 0.000000 
#    z 0.000000 0.000000 2.090220 
# 
# From -- ./inp_files/5149.got.cif
#   From: 2010.05.17/outbox.cif.g08.bks.cpg/sg18_3_cif.got.tgz:5149.got - 2010.06.03 22:40:56.
