data_PCOD9311437
_publ_section_title
;
Structure prediction by ZEFSAII (Michael W. Deem and Ramdas Pophale) SiO2 
 PCOD9311437
Probable space group: P 2 2 21
;
_chemical_formula_sum "Si O2"
_cell_formula_units_Z 22
_cell_length_a 11.163764
_cell_length_b 6.278012
_cell_length_c 14.969914
_cell_angle_alpha 90.000000
_cell_angle_beta 90.000000
_cell_angle_gamma 90.000000
_cell_volume 1049.185051
_symmetry_space_group_name_H-M "P 2 2 21"
_symmetry_group_IT_number 17
_symmetry_cell_setting 'orthorhombic'
loop_
_space_group_symop_operation_xyz
x,y,z
-x,-y,1/2+z
x,-y,-z
-x,y,1/2-z
loop_
_atom_site_type_symbol
_atom_site_label
_atom_site_fract_x
_atom_site_fract_y
_atom_site_fract_z
Si Si1 0.946504 0.278813 0.545821
Si Si2 0.291610 0.137661 0.683246
Si Si3 0.165524 0.000000 0.500000
Si Si4 0.722948 0.000000 0.500000
Si Si5 0.886378 0.536667 0.282653
Si Si6 0.500000 0.418899 0.750000
Si Si7 0.323563 0.762256 0.829129
O O1 0.927728 0.500000 0.500000
O O2 0.819530 0.160969 0.541289
O O3 0.958976 0.307318 0.651168
O O4 0.065577 0.187601 0.499010
O O5 0.245571 0.046169 0.587985
O O6 0.197761 0.315173 0.720990
O O7 0.416782 0.268066 0.688364
O O8 0.308364 0.939091 0.751300
O O9 0.652227 0.114716 0.421238
O O10 0.799451 0.371337 0.332037
O O11 0.000000 0.399780 0.250000
O O12 0.420316 0.581535 0.807700
#
# Coordination Sequence:
#
# PCOD9311437 Si02
#       7
#     4   4   2   2   4   2   4
#     4  11  22  38  60 109 147 172 217 267 340 428
#     4  11  24  46  68  98 137 181 231 285 334 405
#     4  11  26  40  69  98 144 181 216 277 340 412
#     4  11  22  38  69 104 136 169 222 281 342 412
#     4  11  22  38  66 102 143 181 215 266 341 415
#     4  10  26  50  70  90 134 180 242 292 340 396
#     4  11  24  43  70  98 131 178 226 285 342 399
#
# _framework density 20.968657
#
# number of rings (size 3 to 8) (size 9 to 14) (size 15 to 20)
#    0.000    1.091    5.455    0.545    2.545    0.727 
#    0.000    5.455    0.000    0.000    0.000    0.000 
#    0.000    0.000    0.000    0.000    0.000    0.000 
#
# Total GULP energy -122513.682435 kJ/mol
# GULP energy per Si atom -5568.803747 kJ/mol
# Density = 2.092093 g / cm^3
# Si number density = 20.968657 Si / 1000 Ang^3
#
#
#
# Elastic Constant Matrix: (Units=GPa)
#
#
# Indices 1 2 3 4 5 6 
#
# 1 106.4455 44.9189 42.0283 0.0000 0.0000 0.0000
# 2 44.9189 85.3987 36.3491 0.0000 0.0000 0.0000
# 3 42.0283 36.3491 114.5387 0.0000 0.0000 0.0000
# 4 0.0000 0.0000 0.0000 29.2540 0.0000 0.0000
# 5 0.0000 0.0000 0.0000 0.0000 20.6847 0.0000
# 6 0.0000 0.0000 0.0000 0.0000 0.0000 14.4994
#
#
#
# Elastic Compliance Matrix: (Units=1/GPa)
#
#
# Indices 1 2 3 4 5 6 
#
# 1 0.012900 -0.005515 -0.002983 0.000000 0.000000 0.000000
# 2 -0.005515 0.015897 -0.003021 0.000000 0.000000 0.000000
# 3 -0.002983 -0.003021 0.010784 0.000000 0.000000 0.000000
# 4 0.000000 0.000000 0.000000 0.034183 0.000000 0.000000
# 5 0.000000 0.000000 0.000000 0.000000 0.048345 0.000000
# 6 0.000000 0.000000 0.000000 0.000000 0.000000 0.068969
#
#
# Mechanical properties :
#
#
# Convention : Reuss Voigt Hill
#
# Bulk Modulus (GPa) = 60.45435 61.44173 60.94804
# Shear Modulus (GPa) = 22.76553 25.09337 23.92945
#
# Velocity S-wave (km/s) = 3.29856 3.46310 3.38183
# Velocity P-wave (km/s) = 6.58792 6.73469 6.66171
#
# Compressibility (1/GPa) = 0.01654141
#
# Stress axis : x y z
#
# Youngs Moduli (GPa) = 77.52089 62.90598 92.73005
#
# Poissons Ratio (x) = 0.34695 0.27662
# Poissons Ratio (y) = 0.42756 0.28014
# Poissons Ratio (z) = 0.23125 0.19004
#
# Static dielectric constant tensor:
#      x y z
#    x 1.776810 0.000000 0.000000 
#    y 0.000000 1.777280 0.000000 
#    z 0.000000 0.000000 1.932580 
# 
# From -- ./inp_files/8426.got.cif
#   From: 2010.05.17/outbox.cif.g08.bks.cpg/sg17_5_cif.got.tgz:8426.got - 2010.06.03 22:34:06.
