data_PCOD9311513
_publ_section_title
;
Structure prediction by ZEFSAII (Michael W. Deem and Ramdas Pophale) SiO2 
 PCOD9311513
Probable space group: P 2 2 21
;
_chemical_formula_sum "Si O2"
_cell_formula_units_Z 22
_cell_length_a 5.059502
_cell_length_b 14.061142
_cell_length_c 12.867033
_cell_angle_alpha 90.000000
_cell_angle_beta 90.000000
_cell_angle_gamma 90.000000
_cell_volume 915.391301
_symmetry_space_group_name_H-M "P 2 2 21"
_symmetry_group_IT_number 17
_symmetry_cell_setting 'orthorhombic'
loop_
_space_group_symop_operation_xyz
x,y,z
-x,-y,1/2+z
x,-y,-z
-x,y,1/2-z
loop_
_atom_site_type_symbol
_atom_site_label
_atom_site_fract_x
_atom_site_fract_y
_atom_site_fract_z
Si Si1 0.649692 0.247621 0.443441
Si Si2 0.820709 0.871932 0.936511
Si Si3 0.695476 0.942293 0.160276
Si Si4 0.355497 0.641266 0.137961
Si Si5 0.751035 0.434268 0.322922
Si Si6 0.000000 0.231160 0.750000
O O1 0.399852 0.197851 0.387408
O O2 0.522162 0.298538 0.545251
O O3 0.779569 0.337811 0.386068
O O4 0.896256 0.175559 0.460802
O O5 0.872974 0.965492 0.866899
O O6 0.660058 0.905244 0.041258
O O7 0.500000 0.979519 0.250000
O O8 0.786457 0.844708 0.213696
O O9 0.500000 0.645275 0.250000
O O10 0.303769 0.531536 0.114529
O O11 0.087438 0.699276 0.159025
O O12 0.500000 0.420294 0.250000
O O13 0.000000 0.453406 0.250000
#
# Coordination Sequence:
#
# PCOD9311513 Si02
#       6
#     4   4   4   4   4   2
#     4  12  25  47  72 104 144 193 229 292 363 424
#     4  11  27  46  69 103 146 184 239 290 347 428
#     4  11  26  43  70 104 138 186 238 291 349 411
#     4  11  24  43  73 105 138 180 240 299 355 414
#     4  11  25  46  70 106 144 186 238 288 349 432
#     4  12  20  42  70  98 134 178 230 294 348 396
#
# _framework density 24.033438
#
# number of rings (size 3 to 8) (size 9 to 14) (size 15 to 20)
#    0.000    0.727    2.727    4.364    2.545    3.636 
#    0.000    3.636    0.000    0.000    0.000    0.000 
#    0.000    0.000    0.000    0.000    0.000    0.000 
#
# Total GULP energy -122625.506548 kJ/mol
# GULP energy per Si atom -5573.886661 kJ/mol
# Density = 2.397874 g / cm^3
# Si number density = 24.033438 Si / 1000 Ang^3
#
#
#
# Elastic Constant Matrix: (Units=GPa)
#
#
# Indices 1 2 3 4 5 6 
#
# 1 89.9794 23.5349 18.0258 0.0000 0.0000 0.0000
# 2 23.5349 150.8081 31.2725 0.0000 0.0000 0.0000
# 3 18.0258 31.2725 62.4753 0.0000 0.0000 0.0000
# 4 0.0000 0.0000 0.0000 -13.3108 0.0000 0.0000
# 5 0.0000 0.0000 0.0000 0.0000 15.7480 0.0000
# 6 0.0000 0.0000 0.0000 0.0000 0.0000 31.5651
#
#
#
# Elastic Compliance Matrix: (Units=1/GPa)
#
#
# Indices 1 2 3 4 5 6 
#
# 1 0.012016 -0.001290 -0.002821 0.000000 0.000000 0.000000
# 2 -0.001290 0.007537 -0.003401 0.000000 0.000000 0.000000
# 3 -0.002821 -0.003401 0.018523 0.000000 0.000000 0.000000
# 4 0.000000 0.000000 0.000000 -0.075127 0.000000 0.000000
# 5 0.000000 0.000000 0.000000 0.000000 0.063500 0.000000
# 6 0.000000 0.000000 0.000000 0.000000 0.000000 0.031681
#
#
# Mechanical properties :
#
#
# Convention : Reuss Voigt Hill
#
# Bulk Modulus (GPa) = 43.37992 49.88102 46.63047
# Shear Modulus (GPa) = 61.85221 22.16246 42.00734
#
# Velocity S-wave (km/s) = 5.07856 3.03999 4.18529
# Velocity P-wave (km/s) = 7.24417 5.75517 6.54217
#
# Compressibility (1/GPa) = 0.02305214
#
# Stress axis : x y z
#
# Youngs Moduli (GPa) = 83.22035 132.67038 53.98829
#
# Poissons Ratio (x) = 0.17117 0.15231
# Poissons Ratio (y) = 0.10737 0.18360
# Poissons Ratio (z) = 0.23478 0.45117
#
# Static dielectric constant tensor:
#      x y z
#    x 2.017550 0.000000 0.000000 
#    y 0.000000 1.895190 0.000000 
#    z 0.000000 0.000000 2.056530 
# 
# From -- ./inp_files/7644.got.cif
#   From: 2010.05.17/outbox.cif.g08.bks.cpg/sg17_4_cif.got.tgz:7644.got - 2010.06.03 22:34:06.
