data_PCOD9311863
_publ_section_title
;
Structure prediction by ZEFSAII (Michael W. Deem and Ramdas Pophale) SiO2 
 PCOD9311863
Probable space group: P 21 21 2
;
_chemical_formula_sum "Si O2"
_cell_formula_units_Z 24
_cell_length_a 8.068918
_cell_length_b 18.233961
_cell_length_c 7.375117
_cell_angle_alpha 90.000000
_cell_angle_beta 90.000000
_cell_angle_gamma 90.000000
_cell_volume 1085.088693
_symmetry_space_group_name_H-M "P 21 21 2"
_symmetry_group_IT_number 18
_symmetry_cell_setting 'orthorhombic'
loop_
_space_group_symop_operation_xyz
x,y,z
-x,-y,z
1/2+x,1/2-y,-z
1/2-x,1/2+y,-z
loop_
_atom_site_type_symbol
_atom_site_label
_atom_site_fract_x
_atom_site_fract_y
_atom_site_fract_z
Si Si1 0.832694 0.269582 0.068569
Si Si2 0.427418 0.074135 0.791234
Si Si3 0.358096 0.908952 0.429866
Si Si4 0.980477 0.180341 0.379052
Si Si5 0.828586 0.955296 0.490877
Si Si6 0.500843 0.776630 0.269493
O O1 0.898391 0.352123 0.098167
O O2 0.950734 0.215225 0.183651
O O3 0.655945 0.256394 0.160884
O O4 0.844178 0.255271 0.854703
O O5 0.555609 0.089572 0.625969
O O6 0.254752 0.058064 0.686100
O O7 0.500000 0.000000 0.881461
O O8 0.188436 0.862478 0.430727
O O9 0.473824 0.863262 0.295782
O O10 0.300285 0.991599 0.387279
O O11 0.127346 0.121543 0.397844
O O12 0.998899 0.242423 0.531146
O O13 0.000000 0.000000 0.508633
#
# Coordination Sequence:
#
# PCOD9311863 Si02
#       6
#     4   4   4   4   4   4
#     4  11  24  37  59  89 124 159 206 248 309 368
#     4  10  19  36  59  87 116 157 199 245 305 361
#     4   9  20  36  62  87 119 159 200 255 308 366
#     4  10  20  39  63  86 120 161 202 258 310 361
#     4   9  18  36  64  89 114 160 209 246 310 367
#     4  11  23  38  59  92 122 163 204 256 306 365
#
# _framework density 22.118006999999999
#
# number of rings (size 3 to 8) (size 9 to 14) (size 15 to 20)
#    0.000    2.000    3.333    0.000    2.333    1.333 
#    0.000    4.167    0.000    3.000    0.000    0.000 
#    0.000    0.000    0.000    0.000    0.000    0.000 
#
# Total GULP energy -134035.205531 kJ/mol
# GULP energy per Si atom -5584.800230 kJ/mol
# Density = 2.206767 g / cm^3
# Si number density = 22.118007 Si / 1000 Ang^3
#
#
#
# Elastic Constant Matrix: (Units=GPa)
#
#
# Indices 1 2 3 4 5 6 
#
# 1 62.8749 2.7977 -3.8960 0.0000 0.0000 0.0000
# 2 2.7977 106.0581 12.3566 0.0000 0.0000 0.0000
# 3 -3.8960 12.3566 45.1076 0.0000 0.0000 0.0000
# 4 0.0000 0.0000 0.0000 11.7224 0.0000 0.0000
# 5 0.0000 0.0000 0.0000 0.0000 15.6526 0.0000
# 6 0.0000 0.0000 0.0000 0.0000 0.0000 30.4374
#
#
#
# Elastic Compliance Matrix: (Units=1/GPa)
#
#
# Indices 1 2 3 4 5 6 
#
# 1 0.016027 -0.000603 0.001550 0.000000 0.000000 0.000000
# 2 -0.000603 0.009762 -0.002726 0.000000 0.000000 0.000000
# 3 0.001550 -0.002726 0.023050 0.000000 0.000000 0.000000
# 4 0.000000 0.000000 0.000000 0.085307 0.000000 0.000000
# 5 0.000000 0.000000 0.000000 0.000000 0.063887 0.000000
# 6 0.000000 0.000000 0.000000 0.000000 0.000000 0.032854
#
#
# Mechanical properties :
#
#
# Convention : Reuss Voigt Hill
#
# Bulk Modulus (GPa) = 22.08503 26.28412 24.18458
# Shear Modulus (GPa) = 20.03676 25.08130 22.55903
#
# Velocity S-wave (km/s) = 3.01309 3.37111 3.19711
# Velocity P-wave (km/s) = 4.70231 5.20211 4.95851
#
# Compressibility (1/GPa) = 0.04527953
#
# Stress axis : x y z
#
# Youngs Moduli (GPa) = 62.39287 102.43435 43.38411
#
# Poissons Ratio (x) = 0.06180 -0.06723
# Poissons Ratio (y) = 0.03764 0.11828
# Poissons Ratio (z) = -0.09668 0.27927
#
# Static dielectric constant tensor:
#      x y z
#    x 1.868250 0.000000 0.000000 
#    y 0.000000 1.836870 0.000000 
#    z 0.000000 0.000000 1.768660 
# 
# From -- ./inp_files/3281.got.cif
#   From: 2010.05.17/outbox.cif.g08.bks.cpg/sg18_2_cif.got.tgz:3281.got - 2010.06.03 22:40:56.
