data_PCOD9311394
_publ_section_title
;
Structure prediction by ZEFSAII (Michael W. Deem and Ramdas Pophale) SiO2 
 PCOD9311394
Probable space group: P 2 2 21
;
_chemical_formula_sum "Si O2"
_cell_formula_units_Z 16
_cell_length_a 5.089985
_cell_length_b 22.959338
_cell_length_c 5.158750
_cell_angle_alpha 90.000000
_cell_angle_beta 90.000000
_cell_angle_gamma 90.000000
_cell_volume 602.865382
_symmetry_space_group_name_H-M "P 2 2 21"
_symmetry_group_IT_number 17
_symmetry_cell_setting 'orthorhombic'
loop_
_space_group_symop_operation_xyz
x,y,z
-x,-y,1/2+z
x,-y,-z
-x,y,1/2-z
loop_
_atom_site_type_symbol
_atom_site_label
_atom_site_fract_x
_atom_site_fract_y
_atom_site_fract_z
Si Si1 0.500000 0.090864 0.250000
Si Si2 0.000000 0.279560 0.250000
Si Si3 0.274620 0.192036 0.907983
Si Si4 0.110812 0.000000 0.000000
Si Si5 0.313334 0.626169 0.497124
Si Si6 0.313555 0.500000 0.500000
O O1 0.571410 0.135376 0.480756
O O2 0.268726 0.044445 0.191085
O O3 0.791401 0.234701 0.359968
O O4 0.109103 0.322067 0.469336
O O5 0.500000 0.223614 0.750000
O O6 0.000000 0.181235 0.750000
O O7 0.000000 0.963093 0.250000
O O8 0.500000 0.630519 0.250000
O O9 0.173782 0.562497 0.497091
O O10 0.500000 0.629131 0.750000
O O11 0.500000 0.500149 0.750000
#
# Coordination Sequence:
#
# PCOD9311394 Si02
#       6
#     2   2   4   2   4   2
#     4  12  30  56  86 132 172 226 282 342 432 500
#     4  12  30  48  78 124 160 220 292 346 426 506
#     4  12  31  54  87 122 175 230 285 348 420 504
#     4  12  30  54  90 130 174 222 282 350 422 508
#     4  10  24  44  76 110 160 212 277 351 429 508
#     4   8  16  40  68 106 150 208 268 342 426 510
#
# _framework density 26.539923000000002
#
# number of rings (size 3 to 8) (size 9 to 14) (size 15 to 20)
#    0.000    1.000    0.000    3.000   19.250    0.000 
#    0.000    7.500    0.000    0.000    0.000    0.000 
#    0.000    0.000    0.000    0.000    0.000    0.000 
#
# Total GULP energy -89324.709987 kJ/mol
# GULP energy per Si atom -5582.794374 kJ/mol
# Density = 2.647952 g / cm^3
# Si number density = 26.539923 Si / 1000 Ang^3
#
#
#
# Elastic Constant Matrix: (Units=GPa)
#
#
# Indices 1 2 3 4 5 6 
#
# 1 113.7783 17.5131 55.8188 0.0000 0.0000 0.0000
# 2 17.5131 115.1073 11.1619 0.0000 0.0000 0.0000
# 3 55.8188 11.1619 179.5846 0.0000 0.0000 0.0000
# 4 0.0000 0.0000 0.0000 18.6454 0.0000 0.0000
# 5 0.0000 0.0000 0.0000 0.0000 74.2116 0.0000
# 6 0.0000 0.0000 0.0000 0.0000 0.0000 -67.0551
#
#
#
# Elastic Compliance Matrix: (Units=1/GPa)
#
#
# Indices 1 2 3 4 5 6 
#
# 1 0.010559 -0.001296 -0.003201 0.000000 0.000000 0.000000
# 2 -0.001296 0.008899 -0.000150 0.000000 0.000000 0.000000
# 3 -0.003201 -0.000150 0.006573 0.000000 0.000000 0.000000
# 4 0.000000 0.000000 0.000000 0.053633 0.000000 0.000000
# 5 0.000000 0.000000 0.000000 0.000000 0.013475 0.000000
# 6 0.000000 0.000000 0.000000 0.000000 0.000000 -0.014913
#
#
# Mechanical properties :
#
#
# Convention : Reuss Voigt Hill
#
# Bulk Modulus (GPa) = 59.75271 64.16198 61.95735
# Shear Modulus (GPa) = 53.70580 26.75880 40.23230
#
# Velocity S-wave (km/s) = 4.50331 3.17874 3.89770
# Velocity P-wave (km/s) = 7.04293 6.14008 6.60695
#
# Compressibility (1/GPa) = 0.01673564
#
# Stress axis : x y z
#
# Youngs Moduli (GPa) = 94.70485 112.36826 152.14160
#
# Poissons Ratio (x) = 0.14564 0.48707
# Poissons Ratio (y) = 0.12275 0.02286
# Poissons Ratio (z) = 0.30319 0.01689
#
# Static dielectric constant tensor:
#      x y z
#    x 2.211060 0.000000 0.000000 
#    y 0.000000 2.139780 0.000000 
#    z 0.000000 0.000000 1.918760 
# 
# From -- ./inp_files/307.got.cif
#   From: 2010.05.17/outbox.cif.g08.bks.cpg/sg17_1_cif.got.tgz:307.got - 2010.06.03 22:34:06.
