data_PCOD9311473
_publ_section_title
;
Structure prediction by ZEFSAII (Michael W. Deem and Ramdas Pophale) SiO2 
 PCOD9311473
Probable space group: P 2 2 21
;
_chemical_formula_sum "Si O2"
_cell_formula_units_Z 18
_cell_length_a 8.295622
_cell_length_b 8.156184
_cell_length_c 12.426583
_cell_angle_alpha 90.000000
_cell_angle_beta 90.000000
_cell_angle_gamma 90.000000
_cell_volume 840.790303
_symmetry_space_group_name_H-M "P 2 2 21"
_symmetry_group_IT_number 17
_symmetry_cell_setting 'orthorhombic'
loop_
_space_group_symop_operation_xyz
x,y,z
-x,-y,1/2+z
x,-y,-z
-x,y,1/2-z
loop_
_atom_site_type_symbol
_atom_site_label
_atom_site_fract_x
_atom_site_fract_y
_atom_site_fract_z
Si Si1 0.690847 0.708163 0.232772
Si Si2 0.589282 0.500000 0.500000
Si Si3 0.797139 0.178258 0.547283
Si Si4 0.362070 0.631670 0.681174
Si Si5 0.171642 0.190567 0.502446
O O1 0.500000 0.742200 0.250000
O O2 0.783307 0.813589 0.322996
O O3 0.723248 0.512186 0.249791
O O4 0.750460 0.744441 0.112661
O O5 0.689436 0.332335 0.510171
O O6 0.470914 0.526494 0.599425
O O7 0.979671 0.210128 0.510176
O O8 0.747387 0.000000 0.500000
O O9 0.500000 0.725256 0.750000
O O10 0.242935 0.731371 0.606129
O O11 0.210022 0.000000 0.500000
#
# Coordination Sequence:
#
# PCOD9311473 Si02
#       5
#     4   2   4   4   4
#     4  11  21  44  69  96 137 183 235 295 356 423
#     4  12  22  42  72  98 138 182 232 294 346 424
#     4  11  26  45  68 105 143 185 236 297 362 431
#     4  11  22  43  69 104 134 183 248 285 358 433
#     4  11  25  43  68 102 145 182 234 302 358 432
#
# _framework density 21.408429000000002
#
# number of rings (size 3 to 8) (size 9 to 14) (size 15 to 20)
#    0.000    0.889    6.667    0.667    3.111    6.222 
#    0.000    3.333    0.000    0.000    0.000    0.000 
#    0.000    0.000    0.000    0.000    0.000    0.000 
#
# Total GULP energy -100476.339765 kJ/mol
# GULP energy per Si atom -5582.018876 kJ/mol
# Density = 2.135970 g / cm^3
# Si number density = 21.408429 Si / 1000 Ang^3
#
#
#
# Elastic Constant Matrix: (Units=GPa)
#
#
# Indices 1 2 3 4 5 6 
#
# 1 65.3721 60.0480 18.3701 0.0000 0.0000 0.0000
# 2 60.0480 114.6062 20.6994 0.0000 0.0000 0.0000
# 3 18.3701 20.6994 70.4332 0.0000 0.0000 0.0000
# 4 0.0000 0.0000 0.0000 41.7870 0.0000 0.0000
# 5 0.0000 0.0000 0.0000 0.0000 41.9295 0.0000
# 6 0.0000 0.0000 0.0000 0.0000 0.0000 36.6551
#
#
#
# Elastic Compliance Matrix: (Units=1/GPa)
#
#
# Indices 1 2 3 4 5 6 
#
# 1 0.030247 -0.015232 -0.003413 0.000000 0.000000 0.000000
# 2 -0.015232 0.016885 -0.000990 0.000000 0.000000 0.000000
# 3 -0.003413 -0.000990 0.015379 0.000000 0.000000 0.000000
# 4 0.000000 0.000000 0.000000 0.023931 0.000000 0.000000
# 5 0.000000 0.000000 0.000000 0.000000 0.023850 0.000000
# 6 0.000000 0.000000 0.000000 0.000000 0.000000 0.027281
#
#
# Mechanical properties :
#
#
# Convention : Reuss Voigt Hill
#
# Bulk Modulus (GPa) = 43.02340 49.84963 46.43651
# Shear Modulus (GPa) = 27.08733 34.16057 30.62395
#
# Velocity S-wave (km/s) = 3.56092 3.99890 3.78625
# Velocity P-wave (km/s) = 6.08662 6.68261 6.39156
#
# Compressibility (1/GPa) = 0.02324317
#
# Stress axis : x y z
#
# Youngs Moduli (GPa) = 33.06090 59.22436 65.02483
#
# Poissons Ratio (x) = 0.90209 0.22190
# Poissons Ratio (y) = 0.50357 0.06435
# Poissons Ratio (z) = 0.11282 0.05861
#
# Static dielectric constant tensor:
#      x y z
#    x 1.781130 0.000000 0.000000 
#    y 0.000000 1.828870 0.000000 
#    z 0.000000 0.000000 1.905680 
# 
# From -- ./inp_files/6402.got.cif
#   From: 2010.05.17/outbox.cif.g08.bks.cpg/sg17_4_cif.got.tgz:6402.got - 2010.06.03 22:34:06.
