data_PCOD9311434
_publ_section_title
;
Structure prediction by ZEFSAII (Michael W. Deem and Ramdas Pophale) SiO2 
 PCOD9311434
Probable space group: P 2 2 21
;
_chemical_formula_sum "Si O2"
_cell_formula_units_Z 24
_cell_length_a 13.172421
_cell_length_b 6.230496
_cell_length_c 13.626843
_cell_angle_alpha 90.000000
_cell_angle_beta 90.000000
_cell_angle_gamma 90.000000
_cell_volume 1118.364767
_symmetry_space_group_name_H-M "P 2 2 21"
_symmetry_group_IT_number 17
_symmetry_cell_setting 'orthorhombic'
loop_
_space_group_symop_operation_xyz
x,y,z
-x,-y,1/2+z
x,-y,-z
-x,y,1/2-z
loop_
_atom_site_type_symbol
_atom_site_label
_atom_site_fract_x
_atom_site_fract_y
_atom_site_fract_z
Si Si1 0.000000 0.702266 0.750000
Si Si2 0.006377 0.367743 0.902125
Si Si3 0.628939 0.526103 0.115076
Si Si4 0.309564 0.874595 0.754427
Si Si5 0.858955 0.003329 0.383108
Si Si6 0.500000 0.816964 0.250000
Si Si7 0.802370 0.868319 0.094295
O O1 0.953540 0.534686 0.827623
O O2 0.934457 0.848476 0.678874
O O3 0.918773 0.193424 0.920453
O O4 0.104890 0.242986 0.858921
O O5 0.032186 0.500000 0.000000
O O6 0.651315 0.328570 0.190415
O O7 0.539147 0.665587 0.162894
O O8 0.733111 0.660790 0.109474
O O9 0.602836 0.500000 0.000000
O O10 0.249189 0.886096 0.857265
O O11 0.404805 0.030075 0.769835
O O12 0.223171 0.983418 0.686151
O O13 0.872916 0.000000 0.500000
O O14 0.765555 0.000000 0.000000
#
# Coordination Sequence:
#
# PCOD9311434 Si02
#       7
#     2   4   4   4   4   2   4
#     4  12  24  44  70  94 144 198 238 298 336 420
#     4  12  25  42  67 103 146 194 247 287 352 416
#     4  11  22  45  73 107 138 186 242 301 375 430
#     4  11  24  46  69 100 143 182 240 302 368 433
#     4  12  26  47  66 103 148 196 239 293 361 433
#     4  10  26  46  70 106 140 182 238 310 366 446
#     4  11  22  37  68 105 138 182 235 300 345 414
#
# _framework density 21.459904999999999
#
# number of rings (size 3 to 8) (size 9 to 14) (size 15 to 20)
#    0.000    0.667    3.333    5.000    2.333    1.333 
#    6.000    0.000    0.000    0.000    0.000    0.000 
#    0.000    0.000    0.000    0.000    0.000    0.000 
#
# Total GULP energy -133781.346834 kJ/mol
# GULP energy per Si atom -5574.222785 kJ/mol
# Density = 2.141106 g / cm^3
# Si number density = 21.459905 Si / 1000 Ang^3
#
#
#
# Elastic Constant Matrix: (Units=GPa)
#
#
# Indices 1 2 3 4 5 6 
#
# 1 70.9732 57.7500 55.8399 0.0000 0.0000 0.0000
# 2 57.7500 125.4245 63.0001 0.0000 0.0000 0.0000
# 3 55.8399 63.0001 127.5521 0.0000 0.0000 0.0000
# 4 0.0000 0.0000 0.0000 46.3011 0.0000 0.0000
# 5 0.0000 0.0000 0.0000 0.0000 10.5975 0.0000
# 6 0.0000 0.0000 0.0000 0.0000 0.0000 6.8547
#
#
#
# Elastic Compliance Matrix: (Units=1/GPa)
#
#
# Indices 1 2 3 4 5 6 
#
# 1 0.027118 -0.008675 -0.007587 0.000000 0.000000 0.000000
# 2 -0.008675 0.013379 -0.002810 0.000000 0.000000 0.000000
# 3 -0.007587 -0.002810 0.012549 0.000000 0.000000 0.000000
# 4 0.000000 0.000000 0.000000 0.021598 0.000000 0.000000
# 5 0.000000 0.000000 0.000000 0.000000 0.094362 0.000000
# 6 0.000000 0.000000 0.000000 0.000000 0.000000 0.145885
#
#
# Mechanical properties :
#
#
# Convention : Reuss Voigt Hill
#
# Bulk Modulus (GPa) = 67.10729 75.23667 71.17198
# Shear Modulus (GPa) = 13.96637 22.57464 18.27051
#
# Velocity S-wave (km/s) = 2.55387 3.24689 2.92100
# Velocity P-wave (km/s) = 6.32734 7.01368 6.67933
#
# Compressibility (1/GPa) = 0.01490151
#
# Stress axis : x y z
#
# Youngs Moduli (GPa) = 36.87599 74.74481 79.68550
#
# Poissons Ratio (x) = 0.64843 0.60456
# Poissons Ratio (y) = 0.31991 0.22393
# Poissons Ratio (z) = 0.27977 0.21005
#
# Static dielectric constant tensor:
#      x y z
#    x 1.772200 0.000000 0.000000 
#    y 0.000000 1.847220 0.000000 
#    z 0.000000 0.000000 1.901340 
# 
# From -- ./inp_files/8625.got.cif
#   From: 2010.05.17/outbox.cif.g08.bks.cpg/sg17_5_cif.got.tgz:8625.got - 2010.06.03 22:34:06.
