data_PCOD9311855
_publ_section_title
;
Structure prediction by ZEFSAII (Michael W. Deem and Ramdas Pophale) SiO2 
 PCOD9311855
Probable space group: P 21 21 2
;
_chemical_formula_sum "Si O2"
_cell_formula_units_Z 32
_cell_length_a 23.445089
_cell_length_b 5.327486
_cell_length_c 11.813577
_cell_angle_alpha 90.000000
_cell_angle_beta 90.000000
_cell_angle_gamma 90.000000
_cell_volume 1475.555738
_symmetry_space_group_name_H-M "P 21 21 2"
_symmetry_group_IT_number 18
_symmetry_cell_setting 'orthorhombic'
loop_
_space_group_symop_operation_xyz
x,y,z
-x,-y,z
1/2+x,1/2-y,-z
1/2-x,1/2+y,-z
loop_
_atom_site_type_symbol
_atom_site_label
_atom_site_fract_x
_atom_site_fract_y
_atom_site_fract_z
Si Si1 0.804481 0.219208 0.047569
Si Si2 0.438461 0.889267 0.161530
Si Si3 0.581389 0.014417 0.913139
Si Si4 0.054141 0.817092 0.278757
Si Si5 0.464160 0.240342 0.472775
Si Si6 0.386660 0.376933 0.267865
Si Si7 0.261113 0.426981 0.194935
Si Si8 0.348277 0.639095 0.785076
O O1 0.857061 0.408027 0.048858
O O2 0.762153 0.307106 0.147832
O O3 0.832007 0.962361 0.089983
O O4 0.776593 0.203457 0.925710
O O5 0.397635 0.124684 0.193472
O O6 0.500000 0.000000 0.194402
O O7 0.419384 0.625050 0.217932
O O8 0.441682 0.857989 0.025372
O O9 0.547068 0.800205 0.847199
O O10 0.598135 0.183699 0.806837
O O11 0.051755 0.673021 0.398077
O O12 0.119951 0.918424 0.280117
O O13 0.000000 0.000000 0.288238
O O14 0.500000 0.500000 0.470280
O O15 0.411559 0.301186 0.389838
O O16 0.500000 0.000000 0.431656
O O17 0.319447 0.437702 0.263627
O O18 0.208405 0.282052 0.253840
#
# Coordination Sequence:
#
# PCOD9311855 Si02
#       8
#     4   4   4   4   4   4   4   4
#     4  10  19  36  56  90 130 182 229 266 335 431
#     4  12  26  40  64  98 147 177 219 287 359 428
#     4  10  23  38  60 100 137 175 221 283 357 428
#     4  10  25  42  73  98 133 181 237 298 365 424
#     4  11  25  49  77 100 132 183 246 300 346 421
#     4  12  26  44  68 101 134 188 236 287 351 421
#     4  11  21  34  65  90 135 183 233 277 340 426
#     4  10  22  39  61  94 135 174 229 289 339 423
#
# _framework density 21.686741999999999
#
# number of rings (size 3 to 8) (size 9 to 14) (size 15 to 20)
#    0.000    1.250    2.500    3.000   10.500    0.000 
#    0.000    0.000    8.250    0.000    0.000    0.000 
#    0.000    0.000    0.000    0.000    0.000    0.000 
#
# Total GULP energy -178317.141182 kJ/mol
# GULP energy per Si atom -5572.410662 kJ/mol
# Density = 2.163738 g / cm^3
# Si number density = 21.686742 Si / 1000 Ang^3
#
#
#
# Elastic Constant Matrix: (Units=GPa)
#
#
# Indices 1 2 3 4 5 6 
#
# 1 110.5655 20.1204 37.3246 0.0000 0.0000 0.0000
# 2 20.1204 81.8563 20.0292 0.0000 0.0000 0.0000
# 3 37.3246 20.0292 107.7015 0.0000 0.0000 0.0000
# 4 0.0000 0.0000 0.0000 12.0122 0.0000 0.0000
# 5 0.0000 0.0000 0.0000 0.0000 41.1365 0.0000
# 6 0.0000 0.0000 0.0000 0.0000 0.0000 31.8574
#
#
#
# Elastic Compliance Matrix: (Units=1/GPa)
#
#
# Indices 1 2 3 4 5 6 
#
# 1 0.010481 -0.001768 -0.003304 0.000000 0.000000 0.000000
# 2 -0.001768 0.013097 -0.001823 0.000000 0.000000 0.000000
# 3 -0.003304 -0.001823 0.010769 0.000000 0.000000 0.000000
# 4 0.000000 0.000000 0.000000 0.083249 0.000000 0.000000
# 5 0.000000 0.000000 0.000000 0.000000 0.024309 0.000000
# 6 0.000000 0.000000 0.000000 0.000000 0.000000 0.031390
#
#
# Mechanical properties :
#
#
# Convention : Reuss Voigt Hill
#
# Bulk Modulus (GPa) = 48.64227 50.56353 49.60290
# Shear Modulus (GPa) = 25.78153 31.84450 28.81301
#
# Velocity S-wave (km/s) = 3.45166 3.83611 3.64895
# Velocity P-wave (km/s) = 6.19383 6.55645 6.37771
#
# Compressibility (1/GPa) = 0.02055825
#
# Stress axis : x y z
#
# Youngs Moduli (GPa) = 95.40737 76.35246 92.86078
#
# Poissons Ratio (x) = 0.13499 0.30677
# Poissons Ratio (y) = 0.16868 0.16928
# Poissons Ratio (z) = 0.31519 0.13919
#
# Static dielectric constant tensor:
#      x y z
#    x 1.821040 0.000000 0.000000 
#    y 0.000000 2.036880 0.000000 
#    z 0.000000 0.000000 1.789110 
# 
# From -- ./inp_files/6326.got.cif
#   From: 2010.05.17/outbox.cif.g08.bks.cpg/sg18_4_cif.got.tgz:6326.got - 2010.06.03 22:40:56.
