data_PCOD9311804
_publ_section_title
;
Structure prediction by ZEFSAII (Michael W. Deem and Ramdas Pophale) SiO2 
 PCOD9311804
Probable space group: P 21 21 2
;
_chemical_formula_sum "Si O2"
_cell_formula_units_Z 24
_cell_length_a 13.687332
_cell_length_b 5.007163
_cell_length_c 15.191964
_cell_angle_alpha 90.000000
_cell_angle_beta 90.000000
_cell_angle_gamma 90.000000
_cell_volume 1041.176731
_symmetry_space_group_name_H-M "P 21 21 2"
_symmetry_group_IT_number 18
_symmetry_cell_setting 'orthorhombic'
loop_
_space_group_symop_operation_xyz
x,y,z
-x,-y,z
1/2+x,1/2-y,-z
1/2-x,1/2+y,-z
loop_
_atom_site_type_symbol
_atom_site_label
_atom_site_fract_x
_atom_site_fract_y
_atom_site_fract_z
Si Si1 0.327910 0.430339 0.319841
Si Si2 0.882218 0.999969 0.119875
Si Si3 0.803586 0.064623 0.311594
Si Si4 0.681631 0.436464 0.504360
Si Si5 0.619655 0.994834 0.987829
Si Si6 0.561302 0.739371 0.152759
O O1 0.237835 0.635955 0.306262
O O2 0.374544 0.515781 0.413000
O O3 0.393198 0.420435 0.233671
O O4 0.288454 0.129914 0.326371
O O5 0.850166 0.970959 0.220554
O O6 0.846406 0.282287 0.083733
O O7 0.849890 0.779678 0.048724
O O8 0.000000 0.000000 0.120568
O O9 0.864023 0.016921 0.401819
O O10 0.725165 0.138692 0.505550
O O11 0.500000 0.000000 0.987707
O O12 0.637344 0.876121 0.084943
O O13 0.500000 0.500000 0.105416
O O14 0.500000 0.000000 0.182988
#
# Coordination Sequence:
#
# PCOD9311804 Si02
#       6
#     4   4   4   4   4   4
#     4  10  20  35  55  80 108 141 179 222 269 323
#     4  10  19  33  54  77 102 136 177 217 258 311
#     4  10  19  34  55  80 108 142 179 220 268 324
#     4   8  16  31  52  74 103 142 177 205 258 333
#     4   9  18  33  52  72  99 139 178 208 257 327
#     4  11  21  36  57  79 105 144 187 228 272 326
#
# _framework density 23.050840000000001
#
# number of rings (size 3 to 8) (size 9 to 14) (size 15 to 20)
#    0.000    2.333    0.000    4.500    0.000    0.000 
#    0.000    4.167    0.000    3.000    0.000    0.000 
#    0.000    0.000    0.000    0.000    0.000    0.000 
#
# Total GULP energy -133874.246933 kJ/mol
# GULP energy per Si atom -5578.093622 kJ/mol
# Density = 2.299838 g / cm^3
# Si number density = 23.050840 Si / 1000 Ang^3
#
#
#
# Elastic Constant Matrix: (Units=GPa)
#
#
# Indices 1 2 3 4 5 6 
#
# 1 38.4338 5.8022 21.7616 0.0000 0.0000 0.0000
# 2 5.8022 114.5321 13.0533 0.0000 0.0000 0.0000
# 3 21.7616 13.0533 174.7714 0.0000 0.0000 0.0000
# 4 0.0000 0.0000 0.0000 41.8990 0.0000 0.0000
# 5 0.0000 0.0000 0.0000 0.0000 -89.2543 0.0000
# 6 0.0000 0.0000 0.0000 0.0000 0.0000 10.3038
#
#
#
# Elastic Compliance Matrix: (Units=1/GPa)
#
#
# Indices 1 2 3 4 5 6 
#
# 1 0.028113 -0.001034 -0.003423 0.000000 0.000000 0.000000
# 2 -0.001034 0.008844 -0.000532 0.000000 0.000000 0.000000
# 3 -0.003423 -0.000532 0.006188 0.000000 0.000000 0.000000
# 4 0.000000 0.000000 0.000000 0.023867 0.000000 0.000000
# 5 0.000000 0.000000 0.000000 0.000000 -0.011204 0.000000
# 6 0.000000 0.000000 0.000000 0.000000 0.000000 0.097052
#
#
# Mechanical properties :
#
#
# Convention : Reuss Voigt Hill
#
# Bulk Modulus (GPa) = 30.15062 45.44128 37.79595
# Shear Modulus (GPa) = 28.75323 11.73105 20.24214
#
# Velocity S-wave (km/s) = 3.53566 2.25837 2.96658
# Velocity P-wave (km/s) = 5.45677 5.15331 5.30721
#
# Compressibility (1/GPa) = 0.03316681
#
# Stress axis : x y z
#
# Youngs Moduli (GPa) = 35.57053 113.06877 161.61018
#
# Poissons Ratio (x) = 0.11692 0.55324
# Poissons Ratio (y) = 0.03678 0.08594
# Poissons Ratio (z) = 0.12177 0.06013
#
# Static dielectric constant tensor:
#      x y z
#    x 1.924190 0.000000 0.000000 
#    y 0.000000 1.843410 0.000000 
#    z 0.000000 0.000000 1.991330 
# 
# From -- ./inp_files/6970.got.cif
#   From: 2010.05.17/outbox.cif.g08.bks.cpg/sg18_4_cif.got.tgz:6970.got - 2010.06.03 22:40:56.
