data_PCOD9311905
_publ_section_title
;
Structure prediction by ZEFSAII (Michael W. Deem and Ramdas Pophale) SiO2 
 PCOD9311905
Probable space group: P 21 21 2
;
_chemical_formula_sum "Si O2"
_cell_formula_units_Z 24
_cell_length_a 13.346963
_cell_length_b 5.205725
_cell_length_c 16.413339
_cell_angle_alpha 90.000000
_cell_angle_beta 90.000000
_cell_angle_gamma 90.000000
_cell_volume 1140.408953
_symmetry_space_group_name_H-M "P 21 21 2"
_symmetry_group_IT_number 18
_symmetry_cell_setting 'orthorhombic'
loop_
_space_group_symop_operation_xyz
x,y,z
-x,-y,z
1/2+x,1/2-y,-z
1/2-x,1/2+y,-z
loop_
_atom_site_type_symbol
_atom_site_label
_atom_site_fract_x
_atom_site_fract_y
_atom_site_fract_z
Si Si1 0.739657 0.887593 0.446377
Si Si2 0.720567 0.666468 0.702570
Si Si3 0.811693 0.182763 0.001386
Si Si4 0.111206 0.923342 0.665769
Si Si5 0.887236 0.410787 0.163731
Si Si6 0.690727 0.778916 0.173295
O O1 0.772358 0.634905 0.495960
O O2 0.641537 0.801725 0.396245
O O3 0.808136 0.971608 0.369364
O O4 0.799730 0.865283 0.663185
O O5 0.626532 0.788758 0.747055
O O6 0.777155 0.537735 0.780169
O O7 0.857724 0.279054 0.915822
O O8 0.718344 0.384835 0.007113
O O9 0.868850 0.228817 0.085380
O O10 0.117911 0.843243 0.760132
O O11 0.000000 0.000000 0.645277
O O12 0.795601 0.619399 0.163342
O O13 0.000000 0.500000 0.155328
#
# Coordination Sequence:
#
# PCOD9311905 Si02
#       6
#     4   4   4   4   4   4
#     4  11  22  42  73  95 129 173 212 267 339 395
#     4  10  20  41  68  89 133 179 212 271 327 392
#     4  10  19  38  60  86 127 174 225 271 325 372
#     4  10  22  41  70 101 131 172 218 270 331 396
#     4  10  21  38  62  95 130 181 227 272 319 389
#     4   9  20  37  62  88 132 176 216 271 329 380
#
# _framework density 21.045083999999999
#
# number of rings (size 3 to 8) (size 9 to 14) (size 15 to 20)
#    0.000    2.000    3.333    0.000    0.000    3.333 
#    3.000    0.000   14.667    0.000    0.000    0.000 
#    0.000    0.000    0.000    0.000    0.000    0.000 
#
# Total GULP energy -133612.415901 kJ/mol
# GULP energy per Si atom -5567.183996 kJ/mol
# Density = 2.099718 g / cm^3
# Si number density = 21.045084 Si / 1000 Ang^3
#
#
#
# Elastic Constant Matrix: (Units=GPa)
#
#
# Indices 1 2 3 4 5 6 
#
# 1 47.6379 1.9799 36.2957 0.0000 0.0000 0.0000
# 2 1.9799 69.1228 45.4501 0.0000 0.0000 0.0000
# 3 36.2957 45.4501 168.9623 0.0000 0.0000 0.0000
# 4 0.0000 0.0000 0.0000 132.1124 0.0000 0.0000
# 5 0.0000 0.0000 0.0000 0.0000 -1.6745 0.0000
# 6 0.0000 0.0000 0.0000 0.0000 0.0000 1.2257
#
#
#
# Elastic Compliance Matrix: (Units=1/GPa)
#
#
# Indices 1 2 3 4 5 6 
#
# 1 0.025789 0.003528 -0.006489 0.000000 0.000000 0.000000
# 2 0.003528 0.018058 -0.005615 0.000000 0.000000 0.000000
# 3 -0.006489 -0.005615 0.008823 0.000000 0.000000 0.000000
# 4 0.000000 0.000000 0.000000 0.007569 0.000000 0.000000
# 5 0.000000 0.000000 0.000000 0.000000 -0.597180 0.000000
# 6 0.000000 0.000000 0.000000 0.000000 0.000000 0.815839
#
#
# Mechanical properties :
#
#
# Convention : Reuss Voigt Hill
#
# Bulk Modulus (GPa) = 28.15526 50.35273 39.25399
# Shear Modulus (GPa) = 16.23957 39.79920 28.01939
#
# Velocity S-wave (km/s) = 2.78088 4.35344 3.65279
# Velocity P-wave (km/s) = 4.87018 7.01769 6.04014
#
# Compressibility (1/GPa) = 0.03551734
#
# Stress axis : x y z
#
# Youngs Moduli (GPa) = 38.77629 55.37634 113.34122
#
# Poissons Ratio (x) = -0.19536 0.73545
# Poissons Ratio (y) = -0.13680 0.63646
# Poissons Ratio (z) = 0.25161 0.31096
#
# Static dielectric constant tensor:
#      x y z
#    x 1.702110 0.000000 0.000000 
#    y 0.000000 1.894440 0.000000 
#    z 0.000000 0.000000 1.824500 
# 
# From -- ./inp_files/7361.got.cif
#   From: 2010.05.17/outbox.cif.g08.bks.cpg/sg18_4_cif.got.tgz:7361.got - 2010.06.03 22:40:56.
