data_PCOD9311704
_publ_section_title
;
Structure prediction by ZEFSAII (Michael W. Deem and Ramdas Pophale) SiO2 
 PCOD9311704
Probable space group: P 21 21 2
;
_chemical_formula_sum "Si O2"
_cell_formula_units_Z 32
_cell_length_a 15.371887
_cell_length_b 12.397445
_cell_length_c 7.503670
_cell_angle_alpha 90.000000
_cell_angle_beta 90.000000
_cell_angle_gamma 90.000000
_cell_volume 1429.990327
_symmetry_space_group_name_H-M "P 21 21 2"
_symmetry_group_IT_number 18
_symmetry_cell_setting 'orthorhombic'
loop_
_space_group_symop_operation_xyz
x,y,z
-x,-y,z
1/2+x,1/2-y,-z
1/2-x,1/2+y,-z
loop_
_atom_site_type_symbol
_atom_site_label
_atom_site_fract_x
_atom_site_fract_y
_atom_site_fract_z
Si Si1 0.665777 0.344057 0.180218
Si Si2 0.768671 0.530196 0.345475
Si Si3 0.845596 0.213483 0.661808
Si Si4 0.470496 0.162541 0.899767
Si Si5 0.210131 0.606004 0.894066
Si Si6 0.436700 0.084368 0.511086
Si Si7 0.019079 0.879133 0.930353
Si Si8 0.158087 0.389217 0.956026
O O1 0.712956 0.419681 0.321887
O O2 0.563088 0.349948 0.194405
O O3 0.689842 0.220266 0.138624
O O4 0.700087 0.399700 0.998937
O O5 0.712017 0.624379 0.437589
O O6 0.853185 0.487124 0.442162
O O7 0.799356 0.580254 0.150729
O O8 0.781900 0.298697 0.755541
O O9 0.911444 0.300602 0.575374
O O10 0.896771 0.142253 0.809117
O O11 0.476607 0.117596 0.702185
O O12 0.375120 0.134864 0.981859
O O13 0.477994 0.291773 0.913070
O O14 0.554289 0.119604 0.008600
O O15 0.184258 0.488371 0.831368
O O16 0.500000 0.000000 0.412841
O O17 0.000000 0.000000 0.988590
#
# Coordination Sequence:
#
# PCOD9311704 Si02
#       8
#     4   4   4   4   4   4   4   4
#     4  10  19  33  65  93 114 165 203 261 335 375
#     4  11  21  41  63  87 132 167 211 270 324 382
#     4  11  25  42  61  93 136 170 216 266 323 396
#     4  10  19  35  64  91 117 160 215 260 315 382
#     4  10  19  34  60  93 123 150 206 272 309 375
#     4  12  24  44  64  92 130 182 219 268 322 391
#     4  10  21  39  63  91 126 159 206 270 333 378
#     4  10  18  33  63  92 119 152 210 265 326 371
#
# _framework density 22.377775
#
# number of rings (size 3 to 8) (size 9 to 14) (size 15 to 20)
#    0.000    1.500    6.250    0.375    0.000    3.000 
#    4.500    0.625    0.000    0.000    0.000    0.000 
#    0.000    0.000    0.000    0.000    0.000    0.000 
#
# Total GULP energy -178369.258724 kJ/mol
# GULP energy per Si atom -5574.039335 kJ/mol
# Density = 2.232684 g / cm^3
# Si number density = 22.377775 Si / 1000 Ang^3
#
#
#
# Elastic Constant Matrix: (Units=GPa)
#
#
# Indices 1 2 3 4 5 6 
#
# 1 80.4478 30.3678 5.1827 0.0000 0.0000 0.0000
# 2 30.3678 183.6245 23.7568 0.0000 0.0000 0.0000
# 3 5.1827 23.7568 30.8139 0.0000 0.0000 0.0000
# 4 0.0000 0.0000 0.0000 24.0031 0.0000 0.0000
# 5 0.0000 0.0000 0.0000 0.0000 13.7297 0.0000
# 6 0.0000 0.0000 0.0000 0.0000 0.0000 44.9479
#
#
#
# Elastic Compliance Matrix: (Units=1/GPa)
#
#
# Indices 1 2 3 4 5 6 
#
# 1 0.013268 -0.002117 -0.000600 0.000000 0.000000 0.000000
# 2 -0.002117 0.006387 -0.004568 0.000000 0.000000 0.000000
# 3 -0.000600 -0.004568 0.036076 0.000000 0.000000 0.000000
# 4 0.000000 0.000000 0.000000 0.041661 0.000000 0.000000
# 5 0.000000 0.000000 0.000000 0.000000 0.072835 0.000000
# 6 0.000000 0.000000 0.000000 0.000000 0.000000 0.022248
#
#
# Mechanical properties :
#
#
# Convention : Reuss Voigt Hill
#
# Bulk Modulus (GPa) = 24.29448 45.94453 35.11950
# Shear Modulus (GPa) = 22.64857 32.24140 27.44498
#
# Velocity S-wave (km/s) = 3.18480 3.79988 3.50585
# Velocity P-wave (km/s) = 4.94005 6.31094 5.66710
#
# Compressibility (1/GPa) = 0.04116161
#
# Stress axis : x y z
#
# Youngs Moduli (GPa) = 75.36892 156.56874 27.71949
#
# Poissons Ratio (x) = 0.33141 0.01662
# Poissons Ratio (y) = 0.15953 0.12663
# Poissons Ratio (z) = 0.04520 0.71523
#
# Static dielectric constant tensor:
#      x y z
#    x 1.862520 0.000000 0.000000 
#    y 0.000000 1.871110 0.000000 
#    z 0.000000 0.000000 1.869260 
# 
# From -- ./inp_files/4295.got.cif
#   From: 2010.05.17/outbox.cif.g08.bks.cpg/sg18_3_cif.got.tgz:4295.got - 2010.06.03 22:40:56.
