data_PCOD9311809
_publ_section_title
;
Structure prediction by ZEFSAII (Michael W. Deem and Ramdas Pophale) SiO2 
 PCOD9311809
Probable space group: P 21 21 2
;
_chemical_formula_sum "Si O2"
_cell_formula_units_Z 20
_cell_length_a 14.182110
_cell_length_b 4.913589
_cell_length_c 13.344783
_cell_angle_alpha 90.000000
_cell_angle_beta 90.000000
_cell_angle_gamma 90.000000
_cell_volume 929.932000
_symmetry_space_group_name_H-M "P 21 21 2"
_symmetry_group_IT_number 18
_symmetry_cell_setting 'orthorhombic'
loop_
_space_group_symop_operation_xyz
x,y,z
-x,-y,z
1/2+x,1/2-y,-z
1/2-x,1/2+y,-z
loop_
_atom_site_type_symbol
_atom_site_label
_atom_site_fract_x
_atom_site_fract_y
_atom_site_fract_z
Si Si1 0.198848 0.205214 0.950270
Si Si2 0.184615 0.250302 0.518274
Si Si3 0.000000 0.000000 0.025388
Si Si4 0.271044 0.889294 0.276565
Si Si5 0.500000 0.000000 0.845014
Si Si6 0.648677 0.110401 0.687012
O O1 0.204965 0.309017 0.836102
O O2 0.090434 0.122363 0.969362
O O3 0.236221 0.444005 0.023713
O O4 0.273397 0.449471 0.492219
O O5 0.157266 0.319533 0.632231
O O6 0.116564 0.311283 0.425013
O O7 0.959987 0.255077 0.088679
O O8 0.181705 0.700566 0.306349
O O9 0.237657 0.198847 0.286031
O O10 0.426824 0.851802 0.772651
#
# Coordination Sequence:
#
# PCOD9311809 Si02
#       6
#     4   4   2   4   2   4
#     4  12  24  40  62  87 118 160 202 243 294 350
#     4   8  16  30  52  79 105 134 180 230 277 340
#     4  12  26  40  58  90 120 152 202 250 290 348
#     4  10  19  35  57  80 110 148 189 232 281 344
#     4  12  22  36  56  82 120 148 184 250 296 336
#     4  10  19  33  56  85 109 144 186 230 291 348
#
# _framework density 21.506951000000001
#
# number of rings (size 3 to 8) (size 9 to 14) (size 15 to 20)
#    0.000    1.600    0.000    7.200    0.000    0.000 
#    0.000    0.000    0.000   19.200    0.000    0.000 
#    0.000    0.000    0.000    0.000    0.000    0.000 
#
# Total GULP energy -111607.955475 kJ/mol
# GULP energy per Si atom -5580.397774 kJ/mol
# Density = 2.145800 g / cm^3
# Si number density = 21.506951 Si / 1000 Ang^3
#
#
#
# Elastic Constant Matrix: (Units=GPa)
#
#
# Indices 1 2 3 4 5 6 
#
# 1 56.7871 12.2609 38.6821 0.0000 0.0000 0.0000
# 2 12.2609 93.2874 27.4205 0.0000 0.0000 0.0000
# 3 38.6821 27.4205 183.0342 0.0000 0.0000 0.0000
# 4 0.0000 0.0000 0.0000 37.8867 0.0000 0.0000
# 5 0.0000 0.0000 0.0000 0.0000 43.7292 0.0000
# 6 0.0000 0.0000 0.0000 0.0000 0.0000 23.4886
#
#
#
# Elastic Compliance Matrix: (Units=1/GPa)
#
#
# Indices 1 2 3 4 5 6 
#
# 1 0.020771 -0.001506 -0.004164 0.000000 0.000000 0.000000
# 2 -0.001506 0.011323 -0.001378 0.000000 0.000000 0.000000
# 3 -0.004164 -0.001378 0.006550 0.000000 0.000000 0.000000
# 4 0.000000 0.000000 0.000000 0.026394 0.000000 0.000000
# 5 0.000000 0.000000 0.000000 0.000000 0.022868 0.000000
# 6 0.000000 0.000000 0.000000 0.000000 0.000000 0.042574
#
#
# Mechanical properties :
#
#
# Convention : Reuss Voigt Hill
#
# Bulk Modulus (GPa) = 40.73730 54.42619 47.58174
# Shear Modulus (GPa) = 32.73133 38.00392 35.36762
#
# Velocity S-wave (km/s) = 3.90538 4.20819 4.05961
# Velocity P-wave (km/s) = 6.27045 6.99808 6.64423
#
# Compressibility (1/GPa) = 0.02454753
#
# Stress axis : x y z
#
# Youngs Moduli (GPa) = 48.14334 88.31952 152.67321
#
# Poissons Ratio (x) = 0.13301 0.63575
# Poissons Ratio (y) = 0.07250 0.21038
# Poissons Ratio (z) = 0.20048 0.12170
#
# Static dielectric constant tensor:
#      x y z
#    x 1.783260 0.000000 0.000000 
#    y 0.000000 1.744820 0.000000 
#    z 0.000000 0.000000 1.884160 
# 
# From -- ./inp_files/6019.got.cif
#   From: 2010.05.17/outbox.cif.g08.bks.cpg/sg18_4_cif.got.tgz:6019.got - 2010.06.03 22:40:56.
