data_PCOD9311910
_publ_section_title
;
Structure prediction by ZEFSAII (Michael W. Deem and Ramdas Pophale) SiO2 
 PCOD9311910
Probable space group: P 21 21 2
;
_chemical_formula_sum "Si O2"
_cell_formula_units_Z 32
_cell_length_a 12.115855
_cell_length_b 13.832523
_cell_length_c 9.299325
_cell_angle_alpha 90.000000
_cell_angle_beta 90.000000
_cell_angle_gamma 90.000000
_cell_volume 1558.500314
_symmetry_space_group_name_H-M "P 21 21 2"
_symmetry_group_IT_number 18
_symmetry_cell_setting 'orthorhombic'
loop_
_space_group_symop_operation_xyz
x,y,z
-x,-y,z
1/2+x,1/2-y,-z
1/2-x,1/2+y,-z
loop_
_atom_site_type_symbol
_atom_site_label
_atom_site_fract_x
_atom_site_fract_y
_atom_site_fract_z
Si Si1 0.012702 0.613197 0.950513
Si Si2 0.970001 0.108422 0.755711
Si Si3 0.116677 0.285021 0.726985
Si Si4 0.472068 0.604368 0.566257
Si Si5 0.697006 0.762975 0.198357
Si Si6 0.002194 0.609998 0.467918
Si Si7 0.439950 0.775288 0.782877
Si Si8 0.736919 0.816326 0.525989
O O1 0.120891 0.650252 0.862804
O O2 0.000000 0.500000 0.982039
O O3 0.905496 0.640509 0.853446
O O4 0.011914 0.679794 0.091446
O O5 0.866279 0.161812 0.827157
O O6 0.070085 0.182819 0.783069
O O7 0.957347 0.108795 0.581176
O O8 0.000000 0.000000 0.799583
O O9 0.229373 0.262622 0.645140
O O10 0.037928 0.322394 0.597519
O O11 0.500000 0.500000 0.630338
O O12 0.487173 0.688693 0.683495
O O13 0.345891 0.618706 0.507635
O O14 0.823656 0.759046 0.150790
O O15 0.707832 0.774544 0.370225
O O16 0.128046 0.629649 0.423875
O O17 0.000000 0.500000 0.515381
O O18 0.925490 0.637974 0.333318
#
# Coordination Sequence:
#
# PCOD9311910 Si02
#       8
#     4   4   4   4   4   4   4   4
#     4  11  24  44  66  89 129 174 213 259 314 395
#     4   9  16  32  60  90 118 155 204 263 317 371
#     4  10  20  39  59  91 120 159 211 259 307 375
#     4   9  18  36  60  92 126 161 212 267 319 377
#     4  10  20  40  62  85 126 167 199 266 328 366
#     4  12  22  37  62  96 126 165 217 265 314 375
#     4  11  23  42  59  92 133 169 211 267 319 374
#     4  10  19  38  63  93 125 161 207 266 324 363
#
# _framework density 20.53256
#
# number of rings (size 3 to 8) (size 9 to 14) (size 15 to 20)
#    0.000    1.750    6.250    0.750    0.000    4.000 
#    2.250    7.500    0.000    0.000    0.000    0.000 
#    0.000    0.000    0.000    0.000    0.000    0.000 
#
# Total GULP energy -178270.428304 kJ/mol
# GULP energy per Si atom -5570.950885 kJ/mol
# Density = 2.048583 g / cm^3
# Si number density = 20.532560 Si / 1000 Ang^3
#
#
#
# Elastic Constant Matrix: (Units=GPa)
#
#
# Indices 1 2 3 4 5 6 
#
# 1 64.3115 28.2449 -0.3722 0.0000 0.0000 0.0000
# 2 28.2449 118.8748 2.0725 0.0000 0.0000 0.0000
# 3 -0.3722 2.0725 40.6571 0.0000 0.0000 0.0000
# 4 0.0000 0.0000 0.0000 24.0026 0.0000 0.0000
# 5 0.0000 0.0000 0.0000 0.0000 17.4762 0.0000
# 6 0.0000 0.0000 0.0000 0.0000 0.0000 22.4310
#
#
#
# Elastic Compliance Matrix: (Units=1/GPa)
#
#
# Indices 1 2 3 4 5 6 
#
# 1 0.017367 -0.004133 0.000370 0.000000 0.000000 0.000000
# 2 -0.004133 0.009403 -0.000517 0.000000 0.000000 0.000000
# 3 0.000370 -0.000517 0.024626 0.000000 0.000000 0.000000
# 4 0.000000 0.000000 0.000000 0.041662 0.000000 0.000000
# 5 0.000000 0.000000 0.000000 0.000000 0.057221 0.000000
# 6 0.000000 0.000000 0.000000 0.000000 0.000000 0.044581
#
#
# Mechanical properties :
#
#
# Convention : Reuss Voigt Hill
#
# Bulk Modulus (GPa) = 23.34547 31.52597 27.43572
# Shear Modulus (GPa) = 22.96757 25.70850 24.33804
#
# Velocity S-wave (km/s) = 3.34817 3.54232 3.44661
# Velocity P-wave (km/s) = 5.13241 5.66729 5.40647
#
# Compressibility (1/GPa) = 0.04283487
#
# Stress axis : x y z
#
# Youngs Moduli (GPa) = 57.58203 106.34697 40.60795
#
# Poissons Ratio (x) = 0.43951 -0.01501
# Poissons Ratio (y) = 0.23797 0.02100
# Poissons Ratio (z) = -0.02129 0.05500
#
# Static dielectric constant tensor:
#      x y z
#    x 1.795440 0.000000 0.000000 
#    y 0.000000 1.764090 0.000000 
#    z 0.000000 0.000000 1.773650 
# 
# From -- ./inp_files/3934.got.cif
#   From: 2010.05.17/outbox.cif.g08.bks.cpg/sg18_2_cif.got.tgz:3934.got - 2010.06.03 22:40:56.
