data_PCOD9311124
_publ_section_title
;
Structure prediction by ZEFSAII (Michael W. Deem and Ramdas Pophale) SiO2 
 PCOD9311124
Probable space group: P 2 2 21
;
_chemical_formula_sum "Si O2"
_cell_formula_units_Z 20
_cell_length_a 13.991227
_cell_length_b 7.204231
_cell_length_c 7.339784
_cell_angle_alpha 90.000000
_cell_angle_beta 90.000000
_cell_angle_gamma 90.000000
_cell_volume 739.821098
_symmetry_space_group_name_H-M "P 2 2 21"
_symmetry_group_IT_number 17
_symmetry_cell_setting 'orthorhombic'
loop_
_space_group_symop_operation_xyz
x,y,z
-x,-y,1/2+z
x,-y,-z
-x,y,1/2-z
loop_
_atom_site_type_symbol
_atom_site_label
_atom_site_fract_x
_atom_site_fract_y
_atom_site_fract_z
Si Si1 0.700588 0.252786 0.654260
Si Si2 0.441952 0.314597 0.578043
Si Si3 0.321006 0.181876 0.242476
Si Si4 0.897009 0.793990 0.231200
Si Si5 0.106062 0.780747 0.701359
O O1 0.648725 0.243123 0.460379
O O2 0.650418 0.378992 0.803795
O O3 0.812796 0.295204 0.653385
O O4 0.695745 0.041249 0.732699
O O5 0.488809 0.500000 0.500000
O O6 0.500000 0.224656 0.750000
O O7 0.397328 0.788954 0.596259
O O8 0.215506 0.274754 0.253937
O O9 0.882196 0.788632 0.016117
O O10 0.000000 0.707191 0.250000
O O11 0.901465 0.010940 0.284361
O O12 0.000000 0.700491 0.750000
#
# Coordination Sequence:
#
# PCOD9311124 Si02
#       5
#     4   4   4   4   4
#     4  10  21  42  70 103 139 171 217 285 347 407
#     4  12  29  48  69  92 127 177 238 290 348 417
#     4  10  21  42  70 104 138 171 219 283 349 405
#     4   9  15  26  52  95 141 177 210 253 323 401
#     4   9  15  26  52  95 142 176 209 255 320 402
#
# _framework density 27.033563999999998
#
# number of rings (size 3 to 8) (size 9 to 14) (size 15 to 20)
#    0.000    2.000    2.000    1.800    2.800    4.800 
#    7.200    1.000    0.000    1.200    0.000    0.000 
#    0.000    0.000    0.000    0.000    0.000    0.000 
#
# Total GULP energy -111602.978824 kJ/mol
# GULP energy per Si atom -5580.148941 kJ/mol
# Density = 2.697203 g / cm^3
# Si number density = 27.033564 Si / 1000 Ang^3
#
#
#
# Elastic Constant Matrix: (Units=GPa)
#
#
# Indices 1 2 3 4 5 6 
#
# 1 143.2723 44.7305 48.9895 0.0000 0.0000 0.0000
# 2 44.7305 88.4779 24.2368 0.0000 0.0000 0.0000
# 3 48.9895 24.2368 196.2220 0.0000 0.0000 0.0000
# 4 0.0000 0.0000 0.0000 22.5247 0.0000 0.0000
# 5 0.0000 0.0000 0.0000 0.0000 61.9739 0.0000
# 6 0.0000 0.0000 0.0000 0.0000 0.0000 47.5639
#
#
#
# Elastic Compliance Matrix: (Units=1/GPa)
#
#
# Indices 1 2 3 4 5 6 
#
# 1 0.008807 -0.003985 -0.001707 0.000000 0.000000 0.000000
# 2 -0.003985 0.013501 -0.000673 0.000000 0.000000 0.000000
# 3 -0.001707 -0.000673 0.005605 0.000000 0.000000 0.000000
# 4 0.000000 0.000000 0.000000 0.044396 0.000000 0.000000
# 5 0.000000 0.000000 0.000000 0.000000 0.016136 0.000000
# 6 0.000000 0.000000 0.000000 0.000000 0.000000 0.021024
#
#
# Mechanical properties :
#
#
# Convention : Reuss Voigt Hill
#
# Bulk Modulus (GPa) = 65.85386 73.76508 69.80947
# Shear Modulus (GPa) = 39.28944 47.08021 43.18482
#
# Velocity S-wave (km/s) = 3.81643 4.17771 4.00115
# Velocity P-wave (km/s) = 6.62066 7.11455 6.87204
#
# Compressibility (1/GPa) = 0.01518514
#
# Stress axis : x y z
#
# Youngs Moduli (GPa) = 113.53993 74.06730 178.39782
#
# Poissons Ratio (x) = 0.29517 0.30447
# Poissons Ratio (y) = 0.45247 0.12001
# Poissons Ratio (z) = 0.19378 0.04982
#
# Static dielectric constant tensor:
#      x y z
#    x 2.289220 0.000000 0.000000 
#    y 0.000000 2.159940 0.000000 
#    z 0.000000 0.000000 2.002340 
# 
# From -- ./inp_files/7149.got.cif
#   From: 2010.05.17/outbox.cif.g08.bks.cpg/sg17_4_cif.got.tgz:7149.got - 2010.06.03 22:34:06.
