data_PCOD9311765
_publ_section_title
;
Structure prediction by ZEFSAII (Michael W. Deem and Ramdas Pophale) SiO2 
 PCOD9311765
Probable space group: P 21 21 2
;
_chemical_formula_sum "Si O2"
_cell_formula_units_Z 14
_cell_length_a 4.770278
_cell_length_b 21.169790
_cell_length_c 6.001455
_cell_angle_alpha 90.000000
_cell_angle_beta 90.000000
_cell_angle_gamma 90.000000
_cell_volume 606.061635
_symmetry_space_group_name_H-M "P 21 21 2"
_symmetry_group_IT_number 18
_symmetry_cell_setting 'orthorhombic'
loop_
_space_group_symop_operation_xyz
x,y,z
-x,-y,z
1/2+x,1/2-y,-z
1/2-x,1/2+y,-z
loop_
_atom_site_type_symbol
_atom_site_label
_atom_site_fract_x
_atom_site_fract_y
_atom_site_fract_z
Si Si1 0.591578 0.707219 0.518990
Si Si2 0.645811 0.081752 0.600235
Si Si3 0.500000 0.500000 0.068061
Si Si4 0.617030 0.411176 0.699545
O O1 0.340215 0.746301 0.409194
O O2 0.744546 0.653739 0.368444
O O3 0.447768 0.663830 0.710569
O O4 0.331978 0.081514 0.506952
O O5 0.820934 0.060581 0.381526
O O6 0.770155 0.038637 0.791371
O O7 0.669698 0.447243 0.925719
#
# Coordination Sequence:
#
# PCOD9311765 Si02
#       4
#     4   4   2   4
#     4  10  18  43  70  95 140 184 230 290 352 404
#     4  10  24  43  68 104 139 185 228 294 343 416
#     4  12  26  46  72 108 144 186 238 280 368 416
#     4  10  24  43  68 104 139 185 228 294 343 416
#
# _framework density 23.099959999999999
#
# number of rings (size 3 to 8) (size 9 to 14) (size 15 to 20)
#    1.714    0.000    2.857    0.857    0.000    9.143 
#    0.000    2.857    0.000    0.000    0.000    0.000 
#    0.000    0.000    0.000    0.000    0.000    0.000 
#
# Total GULP energy -77934.464167 kJ/mol
# GULP energy per Si atom -5566.747440 kJ/mol
# Density = 2.304738 g / cm^3
# Si number density = 23.099960 Si / 1000 Ang^3
#
#
#
# Elastic Constant Matrix: (Units=GPa)
#
#
# Indices 1 2 3 4 5 6 
#
# 1 124.1973 52.0953 17.3384 0.0000 0.0000 0.0000
# 2 52.0953 161.8153 40.1534 0.0000 0.0000 0.0000
# 3 17.3384 40.1534 47.2329 0.0000 0.0000 0.0000
# 4 0.0000 0.0000 0.0000 18.0099 0.0000 0.0000
# 5 0.0000 0.0000 0.0000 0.0000 20.7273 0.0000
# 6 0.0000 0.0000 0.0000 0.0000 0.0000 42.8139
#
#
#
# Elastic Compliance Matrix: (Units=1/GPa)
#
#
# Indices 1 2 3 4 5 6 
#
# 1 0.009354 -0.002737 -0.001107 0.000000 0.000000 0.000000
# 2 -0.002737 0.008633 -0.006334 0.000000 0.000000 0.000000
# 3 -0.001107 -0.006334 0.026963 0.000000 0.000000 0.000000
# 4 0.000000 0.000000 0.000000 0.055525 0.000000 0.000000
# 5 0.000000 0.000000 0.000000 0.000000 0.048245 0.000000
# 6 0.000000 0.000000 0.000000 0.000000 0.000000 0.023357
#
#
# Mechanical properties :
#
#
# Convention : Reuss Voigt Hill
#
# Bulk Modulus (GPa) = 40.66109 61.37996 51.02052
# Shear Modulus (GPa) = 24.92132 31.22079 28.07106
#
# Velocity S-wave (km/s) = 3.28814 3.68033 3.48975
# Velocity P-wave (km/s) = 5.66183 6.68498 6.19456
#
# Compressibility (1/GPa) = 0.02459354
#
# Stress axis : x y z
#
# Youngs Moduli (GPa) = 106.90339 115.83772 37.08794
#
# Poissons Ratio (x) = 0.31702 0.04106
# Poissons Ratio (y) = 0.29257 0.23492
# Poissons Ratio (z) = 0.11836 0.73374
#
# Static dielectric constant tensor:
#      x y z
#    x 1.874530 0.000000 0.000000 
#    y 0.000000 2.008100 0.000000 
#    z 0.000000 0.000000 1.853190 
# 
# From -- ./inp_files/137.got.cif
#   From: 2010.05.17/outbox.cif.g08.bks.cpg/sg18_1_cif.got.tgz:137.got - 2010.06.03 22:40:56.
