data_PCOD9311591
_publ_section_title
;
Structure prediction by ZEFSAII (Michael W. Deem and Ramdas Pophale) SiO2 
 PCOD9311591
Probable space group: P 2 2 21
;
_chemical_formula_sum "Si O2"
_cell_formula_units_Z 8
_cell_length_a 8.644444
_cell_length_b 7.183057
_cell_length_c 4.855579
_cell_angle_alpha 90.000000
_cell_angle_beta 90.000000
_cell_angle_gamma 90.000000
_cell_volume 301.500060
_symmetry_space_group_name_H-M "P 2 2 21"
_symmetry_group_IT_number 17
_symmetry_cell_setting 'orthorhombic'
loop_
_space_group_symop_operation_xyz
x,y,z
-x,-y,1/2+z
x,-y,-z
-x,y,1/2-z
loop_
_atom_site_type_symbol
_atom_site_label
_atom_site_fract_x
_atom_site_fract_y
_atom_site_fract_z
Si Si1 0.150179 0.206297 0.103088
Si Si2 0.349823 0.293705 0.603089
O O1 0.281418 0.192544 0.337180
O O2 0.000000 0.290624 0.250000
O O3 0.218584 0.307459 0.837181
O O4 0.108441 0.000000 0.000000
O O5 0.391566 0.500000 0.500000
O O6 0.500000 0.209372 0.750000
#
# Coordination Sequence:
#
# PCOD9311591 Si02
#       2
#     4   4
#     4  12  26  48  74 104 144 186 234 292 350 416
#     4  12  26  48  74 104 144 186 234 292 350 416
#
# _framework density 26.533992999999999
#
# number of rings (size 3 to 8) (size 9 to 14) (size 15 to 20)
#    0.000    0.000    0.000   12.000    0.000    8.000 
#    0.000   10.000    0.000    0.000    0.000    0.000 
#    0.000    0.000    0.000    0.000    0.000    0.000 
#
# Total GULP energy -44929.798058 kJ/mol
# GULP energy per Si atom -5616.224757 kJ/mol
# Density = 2.647360 g / cm^3
# Si number density = 26.533993 Si / 1000 Ang^3
#
#
#
# Elastic Constant Matrix: (Units=GPa)
#
#
# Indices 1 2 3 4 5 6 
#
# 1 116.8102 7.5552 71.0233 0.0000 0.0000 0.0000
# 2 7.5552 29.2305 19.5344 0.0000 0.0000 0.0000
# 3 71.0233 19.5344 221.7147 0.0000 0.0000 0.0000
# 4 0.0000 0.0000 0.0000 52.8216 0.0000 0.0000
# 5 0.0000 0.0000 0.0000 0.0000 95.7564 0.0000
# 6 0.0000 0.0000 0.0000 0.0000 0.0000 31.6963
#
#
#
# Elastic Compliance Matrix: (Units=1/GPa)
#
#
# Indices 1 2 3 4 5 6 
#
# 1 0.010639 -0.000502 -0.003364 0.000000 0.000000 0.000000
# 2 -0.000502 0.036375 -0.003044 0.000000 0.000000 0.000000
# 3 -0.003364 -0.003044 0.005856 0.000000 0.000000 0.000000
# 4 0.000000 0.000000 0.000000 0.018932 0.000000 0.000000
# 5 0.000000 0.000000 0.000000 0.000000 0.010443 0.000000
# 6 0.000000 0.000000 0.000000 0.000000 0.000000 0.031549
#
#
# Mechanical properties :
#
#
# Convention : Reuss Voigt Hill
#
# Bulk Modulus (GPa) = 25.60807 62.66460 44.13633
# Shear Modulus (GPa) = 35.55438 54.03102 44.79270
#
# Velocity S-wave (km/s) = 3.66451 4.51743 4.11314
# Velocity P-wave (km/s) = 5.25137 7.13285 6.26316
#
# Compressibility (1/GPa) = 0.03905019
#
# Stress axis : x y z
#
# Youngs Moduli (GPa) = 93.99759 27.49152 170.76431
#
# Poissons Ratio (x) = 0.01380 0.57440
# Poissons Ratio (y) = 0.04717 0.51982
# Poissons Ratio (z) = 0.31618 0.08369
#
# Static dielectric constant tensor:
#      x y z
#    x 2.051880 0.000000 0.000000 
#    y 0.000000 2.024570 0.000000 
#    z 0.000000 0.000000 1.949880 
# 
# From -- ./inp_files/1111.got.cif
#   From: 2010.05.17/outbox.cif.g08.bks.cpg/sg17_1_cif.got.tgz:1111.got - 2010.06.03 22:34:06.
