data_PCOD9311186
_publ_section_title
;
Structure prediction by ZEFSAII (Michael W. Deem and Ramdas Pophale) SiO2 
 PCOD9311186
Probable space group: P 2 2 21
;
_chemical_formula_sum "Si O2"
_cell_formula_units_Z 24
_cell_length_a 8.901748
_cell_length_b 9.943575
_cell_length_c 15.309899
_cell_angle_alpha 90.000000
_cell_angle_beta 90.000000
_cell_angle_gamma 90.000000
_cell_volume 1355.158755
_symmetry_space_group_name_H-M "P 2 2 21"
_symmetry_group_IT_number 17
_symmetry_cell_setting 'orthorhombic'
loop_
_space_group_symop_operation_xyz
x,y,z
-x,-y,1/2+z
x,-y,-z
-x,y,1/2-z
loop_
_atom_site_type_symbol
_atom_site_label
_atom_site_fract_x
_atom_site_fract_y
_atom_site_fract_z
Si Si1 0.840328 0.127903 0.939341
Si Si2 0.321517 0.041753 0.737542
Si Si3 0.109507 0.760672 0.165556
Si Si4 0.903091 0.452828 0.340148
Si Si5 0.804688 0.624535 0.940413
Si Si6 0.678950 0.273997 0.242616
O O1 0.736084 0.095363 0.856153
O O2 0.003961 0.173562 0.906765
O O3 0.781296 0.248082 0.998412
O O4 0.851618 0.000000 0.000000
O O5 0.500000 0.048461 0.750000
O O6 0.242404 0.139068 0.807978
O O7 0.275351 0.884070 0.743607
O O8 0.149072 0.606340 0.143516
O O9 0.000000 0.752946 0.250000
O O10 0.766319 0.352989 0.319252
O O11 0.000000 0.454348 0.250000
O O12 0.021025 0.402739 0.412933
O O13 0.723848 0.654781 0.848673
O O14 0.754190 0.500000 0.000000
O O15 0.500000 0.280306 0.250000
#
# Coordination Sequence:
#
# PCOD9311186 Si02
#       6
#     4   4   4   4   4   4
#     4  11  21  36  60  86 111 148 193 241 289 330
#     4  10  22  39  57  83 119 155 190 229 282 351
#     4   9  19  35  56  82 109 142 187 229 276 337
#     4   9  19  35  57  81 108 145 185 229 277 336
#     4  11  21  38  60  84 115 146 190 249 287 326
#     4  10  22  39  58  82 116 158 191 225 285 354
#
# _framework density 17.710103
#
# number of rings (size 3 to 8) (size 9 to 14) (size 15 to 20)
#    0.000    2.000    3.333    0.000    4.667    2.667 
#    0.000    3.333    0.000    0.000    0.000    0.000 
#    0.000    0.000    0.000    0.000    0.000    0.000 
#
# Total GULP energy -133777.882625 kJ/mol
# GULP energy per Si atom -5574.078443 kJ/mol
# Density = 1.766979 g / cm^3
# Si number density = 17.710103 Si / 1000 Ang^3
#
#
#
# Elastic Constant Matrix: (Units=GPa)
#
#
# Indices 1 2 3 4 5 6 
#
# 1 66.5015 44.5949 21.6434 0.0000 0.0000 0.0000
# 2 44.5949 151.1129 39.9859 0.0000 0.0000 0.0000
# 3 21.6434 39.9859 64.7178 0.0000 0.0000 0.0000
# 4 0.0000 0.0000 0.0000 6.4165 0.0000 0.0000
# 5 0.0000 0.0000 0.0000 0.0000 22.2718 0.0000
# 6 0.0000 0.0000 0.0000 0.0000 0.0000 20.8469
#
#
#
# Elastic Compliance Matrix: (Units=1/GPa)
#
#
# Indices 1 2 3 4 5 6 
#
# 1 0.019398 -0.004791 -0.003527 0.000000 0.000000 0.000000
# 2 -0.004791 0.009094 -0.004017 0.000000 0.000000 0.000000
# 3 -0.003527 -0.004017 0.019113 0.000000 0.000000 0.000000
# 4 0.000000 0.000000 0.000000 0.155848 0.000000 0.000000
# 5 0.000000 0.000000 0.000000 0.000000 0.044900 0.000000
# 6 0.000000 0.000000 0.000000 0.000000 0.000000 0.047969
#
#
# Mechanical properties :
#
#
# Convention : Reuss Voigt Hill
#
# Bulk Modulus (GPa) = 43.60032 54.97561 49.28796
# Shear Modulus (GPa) = 15.21436 21.64757 18.43097
#
# Velocity S-wave (km/s) = 2.93418 3.49998 3.22949
# Velocity P-wave (km/s) = 6.01262 6.88785 6.46506
#
# Compressibility (1/GPa) = 0.02293561
#
# Stress axis : x y z
#
# Youngs Moduli (GPa) = 51.55148 109.95831 52.32081
#
# Poissons Ratio (x) = 0.52684 0.18453
# Poissons Ratio (y) = 0.24700 0.21015
# Poissons Ratio (z) = 0.18182 0.44166
#
# Static dielectric constant tensor:
#      x y z
#    x 1.582810 0.000000 0.000000 
#    y 0.000000 1.594840 0.000000 
#    z 0.000000 0.000000 1.617880 
# 
# From -- ./inp_files/8086.got.cif
#   From: 2010.05.17/outbox.cif.g08.bks.cpg/sg17_5_cif.got.tgz:8086.got - 2010.06.03 22:34:06.
