data_PCOD9311316
_publ_section_title
;
Structure prediction by ZEFSAII (Michael W. Deem and Ramdas Pophale) SiO2 
 PCOD9311316
Probable space group: P 2 2 21
;
_chemical_formula_sum "Si O2"
_cell_formula_units_Z 12
_cell_length_a 6.700022
_cell_length_b 7.109240
_cell_length_c 11.889451
_cell_angle_alpha 90.000000
_cell_angle_beta 90.000000
_cell_angle_gamma 90.000000
_cell_volume 566.319096
_symmetry_space_group_name_H-M "P 2 2 21"
_symmetry_group_IT_number 17
_symmetry_cell_setting 'orthorhombic'
loop_
_space_group_symop_operation_xyz
x,y,z
-x,-y,1/2+z
x,-y,-z
-x,y,1/2-z
loop_
_atom_site_type_symbol
_atom_site_label
_atom_site_fract_x
_atom_site_fract_y
_atom_site_fract_z
Si Si1 0.745066 0.792738 0.452604
Si Si2 0.923125 0.500000 0.000000
Si Si3 0.500000 0.067575 0.750000
Si Si4 0.588452 0.702481 0.864331
O O1 0.934217 0.658841 0.449049
O O2 0.639575 0.818188 0.332874
O O3 0.581350 0.711771 0.540336
O O4 0.797899 0.000000 0.500000
O O5 0.780002 0.403097 0.091018
O O6 0.625823 0.920239 0.827513
O O7 0.500000 0.615601 0.750000
#
# Coordination Sequence:
#
# PCOD9311316 Si02
#       4
#     4   2   2   4
#     4  10  22  47  72 105 139 183 233 284 348 417
#     4  12  24  44  78 106 136 180 246 286 342 416
#     4   8  20  48  76  92 150 184 218 288 360 408
#     4   9  22  46  72  95 147 183 222 287 353 411
#
# _framework density 21.189468000000002
#
# number of rings (size 3 to 8) (size 9 to 14) (size 15 to 20)
#    1.000    1.333    0.000    1.000    0.000    5.333 
#   18.000    3.333    7.333    0.000    0.000    0.000 
#    0.000    0.000    0.000    0.000    0.000    0.000 
#
# Total GULP energy -67052.285551 kJ/mol
# GULP energy per Si atom -5587.690463 kJ/mol
# Density = 2.114124 g / cm^3
# Si number density = 21.189468 Si / 1000 Ang^3
#
#
#
# Elastic Constant Matrix: (Units=GPa)
#
#
# Indices 1 2 3 4 5 6 
#
# 1 170.8676 104.3009 107.5706 0.0000 0.0000 0.0000
# 2 104.3009 131.5405 63.7991 0.0000 0.0000 0.0000
# 3 107.5706 63.7991 142.8828 0.0000 0.0000 0.0000
# 4 0.0000 0.0000 0.0000 -55.5064 0.0000 0.0000
# 5 0.0000 0.0000 0.0000 0.0000 29.4980 0.0000
# 6 0.0000 0.0000 0.0000 0.0000 0.0000 -31.7850
#
#
#
# Elastic Compliance Matrix: (Units=1/GPa)
#
#
# Indices 1 2 3 4 5 6 
#
# 1 0.016904 -0.009230 -0.008605 0.000000 0.000000 0.000000
# 2 -0.009230 0.014743 0.000366 0.000000 0.000000 0.000000
# 3 -0.008605 0.000366 0.013314 0.000000 0.000000 0.000000
# 4 0.000000 0.000000 0.000000 -0.018016 0.000000 0.000000
# 5 0.000000 0.000000 0.000000 0.000000 0.033901 0.000000
# 6 0.000000 0.000000 0.000000 0.000000 0.000000 -0.031461
#
#
# Mechanical properties :
#
#
# Convention : Reuss Voigt Hill
#
# Bulk Modulus (GPa) = 99.77335 110.73691 105.25513
# Shear Modulus (GPa) = 73.89504 -0.25065 36.82219
#
# Velocity S-wave (km/s) = 5.91178 -0.34431 4.17317
# Velocity P-wave (km/s) = 9.68439 7.22605 8.54410
#
# Compressibility (1/GPa) = 0.01002272
#
# Stress axis : x y z
#
# Youngs Moduli (GPa) = 59.15811 67.82708 75.10997
#
# Poissons Ratio (x) = 0.62603 0.64632
# Poissons Ratio (y) = 0.54602 -0.02746
# Poissons Ratio (z) = 0.50905 -0.02480
#
# Static dielectric constant tensor:
#      x y z
#    x 1.709810 0.000000 0.000000 
#    y 0.000000 1.814170 0.000000 
#    z 0.000000 0.000000 1.756210 
# 
# From -- ./inp_files/5671.got.cif
#   From: 2010.05.17/outbox.cif.g08.bks.cpg/sg17_3_cif.got.tgz:5671.got - 2010.06.03 22:34:06.
