data_PCOD9311814
_publ_section_title
;
Structure prediction by ZEFSAII (Michael W. Deem and Ramdas Pophale) SiO2 
 PCOD9311814
Probable space group: P 21 21 2
;
_chemical_formula_sum "Si O2"
_cell_formula_units_Z 26
_cell_length_a 5.070743
_cell_length_b 23.353796
_cell_length_c 8.872455
_cell_angle_alpha 90.000000
_cell_angle_beta 90.000000
_cell_angle_gamma 90.000000
_cell_volume 1050.685859
_symmetry_space_group_name_H-M "P 21 21 2"
_symmetry_group_IT_number 18
_symmetry_cell_setting 'orthorhombic'
loop_
_space_group_symop_operation_xyz
x,y,z
-x,-y,z
1/2+x,1/2-y,-z
1/2-x,1/2+y,-z
loop_
_atom_site_type_symbol
_atom_site_label
_atom_site_fract_x
_atom_site_fract_y
_atom_site_fract_z
Si Si1 0.887631 0.188241 0.396475
Si Si2 0.500000 0.500000 0.252388
Si Si3 0.000000 0.500000 0.590427
Si Si4 0.162102 0.090970 0.977200
Si Si5 0.357233 0.840910 0.878436
Si Si6 0.883074 0.261513 0.710169
Si Si7 0.500000 0.500000 0.780297
Si Si8 0.863321 0.592645 0.416694
O O1 0.894652 0.225075 0.552956
O O2 0.680585 0.216007 0.278053
O O3 0.778231 0.129187 0.455872
O O4 0.175793 0.188606 0.325799
O O5 0.690320 0.460520 0.146703
O O6 0.669969 0.545661 0.344219
O O7 0.912612 0.445644 0.491090
O O8 0.247460 0.481744 0.686624
O O9 0.400060 0.136886 0.980129
O O10 0.898617 0.124489 0.931114
O O11 0.103790 0.054039 0.124337
O O12 0.245828 0.777578 0.840873
O O13 0.449916 0.864132 0.713665
#
# Coordination Sequence:
#
# PCOD9311814 Si02
#       8
#     4   2   2   4   4   4   2   4
#     4   9  18  30  47  73 114 145 167 204 259 333
#     4   9  19  34  54  82 113 139 180 230 274 327
#     4  12  24  38  54  76 110 150 182 214 250 326
#     4  10  20  36  56  79 106 139 178 233 277 310
#     4  10  19  33  59  86 109 135 174 227 283 325
#     4   9  17  30  48  78 109 138 169 209 267 329
#     4  11  25  40  54  76 107 145 190 220 260 315
#     4  10  21  34  54  83 114 147 178 214 272 327
#
# _framework density 24.745742
#
# number of rings (size 3 to 8) (size 9 to 14) (size 15 to 20)
#    0.000    2.154    0.000    3.231    0.000   15.385 
#    0.000    0.000    0.000    0.000    0.000   21.538 
#    0.000    0.000    0.000    0.000    0.000    0.000 
#
# Total GULP energy -145339.427685 kJ/mol
# GULP energy per Si atom -5589.977988 kJ/mol
# Density = 2.468942 g / cm^3
# Si number density = 24.745742 Si / 1000 Ang^3
#
#
#
# Elastic Constant Matrix: (Units=GPa)
#
#
# Indices 1 2 3 4 5 6 
#
# 1 98.8706 -8.4215 11.9525 0.0000 0.0000 0.0000
# 2 -8.4215 34.6360 3.7924 0.0000 0.0000 0.0000
# 3 11.9525 3.7924 34.7387 0.0000 0.0000 0.0000
# 4 0.0000 0.0000 0.0000 20.8847 0.0000 0.0000
# 5 0.0000 0.0000 0.0000 0.0000 27.8888 0.0000
# 6 0.0000 0.0000 0.0000 0.0000 0.0000 32.3111
#
#
#
# Elastic Compliance Matrix: (Units=1/GPa)
#
#
# Indices 1 2 3 4 5 6 
#
# 1 0.010870 0.003089 -0.004077 0.000000 0.000000 0.000000
# 2 0.003089 0.030099 -0.004349 0.000000 0.000000 0.000000
# 3 -0.004077 -0.004349 0.030664 0.000000 0.000000 0.000000
# 4 0.000000 0.000000 0.000000 0.047882 0.000000 0.000000
# 5 0.000000 0.000000 0.000000 0.000000 0.035857 0.000000
# 6 0.000000 0.000000 0.000000 0.000000 0.000000 0.030949
#
#
# Mechanical properties :
#
#
# Convention : Reuss Voigt Hill
#
# Bulk Modulus (GPa) = 16.40427 20.32134 18.36281
# Shear Modulus (GPa) = 23.00811 26.94504 24.97658
#
# Velocity S-wave (km/s) = 3.05254 3.30339 3.18044
# Velocity P-wave (km/s) = 4.36664 4.77281 4.57424
#
# Compressibility (1/GPa) = 0.06095974
#
# Stress axis : x y z
#
# Youngs Moduli (GPa) = 91.99369 33.22367 32.61152
#
# Poissons Ratio (x) = -0.10264 0.13297
# Poissons Ratio (y) = -0.28421 0.14182
# Poissons Ratio (z) = 0.37510 0.14449
#
# Static dielectric constant tensor:
#      x y z
#    x 1.907030 0.000000 0.000000 
#    y 0.000000 1.994750 0.000000 
#    z 0.000000 0.000000 2.055100 
# 
# From -- ./inp_files/2583.got.cif
#   From: 2010.05.17/outbox.cif.g08.bks.cpg/sg18_2_cif.got.tgz:2583.got - 2010.06.03 22:40:56.
