data_PCOD9311614
_publ_section_title
;
Structure prediction by ZEFSAII (Michael W. Deem and Ramdas Pophale) SiO2 
 PCOD9311614
Probable space group: P 21 21 2
;
_chemical_formula_sum "Si O2"
_cell_formula_units_Z 24
_cell_length_a 15.510146
_cell_length_b 9.842321
_cell_length_c 8.238134
_cell_angle_alpha 90.000000
_cell_angle_beta 90.000000
_cell_angle_gamma 90.000000
_cell_volume 1257.599230
_symmetry_space_group_name_H-M "P 21 21 2"
_symmetry_group_IT_number 18
_symmetry_cell_setting 'orthorhombic'
loop_
_space_group_symop_operation_xyz
x,y,z
-x,-y,z
1/2+x,1/2-y,-z
1/2-x,1/2+y,-z
loop_
_atom_site_type_symbol
_atom_site_label
_atom_site_fract_x
_atom_site_fract_y
_atom_site_fract_z
Si Si1 0.571432 0.205976 0.595832
Si Si2 0.666559 0.967040 0.793364
Si Si3 0.526125 0.748137 0.901769
Si Si4 0.343085 0.645253 0.313303
Si Si5 0.877552 0.598751 0.896629
Si Si6 0.500000 0.000000 0.356398
Si Si7 0.000000 0.000000 0.867911
O O1 0.524079 0.288515 0.736470
O O2 0.634927 0.298376 0.491120
O O3 0.507495 0.134030 0.466426
O O4 0.615937 0.077411 0.684699
O O5 0.606371 0.838414 0.840361
O O6 0.753587 0.931435 0.701772
O O7 0.683432 0.033474 0.969668
O O8 0.461123 0.844898 0.004859
O O9 0.538709 0.618359 0.016200
O O10 0.335887 0.775652 0.195373
O O11 0.423932 0.560785 0.243069
O O12 0.916278 0.500401 0.759048
#
# Coordination Sequence:
#
# PCOD9311614 Si02
#       7
#     4   4   4   4   4   2   2
#     4  10  20  39  60  89 120 155 207 251 293 367
#     4  11  20  39  63  90 119 159 209 251 308 348
#     4  10  19  39  65  85 115 164 196 247 304 372
#     4  10  24  39  59  92 127 154 205 255 300 366
#     4   9  18  35  61  88 113 153 207 250 287 360
#     4  10  14  32  60  86 110 146 194 250 282 338
#     4  10  24  44  60  88 128 166 198 240 326 366
#
# _framework density 19.083981999999999
#
# number of rings (size 3 to 8) (size 9 to 14) (size 15 to 20)
#    0.000    2.000    3.333    1.000    2.333    0.667 
#    6.000    5.000    0.000    0.000    0.000    0.000 
#    0.000    0.000    0.000    0.000    0.000    0.000 
#
# Total GULP energy -133825.325893 kJ/mol
# GULP energy per Si atom -5576.055246 kJ/mol
# Density = 1.904055 g / cm^3
# Si number density = 19.083982 Si / 1000 Ang^3
#
#
#
# Elastic Constant Matrix: (Units=GPa)
#
#
# Indices 1 2 3 4 5 6 
#
# 1 36.6413 15.5635 7.7867 0.0000 0.0000 0.0000
# 2 15.5635 55.3002 19.8618 0.0000 0.0000 0.0000
# 3 7.7867 19.8618 87.5145 0.0000 0.0000 0.0000
# 4 0.0000 0.0000 0.0000 11.7715 0.0000 0.0000
# 5 0.0000 0.0000 0.0000 0.0000 15.5783 0.0000
# 6 0.0000 0.0000 0.0000 0.0000 0.0000 23.5956
#
#
#
# Elastic Compliance Matrix: (Units=1/GPa)
#
#
# Indices 1 2 3 4 5 6 
#
# 1 0.031055 -0.008435 -0.000849 0.000000 0.000000 0.000000
# 2 -0.008435 0.021979 -0.004238 0.000000 0.000000 0.000000
# 3 -0.000849 -0.004238 0.012464 0.000000 0.000000 0.000000
# 4 0.000000 0.000000 0.000000 0.084951 0.000000 0.000000
# 5 0.000000 0.000000 0.000000 0.000000 0.064192 0.000000
# 6 0.000000 0.000000 0.000000 0.000000 0.000000 0.042381
#
#
# Mechanical properties :
#
#
# Convention : Reuss Voigt Hill
#
# Bulk Modulus (GPa) = 26.00463 29.54222 27.77343
# Shear Modulus (GPa) = 16.84165 19.27201 18.05683
#
# Velocity S-wave (km/s) = 2.97392 3.18127 3.07934
# Velocity P-wave (km/s) = 5.04462 5.38588 5.21804
#
# Compressibility (1/GPa) = 0.03845468
#
# Stress axis : x y z
#
# Youngs Moduli (GPa) = 32.20116 45.49778 80.23126
#
# Poissons Ratio (x) = 0.38378 0.06810
# Poissons Ratio (y) = 0.27162 0.34000
# Poissons Ratio (z) = 0.02733 0.19281
#
# Static dielectric constant tensor:
#      x y z
#    x 1.646820 0.000000 0.000000 
#    y 0.000000 1.692380 0.000000 
#    z 0.000000 0.000000 1.689800 
# 
# From -- ./inp_files/4498.got.cif
#   From: 2010.05.17/outbox.cif.g08.bks.cpg/sg18_3_cif.got.tgz:4498.got - 2010.06.03 22:40:56.
