data_PCOD9311005
_publ_section_title
;
Structure prediction by ZEFSAII (Michael W. Deem and Ramdas Pophale) SiO2 
 PCOD9311005
Probable space group: P 2 2 21
;
_chemical_formula_sum "Si O2"
_cell_formula_units_Z 20
_cell_length_a 7.896813
_cell_length_b 12.304482
_cell_length_c 7.907148
_cell_angle_alpha 90.000000
_cell_angle_beta 90.000000
_cell_angle_gamma 90.000000
_cell_volume 768.307472
_symmetry_space_group_name_H-M "P 2 2 21"
_symmetry_group_IT_number 17
_symmetry_cell_setting 'orthorhombic'
loop_
_space_group_symop_operation_xyz
x,y,z
-x,-y,1/2+z
x,-y,-z
-x,y,1/2-z
loop_
_atom_site_type_symbol
_atom_site_label
_atom_site_fract_x
_atom_site_fract_y
_atom_site_fract_z
Si Si1 0.326287 0.543042 0.179465
Si Si2 0.820098 0.059156 0.178994
Si Si3 0.909218 0.500000 0.000000
Si Si4 0.398011 0.000000 0.000000
Si Si5 0.287586 0.208960 0.852502
Si Si6 0.932442 0.753803 0.010327
O O1 0.500000 0.494339 0.250000
O O2 0.193563 0.516420 0.324587
O O3 0.356526 0.669527 0.139099
O O4 0.268713 0.500000 0.000000
O O5 0.687225 0.034259 0.322044
O O6 0.000000 0.017791 0.250000
O O7 0.840737 0.186145 0.142364
O O8 0.777296 0.000000 0.000000
O O9 0.969074 0.373503 0.011818
O O10 0.428466 0.874890 0.074312
O O11 0.191217 0.216770 0.668635
O O12 0.116653 0.191809 0.963783
#
# Coordination Sequence:
#
# PCOD9311005 Si02
#       6
#     4   4   2   2   4   4
#     4  11  24  45  68  88 117 166 222 261 309 368
#     4  12  20  31  53  79 125 171 204 232 288 372
#     4  10  24  42  62  92 132 158 200 266 320 366
#     4  12  22  36  56  88 128 168 206 248 300 376
#     4  10  22  37  61  92 126 161 208 251 306 380
#     4  10  21  37  56  92 134 164 191 251 316 378
#
# _framework density 26.031244000000001
#
# number of rings (size 3 to 8) (size 9 to 14) (size 15 to 20)
#    0.000    1.200    6.000    0.000    4.200    0.000 
#    3.600    0.000    0.000    6.000    0.000    0.000 
#    0.000    0.000    0.000    0.000    0.000    0.000 
#
# Total GULP energy -111426.933559 kJ/mol
# GULP energy per Si atom -5571.346678 kJ/mol
# Density = 2.597200 g / cm^3
# Si number density = 26.031244 Si / 1000 Ang^3
#
#
#
# Elastic Constant Matrix: (Units=GPa)
#
#
# Indices 1 2 3 4 5 6 
#
# 1 35.0136 23.0564 -1.3993 0.0000 0.0000 0.0000
# 2 23.0564 158.7420 41.8085 0.0000 0.0000 0.0000
# 3 -1.3993 41.8085 163.0375 0.0000 0.0000 0.0000
# 4 0.0000 0.0000 0.0000 67.9473 0.0000 0.0000
# 5 0.0000 0.0000 0.0000 0.0000 19.6802 0.0000
# 6 0.0000 0.0000 0.0000 0.0000 0.0000 8.3050
#
#
#
# Elastic Compliance Matrix: (Units=1/GPa)
#
#
# Indices 1 2 3 4 5 6 
#
# 1 0.031951 -0.005054 0.001570 0.000000 0.000000 0.000000
# 2 -0.005054 0.007555 -0.001981 0.000000 0.000000 0.000000
# 3 0.001570 -0.001981 0.006655 0.000000 0.000000 0.000000
# 4 0.000000 0.000000 0.000000 0.014717 0.000000 0.000000
# 5 0.000000 0.000000 0.000000 0.000000 0.050812 0.000000
# 6 0.000000 0.000000 0.000000 0.000000 0.000000 0.120410
#
#
# Mechanical properties :
#
#
# Convention : Reuss Voigt Hill
#
# Bulk Modulus (GPa) = 28.38328 53.74714 41.06521
# Shear Modulus (GPa) = 19.62516 38.74166 29.18341
#
# Velocity S-wave (km/s) = 2.74872 3.86200 3.35190
# Velocity P-wave (km/s) = 4.58270 6.37014 5.54887
#
# Compressibility (1/GPa) = 0.03523200
#
# Stress axis : x y z
#
# Youngs Moduli (GPa) = 31.29758 132.35664 150.26321
#
# Poissons Ratio (x) = 0.66898 -0.23596
# Poissons Ratio (y) = 0.15819 0.29765
# Poissons Ratio (z) = -0.04915 0.26218
#
# Static dielectric constant tensor:
#      x y z
#    x 2.142530 0.000000 0.000000 
#    y 0.000000 2.071300 0.000000 
#    z 0.000000 0.000000 2.038670 
# 
# From -- ./inp_files/4067.got.cif
#   From: 2010.05.17/outbox.cif.g08.bks.cpg/sg17_3_cif.got.tgz:4067.got - 2010.06.03 22:34:06.
