data_PCOD9311172
_publ_section_title
;
Structure prediction by ZEFSAII (Michael W. Deem and Ramdas Pophale) SiO2 
 PCOD9311172
Probable space group: P 2 2 21
;
_chemical_formula_sum "Si O2"
_cell_formula_units_Z 12
_cell_length_a 12.014785
_cell_length_b 3.872835
_cell_length_c 8.048727
_cell_angle_alpha 90.000000
_cell_angle_beta 90.000000
_cell_angle_gamma 90.000000
_cell_volume 374.517569
_symmetry_space_group_name_H-M "P 2 2 21"
_symmetry_group_IT_number 17
_symmetry_cell_setting 'orthorhombic'
loop_
_space_group_symop_operation_xyz
x,y,z
-x,-y,1/2+z
x,-y,-z
-x,y,1/2-z
loop_
_atom_site_type_symbol
_atom_site_label
_atom_site_fract_x
_atom_site_fract_y
_atom_site_fract_z
Si Si1 0.326770 0.463035 0.753997
Si Si2 0.000000 0.948294 0.250000
Si Si3 0.152402 0.500000 0.500000
Si Si4 0.501760 0.500000 0.000000
Si Si5 0.175618 0.000000 0.000000
O O1 0.240723 0.659008 0.632602
O O2 0.413015 0.669210 0.872328
O O3 0.413965 0.297715 0.622077
O O4 0.251371 0.236950 0.879958
O O5 0.924196 0.732138 0.120023
O O6 0.913440 0.153493 0.367311
#
# Coordination Sequence:
#
# PCOD9311172 Si02
#       5
#     4   2   2   2   2
#     4   9  19  38  62  93 127 165 213 268 322 382
#     4  10  22  38  62  96 132 176 214 258 320 386
#     4   9  20  37  60  92 132 173 214 257 316 394
#     4   9  18  37  66  90 118 167 216 257 322 392
#     4  10  22  38  60  96 136 164 210 276 326 366
#
# _framework density 32.041218999999998
#
# number of rings (size 3 to 8) (size 9 to 14) (size 15 to 20)
#    0.000    2.667    0.000    0.000    0.000    9.333 
#    0.000    6.667    0.000   28.000    0.000    0.000 
#    0.000    0.000    0.000    0.000    0.000    0.000 
#
# Total GULP energy -66886.667026 kJ/mol
# GULP energy per Si atom -5573.888919 kJ/mol
# Density = 3.196829 g / cm^3
# Si number density = 32.041219 Si / 1000 Ang^3
#
#
#
# Elastic Constant Matrix: (Units=GPa)
#
#
# Indices 1 2 3 4 5 6 
#
# 1 283.7670 90.8604 194.6121 0.0000 0.0000 0.0000
# 2 90.8604 72.4269 95.5010 0.0000 0.0000 0.0000
# 3 194.6121 95.5010 308.5114 0.0000 0.0000 0.0000
# 4 0.0000 0.0000 0.0000 90.6095 0.0000 0.0000
# 5 0.0000 0.0000 0.0000 0.0000 228.0276 0.0000
# 6 0.0000 0.0000 0.0000 0.0000 0.0000 59.9646
#
#
#
# Elastic Compliance Matrix: (Units=1/GPa)
#
#
# Indices 1 2 3 4 5 6 
#
# 1 0.007187 -0.005134 -0.002945 0.000000 0.000000 0.000000
# 2 -0.005134 0.026997 -0.005118 0.000000 0.000000 0.000000
# 3 -0.002945 -0.005118 0.006683 0.000000 0.000000 0.000000
# 4 0.000000 0.000000 0.000000 0.011036 0.000000 0.000000
# 5 0.000000 0.000000 0.000000 0.000000 0.004385 0.000000
# 6 0.000000 0.000000 0.000000 0.000000 0.000000 0.016676
#
#
# Mechanical properties :
#
#
# Convention : Reuss Voigt Hill
#
# Bulk Modulus (GPa) = 69.09222 158.51692 113.80457
# Shear Modulus (GPa) = 47.99213 94.63581 71.31397
#
# Velocity S-wave (km/s) = 3.87437 5.44057 4.72284
# Velocity P-wave (km/s) = 6.45172 9.43645 8.08305
#
# Compressibility (1/GPa) = 0.01447341
#
# Stress axis : x y z
#
# Youngs Moduli (GPa) = 139.13405 37.04174 149.62653
#
# Poissons Ratio (x) = 0.19017 0.44059
# Poissons Ratio (y) = 0.71429 0.76585
# Poissons Ratio (z) = 0.40970 0.18960
#
# Static dielectric constant tensor:
#      x y z
#    x 2.371870 0.000000 0.000000 
#    y 0.000000 2.702510 0.000000 
#    z 0.000000 0.000000 2.424330 
# 
# From -- ./inp_files/6152.got.cif
#   From: 2010.05.17/outbox.cif.g08.bks.cpg/sg17_4_cif.got.tgz:6152.got - 2010.06.03 22:34:06.
