data_PCOD9311243
_publ_section_title
;
Structure prediction by ZEFSAII (Michael W. Deem and Ramdas Pophale) SiO2 
 PCOD9311243
Probable space group: P 2 2 21
;
_chemical_formula_sum "Si O2"
_cell_formula_units_Z 18
_cell_length_a 27.974672
_cell_length_b 5.003121
_cell_length_c 5.322986
_cell_angle_alpha 90.000000
_cell_angle_beta 90.000000
_cell_angle_gamma 90.000000
_cell_volume 745.008681
_symmetry_space_group_name_H-M "P 2 2 21"
_symmetry_group_IT_number 17
_symmetry_cell_setting 'orthorhombic'
loop_
_space_group_symop_operation_xyz
x,y,z
-x,-y,1/2+z
x,-y,-z
-x,y,1/2-z
loop_
_atom_site_type_symbol
_atom_site_label
_atom_site_fract_x
_atom_site_fract_y
_atom_site_fract_z
Si Si1 0.318617 0.500000 0.500000
Si Si2 0.127368 0.500000 0.000000
Si Si3 0.395948 0.183851 0.752732
Si Si4 0.048767 0.243335 0.644396
Si Si5 0.500000 0.180980 0.750000
Si Si6 0.747482 0.000000 0.000000
Si Si7 0.192485 0.000000 0.000000
O O1 0.353859 0.395140 0.717591
O O2 0.285441 0.251694 0.428303
O O3 0.090517 0.368232 0.807143
O O4 0.160705 0.255027 0.080538
O O5 0.448518 0.321756 0.754369
O O6 0.393888 0.000000 0.500000
O O7 0.391089 0.000000 0.000000
O O8 0.029055 0.500000 0.500000
O O9 0.000000 0.116852 0.750000
O O10 0.072398 0.000000 0.500000
O O11 0.499917 0.000000 0.500000
O O12 0.777482 0.072048 0.749922
#
# Coordination Sequence:
#
# PCOD9311243 Si02
#       7
#     2   2   4   4   2   2   2
#     4  12  26  50  80 109 149 196 260 320 402 470
#     4  12  28  50  78 113 151 212 256 318 390 478
#     4  10  22  41  70 109 149 199 249 304 383 464
#     4  12  26  45  73 114 164 208 258 309 376 458
#     4   8  16  36  62  98 150 194 240 298 362 460
#     4  12  30  52  78 111 147 196 260 344 398 466
#     4  12  30  54  80 111 153 200 266 332 410 454
#
# _framework density 24.160795
#
# number of rings (size 3 to 8) (size 9 to 14) (size 15 to 20)
#    0.000    0.889    2.222    3.333    7.778    2.667 
#    0.000    6.667    0.000    0.000    0.000    0.000 
#    0.000    0.000    0.000    0.000    0.000    0.000 
#
# Total GULP energy -100692.202239 kJ/mol
# GULP energy per Si atom -5594.011235 kJ/mol
# Density = 2.410580 g / cm^3
# Si number density = 24.160795 Si / 1000 Ang^3
#
#
#
# Elastic Constant Matrix: (Units=GPa)
#
#
# Indices 1 2 3 4 5 6 
#
# 1 150.2809 55.2265 49.7420 0.0000 0.0000 0.0000
# 2 55.2265 142.9625 48.0009 0.0000 0.0000 0.0000
# 3 49.7420 48.0009 153.6817 0.0000 0.0000 0.0000
# 4 0.0000 0.0000 0.0000 52.6526 0.0000 0.0000
# 5 0.0000 0.0000 0.0000 0.0000 18.3180 0.0000
# 6 0.0000 0.0000 0.0000 0.0000 0.0000 130.1304
#
#
#
# Elastic Compliance Matrix: (Units=1/GPa)
#
#
# Indices 1 2 3 4 5 6 
#
# 1 0.008205 -0.002545 -0.001861 0.000000 0.000000 0.000000
# 2 -0.002545 0.008604 -0.001864 0.000000 0.000000 0.000000
# 3 -0.001861 -0.001864 0.007691 0.000000 0.000000 0.000000
# 4 0.000000 0.000000 0.000000 0.018992 0.000000 0.000000
# 5 0.000000 0.000000 0.000000 0.000000 0.054591 0.000000
# 6 0.000000 0.000000 0.000000 0.000000 0.000000 0.007685
#
#
# Mechanical properties :
#
#
# Convention : Reuss Voigt Hill
#
# Bulk Modulus (GPa) = 83.60121 83.65155 83.62638
# Shear Modulus (GPa) = 40.88486 59.81723 50.35105
#
# Velocity S-wave (km/s) = 4.11810 4.98114 4.57004
# Velocity P-wave (km/s) = 7.56893 8.23288 7.90788
#
# Compressibility (1/GPa) = 0.01196155
#
# Stress axis : x y z
#
# Youngs Moduli (GPa) = 121.87098 116.22977 130.01620
#
# Poissons Ratio (x) = 0.29580 0.24195
# Poissons Ratio (y) = 0.31015 0.24229
# Poissons Ratio (z) = 0.22680 0.21660
#
# Static dielectric constant tensor:
#      x y z
#    x 1.965330 0.000000 0.000000 
#    y 0.000000 1.957820 0.000000 
#    z 0.000000 0.000000 2.041240 
# 
# From -- ./inp_files/3143.got.cif
#   From: 2010.05.17/outbox.cif.g08.bks.cpg/sg17_2_cif.got.tgz:3143.got - 2010.06.03 22:34:06.
