data_PCOD9311691
_publ_section_title
;
Structure prediction by ZEFSAII (Michael W. Deem and Ramdas Pophale) SiO2 
 PCOD9311691
Probable space group: P 21 21 2
;
_chemical_formula_sum "Si O2"
_cell_formula_units_Z 32
_cell_length_a 8.513566
_cell_length_b 24.012947
_cell_length_c 6.985131
_cell_angle_alpha 90.000000
_cell_angle_beta 90.000000
_cell_angle_gamma 90.000000
_cell_volume 1428.010908
_symmetry_space_group_name_H-M "P 21 21 2"
_symmetry_group_IT_number 18
_symmetry_cell_setting 'orthorhombic'
loop_
_space_group_symop_operation_xyz
x,y,z
-x,-y,z
1/2+x,1/2-y,-z
1/2-x,1/2+y,-z
loop_
_atom_site_type_symbol
_atom_site_label
_atom_site_fract_x
_atom_site_fract_y
_atom_site_fract_z
Si Si1 0.838262 0.465396 0.799749
Si Si2 0.346142 0.434453 0.869317
Si Si3 0.109661 0.728249 0.604288
Si Si4 0.291592 0.768096 0.976594
Si Si5 0.570522 0.447366 0.500464
Si Si6 0.487062 0.669006 0.929913
Si Si7 0.965270 0.637826 0.867147
Si Si8 0.609419 0.328424 0.496969
O O1 0.721651 0.504841 0.925413
O O2 0.740429 0.455978 0.603212
O O3 0.000000 0.500000 0.767565
O O4 0.893399 0.406426 0.888446
O O5 0.443170 0.443179 0.674220
O O6 0.452081 0.391888 0.992858
O O7 0.188917 0.398834 0.829493
O O8 0.220235 0.753590 0.771021
O O9 0.221522 0.697204 0.456593
O O10 0.002777 0.680101 0.695489
O O11 0.014056 0.780162 0.533195
O O12 0.373294 0.710753 0.045891
O O13 0.145520 0.793623 0.092834
O O14 0.419779 0.817839 0.967995
O O15 0.500000 0.500000 0.386704
O O16 0.576551 0.387459 0.401905
O O17 0.404222 0.659198 0.725781
#
# Coordination Sequence:
#
# PCOD9311691 Si02
#       8
#     4   4   4   4   4   4   4   4
#     4   9  16  29  48  77 107 137 172 230 284 306
#     4   8  17  27  48  73 108 132 171 229 272 312
#     4  11  22  34  51  79 114 148 177 221 277 333
#     4  10  19  32  51  74 107 146 178 217 267 330
#     4   9  16  31  50  76 107 143 183 226 274 327
#     4   9  18  32  49  76 106 140 182 217 270 321
#     4  10  18  32  51  74 110 142 178 222 270 331
#     4  10  22  33  50  80 112 144 179 228 275 327
#
# _framework density 22.408794
#
# number of rings (size 3 to 8) (size 9 to 14) (size 15 to 20)
#    0.000    2.500    2.500    0.000    5.250    0.000 
#    0.000    0.000    0.000    0.000    0.000   48.125 
#    0.000    0.000    0.000    0.000    0.000    0.000 
#
# Total GULP energy -178168.018653 kJ/mol
# GULP energy per Si atom -5567.750583 kJ/mol
# Density = 2.235779 g / cm^3
# Si number density = 22.408794 Si / 1000 Ang^3
#
#
#
# Elastic Constant Matrix: (Units=GPa)
#
#
# Indices 1 2 3 4 5 6 
#
# 1 45.0557 18.1366 9.6637 0.0000 0.0000 0.0000
# 2 18.1366 148.6171 8.3406 0.0000 0.0000 0.0000
# 3 9.6637 8.3406 23.7429 0.0000 0.0000 0.0000
# 4 0.0000 0.0000 0.0000 19.7745 0.0000 0.0000
# 5 0.0000 0.0000 0.0000 0.0000 19.5618 0.0000
# 6 0.0000 0.0000 0.0000 0.0000 0.0000 45.5260
#
#
#
# Elastic Compliance Matrix: (Units=1/GPa)
#
#
# Indices 1 2 3 4 5 6 
#
# 1 0.025233 -0.002553 -0.009373 0.000000 0.000000 0.000000
# 2 -0.002553 0.007122 -0.001463 0.000000 0.000000 0.000000
# 3 -0.009373 -0.001463 0.046447 0.000000 0.000000 0.000000
# 4 0.000000 0.000000 0.000000 0.050570 0.000000 0.000000
# 5 0.000000 0.000000 0.000000 0.000000 0.051120 0.000000
# 6 0.000000 0.000000 0.000000 0.000000 0.000000 0.021965
#
#
# Mechanical properties :
#
#
# Convention : Reuss Voigt Hill
#
# Bulk Modulus (GPa) = 19.22210 32.18861 25.70535
# Shear Modulus (GPa) = 20.27760 29.05746 24.66753
#
# Velocity S-wave (km/s) = 3.01141 3.60488 3.32143
# Velocity P-wave (km/s) = 4.54841 5.63226 5.11910
#
# Compressibility (1/GPa) = 0.05202346
#
# Stress axis : x y z
#
# Youngs Moduli (GPa) = 39.63071 140.40242 21.53002
#
# Poissons Ratio (x) = 0.35849 0.20181
# Poissons Ratio (y) = 0.10119 0.03149
# Poissons Ratio (z) = 0.37147 0.20538
#
# Static dielectric constant tensor:
#      x y z
#    x 1.877350 0.000000 0.000000 
#    y 0.000000 1.955500 0.000000 
#    z 0.000000 0.000000 1.889250 
# 
# From -- ./inp_files/3528.got.cif
#   From: 2010.05.17/outbox.cif.g08.bks.cpg/sg18_2_cif.got.tgz:3528.got - 2010.06.03 22:40:56.
