data_PCOD9311068
_publ_section_title
;
Structure prediction by ZEFSAII (Michael W. Deem and Ramdas Pophale) SiO2 
 PCOD9311068
Probable space group: P 2 2 21
;
_chemical_formula_sum "Si O2"
_cell_formula_units_Z 24
_cell_length_a 12.838731
_cell_length_b 8.410333
_cell_length_c 11.129605
_cell_angle_alpha 90.000000
_cell_angle_beta 90.000000
_cell_angle_gamma 90.000000
_cell_volume 1201.752522
_symmetry_space_group_name_H-M "P 2 2 21"
_symmetry_group_IT_number 17
_symmetry_cell_setting 'orthorhombic'
loop_
_space_group_symop_operation_xyz
x,y,z
-x,-y,1/2+z
x,-y,-z
-x,y,1/2-z
loop_
_atom_site_type_symbol
_atom_site_label
_atom_site_fract_x
_atom_site_fract_y
_atom_site_fract_z
Si Si1 0.357261 0.816462 0.470753
Si Si2 0.430993 0.313282 0.017790
Si Si3 0.837024 0.663300 0.926745
Si Si4 0.612376 0.897314 0.280739
Si Si5 0.028730 0.882397 0.887236
Si Si6 0.746576 0.798180 0.691821
O O1 0.446934 0.721580 0.540702
O O2 0.239088 0.779721 0.500671
O O3 0.372810 0.778754 0.330515
O O4 0.378250 0.000000 0.500000
O O5 0.398276 0.198186 0.905155
O O6 0.419555 0.500000 0.000000
O O7 0.351265 0.267545 0.120850
O O8 0.782036 0.677352 0.796343
O O9 0.951182 0.735241 0.909285
O O10 0.837773 0.500000 0.000000
O O11 0.500000 0.975164 0.250000
O O12 0.703665 0.027085 0.270144
O O13 0.148993 0.830204 0.883898
O O14 0.000000 0.942125 0.750000
O O15 0.012663 0.000000 0.000000
#
# Coordination Sequence:
#
# PCOD9311068 Si02
#       6
#     4   4   4   4   4   4
#     4  11  21  41  65  94 128 174 229 270 327 402
#     4  11  24  38  59  97 138 176 216 275 343 398
#     4  11  25  41  65  96 131 170 217 280 347 400
#     4  10  21  39  64  96 130 175 225 274 327 397
#     4  10  23  44  68  98 128 173 230 279 335 406
#     4  11  23  43  68  92 132 175 225 277 332 405
#
# _framework density 19.970832000000001
#
# number of rings (size 3 to 8) (size 9 to 14) (size 15 to 20)
#    0.000    1.333    1.667    4.500    4.667    0.667 
#    3.000    2.500    0.000    0.000    0.000    0.000 
#    0.000    0.000    0.000    0.000    0.000    0.000 
#
# Total GULP energy -133809.913644 kJ/mol
# GULP energy per Si atom -5575.413068 kJ/mol
# Density = 1.992538 g / cm^3
# Si number density = 19.970832 Si / 1000 Ang^3
#
#
#
# Elastic Constant Matrix: (Units=GPa)
#
#
# Indices 1 2 3 4 5 6 
#
# 1 123.8406 26.6410 23.0501 0.0000 0.0000 0.0000
# 2 26.6410 88.2496 46.9472 0.0000 0.0000 0.0000
# 3 23.0501 46.9472 74.3023 0.0000 0.0000 0.0000
# 4 0.0000 0.0000 0.0000 28.2171 0.0000 0.0000
# 5 0.0000 0.0000 0.0000 0.0000 30.4319 0.0000
# 6 0.0000 0.0000 0.0000 0.0000 0.0000 10.2176
#
#
#
# Elastic Compliance Matrix: (Units=1/GPa)
#
#
# Indices 1 2 3 4 5 6 
#
# 1 0.008757 -0.001805 -0.001576 0.000000 0.000000 0.000000
# 2 -0.001805 0.017441 -0.010460 0.000000 0.000000 0.000000
# 3 -0.001576 -0.010460 0.020556 0.000000 0.000000 0.000000
# 4 0.000000 0.000000 0.000000 0.035439 0.000000 0.000000
# 5 0.000000 0.000000 0.000000 0.000000 0.032860 0.000000
# 6 0.000000 0.000000 0.000000 0.000000 0.000000 0.097870
#
#
# Mechanical properties :
#
#
# Convention : Reuss Voigt Hill
#
# Bulk Modulus (GPa) = 52.43281 53.29656 52.86469
# Shear Modulus (GPa) = 20.24598 26.42362 23.33480
#
# Velocity S-wave (km/s) = 3.18744 3.64141 3.42196
# Velocity P-wave (km/s) = 6.31332 6.66520 6.49165
#
# Compressibility (1/GPa) = 0.01907203
#
# Stress axis : x y z
#
# Youngs Moduli (GPa) = 114.20043 57.33655 48.64664
#
# Poissons Ratio (x) = 0.10350 0.07666
# Poissons Ratio (y) = 0.20614 0.50884
# Poissons Ratio (z) = 0.17997 0.59973
#
# Static dielectric constant tensor:
#      x y z
#    x 1.687970 0.000000 0.000000 
#    y 0.000000 1.734360 0.000000 
#    z 0.000000 0.000000 1.820140 
# 
# From -- ./inp_files/6560.got.cif
#   From: 2010.05.17/outbox.cif.g08.bks.cpg/sg17_4_cif.got.tgz:6560.got - 2010.06.03 22:34:06.
