data_PCOD9311234
_publ_section_title
;
Structure prediction by ZEFSAII (Michael W. Deem and Ramdas Pophale) SiO2 
 PCOD9311234
Probable space group: P 2 2 21
;
_chemical_formula_sum "Si O2"
_cell_formula_units_Z 20
_cell_length_a 5.438176
_cell_length_b 12.170006
_cell_length_c 14.976618
_cell_angle_alpha 90.000000
_cell_angle_beta 90.000000
_cell_angle_gamma 90.000000
_cell_volume 991.192036
_symmetry_space_group_name_H-M "P 2 2 21"
_symmetry_group_IT_number 17
_symmetry_cell_setting 'orthorhombic'
loop_
_space_group_symop_operation_xyz
x,y,z
-x,-y,1/2+z
x,-y,-z
-x,y,1/2-z
loop_
_atom_site_type_symbol
_atom_site_label
_atom_site_fract_x
_atom_site_fract_y
_atom_site_fract_z
Si Si1 0.909945 0.000000 0.000000
Si Si2 0.804271 0.923111 0.326808
Si Si3 0.663991 0.787823 0.927484
Si Si4 0.500000 0.875185 0.750000
Si Si5 0.903066 0.381178 0.954970
Si Si6 0.594827 0.285936 0.592811
O O1 0.064211 0.944455 0.078794
O O2 0.741369 0.091255 0.043855
O O3 0.618615 0.822533 0.346335
O O4 0.000000 0.892616 0.250000
O O5 0.684590 0.038508 0.297302
O O6 0.618506 0.797170 0.823779
O O7 0.870135 0.704705 0.963064
O O8 0.434701 0.753693 0.989439
O O9 0.659107 0.353830 0.895667
O O10 0.154711 0.355133 0.903364
O O11 0.897288 0.500000 0.000000
#
# Coordination Sequence:
#
# PCOD9311234 Si02
#       6
#     2   4   4   2   4   4
#     4  12  20  46  58  98 136 180 214 274 324 412
#     4  12  24  37  64  96 138 178 215 264 335 406
#     4  10  23  38  65  95 132 172 218 270 327 396
#     4  12  24  36  60 102 134 176 220 264 334 406
#     4  10  22  43  71  94 122 178 232 274 333 386
#     4  10  22  41  66  94 128 170 220 275 327 389
#
# _framework density 20.177724999999999
#
# number of rings (size 3 to 8) (size 9 to 14) (size 15 to 20)
#    1.200    0.000    4.000    3.000    2.800    0.000 
#    0.000    0.000    4.400    0.000    0.000    0.000 
#    0.000    0.000    0.000    0.000    0.000    0.000 
#
# Total GULP energy -111537.744965 kJ/mol
# GULP energy per Si atom -5576.887248 kJ/mol
# Density = 2.013180 g / cm^3
# Si number density = 20.177725 Si / 1000 Ang^3
#
#
#
# Elastic Constant Matrix: (Units=GPa)
#
#
# Indices 1 2 3 4 5 6 
#
# 1 107.5669 5.3542 9.4924 0.0000 0.0000 0.0000
# 2 5.3542 52.7741 -20.3463 0.0000 0.0000 0.0000
# 3 9.4924 -20.3463 68.3346 0.0000 0.0000 0.0000
# 4 0.0000 0.0000 0.0000 15.0682 0.0000 0.0000
# 5 0.0000 0.0000 0.0000 0.0000 -18.7178 0.0000
# 6 0.0000 0.0000 0.0000 0.0000 0.0000 21.5711
#
#
#
# Elastic Compliance Matrix: (Units=1/GPa)
#
#
# Indices 1 2 3 4 5 6 
#
# 1 0.009541 -0.001671 -0.001823 0.000000 0.000000 0.000000
# 2 -0.001671 0.021698 0.006693 0.000000 0.000000 0.000000
# 3 -0.001823 0.006693 0.016880 0.000000 0.000000 0.000000
# 4 0.000000 0.000000 0.000000 0.066365 0.000000 0.000000
# 5 0.000000 0.000000 0.000000 0.000000 -0.053425 0.000000
# 6 0.000000 0.000000 0.000000 0.000000 0.000000 0.046358
#
#
# Mechanical properties :
#
#
# Convention : Reuss Voigt Hill
#
# Bulk Modulus (GPa) = 18.34279 24.18625 21.26452
# Shear Modulus (GPa) = 41.94966 19.19601 30.57283
#
# Velocity S-wave (km/s) = 4.56456 3.08774 3.89675
# Velocity P-wave (km/s) = 6.07377 4.97240 5.55047
#
# Compressibility (1/GPa) = 0.05451734
#
# Stress axis : x y z
#
# Youngs Moduli (GPa) = 104.81585 46.08631 59.24254
#
# Poissons Ratio (x) = 0.07699 0.10798
# Poissons Ratio (y) = 0.17511 -0.39649
# Poissons Ratio (z) = 0.19105 -0.30844
#
# Static dielectric constant tensor:
#      x y z
#    x 1.788520 0.000000 0.000000 
#    y 0.000000 1.691290 0.000000 
#    z 0.000000 0.000000 1.641140 
# 
# From -- ./inp_files/7625.got.cif
#   From: 2010.05.17/outbox.cif.g08.bks.cpg/sg17_4_cif.got.tgz:7625.got - 2010.06.03 22:34:06.
