data_PCOD9311462
_publ_section_title
;
Structure prediction by ZEFSAII (Michael W. Deem and Ramdas Pophale) SiO2 
 PCOD9311462
Probable space group: P 2 2 21
;
_chemical_formula_sum "Si O2"
_cell_formula_units_Z 16
_cell_length_a 5.013531
_cell_length_b 8.339952
_cell_length_c 17.745324
_cell_angle_alpha 90.000000
_cell_angle_beta 90.000000
_cell_angle_gamma 90.000000
_cell_volume 741.978274
_symmetry_space_group_name_H-M "P 2 2 21"
_symmetry_group_IT_number 17
_symmetry_cell_setting 'orthorhombic'
loop_
_space_group_symop_operation_xyz
x,y,z
-x,-y,1/2+z
x,-y,-z
-x,y,1/2-z
loop_
_atom_site_type_symbol
_atom_site_label
_atom_site_fract_x
_atom_site_fract_y
_atom_site_fract_z
Si Si1 0.580804 0.622983 0.945296
Si Si2 0.143220 0.177763 0.672881
Si Si3 0.763884 0.802198 0.800997
Si Si4 0.347503 0.303741 0.909499
O O1 0.726934 0.707381 0.878122
O O2 0.365014 0.497512 0.911232
O O3 0.744779 0.500000 0.000000
O O4 0.445356 0.740280 0.005939
O O5 0.432118 0.246160 0.651130
O O6 0.000000 0.235248 0.750000
O O7 0.935714 0.231159 0.609195
O O8 0.171218 0.986761 0.679491
O O9 0.500000 0.799210 0.750000
O O10 0.000000 0.734563 0.750000
#
# Coordination Sequence:
#
# PCOD9311462 Si02
#       4
#     4   4   4   4
#     4   8  23  46  64 101 129 173 228 271 336 399
#     4  11  21  39  62  95 130 170 218 266 328 390
#     4  11  24  42  67  99 136 175 222 282 338 399
#     4   9  22  40  65  90 128 170 213 277 312 406
#
# _framework density 21.563974999999999
#
# number of rings (size 3 to 8) (size 9 to 14) (size 15 to 20)
#    1.500    0.500    0.000    3.750    0.000   12.000 
#    0.000    5.000    0.000    0.000    0.000    0.000 
#    0.000    0.000    0.000    0.000    0.000    0.000 
#
# Total GULP energy -89243.015348 kJ/mol
# GULP energy per Si atom -5577.688459 kJ/mol
# Density = 2.151489 g / cm^3
# Si number density = 21.563975 Si / 1000 Ang^3
#
#
#
# Elastic Constant Matrix: (Units=GPa)
#
#
# Indices 1 2 3 4 5 6 
#
# 1 100.9513 21.1058 27.1440 0.0000 0.0000 0.0000
# 2 21.1058 37.3888 44.1685 0.0000 0.0000 0.0000
# 3 27.1440 44.1685 118.7528 0.0000 0.0000 0.0000
# 4 0.0000 0.0000 0.0000 34.6353 0.0000 0.0000
# 5 0.0000 0.0000 0.0000 0.0000 28.3043 0.0000
# 6 0.0000 0.0000 0.0000 0.0000 0.0000 -118.9727
#
#
#
# Elastic Compliance Matrix: (Units=1/GPa)
#
#
# Indices 1 2 3 4 5 6 
#
# 1 0.011241 -0.005904 -0.000373 0.000000 0.000000 0.000000
# 2 -0.005904 0.050809 -0.017548 0.000000 0.000000 0.000000
# 3 -0.000373 -0.017548 0.015033 0.000000 0.000000 0.000000
# 4 0.000000 0.000000 0.000000 0.028872 0.000000 0.000000
# 5 0.000000 0.000000 0.000000 0.000000 0.035330 0.000000
# 6 0.000000 0.000000 0.000000 0.000000 0.000000 -0.008405
#
#
# Mechanical properties :
#
#
# Convention : Reuss Voigt Hill
#
# Bulk Modulus (GPa) = 33.97760 49.10329 41.54045
# Shear Modulus (GPa) = 26.26852 -0.22830 13.02011
#
# Velocity S-wave (km/s) = 3.49401 -0.32573 2.45988
# Velocity P-wave (km/s) = 5.66289 4.76224 5.23198
#
# Compressibility (1/GPa) = 0.02943115
#
# Stress axis : x y z
#
# Youngs Moduli (GPa) = 88.96375 19.68149 66.52024
#
# Poissons Ratio (x) = 0.11620 0.02483
# Poissons Ratio (y) = 0.52526 1.16731
# Poissons Ratio (z) = 0.03321 0.34538
#
# Static dielectric constant tensor:
#      x y z
#    x 1.786310 0.000000 0.000000 
#    y 0.000000 1.774170 0.000000 
#    z 0.000000 0.000000 1.863690 
# 
# From -- ./inp_files/8854.got.cif
#   From: 2010.05.17/outbox.cif.g08.bks.cpg/sg17_5_cif.got.tgz:8854.got - 2010.06.03 22:34:06.
