data_PCOD9311551
_publ_section_title
;
Structure prediction by ZEFSAII (Michael W. Deem and Ramdas Pophale) SiO2 
 PCOD9311551
Probable space group: P 2 2 21
;
_chemical_formula_sum "Si O2"
_cell_formula_units_Z 22
_cell_length_a 10.175733
_cell_length_b 6.668298
_cell_length_c 15.204233
_cell_angle_alpha 90.000000
_cell_angle_beta 90.000000
_cell_angle_gamma 90.000000
_cell_volume 1031.680494
_symmetry_space_group_name_H-M "P 2 2 21"
_symmetry_group_IT_number 17
_symmetry_cell_setting 'orthorhombic'
loop_
_space_group_symop_operation_xyz
x,y,z
-x,-y,1/2+z
x,-y,-z
-x,y,1/2-z
loop_
_atom_site_type_symbol
_atom_site_label
_atom_site_fract_x
_atom_site_fract_y
_atom_site_fract_z
Si Si1 0.546449 0.000000 0.500000
Si Si2 0.802717 0.500000 0.000000
Si Si3 0.127309 0.843118 0.628748
Si Si4 0.500000 0.410614 0.750000
Si Si5 0.884739 0.665415 0.699825
Si Si6 0.356341 0.616242 0.909879
Si Si7 0.328912 0.798816 0.377053
O O1 0.627427 0.153403 0.439473
O O2 0.449720 0.114864 0.566834
O O3 0.872402 0.686097 0.951543
O O4 0.716945 0.401651 0.924555
O O5 0.194692 0.747493 0.716496
O O6 0.974075 0.843105 0.657401
O O7 0.208761 0.044043 0.615417
O O8 0.453731 0.544185 0.832658
O O9 0.618422 0.266047 0.782018
O O10 0.788983 0.575895 0.628878
O O11 0.000000 0.537230 0.750000
O O12 0.380062 0.500000 0.000000
#
# Coordination Sequence:
#
# PCOD9311551 Si02
#       7
#     2   2   4   2   4   4   4
#     4  12  26  42  68 106 148 182 236 296 372 436
#     4  12  20  40  68  98 128 172 226 288 332 418
#     4   9  22  42  66  97 132 176 235 279 343 423
#     4  12  28  44  76 102 144 192 236 300 368 438
#     4   8  23  44  67  98 133 189 231 288 350 423
#     4  12  26  48  69 109 147 185 243 306 365 438
#     4  12  24  42  67 104 134 183 230 286 359 424
#
# _framework density 21.324432999999999
#
# number of rings (size 3 to 8) (size 9 to 14) (size 15 to 20)
#    1.091    0.000    3.636    2.182    6.364    0.000 
#    3.273    7.273    0.000    0.000    0.000    0.000 
#    0.000    0.000    0.000    0.000    0.000    0.000 
#
# Total GULP energy -122485.556440 kJ/mol
# GULP energy per Si atom -5567.525293 kJ/mol
# Density = 2.127590 g / cm^3
# Si number density = 21.324433 Si / 1000 Ang^3
#
#
#
# Elastic Constant Matrix: (Units=GPa)
#
#
# Indices 1 2 3 4 5 6 
#
# 1 75.4303 29.4606 42.9650 0.0000 0.0000 0.0000
# 2 29.4606 77.2236 45.4912 0.0000 0.0000 0.0000
# 3 42.9650 45.4912 133.5476 0.0000 0.0000 0.0000
# 4 0.0000 0.0000 0.0000 23.5405 0.0000 0.0000
# 5 0.0000 0.0000 0.0000 0.0000 29.5510 0.0000
# 6 0.0000 0.0000 0.0000 0.0000 0.0000 18.7908
#
#
#
# Elastic Compliance Matrix: (Units=1/GPa)
#
#
# Indices 1 2 3 4 5 6 
#
# 1 0.017227 -0.004138 -0.004133 0.000000 0.000000 0.000000
# 2 -0.004138 0.017194 -0.004526 0.000000 0.000000 0.000000
# 3 -0.004133 -0.004526 0.010359 0.000000 0.000000 0.000000
# 4 0.000000 0.000000 0.000000 0.042480 0.000000 0.000000
# 5 0.000000 0.000000 0.000000 0.000000 0.033840 0.000000
# 6 0.000000 0.000000 0.000000 0.000000 0.000000 0.053217
#
#
# Mechanical properties :
#
#
# Convention : Reuss Voigt Hill
#
# Bulk Modulus (GPa) = 52.11581 58.00388 55.05985
# Shear Modulus (GPa) = 24.23579 25.59543 24.91561
#
# Velocity S-wave (km/s) = 3.37490 3.46827 3.42190
# Velocity P-wave (km/s) = 6.29914 6.58014 6.44117
#
# Compressibility (1/GPa) = 0.01918803
#
# Stress axis : x y z
#
# Youngs Moduli (GPa) = 58.04697 58.16009 96.53175
#
# Poissons Ratio (x) = 0.24064 0.39897
# Poissons Ratio (y) = 0.24017 0.43688
# Poissons Ratio (z) = 0.23991 0.26322
#
# Static dielectric constant tensor:
#      x y z
#    x 1.807140 0.000000 0.000000 
#    y 0.000000 1.909800 0.000000 
#    z 0.000000 0.000000 1.793940 
# 
# From -- ./inp_files/8449.got.cif
#   From: 2010.05.17/outbox.cif.g08.bks.cpg/sg17_5_cif.got.tgz:8449.got - 2010.06.03 22:34:06.
