data_PCOD9311481
_publ_section_title
;
Structure prediction by ZEFSAII (Michael W. Deem and Ramdas Pophale) SiO2 
 PCOD9311481
Probable space group: P 2 2 21
;
_chemical_formula_sum "Si O2"
_cell_formula_units_Z 12
_cell_length_a 14.424136
_cell_length_b 7.273092
_cell_length_c 4.989625
_cell_angle_alpha 90.000000
_cell_angle_beta 90.000000
_cell_angle_gamma 90.000000
_cell_volume 523.451920
_symmetry_space_group_name_H-M "P 2 2 21"
_symmetry_group_IT_number 17
_symmetry_cell_setting 'orthorhombic'
loop_
_space_group_symop_operation_xyz
x,y,z
-x,-y,1/2+z
x,-y,-z
-x,y,1/2-z
loop_
_atom_site_type_symbol
_atom_site_label
_atom_site_fract_x
_atom_site_fract_y
_atom_site_fract_z
Si Si1 0.090331 0.801566 0.385166
Si Si2 0.399682 0.637838 0.750878
Si Si3 0.795039 0.291995 0.394006
O O1 0.136553 0.707991 0.641015
O O2 0.000000 0.711978 0.250000
O O3 0.061539 0.000000 0.500000
O O4 0.164882 0.818579 0.146525
O O5 0.385297 0.500000 0.500000
O O6 0.500000 0.735580 0.750000
O O7 0.308021 0.758804 0.794089
O O8 0.407820 0.500000 0.000000
O O9 0.789341 0.500000 0.500000
#
# Coordination Sequence:
#
# PCOD9311481 Si02
#       3
#     4   4   4
#     4  12  25  43  61  82 119 164 201 236 296 367
#     4   9  17  32  56  88 123 153 185 233 294 353
#     4  11  22  39  64  94 119 147 199 255 291 332
#
# _framework density 22.924738999999999
#
# number of rings (size 3 to 8) (size 9 to 14) (size 15 to 20)
#    0.000    1.333    0.000    9.000    0.000    2.667 
#    0.000    3.333    0.000    4.000    0.000    4.667 
#    0.000    0.000    0.000    0.000    0.000    0.000 
#
# Total GULP energy -67053.983234 kJ/mol
# GULP energy per Si atom -5587.831936 kJ/mol
# Density = 2.287256 g / cm^3
# Si number density = 22.924739 Si / 1000 Ang^3
#
#
#
# Elastic Constant Matrix: (Units=GPa)
#
#
# Indices 1 2 3 4 5 6 
#
# 1 181.5635 4.0021 63.8683 0.0000 0.0000 0.0000
# 2 4.0021 12.3926 6.4501 0.0000 0.0000 0.0000
# 3 63.8683 6.4501 180.4417 0.0000 0.0000 0.0000
# 4 0.0000 0.0000 0.0000 36.7443 0.0000 0.0000
# 5 0.0000 0.0000 0.0000 0.0000 42.3395 0.0000
# 6 0.0000 0.0000 0.0000 0.0000 0.0000 -23.4450
#
#
#
# Elastic Compliance Matrix: (Units=1/GPa)
#
#
# Indices 1 2 3 4 5 6 
#
# 1 0.006301 -0.000891 -0.002198 0.000000 0.000000 0.000000
# 2 -0.000891 0.082349 -0.002628 0.000000 0.000000 0.000000
# 3 -0.002198 -0.002628 0.006414 0.000000 0.000000 0.000000
# 4 0.000000 0.000000 0.000000 0.027215 0.000000 0.000000
# 5 0.000000 0.000000 0.000000 0.000000 0.023619 0.000000
# 6 0.000000 0.000000 0.000000 0.000000 0.000000 -0.042653
#
#
# Mechanical properties :
#
#
# Convention : Reuss Voigt Hill
#
# Bulk Modulus (GPa) = 11.95755 58.11542 35.03648
# Shear Modulus (GPa) = 35.07402 31.13290 33.10346
#
# Velocity S-wave (km/s) = 3.91572 3.68917 3.80413
# Velocity P-wave (km/s) = 5.06667 6.59941 5.88317
#
# Compressibility (1/GPa) = 0.08362919
#
# Stress axis : x y z
#
# Youngs Moduli (GPa) = 158.71401 12.14341 155.90858
#
# Poissons Ratio (x) = 0.01081 0.34274
# Poissons Ratio (y) = 0.14135 0.40979
# Poissons Ratio (z) = 0.34890 0.03192
#
# Static dielectric constant tensor:
#      x y z
#    x 1.956430 0.000000 0.000000 
#    y 0.000000 1.853760 0.000000 
#    z 0.000000 0.000000 1.849640 
# 
# From -- ./inp_files/620.got.cif
#   From: 2010.05.17/outbox.cif.g08.bks.cpg/sg17_1_cif.got.tgz:620.got - 2010.06.03 22:34:06.
