data_PCOD9311844
_publ_section_title
;
Structure prediction by ZEFSAII (Michael W. Deem and Ramdas Pophale) SiO2 
 PCOD9311844
Probable space group: P 21 21 2
;
_chemical_formula_sum "Si O2"
_cell_formula_units_Z 24
_cell_length_a 13.285570
_cell_length_b 8.460114
_cell_length_c 7.814679
_cell_angle_alpha 90.000000
_cell_angle_beta 90.000000
_cell_angle_gamma 90.000000
_cell_volume 878.349889
_symmetry_space_group_name_H-M "P 21 21 2"
_symmetry_group_IT_number 18
_symmetry_cell_setting 'orthorhombic'
loop_
_space_group_symop_operation_xyz
x,y,z
-x,-y,z
1/2+x,1/2-y,-z
1/2-x,1/2+y,-z
loop_
_atom_site_type_symbol
_atom_site_label
_atom_site_fract_x
_atom_site_fract_y
_atom_site_fract_z
Si Si1 0.313159 0.861579 0.852700
Si Si2 0.181525 0.930924 0.290568
Si Si3 0.389230 0.545892 0.048746
Si Si4 0.599910 0.301524 0.541468
Si Si5 0.899106 0.554328 0.710926
Si Si6 0.099462 0.628172 0.346529
O O1 0.354469 0.728717 0.990622
O O2 0.316275 0.771461 0.669692
O O3 0.388731 0.008343 0.811330
O O4 0.204263 0.944565 0.872946
O O5 0.290344 0.984219 0.219261
O O6 0.190620 0.748326 0.332006
O O7 0.106559 0.962777 0.137845
O O8 0.133277 0.018576 0.452013
O O9 0.500000 0.500000 0.123822
O O10 0.592314 0.234461 0.351532
O O11 0.498163 0.240221 0.634608
O O12 0.896998 0.466040 0.524755
O O13 0.000000 0.500000 0.801952
#
# Coordination Sequence:
#
# PCOD9311844 Si02
#       6
#     4   4   4   4   4   4
#     4  10  21  39  60  84 113 150 192 238 290 342
#     4  11  19  33  55  83 113 149 196 239 288 346
#     4  11  24  40  61  88 118 152 197 242 289 352
#     4   9  19  35  57  83 111 147 192 240 290 348
#     4   9  19  34  52  79 114 151 191 235 288 345
#     4  10  19  35  60  83 112 153 193 238 290 345
#
# _framework density 27.323962000000002
#
# number of rings (size 3 to 8) (size 9 to 14) (size 15 to 20)
#    0.000    2.000    0.000    6.000    0.000    1.333 
#    0.000    8.333    0.000   12.000    0.000    0.000 
#    0.000    0.000    0.000    0.000    0.000    0.000 
#
# Total GULP energy -133859.104069 kJ/mol
# GULP energy per Si atom -5577.462670 kJ/mol
# Density = 2.726177 g / cm^3
# Si number density = 27.323962 Si / 1000 Ang^3
#
#
#
# Elastic Constant Matrix: (Units=GPa)
#
#
# Indices 1 2 3 4 5 6 
#
# 1 198.2802 49.5168 28.9897 0.0000 0.0000 0.0000
# 2 49.5168 139.4288 18.1465 0.0000 0.0000 0.0000
# 3 28.9897 18.1465 72.9203 0.0000 0.0000 0.0000
# 4 0.0000 0.0000 0.0000 3.6983 0.0000 0.0000
# 5 0.0000 0.0000 0.0000 0.0000 36.2471 0.0000
# 6 0.0000 0.0000 0.0000 0.0000 0.0000 43.6697
#
#
#
# Elastic Compliance Matrix: (Units=1/GPa)
#
#
# Indices 1 2 3 4 5 6 
#
# 1 0.005764 -0.001807 -0.001842 0.000000 0.000000 0.000000
# 2 -0.001807 0.007979 -0.001267 0.000000 0.000000 0.000000
# 3 -0.001842 -0.001267 0.014761 0.000000 0.000000 0.000000
# 4 0.000000 0.000000 0.000000 0.270395 0.000000 0.000000
# 5 0.000000 0.000000 0.000000 0.000000 0.027588 0.000000
# 6 0.000000 0.000000 0.000000 0.000000 0.000000 0.022899
#
#
# Mechanical properties :
#
#
# Convention : Reuss Voigt Hill
#
# Bulk Modulus (GPa) = 53.55694 67.10392 60.33043
# Shear Modulus (GPa) = 13.68204 37.65477 25.66841
#
# Velocity S-wave (km/s) = 2.24014 3.71629 3.06830
# Velocity P-wave (km/s) = 5.13169 6.55944 5.88900
#
# Compressibility (1/GPa) = 0.01867172
#
# Stress axis : x y z
#
# Youngs Moduli (GPa) = 173.49108 125.33084 67.74563
#
# Poissons Ratio (x) = 0.22651 0.12477
# Poissons Ratio (y) = 0.31355 0.08584
# Poissons Ratio (z) = 0.31952 0.15880
#
# Static dielectric constant tensor:
#      x y z
#    x 2.171720 0.000000 0.000000 
#    y 0.000000 2.335940 0.000000 
#    z 0.000000 0.000000 2.112700 
# 
# From -- ./inp_files/5841.got.cif
#   From: 2010.05.17/outbox.cif.g08.bks.cpg/sg18_3_cif.got.tgz:5841.got - 2010.06.03 22:40:56.
