data_PCOD9311636
_publ_section_title
;
Structure prediction by ZEFSAII (Michael W. Deem and Ramdas Pophale) SiO2 
 PCOD9311636
Probable space group: P 21 21 2
;
_chemical_formula_sum "Si O2"
_cell_formula_units_Z 30
_cell_length_a 11.694645
_cell_length_b 12.600889
_cell_length_c 10.224769
_cell_angle_alpha 90.000000
_cell_angle_beta 90.000000
_cell_angle_gamma 90.000000
_cell_volume 1506.751852
_symmetry_space_group_name_H-M "P 21 21 2"
_symmetry_group_IT_number 18
_symmetry_cell_setting 'orthorhombic'
loop_
_space_group_symop_operation_xyz
x,y,z
-x,-y,z
1/2+x,1/2-y,-z
1/2-x,1/2+y,-z
loop_
_atom_site_type_symbol
_atom_site_label
_atom_site_fract_x
_atom_site_fract_y
_atom_site_fract_z
Si Si1 0.124185 0.154731 0.192442
Si Si2 0.889232 0.568357 0.895154
Si Si3 0.212191 0.227603 0.941988
Si Si4 0.255510 0.475845 0.643966
Si Si5 0.779257 0.011294 0.870016
Si Si6 0.000000 0.000000 0.985605
Si Si7 0.866078 0.469852 0.373203
Si Si8 0.387673 0.268507 0.724111
O O1 0.023333 0.224510 0.253154
O O2 0.178602 0.078905 0.300870
O O3 0.215647 0.214699 0.099179
O O4 0.061497 0.079629 0.086003
O O5 0.893806 0.694581 0.912946
O O6 0.842704 0.545671 0.751306
O O7 0.000000 0.500000 0.922567
O O8 0.795134 0.535693 0.002056
O O9 0.196779 0.114668 0.874111
O O10 0.323120 0.271544 0.865513
O O11 0.197479 0.498722 0.506168
O O12 0.338677 0.372618 0.649823
O O13 0.905107 0.056796 0.895163
O O14 0.702184 0.029446 0.743673
O O15 0.859956 0.342854 0.345849
O O16 0.000000 0.500000 0.374043
#
# Coordination Sequence:
#
# PCOD9311636 Si02
#       8
#     4   4   4   4   4   2   4   4
#     4  11  19  37  67  94 125 169 221 267 336 385
#     4  11  21  37  64  95 125 168 217 272 328 389
#     4   9  21  34  61  96 125 161 211 274 330 391
#     4  11  22  44  65  91 131 179 222 268 319 405
#     4  10  21  40  60  94 128 161 214 270 331 379
#     4  10  16  38  64  92 124 162 212 280 306 392
#     4  11  26  44  63  93 139 176 214 277 330 389
#     4  10  22  42  64  93 133 174 220 273 332 396
#
# _framework density 19.91038
#
# number of rings (size 3 to 8) (size 9 to 14) (size 15 to 20)
#    0.000    1.600    4.000    1.600    5.600    1.067 
#    2.400    1.333    5.867    0.000    0.000    0.000 
#    0.000    0.000    0.000    0.000    0.000    0.000 
#
# Total GULP energy -167281.299872 kJ/mol
# GULP energy per Si atom -5576.043329 kJ/mol
# Density = 1.986506 g / cm^3
# Si number density = 19.910380 Si / 1000 Ang^3
#
#
#
# Elastic Constant Matrix: (Units=GPa)
#
#
# Indices 1 2 3 4 5 6 
#
# 1 90.3964 15.4878 56.2846 0.0000 0.0000 0.0000
# 2 15.4878 63.8940 36.6710 0.0000 0.0000 0.0000
# 3 56.2846 36.6710 141.0504 0.0000 0.0000 0.0000
# 4 0.0000 0.0000 0.0000 25.5967 0.0000 0.0000
# 5 0.0000 0.0000 0.0000 0.0000 25.8745 0.0000
# 6 0.0000 0.0000 0.0000 0.0000 0.0000 24.0817
#
#
#
# Elastic Compliance Matrix: (Units=1/GPa)
#
#
# Indices 1 2 3 4 5 6 
#
# 1 0.014722 -0.000231 -0.005815 0.000000 0.000000 0.000000
# 2 -0.000231 0.018400 -0.004691 0.000000 0.000000 0.000000
# 3 -0.005815 -0.004691 0.010630 0.000000 0.000000 0.000000
# 4 0.000000 0.000000 0.000000 0.039068 0.000000 0.000000
# 5 0.000000 0.000000 0.000000 0.000000 0.038648 0.000000
# 6 0.000000 0.000000 0.000000 0.000000 0.000000 0.041525
#
#
# Mechanical properties :
#
#
# Convention : Reuss Voigt Hill
#
# Bulk Modulus (GPa) = 44.88965 56.91417 50.90191
# Shear Modulus (GPa) = 26.05621 27.57041 26.81331
#
# Velocity S-wave (km/s) = 3.62149 3.72523 3.67372
# Velocity P-wave (km/s) = 6.33101 6.86661 6.60424
#
# Compressibility (1/GPa) = 0.02227685
#
# Stress axis : x y z
#
# Youngs Moduli (GPa) = 67.92326 54.34930 94.07700
#
# Poissons Ratio (x) = 0.01258 0.54703
# Poissons Ratio (y) = 0.01572 0.44134
# Poissons Ratio (z) = 0.39495 0.25497
#
# Static dielectric constant tensor:
#      x y z
#    x 1.759790 0.000000 0.000000 
#    y 0.000000 1.808050 0.000000 
#    z 0.000000 0.000000 1.681010 
# 
# From -- ./inp_files/3895.got.cif
#   From: 2010.05.17/outbox.cif.g08.bks.cpg/sg18_2_cif.got.tgz:3895.got - 2010.06.03 22:40:56.
