data_PCOD9311801
_publ_section_title
;
Structure prediction by ZEFSAII (Michael W. Deem and Ramdas Pophale) SiO2 
 PCOD9311801
Probable space group: P 21 21 2
;
_chemical_formula_sum "Si O2"
_cell_formula_units_Z 24
_cell_length_a 15.964362
_cell_length_b 7.733840
_cell_length_c 6.723517
_cell_angle_alpha 90.000000
_cell_angle_beta 90.000000
_cell_angle_gamma 90.000000
_cell_volume 830.124549
_symmetry_space_group_name_H-M "P 21 21 2"
_symmetry_group_IT_number 18
_symmetry_cell_setting 'orthorhombic'
loop_
_space_group_symop_operation_xyz
x,y,z
-x,-y,z
1/2+x,1/2-y,-z
1/2-x,1/2+y,-z
loop_
_atom_site_type_symbol
_atom_site_label
_atom_site_fract_x
_atom_site_fract_y
_atom_site_fract_z
Si Si1 0.357388 0.835244 0.035507
Si Si2 0.819766 0.547837 0.384277
Si Si3 0.857388 0.164756 0.535507
Si Si4 0.680234 0.547837 0.884277
Si Si5 0.022459 0.798371 0.019857
Si Si6 0.022459 0.298371 0.480143
O O1 0.357940 0.949369 0.835883
O O2 0.331048 0.639656 0.978039
O O3 0.454162 0.817305 0.099468
O O4 0.277189 0.907468 0.149079
O O5 0.831048 0.360344 0.478039
O O6 0.722811 0.592532 0.350921
O O7 0.876491 0.692055 0.499205
O O8 0.857940 0.050631 0.335883
O O9 0.954162 0.182695 0.599468
O O10 0.623509 0.692055 0.999205
O O11 0.000000 0.750000 0.250000
O O12 0.000000 0.000000 0.995695
O O13 0.000000 0.500000 0.504305
#
# Coordination Sequence:
#
# PCOD9311801 Si02
#       6
#     4   4   4   4   4   4
#     4  10  19  33  52  75 100 129 163 202 244 290
#     4  10  19  33  52  75 100 129 163 202 244 290
#     4  10  19  33  52  75 100 129 163 202 244 290
#     4  10  19  33  52  75 100 129 163 202 244 290
#     4   8  16  30  49  70  95 126 162 198 238 288
#     4   8  16  30  49  70  95 126 162 198 238 288
#
# _framework density 28.911322999999999
#
# number of rings (size 3 to 8) (size 9 to 14) (size 15 to 20)
#    0.000    2.667    0.000    2.000    0.000    2.667 
#    0.000    1.667    0.000    0.000    0.000    0.000 
#    0.000    0.000    0.000    0.000    0.000    0.000 
#
# Total GULP energy -134256.345758 kJ/mol
# GULP energy per Si atom -5594.014407 kJ/mol
# Density = 2.884552 g / cm^3
# Si number density = 28.911323 Si / 1000 Ang^3
#
#
#
# Elastic Constant Matrix: (Units=GPa)
#
#
# Indices 1 2 3 4 5 6 
#
# 1 165.8542 57.3166 43.3853 0.0000 0.0000 0.0000
# 2 57.3166 153.0670 22.6395 0.0000 0.0000 0.0000
# 3 43.3853 22.6395 40.3240 0.0000 0.0000 0.0000
# 4 0.0000 0.0000 0.0000 30.2558 0.0000 0.0000
# 5 0.0000 0.0000 0.0000 0.0000 66.5076 0.0000
# 6 0.0000 0.0000 0.0000 0.0000 0.0000 37.8662
#
#
#
# Elastic Compliance Matrix: (Units=1/GPa)
#
#
# Indices 1 2 3 4 5 6 
#
# 1 0.008974 -0.002107 -0.008472 0.000000 0.000000 0.000000
# 2 -0.002107 0.007620 -0.002011 0.000000 0.000000 0.000000
# 3 -0.008472 -0.002011 0.035043 0.000000 0.000000 0.000000
# 4 0.000000 0.000000 0.000000 0.033052 0.000000 0.000000
# 5 0.000000 0.000000 0.000000 0.000000 0.015036 0.000000
# 6 0.000000 0.000000 0.000000 0.000000 0.000000 0.026409
#
#
# Mechanical properties :
#
#
# Convention : Reuss Voigt Hill
#
# Bulk Modulus (GPa) = 37.79764 67.32530 52.56147
# Shear Modulus (GPa) = 31.22438 42.65285 36.93862
#
# Velocity S-wave (km/s) = 3.28991 3.84513 3.57830
# Velocity P-wave (km/s) = 5.24722 6.56131 5.94071
#
# Compressibility (1/GPa) = 0.02645668
#
# Stress axis : x y z
#
# Youngs Moduli (GPa) = 111.43598 131.24151 28.53625
#
# Poissons Ratio (x) = 0.27655 0.24176
# Poissons Ratio (y) = 0.23482 0.05738
# Poissons Ratio (z) = 0.94408 0.26389
#
# Static dielectric constant tensor:
#      x y z
#    x 2.334150 0.000000 0.000000 
#    y 0.000000 2.116440 0.000000 
#    z 0.000000 0.000000 2.390510 
# 
# From -- ./inp_files/3179.got.cif
#   From: 2010.05.17/outbox.cif.g08.bks.cpg/sg18_2_cif.got.tgz:3179.got - 2010.06.03 22:40:56.
