data_PCOD9311719
_publ_section_title
;
Structure prediction by ZEFSAII (Michael W. Deem and Ramdas Pophale) SiO2 
 PCOD9311719
Probable space group: P 21 21 2
;
_chemical_formula_sum "Si O2"
_cell_formula_units_Z 22
_cell_length_a 10.048871
_cell_length_b 8.748072
_cell_length_c 13.457708
_cell_angle_alpha 90.000000
_cell_angle_beta 90.000000
_cell_angle_gamma 90.000000
_cell_volume 1183.043519
_symmetry_space_group_name_H-M "P 21 21 2"
_symmetry_group_IT_number 18
_symmetry_cell_setting 'orthorhombic'
loop_
_space_group_symop_operation_xyz
x,y,z
-x,-y,z
1/2+x,1/2-y,-z
1/2-x,1/2+y,-z
loop_
_atom_site_type_symbol
_atom_site_label
_atom_site_fract_x
_atom_site_fract_y
_atom_site_fract_z
Si Si1 0.000000 0.000000 0.033750
Si Si2 0.736535 0.367600 0.617513
Si Si3 0.508344 0.243552 0.131840
Si Si4 0.503887 0.327861 0.354068
Si Si5 0.268630 0.015988 0.161114
Si Si6 0.873209 0.610174 0.500098
O O1 0.013869 0.146518 0.962035
O O2 0.133794 0.995929 0.099433
O O3 0.728390 0.451202 0.723795
O O4 0.755266 0.493914 0.530807
O O5 0.634286 0.233374 0.588706
O O6 0.871395 0.267508 0.621955
O O7 0.516924 0.331603 0.235975
O O8 0.366040 0.156462 0.131078
O O9 0.631411 0.125430 0.140993
O O10 0.500000 0.500000 0.392123
O O11 0.613600 0.220548 0.404192
O O12 0.000000 0.500000 0.487254
#
# Coordination Sequence:
#
# PCOD9311719 Si02
#       6
#     2   4   4   4   4   4
#     4  12  22  38  62  92 114 148 200 252 312 348
#     4  10  20  37  57  83 121 157 194 249 298 353
#     4  10  20  39  65  82 114 160 202 241 290 378
#     4  10  18  34  59  87 107 154 212 242 281 358
#     4  10  22  40  60  87 124 153 194 251 306 352
#     4  10  20  36  58  85 116 158 203 239 294 357
#
# _framework density 18.596105000000001
#
# number of rings (size 3 to 8) (size 9 to 14) (size 15 to 20)
#    0.000    1.818    2.727    2.182    0.000    0.000 
#    8.182    0.000    8.000    0.000    0.000    0.000 
#    0.000    0.000    0.000    0.000    0.000    0.000 
#
# Total GULP energy -122483.354434 kJ/mol
# GULP energy per Si atom -5567.425202 kJ/mol
# Density = 1.855378 g / cm^3
# Si number density = 18.596105 Si / 1000 Ang^3
#
#
#
# Elastic Constant Matrix: (Units=GPa)
#
#
# Indices 1 2 3 4 5 6 
#
# 1 84.2882 46.7441 53.7059 0.0000 0.0000 0.0000
# 2 46.7441 126.4821 61.4588 0.0000 0.0000 0.0000
# 3 53.7059 61.4588 87.3193 0.0000 0.0000 0.0000
# 4 0.0000 0.0000 0.0000 37.1511 0.0000 0.0000
# 5 0.0000 0.0000 0.0000 0.0000 21.1030 0.0000
# 6 0.0000 0.0000 0.0000 0.0000 0.0000 20.5368
#
#
#
# Elastic Compliance Matrix: (Units=1/GPa)
#
#
# Indices 1 2 3 4 5 6 
#
# 1 0.019883 -0.002137 -0.010725 0.000000 0.000000 0.000000
# 2 -0.002137 0.012245 -0.007305 0.000000 0.000000 0.000000
# 3 -0.010725 -0.007305 0.023190 0.000000 0.000000 0.000000
# 4 0.000000 0.000000 0.000000 0.026917 0.000000 0.000000
# 5 0.000000 0.000000 0.000000 0.000000 0.047387 0.000000
# 6 0.000000 0.000000 0.000000 0.000000 0.000000 0.048693
#
#
# Mechanical properties :
#
#
# Convention : Reuss Voigt Hill
#
# Bulk Modulus (GPa) = 66.73169 69.10078 67.91624
# Shear Modulus (GPa) = 22.35716 24.83691 23.59703
#
# Velocity S-wave (km/s) = 3.47111 3.65855 3.56606
# Velocity P-wave (km/s) = 7.21301 7.42200 7.31825
#
# Compressibility (1/GPa) = 0.01498538
#
# Stress axis : x y z
#
# Youngs Moduli (GPa) = 50.29520 81.66431 43.12230
#
# Poissons Ratio (x) = 0.17449 0.46249
# Poissons Ratio (y) = 0.10746 0.31499
# Poissons Ratio (z) = 0.53941 0.59652
#
# Static dielectric constant tensor:
#      x y z
#    x 1.663210 0.000000 0.000000 
#    y 0.000000 1.653760 0.000000 
#    z 0.000000 0.000000 1.647210 
# 
# From -- ./inp_files/6622.got.cif
#   From: 2010.05.17/outbox.cif.g08.bks.cpg/sg18_4_cif.got.tgz:6622.got - 2010.06.03 22:40:56.
