data_PCOD9311546
_publ_section_title
;
Structure prediction by ZEFSAII (Michael W. Deem and Ramdas Pophale) SiO2 
 PCOD9311546
Probable space group: P 2 2 21
;
_chemical_formula_sum "Si O2"
_cell_formula_units_Z 22
_cell_length_a 14.151276
_cell_length_b 5.829862
_cell_length_c 11.861397
_cell_angle_alpha 90.000000
_cell_angle_beta 90.000000
_cell_angle_gamma 90.000000
_cell_volume 978.565089
_symmetry_space_group_name_H-M "P 2 2 21"
_symmetry_group_IT_number 17
_symmetry_cell_setting 'orthorhombic'
loop_
_space_group_symop_operation_xyz
x,y,z
-x,-y,1/2+z
x,-y,-z
-x,y,1/2-z
loop_
_atom_site_type_symbol
_atom_site_label
_atom_site_fract_x
_atom_site_fract_y
_atom_site_fract_z
Si Si1 0.747045 0.500000 0.000000
Si Si2 0.000000 0.076845 0.250000
Si Si3 0.337138 0.706625 0.917662
Si Si4 0.140037 0.378922 0.114018
Si Si5 0.502228 0.000000 0.000000
Si Si6 0.178884 0.225649 0.701401
Si Si7 0.347283 0.859662 0.671846
O O1 0.810177 0.643543 0.084490
O O2 0.687199 0.324239 0.077973
O O3 0.947453 0.241074 0.337394
O O4 0.916918 0.917604 0.203571
O O5 0.228576 0.795584 0.905148
O O6 0.426576 0.799317 0.986571
O O7 0.370008 0.722305 0.787146
O O8 0.311831 0.500000 0.000000
O O9 0.175910 0.577528 0.201527
O O10 0.110835 0.500000 0.000000
O O11 0.567291 0.993150 0.889343
O O12 0.267748 0.049683 0.701522
#
# Coordination Sequence:
#
# PCOD9311546 Si02
#       7
#     2   2   4   4   2   4   4
#     4  12  24  50  80 110 158 212 258 336 392 470
#     4  12  26  54  78 120 148 212 262 332 392 488
#     4  11  27  50  78 113 158 209 257 332 402 482
#     4  11  27  53  78 115 161 205 261 328 408 481
#     4  12  28  48  80 116 146 216 268 326 402 470
#     4  12  25  51  81 111 157 205 263 327 403 474
#     4  12  26  52  80 114 160 205 267 331 395 481
#
# _framework density 22.481898999999999
#
# number of rings (size 3 to 8) (size 9 to 14) (size 15 to 20)
#    0.000    0.364    5.455    1.091    6.364    0.727 
#   31.091    0.000    0.000    0.000    0.000    0.000 
#    0.000    0.000    0.000    0.000    0.000    0.000 
#
# Total GULP energy -122705.722397 kJ/mol
# GULP energy per Si atom -5577.532836 kJ/mol
# Density = 2.243073 g / cm^3
# Si number density = 22.481899 Si / 1000 Ang^3
#
#
#
# Elastic Constant Matrix: (Units=GPa)
#
#
# Indices 1 2 3 4 5 6 
#
# 1 153.9993 43.2834 34.2312 0.0000 0.0000 0.0000
# 2 43.2834 85.3636 61.6750 0.0000 0.0000 0.0000
# 3 34.2312 61.6750 153.6211 0.0000 0.0000 0.0000
# 4 0.0000 0.0000 0.0000 40.6250 0.0000 0.0000
# 5 0.0000 0.0000 0.0000 0.0000 55.7438 0.0000
# 6 0.0000 0.0000 0.0000 0.0000 0.0000 135.5674
#
#
#
# Elastic Compliance Matrix: (Units=1/GPa)
#
#
# Indices 1 2 3 4 5 6 
#
# 1 0.007577 -0.003694 -0.000206 0.000000 0.000000 0.000000
# 2 -0.003694 0.018301 -0.006524 0.000000 0.000000 0.000000
# 3 -0.000206 -0.006524 0.009175 0.000000 0.000000 0.000000
# 4 0.000000 0.000000 0.000000 0.024615 0.000000 0.000000
# 5 0.000000 0.000000 0.000000 0.000000 0.017939 0.000000
# 6 0.000000 0.000000 0.000000 0.000000 0.000000 0.007376
#
#
# Mechanical properties :
#
#
# Convention : Reuss Voigt Hill
#
# Bulk Modulus (GPa) = 70.39188 74.59590 72.49389
# Shear Modulus (GPa) = 45.22142 63.30687 54.26415
#
# Velocity S-wave (km/s) = 4.48980 5.31227 4.91825
# Velocity P-wave (km/s) = 7.63257 8.41899 8.03541
#
# Compressibility (1/GPa) = 0.01420618
#
# Stress axis : x y z
#
# Youngs Moduli (GPa) = 131.97226 54.64088 108.99474
#
# Poissons Ratio (x) = 0.20182 0.02241
# Poissons Ratio (y) = 0.48744 0.71114
# Poissons Ratio (z) = 0.02713 0.35650
#
# Static dielectric constant tensor:
#      x y z
#    x 1.849790 0.000000 0.000000 
#    y 0.000000 1.950480 0.000000 
#    z 0.000000 0.000000 1.763600 
# 
# From -- ./inp_files/7203.got.cif
#   From: 2010.05.17/outbox.cif.g08.bks.cpg/sg17_4_cif.got.tgz:7203.got - 2010.06.03 22:34:06.
