data_PCOD9311632
_publ_section_title
;
Structure prediction by ZEFSAII (Michael W. Deem and Ramdas Pophale) SiO2 
 PCOD9311632
Probable space group: P 21 21 2
;
_chemical_formula_sum "Si O2"
_cell_formula_units_Z 22
_cell_length_a 16.199336
_cell_length_b 8.962265
_cell_length_c 8.378740
_cell_angle_alpha 90.000000
_cell_angle_beta 90.000000
_cell_angle_gamma 90.000000
_cell_volume 1216.448448
_symmetry_space_group_name_H-M "P 21 21 2"
_symmetry_group_IT_number 18
_symmetry_cell_setting 'orthorhombic'
loop_
_space_group_symop_operation_xyz
x,y,z
-x,-y,z
1/2+x,1/2-y,-z
1/2-x,1/2+y,-z
loop_
_atom_site_type_symbol
_atom_site_label
_atom_site_fract_x
_atom_site_fract_y
_atom_site_fract_z
Si Si1 0.000000 0.000000 0.500007
Si Si2 0.140379 0.824691 0.332073
Si Si3 0.296233 0.971472 0.184608
Si Si4 0.140376 0.175321 0.667932
Si Si5 0.249997 0.250005 0.377363
Si Si6 0.703766 0.971459 0.815393
O O1 0.054287 0.102184 0.620633
O O2 0.945709 0.102178 0.379382
O O3 0.201760 0.913013 0.212205
O O4 0.187045 0.827233 0.502026
O O5 0.145763 0.655077 0.264956
O O6 0.354238 0.844932 0.264947
O O7 0.297895 0.128365 0.274944
O O8 0.313514 0.000013 0.000002
O O9 0.187035 0.172785 0.497972
O O10 0.201760 0.086996 0.787790
O O11 0.202103 0.371641 0.274931
#
# Coordination Sequence:
#
# PCOD9311632 Si02
#       6
#     2   4   4   4   4   4
#     4  12  20  40  60  92 132 154 208 248 308 370
#     4  10  20  35  60  90 115 165 202 246 305 357
#     4  10  19  35  62  92 117 155 211 255 296 357
#     4  10  20  35  60  90 115 165 202 246 305 357
#     4  10  16  36  58  88 114 156 220 250 276 366
#     4  10  19  35  62  92 117 155 211 255 296 357
#
# _framework density 18.085436999999999
#
# number of rings (size 3 to 8) (size 9 to 14) (size 15 to 20)
#    0.000    2.182    3.636    5.455    0.000    0.000 
#    0.000    4.545    0.000    2.182    0.000    0.000 
#    0.000    0.000    0.000    0.000    0.000    0.000 
#
# Total GULP energy -122492.960755 kJ/mol
# GULP energy per Si atom -5567.861853 kJ/mol
# Density = 1.804427 g / cm^3
# Si number density = 18.085437 Si / 1000 Ang^3
#
#
#
# Elastic Constant Matrix: (Units=GPa)
#
#
# Indices 1 2 3 4 5 6 
#
# 1 84.0961 41.3564 24.4758 0.0000 0.0000 0.0000
# 2 41.3564 119.0913 55.9374 0.0000 0.0000 0.0000
# 3 24.4758 55.9374 124.0649 0.0000 0.0000 0.0000
# 4 0.0000 0.0000 0.0000 28.5398 0.0000 0.0000
# 5 0.0000 0.0000 0.0000 0.0000 8.8951 0.0000
# 6 0.0000 0.0000 0.0000 0.0000 0.0000 29.7136
#
#
#
# Elastic Compliance Matrix: (Units=1/GPa)
#
#
# Indices 1 2 3 4 5 6 
#
# 1 0.014394 -0.004649 -0.000743 0.000000 0.000000 0.000000
# 2 -0.004649 0.012155 -0.004563 0.000000 0.000000 0.000000
# 3 -0.000743 -0.004563 0.010264 0.000000 0.000000 0.000000
# 4 0.000000 0.000000 0.000000 0.035039 0.000000 0.000000
# 5 0.000000 0.000000 0.000000 0.000000 0.112422 0.000000
# 6 0.000000 0.000000 0.000000 0.000000 0.000000 0.033655
#
#
# Mechanical properties :
#
#
# Convention : Reuss Voigt Hill
#
# Bulk Modulus (GPa) = 59.16647 63.42127 61.29387
# Shear Modulus (GPa) = 20.53614 27.12855 23.83235
#
# Velocity S-wave (km/s) = 3.37338 3.87721 3.63404
# Velocity P-wave (km/s) = 6.92524 7.42882 7.18145
#
# Compressibility (1/GPa) = 0.01690146
#
# Stress axis : x y z
#
# Youngs Moduli (GPa) = 69.47355 82.27243 97.42519
#
# Poissons Ratio (x) = 0.38251 0.07243
# Poissons Ratio (y) = 0.32301 0.44455
# Poissons Ratio (z) = 0.05165 0.37541
#
# Static dielectric constant tensor:
#      x y z
#    x 1.673110 0.000000 0.000000 
#    y 0.000000 1.716550 0.000000 
#    z 0.000000 0.000000 1.596620 
# 
# From -- ./inp_files/3253.got.cif
#   From: 2010.05.17/outbox.cif.g08.bks.cpg/sg18_2_cif.got.tgz:3253.got - 2010.06.03 22:40:56.
