data_PCOD9311758
_publ_section_title
;
Structure prediction by ZEFSAII (Michael W. Deem and Ramdas Pophale) SiO2 
 PCOD9311758
Probable space group: P 21 21 2
;
_chemical_formula_sum "Si O2"
_cell_formula_units_Z 26
_cell_length_a 22.487931
_cell_length_b 9.009559
_cell_length_c 5.575212
_cell_angle_alpha 90.000000
_cell_angle_beta 90.000000
_cell_angle_gamma 90.000000
_cell_volume 1129.573304
_symmetry_space_group_name_H-M "P 21 21 2"
_symmetry_group_IT_number 18
_symmetry_cell_setting 'orthorhombic'
loop_
_space_group_symop_operation_xyz
x,y,z
-x,-y,z
1/2+x,1/2-y,-z
1/2-x,1/2+y,-z
loop_
_atom_site_type_symbol
_atom_site_label
_atom_site_fract_x
_atom_site_fract_y
_atom_site_fract_z
Si Si1 0.100577 0.474575 0.434619
Si Si2 0.522535 0.685535 0.030657
Si Si3 0.913367 0.173198 0.469655
Si Si4 0.500000 0.000000 0.187298
Si Si5 0.808013 0.972205 0.387167
Si Si6 0.294286 0.816517 0.331128
Si Si7 0.608627 0.271252 0.940698
O O1 0.099552 0.651651 0.436217
O O2 0.051157 0.434858 0.636480
O O3 0.166857 0.418172 0.491292
O O4 0.086619 0.373797 0.204919
O O5 0.548568 0.645124 0.291047
O O6 0.527553 0.865518 0.039920
O O7 0.553320 0.634971 0.781772
O O8 0.547953 0.345837 0.029866
O O9 0.852162 0.085848 0.518912
O O10 0.778478 0.841469 0.546540
O O11 0.854045 0.882868 0.222863
O O12 0.760554 0.079351 0.258161
O O13 0.342552 0.778854 0.130898
#
# Coordination Sequence:
#
# PCOD9311758 Si02
#       7
#     4   4   4   2   4   4   4
#     4  10  21  41  71 108 144 191 246 301 362 438
#     4  11  23  43  71 112 151 193 240 302 374 441
#     4  11  26  44  74 111 152 193 245 305 368 450
#     4  10  18  40  70 106 152 184 242 296 366 444
#     4  11  28  48  70 107 142 199 251 311 374 447
#     4  11  25  49  73  98 149 193 254 307 369 445
#     4  11  24  45  73 107 144 194 247 309 375 440
#
# _framework density 23.017541000000001
#
# number of rings (size 3 to 8) (size 9 to 14) (size 15 to 20)
#    0.000    1.231    1.538    3.692    6.462    4.923 
#    0.000    0.000    0.000    0.000    0.000    0.000 
#    0.000    0.000    0.000    0.000    0.000    0.000 
#
# Total GULP energy -145172.774746 kJ/mol
# GULP energy per Si atom -5583.568259 kJ/mol
# Density = 2.296515 g / cm^3
# Si number density = 23.017541 Si / 1000 Ang^3
#
#
#
# Elastic Constant Matrix: (Units=GPa)
#
#
# Indices 1 2 3 4 5 6 
#
# 1 50.1088 23.3612 -6.7681 0.0000 0.0000 0.0000
# 2 23.3612 133.2779 29.6185 0.0000 0.0000 0.0000
# 3 -6.7681 29.6185 66.0915 0.0000 0.0000 0.0000
# 4 0.0000 0.0000 0.0000 19.5914 0.0000 0.0000
# 5 0.0000 0.0000 0.0000 0.0000 21.5739 0.0000
# 6 0.0000 0.0000 0.0000 0.0000 0.0000 44.6843
#
#
#
# Elastic Compliance Matrix: (Units=1/GPa)
#
#
# Indices 1 2 3 4 5 6 
#
# 1 0.022930 -0.005043 0.004608 0.000000 0.000000 0.000000
# 2 -0.005043 0.009442 -0.004748 0.000000 0.000000 0.000000
# 3 0.004608 -0.004748 0.017730 0.000000 0.000000 0.000000
# 4 0.000000 0.000000 0.000000 0.051043 0.000000 0.000000
# 5 0.000000 0.000000 0.000000 0.000000 0.046352 0.000000
# 6 0.000000 0.000000 0.000000 0.000000 0.000000 0.022379
#
#
# Mechanical properties :
#
#
# Convention : Reuss Voigt Hill
#
# Bulk Modulus (GPa) = 25.16563 37.98905 31.57734
# Shear Modulus (GPa) = 25.84132 30.72104 28.28118
#
# Velocity S-wave (km/s) = 3.35428 3.65729 3.50906
# Velocity P-wave (km/s) = 5.09495 5.86298 5.49241
#
# Compressibility (1/GPa) = 0.03973674
#
# Stress axis : x y z
#
# Youngs Moduli (GPa) = 43.61050 105.90675 56.40089
#
# Poissons Ratio (x) = 0.53413 -0.25991
# Poissons Ratio (y) = 0.21994 0.26779
# Poissons Ratio (z) = -0.20097 0.50284
#
# Static dielectric constant tensor:
#      x y z
#    x 1.843250 0.000000 0.000000 
#    y 0.000000 1.932000 0.000000 
#    z 0.000000 0.000000 1.900720 
# 
# From -- ./inp_files/2211.got.cif
#   From: 2010.05.17/outbox.cif.g08.bks.cpg/sg18_2_cif.got.tgz:2211.got - 2010.06.03 22:40:56.
