data_PCOD9311439
_publ_section_title
;
Structure prediction by ZEFSAII (Michael W. Deem and Ramdas Pophale) SiO2 
 PCOD9311439
Probable space group: P 2 2 21
;
_chemical_formula_sum "Si O2"
_cell_formula_units_Z 12
_cell_length_a 18.638951
_cell_length_b 5.572153
_cell_length_c 4.947743
_cell_angle_alpha 90.000000
_cell_angle_beta 90.000000
_cell_angle_gamma 90.000000
_cell_volume 513.868069
_symmetry_space_group_name_H-M "P 2 2 21"
_symmetry_group_IT_number 17
_symmetry_cell_setting 'orthorhombic'
loop_
_space_group_symop_operation_xyz
x,y,z
-x,-y,1/2+z
x,-y,-z
-x,y,1/2-z
loop_
_atom_site_type_symbol
_atom_site_label
_atom_site_fract_x
_atom_site_fract_y
_atom_site_fract_z
Si Si1 0.212411 0.000000 0.000000
Si Si2 0.352345 0.759026 0.142805
Si Si3 0.447704 0.500000 0.500000
Si Si4 0.118042 0.000000 0.500000
Si Si5 0.000000 0.346105 0.750000
O O1 0.165312 0.095296 0.249040
O O2 0.267389 0.812619 0.141060
O O3 0.394520 0.716077 0.419642
O O4 0.360841 0.500000 0.000000
O O5 0.382041 0.000000 0.000000
O O6 0.500000 0.550551 0.750000
O O7 0.065027 0.192589 0.631900
O O8 0.972260 0.500000 0.500000
#
# Coordination Sequence:
#
# PCOD9311439 Si02
#       5
#     2   4   2   2   2
#     4  10  27  44  84 105 162 208 266 328 406 465
#     4  10  26  51  77 114 161 208 264 340 393 491
#     4  12  26  52  84 118 160 214 270 336 412 480
#     4  12  25  50  74 121 150 214 262 324 394 471
#     4  12  26  46  80 112 164 206 262 326 384 480
#
# _framework density 23.352297
#
# number of rings (size 3 to 8) (size 9 to 14) (size 15 to 20)
#    1.000    0.000    1.667    4.000    4.667    5.333 
#    6.000    0.000    0.000    0.000    0.000    0.000 
#    0.000    0.000    0.000    0.000    0.000    0.000 
#
# Total GULP energy -66998.043012 kJ/mol
# GULP energy per Si atom -5583.170251 kJ/mol
# Density = 2.329915 g / cm^3
# Si number density = 23.352297 Si / 1000 Ang^3
#
#
#
# Elastic Constant Matrix: (Units=GPa)
#
#
# Indices 1 2 3 4 5 6 
#
# 1 172.8240 53.7798 97.3822 0.0000 0.0000 0.0000
# 2 53.7798 134.8364 72.0036 0.0000 0.0000 0.0000
# 3 97.3822 72.0036 196.7841 0.0000 0.0000 0.0000
# 4 0.0000 0.0000 0.0000 54.9618 0.0000 0.0000
# 5 0.0000 0.0000 0.0000 0.0000 -311.1154 0.0000
# 6 0.0000 0.0000 0.0000 0.0000 0.0000 117.9428
#
#
#
# Elastic Compliance Matrix: (Units=1/GPa)
#
#
# Indices 1 2 3 4 5 6 
#
# 1 0.008224 -0.001376 -0.003566 0.000000 0.000000 0.000000
# 2 -0.001376 0.009448 -0.002776 0.000000 0.000000 0.000000
# 3 -0.003566 -0.002776 0.007862 0.000000 0.000000 0.000000
# 4 0.000000 0.000000 0.000000 0.018194 0.000000 0.000000
# 5 0.000000 0.000000 0.000000 0.000000 -0.003214 0.000000
# 6 0.000000 0.000000 0.000000 0.000000 0.000000 0.008479
#
#
# Mechanical properties :
#
#
# Convention : Reuss Voigt Hill
#
# Bulk Modulus (GPa) = 99.03407 105.64173 102.33790
# Shear Modulus (GPa) = 73.75196 -8.89025 32.43086
#
# Velocity S-wave (km/s) = 5.62591 -1.95327 3.73066
# Velocity P-wave (km/s) = 9.20337 6.34424 7.90416
#
# Compressibility (1/GPa) = 0.01009753
#
# Stress axis : x y z
#
# Youngs Moduli (GPa) = 121.59708 105.84775 127.18787
#
# Poissons Ratio (x) = 0.14561 0.45360
# Poissons Ratio (y) = 0.16727 0.35309
# Poissons Ratio (z) = 0.43366 0.29384
#
# Static dielectric constant tensor:
#      x y z
#    x 1.899090 0.000000 0.000000 
#    y 0.000000 1.879360 0.000000 
#    z 0.000000 0.000000 1.921400 
# 
# From -- ./inp_files/2386.got.cif
#   From: 2010.05.17/outbox.cif.g08.bks.cpg/sg17_2_cif.got.tgz:2386.got - 2010.06.03 22:34:06.
