data_PCOD9311639
_publ_section_title
;
Structure prediction by ZEFSAII (Michael W. Deem and Ramdas Pophale) SiO2 
 PCOD9311639
Probable space group: P 21 21 2
;
_chemical_formula_sum "Si O2"
_cell_formula_units_Z 32
_cell_length_a 28.180727
_cell_length_b 5.062747
_cell_length_c 13.709443
_cell_angle_alpha 90.000000
_cell_angle_beta 90.000000
_cell_angle_gamma 90.000000
_cell_volume 1955.952158
_symmetry_space_group_name_H-M "P 21 21 2"
_symmetry_group_IT_number 18
_symmetry_cell_setting 'orthorhombic'
loop_
_space_group_symop_operation_xyz
x,y,z
-x,-y,z
1/2+x,1/2-y,-z
1/2-x,1/2+y,-z
loop_
_atom_site_type_symbol
_atom_site_label
_atom_site_fract_x
_atom_site_fract_y
_atom_site_fract_z
Si Si1 0.220013 0.009175 0.024087
Si Si2 0.190045 0.129247 0.826439
Si Si3 0.250820 0.129903 0.222846
Si Si4 0.946444 0.573301 0.469169
Si Si5 0.396972 0.390879 0.288584
Si Si6 0.773658 0.975017 0.447490
Si Si7 0.385251 0.422980 0.521943
Si Si8 0.950411 0.609747 0.705528
O O1 0.182268 0.089656 0.942265
O O2 0.236837 0.710594 0.004231
O O3 0.212467 0.057405 0.138667
O O4 0.232553 0.929137 0.795697
O O5 0.146245 0.020984 0.766913
O O6 0.206472 0.424357 0.801378
O O7 0.237356 0.085744 0.334472
O O8 0.908280 0.349507 0.442219
O O9 0.950325 0.584635 0.587501
O O10 0.000000 0.500000 0.435019
O O11 0.921733 0.849911 0.443214
O O12 0.386923 0.406904 0.403995
O O13 0.440762 0.588164 0.270462
O O14 0.409493 0.092432 0.261105
O O15 0.744588 0.229415 0.486825
O O16 0.830256 0.024379 0.454508
O O17 0.000000 0.500000 0.742017
#
# Coordination Sequence:
#
# PCOD9311639 Si02
#       8
#     4   4   4   4   4   4   4   4
#     4   8  16  29  46  64  83 109 143 184 221 252
#     4  10  18  30  47  67  86 112 152 186 221 257
#     4  10  19  32  46  62  90 122 149 184 221 253
#     4   9  17  30  46  61  81 110 146 192 234 260
#     4  10  17  26  41  59  83 110 139 178 210 250
#     4  12  23  33  45  65  97 134 162 181 213 267
#     4  10  19  29  42  63  88 116 151 181 215 268
#     4   9  17  27  39  57  82 111 137 166 215 267
#
# _framework density 16.360320000000002
#
# number of rings (size 3 to 8) (size 9 to 14) (size 15 to 20)
#    0.000    2.250    0.000    4.500    0.000    5.000 
#    0.000    0.000    0.000    0.000    0.000    0.000 
#    0.000    6.000    0.000    0.000    0.000    0.000 
#
# Total GULP energy -178187.867605 kJ/mol
# GULP energy per Si atom -5568.370863 kJ/mol
# Density = 1.632308 g / cm^3
# Si number density = 16.360320 Si / 1000 Ang^3
#
#
#
# Elastic Constant Matrix: (Units=GPa)
#
#
# Indices 1 2 3 4 5 6 
#
# 1 47.1046 -1.7721 6.9772 0.0000 0.0000 0.0000
# 2 -1.7721 63.1189 1.1370 0.0000 0.0000 0.0000
# 3 6.9772 1.1370 65.4808 0.0000 0.0000 0.0000
# 4 0.0000 0.0000 0.0000 14.5515 0.0000 0.0000
# 5 0.0000 0.0000 0.0000 0.0000 9.2626 0.0000
# 6 0.0000 0.0000 0.0000 0.0000 0.0000 18.9940
#
#
#
# Elastic Compliance Matrix: (Units=1/GPa)
#
#
# Indices 1 2 3 4 5 6 
#
# 1 0.021596 0.000648 -0.002312 0.000000 0.000000 0.000000
# 2 0.000648 0.015868 -0.000345 0.000000 0.000000 0.000000
# 3 -0.002312 -0.000345 0.015524 0.000000 0.000000 0.000000
# 4 0.000000 0.000000 0.000000 0.068721 0.000000 0.000000
# 5 0.000000 0.000000 0.000000 0.000000 0.107960 0.000000
# 6 0.000000 0.000000 0.000000 0.000000 0.000000 0.052648
#
#
# Mechanical properties :
#
#
# Convention : Reuss Voigt Hill
#
# Bulk Modulus (GPa) = 20.42072 20.93203 20.67638
# Shear Modulus (GPa) = 16.52024 19.85246 18.18635
#
# Velocity S-wave (km/s) = 3.18114 3.48724 3.33770
# Velocity P-wave (km/s) = 5.09920 5.38857 5.24588
#
# Compressibility (1/GPa) = 0.04896987
#
# Stress axis : x y z
#
# Youngs Moduli (GPa) = 46.30432 63.02187 64.41630
#
# Poissons Ratio (x) = -0.04084 0.14896
# Poissons Ratio (y) = -0.03000 0.02220
# Poissons Ratio (z) = 0.10707 0.02171
#
# Static dielectric constant tensor:
#      x y z
#    x 1.567500 0.000000 0.000000 
#    y 0.000000 1.579390 0.000000 
#    z 0.000000 0.000000 1.554840 
# 
# From -- ./inp_files/6347.got.cif
#   From: 2010.05.17/outbox.cif.g08.bks.cpg/sg18_4_cif.got.tgz:6347.got - 2010.06.03 22:40:56.
