data_PCOD9311136
_publ_section_title
;
Structure prediction by ZEFSAII (Michael W. Deem and Ramdas Pophale) SiO2 
 PCOD9311136
Probable space group: P 2 2 21
;
_chemical_formula_sum "Si O2"
_cell_formula_units_Z 18
_cell_length_a 9.564048
_cell_length_b 11.439647
_cell_length_c 6.925573
_cell_angle_alpha 90.000000
_cell_angle_beta 90.000000
_cell_angle_gamma 90.000000
_cell_volume 757.722323
_symmetry_space_group_name_H-M "P 2 2 21"
_symmetry_group_IT_number 17
_symmetry_cell_setting 'orthorhombic'
loop_
_space_group_symop_operation_xyz
x,y,z
-x,-y,1/2+z
x,-y,-z
-x,y,1/2-z
loop_
_atom_site_type_symbol
_atom_site_label
_atom_site_fract_x
_atom_site_fract_y
_atom_site_fract_z
Si Si1 0.156517 0.354908 0.300090
Si Si2 0.366178 0.162413 0.361965
Si Si3 0.145085 0.000000 0.500000
Si Si4 0.500000 0.729057 0.250000
Si Si5 0.000000 0.194635 0.750000
Si Si6 0.212492 0.615414 0.238766
O O1 0.288031 0.271235 0.260316
O O2 0.173671 0.481460 0.202678
O O3 0.177729 0.370399 0.531438
O O4 0.000000 0.312591 0.250000
O O5 0.500000 0.122249 0.250000
O O6 0.425593 0.197988 0.575882
O O7 0.250359 0.062447 0.354737
O O8 0.061623 0.893967 0.407094
O O9 0.371444 0.645745 0.187910
O O10 0.884982 0.281335 0.658290
#
# Coordination Sequence:
#
# PCOD9311136 Si02
#       6
#     4   4   2   2   2   4
#     4  10  21  43  68 106 148 180 242 299 362 443
#     4  11  27  48  71 107 142 191 250 297 363 442
#     4  12  28  46  72 102 144 192 254 298 358 432
#     4  10  22  48  70 102 148 186 240 296 378 424
#     4  12  24  48  68 102 138 192 242 300 364 430
#     4  10  22  41  73 101 141 190 235 298 372 435
#
# _framework density 23.755405
#
# number of rings (size 3 to 8) (size 9 to 14) (size 15 to 20)
#    0.000    1.333    5.556    0.000    4.667    3.556 
#    0.000    0.000    0.000    0.000    0.000    0.000 
#    0.000    0.000    0.000    0.000    0.000    0.000 
#
# Total GULP energy -100568.556241 kJ/mol
# GULP energy per Si atom -5587.142013 kJ/mol
# Density = 2.370134 g / cm^3
# Si number density = 23.755405 Si / 1000 Ang^3
#
#
#
# Elastic Constant Matrix: (Units=GPa)
#
#
# Indices 1 2 3 4 5 6 
#
# 1 177.3580 71.1357 14.3158 0.0000 0.0000 0.0000
# 2 71.1357 154.3083 11.4482 0.0000 0.0000 0.0000
# 3 14.3158 11.4482 70.5212 0.0000 0.0000 0.0000
# 4 0.0000 0.0000 0.0000 -16.9929 0.0000 0.0000
# 5 0.0000 0.0000 0.0000 0.0000 44.6945 0.0000
# 6 0.0000 0.0000 0.0000 0.0000 0.0000 56.9747
#
#
#
# Elastic Compliance Matrix: (Units=1/GPa)
#
#
# Indices 1 2 3 4 5 6 
#
# 1 0.006974 -0.003148 -0.000905 0.000000 0.000000 0.000000
# 2 -0.003148 0.007980 -0.000657 0.000000 0.000000 0.000000
# 3 -0.000905 -0.000657 0.014470 0.000000 0.000000 0.000000
# 4 0.000000 0.000000 0.000000 -0.058848 0.000000 0.000000
# 5 0.000000 0.000000 0.000000 0.000000 0.022374 0.000000
# 6 0.000000 0.000000 0.000000 0.000000 0.000000 0.017552
#
#
# Mechanical properties :
#
#
# Convention : Reuss Voigt Hill
#
# Bulk Modulus (GPa) = 49.98354 66.22076 58.10215
# Shear Modulus (GPa) = 188.04545 37.28777 112.66661
#
# Velocity S-wave (km/s) = 8.90679 3.96618 6.89425
# Velocity P-wave (km/s) = 11.26326 6.99362 9.37475
#
# Compressibility (1/GPa) = 0.02000659
#
# Stress axis : x y z
#
# Youngs Moduli (GPa) = 143.39215 125.30738 69.10681
#
# Poissons Ratio (x) = 0.39445 0.06252
# Poissons Ratio (y) = 0.45137 0.04537
# Poissons Ratio (z) = 0.12973 0.08226
#
# Static dielectric constant tensor:
#      x y z
#    x 1.870870 0.000000 0.000000 
#    y 0.000000 1.919220 0.000000 
#    z 0.000000 0.000000 2.025380 
# 
# From -- ./inp_files/4062.got.cif
#   From: 2010.05.17/outbox.cif.g08.bks.cpg/sg17_3_cif.got.tgz:4062.got - 2010.06.03 22:34:06.
