data_PCOD9311135
_publ_section_title
;
Structure prediction by ZEFSAII (Michael W. Deem and Ramdas Pophale) SiO2 
 PCOD9311135
Probable space group: P 2 2 21
;
_chemical_formula_sum "Si O2"
_cell_formula_units_Z 32
_cell_length_a 11.235159
_cell_length_b 9.736859
_cell_length_c 14.859362
_cell_angle_alpha 90.000000
_cell_angle_beta 90.000000
_cell_angle_gamma 90.000000
_cell_volume 1625.542269
_symmetry_space_group_name_H-M "P 2 2 21"
_symmetry_group_IT_number 17
_symmetry_cell_setting 'orthorhombic'
loop_
_space_group_symop_operation_xyz
x,y,z
-x,-y,1/2+z
x,-y,-z
-x,y,1/2-z
loop_
_atom_site_type_symbol
_atom_site_label
_atom_site_fract_x
_atom_site_fract_y
_atom_site_fract_z
Si Si1 0.846819 0.203281 0.950451
Si Si2 0.406467 0.402814 0.913396
Si Si3 0.074034 0.631535 0.063591
Si Si4 0.196952 0.508234 0.221489
Si Si5 0.680705 0.418532 0.905457
Si Si6 0.157466 0.195461 0.184236
Si Si7 0.274160 0.164483 0.004523
Si Si8 0.899881 0.072665 0.136015
O O1 0.721622 0.262294 0.920665
O O2 0.938972 0.328491 0.952650
O O3 0.900086 0.088556 0.884244
O O4 0.841186 0.141079 0.049401
O O5 0.313534 0.453842 0.838524
O O6 0.541520 0.420099 0.881759
O O7 0.389706 0.500000 0.000000
O O8 0.374665 0.249906 0.950807
O O9 0.099788 0.598693 0.167791
O O10 0.105053 0.500000 0.000000
O O11 0.154960 0.761321 0.034388
O O12 0.236968 0.528882 0.323897
O O13 0.149626 0.354036 0.210617
O O14 0.695467 0.500000 0.000000
O O15 0.261795 0.190097 0.111201
O O16 0.172215 0.108232 0.274522
O O17 0.032738 0.136120 0.145023
O O18 0.277169 0.000000 0.000000
#
# Coordination Sequence:
#
# PCOD9311135 Si02
#       8
#     4   4   4   4   4   4   4   4
#     4  11  22  41  55  88 133 178 202 254 320 398
#     4  10  21  43  65  92 120 162 215 278 320 377
#     4  11  20  36  65  95 127 163 216 265 321 383
#     4  11  21  38  65  92 120 160 212 278 315 374
#     4  11  25  40  62  88 124 169 219 263 328 382
#     4  11  20  37  61  94 123 165 215 260 320 393
#     4  11  20  36  64  96 125 158 212 275 332 378
#     4  10  23  36  58  87 134 174 204 253 327 396
#
# _framework density 19.685739999999999
#
# number of rings (size 3 to 8) (size 9 to 14) (size 15 to 20)
#    0.000    1.250    3.750    3.000    0.000    6.500 
#    2.250    0.000    0.000    0.000    0.000    0.000 
#    0.000    0.000    0.000    0.000    0.000    0.000 
#
# Total GULP energy -178533.787467 kJ/mol
# GULP energy per Si atom -5579.180858 kJ/mol
# Density = 1.964093 g / cm^3
# Si number density = 19.685740 Si / 1000 Ang^3
#
#
#
# Elastic Constant Matrix: (Units=GPa)
#
#
# Indices 1 2 3 4 5 6 
#
# 1 30.5184 10.3412 0.2538 0.0000 0.0000 0.0000
# 2 10.3412 110.4220 23.1541 0.0000 0.0000 0.0000
# 3 0.2538 23.1541 96.1832 0.0000 0.0000 0.0000
# 4 0.0000 0.0000 0.0000 23.6789 0.0000 0.0000
# 5 0.0000 0.0000 0.0000 0.0000 22.6672 0.0000
# 6 0.0000 0.0000 0.0000 0.0000 0.0000 18.0680
#
#
#
# Elastic Compliance Matrix: (Units=1/GPa)
#
#
# Indices 1 2 3 4 5 6 
#
# 1 0.033887 -0.003323 0.000710 0.000000 0.000000 0.000000
# 2 -0.003323 0.009863 -0.002366 0.000000 0.000000 0.000000
# 3 0.000710 -0.002366 0.010964 0.000000 0.000000 0.000000
# 4 0.000000 0.000000 0.000000 0.042232 0.000000 0.000000
# 5 0.000000 0.000000 0.000000 0.000000 0.044117 0.000000
# 6 0.000000 0.000000 0.000000 0.000000 0.000000 0.055346
#
#
# Mechanical properties :
#
#
# Convention : Reuss Voigt Hill
#
# Bulk Modulus (GPa) = 22.34170 33.84686 28.09428
# Shear Modulus (GPa) = 22.59530 26.44111 24.51821
#
# Velocity S-wave (km/s) = 3.39160 3.66889 3.53297
# Velocity P-wave (km/s) = 5.16827 5.93116 5.56281
#
# Compressibility (1/GPa) = 0.04475935
#
# Stress axis : x y z
#
# Youngs Moduli (GPa) = 29.50976 101.38519 91.20400
#
# Poissons Ratio (x) = 0.33686 -0.06479
# Poissons Ratio (y) = 0.09805 0.21576
# Poissons Ratio (z) = -0.02096 0.23984
#
# Static dielectric constant tensor:
#      x y z
#    x 1.753600 0.000000 0.000000 
#    y 0.000000 1.709440 0.000000 
#    z 0.000000 0.000000 1.733020 
# 
# From -- ./inp_files/8294.got.cif
#   From: 2010.05.17/outbox.cif.g08.bks.cpg/sg17_5_cif.got.tgz:8294.got - 2010.06.03 22:34:06.
