data_PCOD9311603
_publ_section_title
;
Structure prediction by ZEFSAII (Michael W. Deem and Ramdas Pophale) SiO2 
 PCOD9311603
Probable space group: P 2 2 21
;
_chemical_formula_sum "Si O2"
_cell_formula_units_Z 28
_cell_length_a 6.958407
_cell_length_b 8.267886
_cell_length_c 19.588684
_cell_angle_alpha 90.000000
_cell_angle_beta 90.000000
_cell_angle_gamma 90.000000
_cell_volume 1126.962766
_symmetry_space_group_name_H-M "P 2 2 21"
_symmetry_group_IT_number 17
_symmetry_cell_setting 'orthorhombic'
loop_
_space_group_symop_operation_xyz
x,y,z
-x,-y,1/2+z
x,-y,-z
-x,y,1/2-z
loop_
_atom_site_type_symbol
_atom_site_label
_atom_site_fract_x
_atom_site_fract_y
_atom_site_fract_z
Si Si1 0.105506 0.769602 0.177350
Si Si2 0.452609 0.388006 0.357306
Si Si3 0.429470 0.940960 0.673300
Si Si4 0.163649 0.088456 0.097718
Si Si5 0.531380 0.733208 0.142432
Si Si6 0.668397 0.676108 0.502704
Si Si7 0.109699 0.594817 0.820749
O O1 0.339254 0.759225 0.188136
O O2 0.067519 0.586296 0.150711
O O3 0.000000 0.795319 0.250000
O O4 0.076446 0.919320 0.124682
O O5 0.333684 0.232171 0.336259
O O6 0.366652 0.563515 0.344994
O O7 0.516499 0.361135 0.436131
O O8 0.656093 0.396041 0.316616
O O9 0.500000 0.946486 0.750000
O O10 0.617722 0.930100 0.625425
O O11 0.338784 0.110147 0.652299
O O12 0.199238 0.171031 0.023484
O O13 0.072403 0.243813 0.135775
O O14 0.442398 0.718324 0.066384
O O15 0.771800 0.500000 0.500000
O O16 0.000000 0.604171 0.750000
#
# Coordination Sequence:
#
# PCOD9311603 Si02
#       7
#     4   4   4   4   4   4   4
#     4   9  16  24  36  56  80 106 134 156 180 225
#     4   8  16  26  38  58  81 102 125 160 194 228
#     4   9  17  26  36  53  76 103 133 157 187 234
#     4   9  17  26  39  57  81 105 125 160 197 227
#     4   9  16  27  41  57  80 104 125 157 196 228
#     4   8  14  26  41  58  80 103 128 156 195 241
#     4   8  13  23  37  53  77 106 132 156 186 225
#
# _framework density 24.845542999999999
#
# number of rings (size 3 to 8) (size 9 to 14) (size 15 to 20)
#    0.000    3.714    0.000    1.286    0.000    5.714 
#    0.000    0.000    0.000    0.000    0.000    0.000 
#    0.000  109.714    0.000  426.286    0.000    5.143 
#
# Total GULP energy -156030.759763 kJ/mol
# GULP energy per Si atom -5572.527134 kJ/mol
# Density = 2.478899 g / cm^3
# Si number density = 24.845543 Si / 1000 Ang^3
#
#
#
# Elastic Constant Matrix: (Units=GPa)
#
#
# Indices 1 2 3 4 5 6 
#
# 1 92.3276 7.1872 2.6421 0.0000 0.0000 0.0000
# 2 7.1872 303.1670 42.5139 0.0000 0.0000 0.0000
# 3 2.6421 42.5139 78.4309 0.0000 0.0000 0.0000
# 4 0.0000 0.0000 0.0000 38.2838 0.0000 0.0000
# 5 0.0000 0.0000 0.0000 0.0000 19.7361 0.0000
# 6 0.0000 0.0000 0.0000 0.0000 0.0000 -22.4516
#
#
#
# Elastic Compliance Matrix: (Units=1/GPa)
#
#
# Indices 1 2 3 4 5 6 
#
# 1 0.010855 -0.000223 -0.000245 0.000000 0.000000 0.000000
# 2 -0.000223 0.003574 -0.001930 0.000000 0.000000 0.000000
# 3 -0.000245 -0.001930 0.013805 0.000000 0.000000 0.000000
# 4 0.000000 0.000000 0.000000 0.026121 0.000000 0.000000
# 5 0.000000 0.000000 0.000000 0.000000 0.050669 0.000000
# 6 0.000000 0.000000 0.000000 0.000000 0.000000 -0.044540
#
#
# Mechanical properties :
#
#
# Convention : Reuss Voigt Hill
#
# Bulk Modulus (GPa) = 42.66464 64.29021 53.47743
# Shear Modulus (GPa) = 68.40712 35.21917 51.81315
#
# Velocity S-wave (km/s) = 5.25288 3.76909 4.57158
# Velocity P-wave (km/s) = 7.34844 6.69877 7.03111
#
# Compressibility (1/GPa) = 0.02343861
#
# Stress axis : x y z
#
# Youngs Moduli (GPa) = 92.12037 279.76307 72.44011
#
# Poissons Ratio (x) = 0.06239 0.01773
# Poissons Ratio (y) = 0.02054 0.13981
# Poissons Ratio (z) = 0.02255 0.53995
#
# Static dielectric constant tensor:
#      x y z
#    x 1.914020 0.000000 0.000000 
#    y 0.000000 2.146300 0.000000 
#    z 0.000000 0.000000 2.033630 
# 
# From -- ./inp_files/9659.got.cif
#   From: 2010.05.17/outbox.cif.g08.bks.cpg/sg17_5_cif.got.tgz:9659.got - 2010.06.03 22:34:06.
