data_PCOD9311060
_publ_section_title
;
Structure prediction by ZEFSAII (Michael W. Deem and Ramdas Pophale) SiO2 
 PCOD9311060
Probable space group: P 2 2 21
;
_chemical_formula_sum "Si O2"
_cell_formula_units_Z 24
_cell_length_a 14.381991
_cell_length_b 8.444891
_cell_length_c 8.160339
_cell_angle_alpha 90.000000
_cell_angle_beta 90.000000
_cell_angle_gamma 90.000000
_cell_volume 991.108639
_symmetry_space_group_name_H-M "P 2 2 21"
_symmetry_group_IT_number 17
_symmetry_cell_setting 'orthorhombic'
loop_
_space_group_symop_operation_xyz
x,y,z
-x,-y,1/2+z
x,-y,-z
-x,y,1/2-z
loop_
_atom_site_type_symbol
_atom_site_label
_atom_site_fract_x
_atom_site_fract_y
_atom_site_fract_z
Si Si1 0.729007 0.308200 0.260817
Si Si2 0.771597 0.322021 0.759848
Si Si3 0.060464 0.834165 0.080438
Si Si4 0.876629 0.818046 0.938822
Si Si5 0.377661 0.177985 0.936064
Si Si6 0.552590 0.326770 0.074580
O O1 0.748149 0.494075 0.247956
O O2 0.822775 0.210066 0.229549
O O3 0.680417 0.280609 0.433468
O O4 0.651330 0.256155 0.127241
O O5 0.851972 0.269984 0.631339
O O6 0.678522 0.218312 0.728182
O O7 0.818274 0.284315 0.932644
O O8 0.000000 0.861349 0.250000
O O9 0.983357 0.765678 0.955815
O O10 0.089781 0.000000 0.000000
O O11 0.872545 0.000000 0.000000
O O12 0.484363 0.230774 0.954668
O O13 0.370127 0.000000 0.000000
O O14 0.500000 0.342008 0.250000
O O15 0.566434 0.500000 0.000000
#
# Coordination Sequence:
#
# PCOD9311060 Si02
#       6
#     4   4   4   4   4   4
#     4  11  23  41  62  90 124 162 206 257 313 374
#     4  11  21  39  64  90 124 165 208 256 310 372
#     4   9  20  38  62  93 128 167 210 255 308 367
#     4  10  21  39  63  91 125 165 207 254 310 370
#     4  11  23  40  62  89 121 159 207 259 311 374
#     4  10  21  39  61  87 120 156 198 251 315 377
#
# _framework density 24.215309999999999
#
# number of rings (size 3 to 8) (size 9 to 14) (size 15 to 20)
#    0.000    1.667    0.000    5.500    0.000    3.333 
#    0.000   19.167    0.000    0.000    0.000    0.000 
#    0.000    0.000    0.000    0.000    0.000    0.000 
#
# Total GULP energy -134322.568865 kJ/mol
# GULP energy per Si atom -5596.773703 kJ/mol
# Density = 2.416019 g / cm^3
# Si number density = 24.215310 Si / 1000 Ang^3
#
#
#
# Elastic Constant Matrix: (Units=GPa)
#
#
# Indices 1 2 3 4 5 6 
#
# 1 150.6071 13.0276 40.4064 0.0000 0.0000 0.0000
# 2 13.0276 73.8669 0.2688 0.0000 0.0000 0.0000
# 3 40.4064 0.2688 53.7529 0.0000 0.0000 0.0000
# 4 0.0000 0.0000 0.0000 36.9293 0.0000 0.0000
# 5 0.0000 0.0000 0.0000 0.0000 50.8549 0.0000
# 6 0.0000 0.0000 0.0000 0.0000 0.0000 44.9426
#
#
#
# Elastic Compliance Matrix: (Units=1/GPa)
#
#
# Indices 1 2 3 4 5 6 
#
# 1 0.008474 -0.001471 -0.006363 0.000000 0.000000 0.000000
# 2 -0.001471 0.013794 0.001037 0.000000 0.000000 0.000000
# 3 -0.006363 0.001037 0.023381 0.000000 0.000000 0.000000
# 4 0.000000 0.000000 0.000000 0.027079 0.000000 0.000000
# 5 0.000000 0.000000 0.000000 0.000000 0.019664 0.000000
# 6 0.000000 0.000000 0.000000 0.000000 0.000000 0.022251
#
#
# Mechanical properties :
#
#
# Convention : Reuss Voigt Hill
#
# Bulk Modulus (GPa) = 31.19637 42.84806 37.02221
# Shear Modulus (GPa) = 35.99163 41.51364 38.75263
#
# Velocity S-wave (km/s) = 3.85946 4.14497 4.00476
# Velocity P-wave (km/s) = 5.72464 6.37501 6.05856
#
# Compressibility (1/GPa) = 0.03205501
#
# Stress axis : x y z
#
# Youngs Moduli (GPa) = 118.00636 72.49742 42.76917
#
# Poissons Ratio (x) = 0.10667 0.27213
# Poissons Ratio (y) = 0.17363 -0.04435
# Poissons Ratio (z) = 0.75084 -0.07518
#
# Static dielectric constant tensor:
#      x y z
#    x 1.940000 0.000000 0.000000 
#    y 0.000000 1.837010 0.000000 
#    z 0.000000 0.000000 2.035570 
# 
# From -- ./inp_files/5140.got.cif
#   From: 2010.05.17/outbox.cif.g08.bks.cpg/sg17_3_cif.got.tgz:5140.got - 2010.06.03 22:34:06.
