data_PCOD9311429
_publ_section_title
;
Structure prediction by ZEFSAII (Michael W. Deem and Ramdas Pophale) SiO2 
 PCOD9311429
Probable space group: P 2 2 21
;
_chemical_formula_sum "Si O2"
_cell_formula_units_Z 22
_cell_length_a 5.318091
_cell_length_b 11.856162
_cell_length_c 16.021126
_cell_angle_alpha 90.000000
_cell_angle_beta 90.000000
_cell_angle_gamma 90.000000
_cell_volume 1010.166415
_symmetry_space_group_name_H-M "P 2 2 21"
_symmetry_group_IT_number 17
_symmetry_cell_setting 'orthorhombic'
loop_
_space_group_symop_operation_xyz
x,y,z
-x,-y,1/2+z
x,-y,-z
-x,y,1/2-z
loop_
_atom_site_type_symbol
_atom_site_label
_atom_site_fract_x
_atom_site_fract_y
_atom_site_fract_z
Si Si1 0.870688 0.065092 0.331978
Si Si2 0.302015 0.187716 0.822364
Si Si3 0.421176 0.297697 0.538731
Si Si4 0.035076 0.593001 0.342327
Si Si5 0.365900 0.901623 0.565386
Si Si6 0.750436 0.500000 0.500000
O O1 0.614795 0.113859 0.375074
O O2 0.000000 0.121546 0.250000
O O3 0.111605 0.054836 0.391425
O O4 0.790104 0.937839 0.308149
O O5 0.500000 0.215047 0.750000
O O6 0.429105 0.201405 0.911942
O O7 0.096821 0.285373 0.829842
O O8 0.277135 0.218862 0.473997
O O9 0.586634 0.387769 0.490145
O O10 0.294081 0.371387 0.612611
O O11 0.905172 0.521504 0.415537
O O12 0.000000 0.540322 0.250000
O O13 0.434072 0.000000 0.500000
#
# Coordination Sequence:
#
# PCOD9311429 Si02
#       6
#     4   4   4   4   4   2
#     4  12  26  43  66 100 148 195 239 288 354 442
#     4  11  21  38  66 108 138 180 232 305 357 417
#     4  11  24  44  68 102 144 184 245 298 363 430
#     4  11  22  42  73 103 138 181 239 307 372 426
#     4  12  25  43  69 103 144 192 234 294 364 435
#     4  10  26  42  72 104 140 188 238 314 364 428
#
# _framework density 21.778590000000001
#
# number of rings (size 3 to 8) (size 9 to 14) (size 15 to 20)
#    0.000    0.727    3.636    4.364    5.091    0.000 
#    0.000    0.909    8.000    0.000    0.000    0.000 
#    0.000    0.000    0.000    0.000    0.000    0.000 
#
# Total GULP energy -122569.279564 kJ/mol
# GULP energy per Si atom -5571.330889 kJ/mol
# Density = 2.172902 g / cm^3
# Si number density = 21.778590 Si / 1000 Ang^3
#
#
#
# Elastic Constant Matrix: (Units=GPa)
#
#
# Indices 1 2 3 4 5 6 
#
# 1 65.4911 -3.2902 9.5817 0.0000 0.0000 0.0000
# 2 -3.2902 52.1567 28.4628 0.0000 0.0000 0.0000
# 3 9.5817 28.4628 84.2558 0.0000 0.0000 0.0000
# 4 0.0000 0.0000 0.0000 30.3376 0.0000 0.0000
# 5 0.0000 0.0000 0.0000 0.0000 46.2064 0.0000
# 6 0.0000 0.0000 0.0000 0.0000 0.0000 46.3443
#
#
#
# Elastic Compliance Matrix: (Units=1/GPa)
#
#
# Indices 1 2 3 4 5 6 
#
# 1 0.015773 0.002420 -0.002611 0.000000 0.000000 0.000000
# 2 0.002420 0.023878 -0.008341 0.000000 0.000000 0.000000
# 3 -0.002611 -0.008341 0.014983 0.000000 0.000000 0.000000
# 4 0.000000 0.000000 0.000000 0.032962 0.000000 0.000000
# 5 0.000000 0.000000 0.000000 0.000000 0.021642 0.000000
# 6 0.000000 0.000000 0.000000 0.000000 0.000000 0.021578
#
#
# Mechanical properties :
#
#
# Convention : Reuss Voigt Hill
#
# Bulk Modulus (GPa) = 26.61791 30.15691 28.38741
# Shear Modulus (GPa) = 31.17122 35.72093 33.44608
#
# Velocity S-wave (km/s) = 3.78733 4.05431 3.92309
# Velocity P-wave (km/s) = 5.60123 5.98279 5.79515
#
# Compressibility (1/GPa) = 0.03756869
#
# Stress axis : x y z
#
# Youngs Moduli (GPa) = 63.40003 41.88000 66.74039
#
# Poissons Ratio (x) = -0.10135 0.17427
# Poissons Ratio (y) = -0.15343 0.55671
# Poissons Ratio (z) = 0.16555 0.34934
#
# Static dielectric constant tensor:
#      x y z
#    x 1.880760 0.000000 0.000000 
#    y 0.000000 1.751860 0.000000 
#    z 0.000000 0.000000 1.784590 
# 
# From -- ./inp_files/7659.got.cif
#   From: 2010.05.17/outbox.cif.g08.bks.cpg/sg17_4_cif.got.tgz:7659.got - 2010.06.03 22:34:06.
