data_PCOD9311035
_publ_section_title
;
Structure prediction by ZEFSAII (Michael W. Deem and Ramdas Pophale) SiO2 
 PCOD9311035
Probable space group: P 2 2 21
;
_chemical_formula_sum "Si O2"
_cell_formula_units_Z 20
_cell_length_a 5.134511
_cell_length_b 7.613075
_cell_length_c 22.616740
_cell_angle_alpha 90.000000
_cell_angle_beta 90.000000
_cell_angle_gamma 90.000000
_cell_volume 884.075189
_symmetry_space_group_name_H-M "P 2 2 21"
_symmetry_group_IT_number 17
_symmetry_cell_setting 'orthorhombic'
loop_
_space_group_symop_operation_xyz
x,y,z
-x,-y,1/2+z
x,-y,-z
-x,y,1/2-z
loop_
_atom_site_type_symbol
_atom_site_label
_atom_site_fract_x
_atom_site_fract_y
_atom_site_fract_z
Si Si1 0.768381 0.960359 0.067429
Si Si2 0.000000 0.636800 0.750000
Si Si3 0.500000 0.863200 0.750000
Si Si4 0.731619 0.539641 0.067429
Si Si5 0.229101 0.461856 0.866294
Si Si6 0.729101 0.961856 0.366294
O O1 0.750000 0.750000 0.073142
O O2 0.483148 0.024108 0.085727
O O3 0.988813 0.026078 0.112556
O O4 0.836447 0.000000 0.000000
O O5 0.250000 0.750000 0.729437
O O6 0.121016 0.525179 0.803621
O O7 0.378984 0.974821 0.803621
O O8 0.511187 0.473922 0.112556
O O9 0.016852 0.475892 0.085727
O O10 0.663553 0.500000 0.000000
O O11 0.250000 0.250000 0.865075
#
# Coordination Sequence:
#
# PCOD9311035 Si02
#       6
#     4   2   2   4   4   4
#     4  10  21  38  62  91 122 162 208 253 307 371
#     4  12  26  42  64  98 128 160 212 272 318 358
#     4  12  26  42  64  98 128 160 212 272 318 358
#     4  10  21  38  62  91 122 162 208 253 307 371
#     4  10  23  42  63  88 124 171 211 247 310 387
#     4  10  23  42  63  88 124 171 211 247 310 387
#
# _framework density 22.622508
#
# number of rings (size 3 to 8) (size 9 to 14) (size 15 to 20)
#    0.000    1.600    0.000    3.600    0.000   11.200 
#    0.000    0.000    0.000    0.000    0.000    0.000 
#    0.000    0.000    0.000    0.000    0.000    0.000 
#
# Total GULP energy -111802.736877 kJ/mol
# GULP energy per Si atom -5590.136844 kJ/mol
# Density = 2.257102 g / cm^3
# Si number density = 22.622508 Si / 1000 Ang^3
#
#
#
# Elastic Constant Matrix: (Units=GPa)
#
#
# Indices 1 2 3 4 5 6 
#
# 1 178.0631 43.5758 61.2635 0.0000 0.0000 0.0000
# 2 43.5758 39.7769 17.6137 0.0000 0.0000 0.0000
# 3 61.2635 17.6137 141.3683 0.0000 0.0000 0.0000
# 4 0.0000 0.0000 0.0000 32.3353 0.0000 0.0000
# 5 0.0000 0.0000 0.0000 0.0000 44.1162 0.0000
# 6 0.0000 0.0000 0.0000 0.0000 0.0000 15.4412
#
#
#
# Elastic Compliance Matrix: (Units=1/GPa)
#
#
# Indices 1 2 3 4 5 6 
#
# 1 0.008537 -0.008164 -0.002682 0.000000 0.000000 0.000000
# 2 -0.008164 0.034416 -0.000750 0.000000 0.000000 0.000000
# 3 -0.002682 -0.000750 0.008330 0.000000 0.000000 0.000000
# 4 0.000000 0.000000 0.000000 0.030926 0.000000 0.000000
# 5 0.000000 0.000000 0.000000 0.000000 0.022667 0.000000
# 6 0.000000 0.000000 0.000000 0.000000 0.000000 0.064762
#
#
# Mechanical properties :
#
#
# Convention : Reuss Voigt Hill
#
# Bulk Modulus (GPa) = 35.60047 67.12382 51.36214
# Shear Modulus (GPa) = 24.72867 34.16225 29.44546
#
# Velocity S-wave (km/s) = 3.30979 3.89022 3.61168
# Velocity P-wave (km/s) = 5.51155 7.06499 6.33606
#
# Compressibility (1/GPa) = 0.02808952
#
# Stress axis : x y z
#
# Youngs Moduli (GPa) = 117.13934 29.05590 120.05433
#
# Poissons Ratio (x) = 0.23722 0.32202
# Poissons Ratio (y) = 0.95637 0.09004
# Poissons Ratio (z) = 0.31420 0.02179
#
# Static dielectric constant tensor:
#      x y z
#    x 1.821130 0.000000 0.000000 
#    y 0.000000 1.857000 0.000000 
#    z 0.000000 0.000000 1.795130 
# 
# From -- ./inp_files/8973.got.cif
#   From: 2010.05.17/outbox.cif.g08.bks.cpg/sg17_5_cif.got.tgz:8973.got - 2010.06.03 22:34:06.
