data_PCOD9311958
_publ_section_title
;
Structure prediction by ZEFSAII (Michael W. Deem and Ramdas Pophale) SiO2 
 PCOD9311958
Probable space group: P 21 21 2
;
_chemical_formula_sum "Si O2"
_cell_formula_units_Z 30
_cell_length_a 12.484455
_cell_length_b 18.525683
_cell_length_c 6.242045
_cell_angle_alpha 90.000000
_cell_angle_beta 90.000000
_cell_angle_gamma 90.000000
_cell_volume 1443.679242
_symmetry_space_group_name_H-M "P 21 21 2"
_symmetry_group_IT_number 18
_symmetry_cell_setting 'orthorhombic'
loop_
_space_group_symop_operation_xyz
x,y,z
-x,-y,z
1/2+x,1/2-y,-z
1/2-x,1/2+y,-z
loop_
_atom_site_type_symbol
_atom_site_label
_atom_site_fract_x
_atom_site_fract_y
_atom_site_fract_z
Si Si1 0.570032 0.342246 0.192223
Si Si2 0.718213 0.857507 0.082980
Si Si3 0.215041 0.992015 0.109672
Si Si4 0.647055 0.269180 0.575710
Si Si5 0.500000 0.500000 0.665071
Si Si6 0.459076 0.239631 0.881371
Si Si7 0.624484 0.576858 0.286853
Si Si8 0.785702 0.159540 0.353877
O O1 0.588597 0.333212 0.444873
O O2 0.477131 0.399983 0.148065
O O3 0.682281 0.357571 0.082409
O O4 0.516792 0.271986 0.089056
O O5 0.705400 0.941291 0.149291
O O6 0.761421 0.805924 0.275759
O O7 0.616289 0.824742 0.961259
O O8 0.099740 0.022975 0.188941
O O9 0.239937 0.915683 0.230415
O O10 0.199893 0.971558 0.859604
O O11 0.557058 0.228813 0.716099
O O12 0.692860 0.217953 0.389097
O O13 0.569261 0.545281 0.496538
O O14 0.380785 0.299681 0.772459
O O15 0.686385 0.642839 0.396322
#
# Coordination Sequence:
#
# PCOD9311958 Si02
#       8
#     4   4   4   4   2   4   4   4
#     4  11  20  36  63  93 129 165 205 275 330 392
#     4  11  24  39  63  98 132 169 223 273 330 390
#     4  11  23  37  60  93 137 169 212 272 337 395
#     4  11  24  41  67  96 131 171 224 271 329 392
#     4  10  20  32  52  94 130 162 202 254 332 408
#     4  11  23  40  63  98 125 169 223 269 319 398
#     4  11  20  35  62  88 132 166 204 261 346 391
#     4  11  23  41  62  93 127 173 218 263 336 400
#
# _framework density 20.780238000000001
#
# number of rings (size 3 to 8) (size 9 to 14) (size 15 to 20)
#    0.000    1.067    4.000    3.600    3.733    1.067 
#    0.000    0.000    0.000    4.800    0.000    0.000 
#    0.000    0.000    0.000    0.000    0.000    0.000 
#
# Total GULP energy -167158.054932 kJ/mol
# GULP energy per Si atom -5571.935164 kJ/mol
# Density = 2.073294 g / cm^3
# Si number density = 20.780238 Si / 1000 Ang^3
#
#
#
# Elastic Constant Matrix: (Units=GPa)
#
#
# Indices 1 2 3 4 5 6 
#
# 1 39.2207 15.3371 16.4954 0.0000 0.0000 0.0000
# 2 15.3371 83.1214 30.0321 0.0000 0.0000 0.0000
# 3 16.4954 30.0321 76.3818 0.0000 0.0000 0.0000
# 4 0.0000 0.0000 0.0000 39.3874 0.0000 0.0000
# 5 0.0000 0.0000 0.0000 0.0000 25.2119 0.0000
# 6 0.0000 0.0000 0.0000 0.0000 0.0000 26.9732
#
#
#
# Elastic Compliance Matrix: (Units=1/GPa)
#
#
# Indices 1 2 3 4 5 6 
#
# 1 0.028935 -0.003591 -0.004837 0.000000 0.000000 0.000000
# 2 -0.003591 0.014468 -0.004913 0.000000 0.000000 0.000000
# 3 -0.004837 -0.004913 0.016068 0.000000 0.000000 0.000000
# 4 0.000000 0.000000 0.000000 0.025389 0.000000 0.000000
# 5 0.000000 0.000000 0.000000 0.000000 0.039664 0.000000
# 6 0.000000 0.000000 0.000000 0.000000 0.000000 0.037074
#
#
# Mechanical properties :
#
#
# Convention : Reuss Voigt Hill
#
# Bulk Modulus (GPa) = 30.49754 35.82811 33.16282
# Shear Modulus (GPa) = 25.09897 27.43846 26.26872
#
# Velocity S-wave (km/s) = 3.47915 3.63769 3.55930
# Velocity P-wave (km/s) = 5.55405 5.90953 5.73454
#
# Compressibility (1/GPa) = 0.03278953
#
# Stress axis : x y z
#
# Youngs Moduli (GPa) = 34.55972 69.11616 62.23383
#
# Poissons Ratio (x) = 0.24823 0.30101
# Poissons Ratio (y) = 0.12412 0.30576
# Poissons Ratio (z) = 0.16716 0.33958
#
# Static dielectric constant tensor:
#      x y z
#    x 1.941940 0.000000 0.000000 
#    y 0.000000 1.967110 0.000000 
#    z 0.000000 0.000000 1.783440 
# 
# From -- ./inp_files/1285.got.cif
#   From: 2010.05.17/outbox.cif.g08.bks.cpg/sg18_1_cif.got.tgz:1285.got - 2010.06.03 22:40:56.
