data_PCOD9311445
_publ_section_title
;
Structure prediction by ZEFSAII (Michael W. Deem and Ramdas Pophale) SiO2 
 PCOD9311445
Probable space group: P 2 2 21
;
_chemical_formula_sum "Si O2"
_cell_formula_units_Z 24
_cell_length_a 9.458969
_cell_length_b 10.421212
_cell_length_c 14.930990
_cell_angle_alpha 90.000000
_cell_angle_beta 90.000000
_cell_angle_gamma 90.000000
_cell_volume 1471.806232
_symmetry_space_group_name_H-M "P 2 2 21"
_symmetry_group_IT_number 17
_symmetry_cell_setting 'orthorhombic'
loop_
_space_group_symop_operation_xyz
x,y,z
-x,-y,1/2+z
x,-y,-z
-x,y,1/2-z
loop_
_atom_site_type_symbol
_atom_site_label
_atom_site_fract_x
_atom_site_fract_y
_atom_site_fract_z
Si Si1 0.420507 0.722825 0.846163
Si Si2 0.681369 0.878751 0.062537
Si Si3 0.680482 0.371720 0.055299
Si Si4 0.835408 0.026578 0.764247
Si Si5 0.164530 0.718200 0.732160
Si Si6 0.579256 0.017194 0.653618
O O1 0.500000 0.724346 0.750000
O O2 0.517609 0.638089 0.910291
O O3 0.262268 0.684324 0.818111
O O4 0.422199 0.870164 0.879790
O O5 0.774079 0.895857 0.151855
O O6 0.517426 0.894579 0.092125
O O7 0.706135 0.749456 0.009011
O O8 0.714894 0.000000 0.000000
O O9 0.776195 0.352452 0.144107
O O10 0.706478 0.500000 0.000000
O O11 0.738498 0.056335 0.677568
O O12 0.000000 0.049965 0.750000
O O13 0.815002 0.872839 0.781328
O O14 0.000000 0.694629 0.750000
O O15 0.500000 0.015112 0.750000
#
# Coordination Sequence:
#
# PCOD9311445 Si02
#       6
#     4   4   4   4   4   4
#     4   8  14  29  50  70  94 125 167 200 237 300
#     4  11  17  31  52  74 100 125 165 217 259 280
#     4  11  21  33  50  78 101 132 172 214 251 289
#     4   9  17  31  52  78 103 132 168 206 252 310
#     4   9  17  33  55  74  98 137 173 199 248 317
#     4   8  14  27  49  72  94 128 161 198 250 298
#
# _framework density 16.306495999999999
#
# number of rings (size 3 to 8) (size 9 to 14) (size 15 to 20)
#    0.000    2.667    3.333    2.000    0.000    0.000 
#    0.000   11.667    0.000    0.000    0.000    0.000 
#    0.000    0.000    0.000    0.000    0.000    0.000 
#
# Total GULP energy -133631.568507 kJ/mol
# GULP energy per Si atom -5567.982021 kJ/mol
# Density = 1.626938 g / cm^3
# Si number density = 16.306496 Si / 1000 Ang^3
#
#
#
# Elastic Constant Matrix: (Units=GPa)
#
#
# Indices 1 2 3 4 5 6 
#
# 1 122.6355 25.2323 32.1482 0.0000 0.0000 0.0000
# 2 25.2323 75.8787 38.7700 0.0000 0.0000 0.0000
# 3 32.1482 38.7700 68.1548 0.0000 0.0000 0.0000
# 4 0.0000 0.0000 0.0000 24.8932 0.0000 0.0000
# 5 0.0000 0.0000 0.0000 0.0000 21.4443 0.0000
# 6 0.0000 0.0000 0.0000 0.0000 0.0000 8.7766
#
#
#
# Elastic Compliance Matrix: (Units=1/GPa)
#
#
# Indices 1 2 3 4 5 6 
#
# 1 0.009383 -0.001211 -0.003737 0.000000 0.000000 0.000000
# 2 -0.001211 0.018735 -0.010086 0.000000 0.000000 0.000000
# 3 -0.003737 -0.010086 0.022173 0.000000 0.000000 0.000000
# 4 0.000000 0.000000 0.000000 0.040172 0.000000 0.000000
# 5 0.000000 0.000000 0.000000 0.000000 0.046632 0.000000
# 6 0.000000 0.000000 0.000000 0.000000 0.000000 0.113940
#
#
# Mechanical properties :
#
#
# Convention : Reuss Voigt Hill
#
# Bulk Modulus (GPa) = 49.44989 50.99665 50.22327
# Shear Modulus (GPa) = 17.37050 22.39074 19.88062
#
# Velocity S-wave (km/s) = 3.26736 3.70958 3.49547
# Velocity P-wave (km/s) = 6.68022 7.04909 6.86713
#
# Compressibility (1/GPa) = 0.02022249
#
# Stress axis : x y z
#
# Youngs Moduli (GPa) = 106.57539 53.37562 45.09991
#
# Poissons Ratio (x) = 0.06462 0.16855
# Poissons Ratio (y) = 0.12903 0.45490
# Poissons Ratio (z) = 0.39830 0.53837
#
# Static dielectric constant tensor:
#      x y z
#    x 1.586520 0.000000 0.000000 
#    y 0.000000 1.521970 0.000000 
#    z 0.000000 0.000000 1.564220 
# 
# From -- ./inp_files/9385.got.cif
#   From: 2010.05.17/outbox.cif.g08.bks.cpg/sg17_5_cif.got.tgz:9385.got - 2010.06.03 22:34:06.
