data_PCOD9311384
_publ_section_title
;
Structure prediction by ZEFSAII (Michael W. Deem and Ramdas Pophale) SiO2 
 PCOD9311384
Probable space group: P 2 2 21
;
_chemical_formula_sum "Si O2"
_cell_formula_units_Z 24
_cell_length_a 7.676437
_cell_length_b 5.600574
_cell_length_c 20.538018
_cell_angle_alpha 90.000000
_cell_angle_beta 90.000000
_cell_angle_gamma 90.000000
_cell_volume 882.979783
_symmetry_space_group_name_H-M "P 2 2 21"
_symmetry_group_IT_number 17
_symmetry_cell_setting 'orthorhombic'
loop_
_space_group_symop_operation_xyz
x,y,z
-x,-y,1/2+z
x,-y,-z
-x,y,1/2-z
loop_
_atom_site_type_symbol
_atom_site_label
_atom_site_fract_x
_atom_site_fract_y
_atom_site_fract_z
Si Si1 0.596716 0.988371 0.148826
Si Si2 0.725452 0.304234 0.312526
Si Si3 0.000000 0.569677 0.250000
Si Si4 0.967299 0.720294 0.400189
Si Si5 0.500000 0.680426 0.250000
Si Si6 0.926767 0.770438 0.899829
Si Si7 0.587267 0.746892 0.461106
O O1 0.643721 0.840867 0.213425
O O2 0.564511 0.813571 0.088910
O O3 0.737469 0.182387 0.130454
O O4 0.409634 0.097914 0.169076
O O5 0.587551 0.521238 0.305523
O O6 0.889706 0.259829 0.359446
O O7 0.982232 0.710505 0.319502
O O8 0.163279 0.384954 0.250952
O O9 0.071968 0.494478 0.427772
O O10 0.768610 0.701360 0.423460
O O11 0.038560 0.967362 0.427851
O O12 0.554000 0.500000 0.500000
O O13 0.608885 0.000000 0.500000
#
# Coordination Sequence:
#
# PCOD9311384 Si02
#       7
#     4   4   2   4   2   4   4
#     4  12  28  50  82 128 171 229 298 362 454 522
#     4  11  26  46  71 122 171 227 268 352 437 530
#     4  10  24  42  78 110 174 214 278 352 430 534
#     4  11  24  50  76 126 163 220 287 347 449 511
#     4  12  28  46  80 122 184 228 280 362 448 546
#     4  11  26  46  80 114 172 215 274 359 416 537
#     4  12  29  55  92 124 174 241 304 374 442 534
#
# _framework density 27.180686999999999
#
# number of rings (size 3 to 8) (size 9 to 14) (size 15 to 20)
#    0.000    0.667    1.667    4.500   16.333    2.667 
#    0.000    3.333    0.000    0.000    0.000    0.000 
#    0.000    0.000    0.000    0.000    0.000    0.000 
#
# Total GULP energy -133805.515104 kJ/mol
# GULP energy per Si atom -5575.229796 kJ/mol
# Density = 2.711882 g / cm^3
# Si number density = 27.180687 Si / 1000 Ang^3
#
#
#
# Elastic Constant Matrix: (Units=GPa)
#
#
# Indices 1 2 3 4 5 6 
#
# 1 135.0591 38.5241 37.4893 0.0000 0.0000 0.0000
# 2 38.5241 186.5562 73.8840 0.0000 0.0000 0.0000
# 3 37.4893 73.8840 144.7877 0.0000 0.0000 0.0000
# 4 0.0000 0.0000 0.0000 29.2083 0.0000 0.0000
# 5 0.0000 0.0000 0.0000 0.0000 19.4424 0.0000
# 6 0.0000 0.0000 0.0000 0.0000 0.0000 56.5569
#
#
#
# Elastic Compliance Matrix: (Units=1/GPa)
#
#
# Indices 1 2 3 4 5 6 
#
# 1 0.008142 -0.001061 -0.001567 0.000000 0.000000 0.000000
# 2 -0.001061 0.006856 -0.003224 0.000000 0.000000 0.000000
# 3 -0.001567 -0.003224 0.008958 0.000000 0.000000 0.000000
# 4 0.000000 0.000000 0.000000 0.034237 0.000000 0.000000
# 5 0.000000 0.000000 0.000000 0.000000 0.051434 0.000000
# 6 0.000000 0.000000 0.000000 0.000000 0.000000 0.017681
#
#
# Mechanical properties :
#
#
# Convention : Reuss Voigt Hill
#
# Bulk Modulus (GPa) = 81.61747 85.13309 83.37528
# Shear Modulus (GPa) = 34.94189 42.14189 38.54189
#
# Velocity S-wave (km/s) = 3.58933 3.94183 3.76970
# Velocity P-wave (km/s) = 6.87537 7.21848 7.04901
#
# Compressibility (1/GPa) = 0.01225228
#
# Stress axis : x y z
#
# Youngs Moduli (GPa) = 122.82542 145.85331 111.63782
#
# Poissons Ratio (x) = 0.15471 0.17491
# Poissons Ratio (y) = 0.13029 0.35992
# Poissons Ratio (z) = 0.19244 0.47023
#
# Static dielectric constant tensor:
#      x y z
#    x 2.074720 0.000000 0.000000 
#    y 0.000000 2.333520 0.000000 
#    z 0.000000 0.000000 2.231170 
# 
# From -- ./inp_files/10187.got.cif
#   From: 2010.05.17/outbox.cif.g08.bks.cpg/sg17_6_cif.got.tgz:10187.got - 2010.06.03 22:34:06.
