data_PCOD9311115
_publ_section_title
;
Structure prediction by ZEFSAII (Michael W. Deem and Ramdas Pophale) SiO2 
 PCOD9311115
Probable space group: P 2 2 21
;
_chemical_formula_sum "Si O2"
_cell_formula_units_Z 18
_cell_length_a 5.364929
_cell_length_b 25.318611
_cell_length_c 5.337565
_cell_angle_alpha 90.000000
_cell_angle_beta 90.000000
_cell_angle_gamma 90.000000
_cell_volume 725.015067
_symmetry_space_group_name_H-M "P 2 2 21"
_symmetry_group_IT_number 17
_symmetry_cell_setting 'orthorhombic'
loop_
_space_group_symop_operation_xyz
x,y,z
-x,-y,1/2+z
x,-y,-z
-x,y,1/2-z
loop_
_atom_site_type_symbol
_atom_site_label
_atom_site_fract_x
_atom_site_fract_y
_atom_site_fract_z
Si Si1 0.250100 0.939982 0.592472
Si Si2 0.831844 0.557160 0.501028
Si Si3 0.251394 0.825975 0.576802
Si Si4 0.000000 0.256224 0.750000
Si Si5 0.643938 0.326488 0.494968
O O1 0.500000 0.936757 0.750000
O O2 0.255291 0.884357 0.445275
O O3 0.000000 0.936214 0.750000
O O4 0.248302 0.000000 0.500000
O O5 0.697864 0.500000 0.500000
O O6 0.676045 0.610373 0.514209
O O7 0.000000 0.557284 0.750000
O O8 0.000000 0.560433 0.250000
O O9 0.500000 0.819937 0.750000
O O10 0.208564 0.782052 0.366785
O O11 0.000000 0.823111 0.750000
O O12 0.899013 0.295005 0.534411
O O13 0.500000 0.315758 0.750000
O O14 0.500000 0.308869 0.250000
#
# Coordination Sequence:
#
# PCOD9311115 Si02
#       5
#     4   4   4   2   4
#     4  10  21  41  68 104 142 188 244 319 391 472
#     4  10  21  43  73 106 150 197 248 321 400 475
#     4  10  26  48  73 109 153 201 264 323 402 474
#     4  12  30  48  76 104 158 204 260 332 388 480
#     4  12  29  47  76 113 148 204 266 323 401 477
#
# _framework density 24.827065999999999
#
# number of rings (size 3 to 8) (size 9 to 14) (size 15 to 20)
#    0.000    1.333    1.111    2.000    7.778    0.889 
#    0.000    0.000    0.000    0.000    0.000    0.000 
#    0.000    0.000    0.000    0.000    0.000    0.000 
#
# Total GULP energy -100703.012431 kJ/mol
# GULP energy per Si atom -5594.611802 kJ/mol
# Density = 2.477056 g / cm^3
# Si number density = 24.827066 Si / 1000 Ang^3
#
#
#
# Elastic Constant Matrix: (Units=GPa)
#
#
# Indices 1 2 3 4 5 6 
#
# 1 130.9098 41.2753 46.6103 0.0000 0.0000 0.0000
# 2 41.2753 234.8090 43.8817 0.0000 0.0000 0.0000
# 3 46.6103 43.8817 134.2511 0.0000 0.0000 0.0000
# 4 0.0000 0.0000 0.0000 25.2112 0.0000 0.0000
# 5 0.0000 0.0000 0.0000 0.0000 50.7193 0.0000
# 6 0.0000 0.0000 0.0000 0.0000 0.0000-1635.7005
#
#
#
# Elastic Compliance Matrix: (Units=1/GPa)
#
#
# Indices 1 2 3 4 5 6 
#
# 1 0.008956 -0.001058 -0.002764 0.000000 0.000000 0.000000
# 2 -0.001058 0.004661 -0.001156 0.000000 0.000000 0.000000
# 3 -0.002764 -0.001156 0.008786 0.000000 0.000000 0.000000
# 4 0.000000 0.000000 0.000000 0.039665 0.000000 0.000000
# 5 0.000000 0.000000 0.000000 0.000000 0.019716 0.000000
# 6 0.000000 0.000000 0.000000 0.000000 0.000000 -0.000611
#
#
# Mechanical properties :
#
#
# Convention : Reuss Voigt Hill
#
# Bulk Modulus (GPa) = 80.33564 84.83384 82.58474
# Shear Modulus (GPa) = 52.47792 -287.40714 -117.46461
#
# Velocity S-wave (km/s) = 4.60253 -10.77102 -6.88592
# Velocity P-wave (km/s) = 7.78927 10.97463 5.46671
#
# Compressibility (1/GPa) = 0.01244778
#
# Stress axis : x y z
#
# Youngs Moduli (GPa) = 111.65160 214.55527 113.81504
#
# Poissons Ratio (x) = 0.22697 0.31456
# Poissons Ratio (y) = 0.11811 0.13159
# Poissons Ratio (z) = 0.30858 0.24806
#
# Static dielectric constant tensor:
#      x y z
#    x 2.075660 0.000000 0.000000 
#    y 0.000000 2.030890 0.000000 
#    z 0.000000 0.000000 2.056640 
# 
# From -- ./inp_files/391.got.cif
#   From: 2010.05.17/outbox.cif.g08.bks.cpg/sg17_1_cif.got.tgz:391.got - 2010.06.03 22:34:06.
