data_PCOD9311888
_publ_section_title
;
Structure prediction by ZEFSAII (Michael W. Deem and Ramdas Pophale) SiO2 
 PCOD9311888
Probable space group: P 21 21 2
;
_chemical_formula_sum "Si O2"
_cell_formula_units_Z 26
_cell_length_a 17.623460
_cell_length_b 8.236300
_cell_length_c 9.187024
_cell_angle_alpha 90.000000
_cell_angle_beta 90.000000
_cell_angle_gamma 90.000000
_cell_volume 1333.515859
_symmetry_space_group_name_H-M "P 21 21 2"
_symmetry_group_IT_number 18
_symmetry_cell_setting 'orthorhombic'
loop_
_space_group_symop_operation_xyz
x,y,z
-x,-y,z
1/2+x,1/2-y,-z
1/2-x,1/2+y,-z
loop_
_atom_site_type_symbol
_atom_site_label
_atom_site_fract_x
_atom_site_fract_y
_atom_site_fract_z
Si Si1 0.432497 0.785700 0.360548
Si Si2 0.500000 0.500000 0.165824
Si Si3 0.611005 0.731941 0.035970
Si Si4 0.735152 0.692701 0.280049
Si Si5 0.000000 0.500000 0.391861
Si Si6 0.500000 0.000000 0.135228
Si Si7 0.718019 0.384453 0.462367
Si Si8 0.655545 0.909742 0.758515
O O1 0.474399 0.642296 0.274447
O O2 0.435669 0.929060 0.242536
O O3 0.349788 0.728807 0.406971
O O4 0.476335 0.852077 0.501540
O O5 0.569004 0.560952 0.064506
O O6 0.671241 0.743484 0.166945
O O7 0.542207 0.861643 0.046529
O O8 0.652124 0.779207 0.886965
O O9 0.702665 0.566781 0.403378
O O10 0.769667 0.843608 0.368847
O O11 0.798994 0.577539 0.203638
O O12 0.927762 0.453990 0.296267
O O13 0.795701 0.345380 0.377277
#
# Coordination Sequence:
#
# PCOD9311888 Si02
#       8
#     4   2   4   4   2   2   4   4
#     4  10  19  37  62  94 123 162 216 262 317 376
#     4  10  20  36  66  88 128 164 216 260 320 384
#     4  11  22  43  61  95 131 173 215 260 329 391
#     4  10  23  40  65  93 126 166 216 267 314 388
#     4  11  21  40  66  96 126 168 214 268 328 374
#     4   9  23  32  68  88 126 180 202 262 316 394
#     4  10  21  41  61  97 121 165 213 267 312 377
#     4  10  24  39  64  90 133 162 211 263 323 382
#
# _framework density 19.497330999999999
#
# number of rings (size 3 to 8) (size 9 to 14) (size 15 to 20)
#    0.923    0.923    3.077    0.462    8.615    1.231 
#    0.000    3.846    0.000    0.000    0.000    0.000 
#    0.000    0.000    0.000    0.000    0.000    0.000 
#
# Total GULP energy -144786.465745 kJ/mol
# GULP energy per Si atom -5568.710221 kJ/mol
# Density = 1.945295 g / cm^3
# Si number density = 19.497331 Si / 1000 Ang^3
#
#
#
# Elastic Constant Matrix: (Units=GPa)
#
#
# Indices 1 2 3 4 5 6 
#
# 1 91.8660 15.5380 18.8368 0.0000 0.0000 0.0000
# 2 15.5380 57.4999 30.4976 0.0000 0.0000 0.0000
# 3 18.8368 30.4976 72.3507 0.0000 0.0000 0.0000
# 4 0.0000 0.0000 0.0000 11.5464 0.0000 0.0000
# 5 0.0000 0.0000 0.0000 0.0000 10.4262 0.0000
# 6 0.0000 0.0000 0.0000 0.0000 0.0000 30.5497
#
#
#
# Elastic Compliance Matrix: (Units=1/GPa)
#
#
# Indices 1 2 3 4 5 6 
#
# 1 0.011673 -0.001987 -0.002202 0.000000 0.000000 0.000000
# 2 -0.001987 0.022737 -0.009067 0.000000 0.000000 0.000000
# 3 -0.002202 -0.009067 0.018217 0.000000 0.000000 0.000000
# 4 0.000000 0.000000 0.000000 0.086607 0.000000 0.000000
# 5 0.000000 0.000000 0.000000 0.000000 0.095912 0.000000
# 6 0.000000 0.000000 0.000000 0.000000 0.000000 0.032733
#
#
# Mechanical properties :
#
#
# Convention : Reuss Voigt Hill
#
# Bulk Modulus (GPa) = 38.29039 39.05128 38.67083
# Shear Modulus (GPa) = 16.49643 20.96075 18.72859
#
# Velocity S-wave (km/s) = 2.91191 3.28236 3.10267
# Velocity P-wave (km/s) = 5.56660 5.86837 5.71948
#
# Compressibility (1/GPa) = 0.02611622
#
# Stress axis : x y z
#
# Youngs Moduli (GPa) = 85.66874 43.98063 54.89439
#
# Poissons Ratio (x) = 0.08737 0.12086
# Poissons Ratio (y) = 0.17018 0.49773
# Poissons Ratio (z) = 0.18862 0.39878
#
# Static dielectric constant tensor:
#      x y z
#    x 1.677590 0.000000 0.000000 
#    y 0.000000 1.742090 0.000000 
#    z 0.000000 0.000000 1.680600 
# 
# From -- ./inp_files/3351.got.cif
#   From: 2010.05.17/outbox.cif.g08.bks.cpg/sg18_2_cif.got.tgz:3351.got - 2010.06.03 22:40:56.
