data_PCOD9311464
_publ_section_title
;
Structure prediction by ZEFSAII (Michael W. Deem and Ramdas Pophale) SiO2 
 PCOD9311464
Probable space group: P 2 2 21
;
_chemical_formula_sum "Si O2"
_cell_formula_units_Z 24
_cell_length_a 7.429946
_cell_length_b 9.533675
_cell_length_c 13.837730
_cell_angle_alpha 90.000000
_cell_angle_beta 90.000000
_cell_angle_gamma 90.000000
_cell_volume 980.191321
_symmetry_space_group_name_H-M "P 2 2 21"
_symmetry_group_IT_number 17
_symmetry_cell_setting 'orthorhombic'
loop_
_space_group_symop_operation_xyz
x,y,z
-x,-y,1/2+z
x,-y,-z
-x,y,1/2-z
loop_
_atom_site_type_symbol
_atom_site_label
_atom_site_fract_x
_atom_site_fract_y
_atom_site_fract_z
Si Si1 0.500000 0.863660 0.250000
Si Si2 0.990506 0.046296 0.388568
Si Si3 0.608044 0.080017 0.101208
Si Si4 0.860002 0.675771 0.538540
Si Si5 0.212680 0.500000 0.500000
Si Si6 0.492952 0.601290 0.865606
Si Si7 0.151317 0.246758 0.816948
O O1 0.671896 0.765534 0.253174
O O2 0.490514 0.971861 0.162142
O O3 0.915529 0.911663 0.336043
O O4 0.005976 0.000000 0.500000
O O5 0.872250 0.185185 0.395678
O O6 0.191377 0.081364 0.354053
O O7 0.616643 0.000000 0.000000
O O8 0.708877 0.417148 0.408106
O O9 0.457465 0.760425 0.599449
O O10 0.811378 0.703498 0.426279
O O11 0.066203 0.619949 0.527390
O O12 0.356038 0.500979 0.411854
O O13 0.500000 0.596104 0.750000
O O14 0.000000 0.320341 0.750000
#
# Coordination Sequence:
#
# PCOD9311464 Si02
#       7
#     2   4   4   4   2   4   4
#     4  12  22  36  66 108 150 188 226 290 372 466
#     4   9  19  38  67  98 143 186 228 290 367 440
#     4  11  21  39  71 110 150 184 233 301 376 459
#     4  11  25  48  74 102 142 197 249 316 373 443
#     4  12  28  54  78  98 146 200 264 322 368 438
#     4  12  27  50  80 112 145 199 259 322 384 455
#     4  11  23  40  67 109 150 190 237 292 382 460
#
# _framework density 24.485016999999999
#
# number of rings (size 3 to 8) (size 9 to 14) (size 15 to 20)
#    0.000    1.000    4.167    2.500    0.000    3.333 
#    6.000    0.000    1.833    0.000    0.000    0.000 
#    0.000    0.000    0.000    0.000    0.000    0.000 
#
# Total GULP energy -134104.934340 kJ/mol
# GULP energy per Si atom -5587.705597 kJ/mol
# Density = 2.442929 g / cm^3
# Si number density = 24.485017 Si / 1000 Ang^3
#
#
#
# Elastic Constant Matrix: (Units=GPa)
#
#
# Indices 1 2 3 4 5 6 
#
# 1 128.0461 35.5058 27.0956 0.0000 0.0000 0.0000
# 2 35.5058 72.2438 32.1675 0.0000 0.0000 0.0000
# 3 27.0956 32.1675 136.3877 0.0000 0.0000 0.0000
# 4 0.0000 0.0000 0.0000 19.8579 0.0000 0.0000
# 5 0.0000 0.0000 0.0000 0.0000 25.4066 0.0000
# 6 0.0000 0.0000 0.0000 0.0000 0.0000 25.1822
#
#
#
# Elastic Compliance Matrix: (Units=1/GPa)
#
#
# Indices 1 2 3 4 5 6 
#
# 1 0.009128 -0.004110 -0.000844 0.000000 0.000000 0.000000
# 2 -0.004110 0.017317 -0.003268 0.000000 0.000000 0.000000
# 3 -0.000844 -0.003268 0.008270 0.000000 0.000000 0.000000
# 4 0.000000 0.000000 0.000000 0.050358 0.000000 0.000000
# 5 0.000000 0.000000 0.000000 0.000000 0.039360 0.000000
# 6 0.000000 0.000000 0.000000 0.000000 0.000000 0.039711
#
#
# Mechanical properties :
#
#
# Convention : Reuss Voigt Hill
#
# Bulk Modulus (GPa) = 54.73023 58.46840 56.59932
# Shear Modulus (GPa) = 26.78403 30.21659 28.50031
#
# Velocity S-wave (km/s) = 3.31100 3.51677 3.41543
# Velocity P-wave (km/s) = 6.08424 6.35777 6.22251
#
# Compressibility (1/GPa) = 0.01827144
#
# Stress axis : x y z
#
# Youngs Moduli (GPa) = 109.55244 57.74616 120.91296
#
# Poissons Ratio (x) = 0.23736 0.10205
# Poissons Ratio (y) = 0.45030 0.39511
# Poissons Ratio (z) = 0.09246 0.18870
#
# Static dielectric constant tensor:
#      x y z
#    x 1.984210 0.000000 0.000000 
#    y 0.000000 1.987450 0.000000 
#    z 0.000000 0.000000 1.915740 
# 
# From -- ./inp_files/7764.got.cif
#   From: 2010.05.17/outbox.cif.g08.bks.cpg/sg17_4_cif.got.tgz:7764.got - 2010.06.03 22:34:06.
