data_PCOD9311205
_publ_section_title
;
Structure prediction by ZEFSAII (Michael W. Deem and Ramdas Pophale) SiO2 
 PCOD9311205
Probable space group: P 2 2 21
;
_chemical_formula_sum "Si O2"
_cell_formula_units_Z 20
_cell_length_a 8.162300
_cell_length_b 12.302387
_cell_length_c 10.294680
_cell_angle_alpha 90.000000
_cell_angle_beta 90.000000
_cell_angle_gamma 90.000000
_cell_volume 1033.748254
_symmetry_space_group_name_H-M "P 2 2 21"
_symmetry_group_IT_number 17
_symmetry_cell_setting 'orthorhombic'
loop_
_space_group_symop_operation_xyz
x,y,z
-x,-y,1/2+z
x,-y,-z
-x,y,1/2-z
loop_
_atom_site_type_symbol
_atom_site_label
_atom_site_fract_x
_atom_site_fract_y
_atom_site_fract_z
Si Si1 0.184322 0.727961 0.718109
Si Si2 0.615363 0.000000 0.000000
Si Si3 0.500000 0.879566 0.750000
Si Si4 0.500000 0.654564 0.250000
Si Si5 0.266576 0.770088 0.426558
Si Si6 0.000000 0.666245 0.250000
Si Si7 0.225729 0.503629 0.144288
O O1 0.335993 0.805520 0.759011
O O2 0.212922 0.716224 0.562945
O O3 0.197824 0.613195 0.792834
O O4 0.000000 0.770067 0.750000
O O5 0.514414 0.047204 0.121351
O O6 0.721224 0.898179 0.048929
O O7 0.442102 0.727938 0.371650
O O8 0.350852 0.573573 0.227505
O O9 0.135972 0.740356 0.316405
O O10 0.066911 0.581325 0.142703
O O11 0.293721 0.500000 0.000000
#
# Coordination Sequence:
#
# PCOD9311205 Si02
#       7
#     4   2   2   2   4   2   4
#     4  11  23  43  68 100 135 178 228 273 339 417
#     4  10  22  46  68  94 130 176 230 280 348 380
#     4  10  24  44  72  96 138 180 226 296 334 408
#     4  10  24  36  64  92 132 176 216 270 330 406
#     4  10  23  44  65  93 134 172 227 282 335 401
#     4  10  22  40  62  94 130 166 210 274 324 402
#     4  11  23  36  61  95 130 174 208 261 335 400
#
# _framework density 19.347071
#
# number of rings (size 3 to 8) (size 9 to 14) (size 15 to 20)
#    0.000    1.600    1.000    2.400    8.400    1.600 
#   10.800    1.000    0.000    0.000    0.000    0.000 
#    0.000    0.000    0.000    0.000    0.000    0.000 
#
# Total GULP energy -111503.382896 kJ/mol
# GULP energy per Si atom -5575.169145 kJ/mol
# Density = 1.930304 g / cm^3
# Si number density = 19.347071 Si / 1000 Ang^3
#
#
#
# Elastic Constant Matrix: (Units=GPa)
#
#
# Indices 1 2 3 4 5 6 
#
# 1 93.4046 44.3440 29.4617 0.0000 0.0000 0.0000
# 2 44.3440 119.4122 48.6454 0.0000 0.0000 0.0000
# 3 29.4617 48.6454 99.9144 0.0000 0.0000 0.0000
# 4 0.0000 0.0000 0.0000 -248.5579 0.0000 0.0000
# 5 0.0000 0.0000 0.0000 0.0000 32.8271 0.0000
# 6 0.0000 0.0000 0.0000 0.0000 0.0000 14.0156
#
#
#
# Elastic Compliance Matrix: (Units=1/GPa)
#
#
# Indices 1 2 3 4 5 6 
#
# 1 0.013277 -0.004161 -0.001889 0.000000 0.000000 0.000000
# 2 -0.004161 0.011750 -0.004494 0.000000 0.000000 0.000000
# 3 -0.001889 -0.004494 0.012754 0.000000 0.000000 0.000000
# 4 0.000000 0.000000 0.000000 -0.004023 0.000000 0.000000
# 5 0.000000 0.000000 0.000000 0.000000 0.030463 0.000000
# 6 0.000000 0.000000 0.000000 0.000000 0.000000 0.071349
#
#
# Mechanical properties :
#
#
# Convention : Reuss Voigt Hill
#
# Bulk Modulus (GPa) = 59.90527 61.95925 60.93226
# Shear Modulus (GPa) = 30.82188 -27.65770 1.58209
#
# Velocity S-wave (km/s) = 3.99570 -3.78505 0.90527
# Velocity P-wave (km/s) = 7.23313 3.60452 5.71449
#
# Compressibility (1/GPa) = 0.01669302
#
# Stress axis : x y z
#
# Youngs Moduli (GPa) = 75.31567 85.10463 78.40921
#
# Poissons Ratio (x) = 0.35412 0.14814
# Poissons Ratio (y) = 0.31339 0.35236
# Poissons Ratio (z) = 0.14229 0.38245
#
# Static dielectric constant tensor:
#      x y z
#    x 3.338750 0.000000 0.000000 
#    y 0.000000 1.642240 0.000000 
#    z 0.000000 0.000000 1.807340 
# 
# From -- ./inp_files/4100.got.cif
#   From: 2010.05.17/outbox.cif.g08.bks.cpg/sg17_3_cif.got.tgz:4100.got - 2010.06.03 22:34:06.
