data_PCOD9311173
_publ_section_title
;
Structure prediction by ZEFSAII (Michael W. Deem and Ramdas Pophale) SiO2 
 PCOD9311173
Probable space group: P 2 2 21
;
_chemical_formula_sum "Si O2"
_cell_formula_units_Z 30
_cell_length_a 11.842215
_cell_length_b 14.310397
_cell_length_c 8.555479
_cell_angle_alpha 90.000000
_cell_angle_beta 90.000000
_cell_angle_gamma 90.000000
_cell_volume 1449.869632
_symmetry_space_group_name_H-M "P 2 2 21"
_symmetry_group_IT_number 17
_symmetry_cell_setting 'orthorhombic'
loop_
_space_group_symop_operation_xyz
x,y,z
-x,-y,1/2+z
x,-y,-z
-x,y,1/2-z
loop_
_atom_site_type_symbol
_atom_site_label
_atom_site_fract_x
_atom_site_fract_y
_atom_site_fract_z
Si Si1 0.369093 0.219829 0.291475
Si Si2 0.323703 0.380983 0.869578
Si Si3 0.500000 0.746396 0.250000
Si Si4 0.700259 0.130281 0.880281
Si Si5 0.930622 0.584048 0.899487
Si Si6 0.290055 0.423992 0.224225
Si Si7 0.372737 0.962602 0.823063
Si Si8 0.876148 0.278618 0.825483
O O1 0.500000 0.231206 0.250000
O O2 0.338110 0.158703 0.444395
O O3 0.326342 0.325811 0.300798
O O4 0.327139 0.144212 0.163635
O O5 0.438621 0.320183 0.876070
O O6 0.358622 0.479622 0.790319
O O7 0.221992 0.332739 0.772416
O O8 0.275255 0.396740 0.042532
O O9 0.398055 0.812739 0.293511
O O10 0.694440 0.028940 0.799238
O O11 0.821282 0.177611 0.854125
O O12 0.819089 0.543428 0.818929
O O13 0.000000 0.617343 0.750000
O O14 0.986031 0.500000 0.000000
O O15 0.896168 0.666205 0.014053
O O16 0.500000 0.961257 0.750000
O O17 0.377222 0.000000 0.000000
O O18 0.000000 0.275827 0.750000
#
# Coordination Sequence:
#
# PCOD9311173 Si02
#       8
#     4   4   2   4   4   4   4   4
#     4  11  23  38  63  94 131 171 213 270 330 401
#     4  10  23  39  61  90 134 176 217 267 317 395
#     4  10  22  38  62  90 128 176 208 256 330 390
#     4  11  22  41  66  94 132 164 216 273 331 408
#     4  12  24  40  63  91 126 170 227 280 326 382
#     4  11  23  39  58  93 127 170 221 260 328 391
#     4  11  23  39  66  96 127 166 215 275 338 403
#     4  11  23  42  65  91 126 173 217 269 330 386
#
# _framework density 20.691514999999999
#
# number of rings (size 3 to 8) (size 9 to 14) (size 15 to 20)
#    0.000    1.067    3.333    4.000    6.533    0.000 
#    0.000    0.000    0.000    2.400    0.000    0.000 
#    0.000    0.000    0.000    0.000    0.000    0.000 
#
# Total GULP energy -167070.870934 kJ/mol
# GULP energy per Si atom -5569.029031 kJ/mol
# Density = 2.064442 g / cm^3
# Si number density = 20.691515 Si / 1000 Ang^3
#
#
#
# Elastic Constant Matrix: (Units=GPa)
#
#
# Indices 1 2 3 4 5 6 
#
# 1 60.9039 19.7821 11.1758 0.0000 0.0000 0.0000
# 2 19.7821 96.6625 -7.6192 0.0000 0.0000 0.0000
# 3 11.1758 -7.6192 54.4799 0.0000 0.0000 0.0000
# 4 0.0000 0.0000 0.0000 11.2791 0.0000 0.0000
# 5 0.0000 0.0000 0.0000 0.0000 14.5667 0.0000
# 6 0.0000 0.0000 0.0000 0.0000 0.0000 20.8375
#
#
#
# Elastic Compliance Matrix: (Units=1/GPa)
#
#
# Indices 1 2 3 4 5 6 
#
# 1 0.018572 -0.004147 -0.004390 0.000000 0.000000 0.000000
# 2 -0.004147 0.011386 0.002443 0.000000 0.000000 0.000000
# 3 -0.004390 0.002443 0.019598 0.000000 0.000000 0.000000
# 4 0.000000 0.000000 0.000000 0.088660 0.000000 0.000000
# 5 0.000000 0.000000 0.000000 0.000000 0.068650 0.000000
# 6 0.000000 0.000000 0.000000 0.000000 0.000000 0.047990
#
#
# Mechanical properties :
#
#
# Convention : Reuss Voigt Hill
#
# Bulk Modulus (GPa) = 26.76007 28.74708 27.75357
# Shear Modulus (GPa) = 17.88919 21.91717 19.90318
#
# Velocity S-wave (km/s) = 2.94354 3.25812 3.10482
# Velocity P-wave (km/s) = 4.95111 5.29878 5.12790
#
# Compressibility (1/GPa) = 0.03736911
#
# Stress axis : x y z
#
# Youngs Moduli (GPa) = 53.84537 87.82350 51.02676
#
# Poissons Ratio (x) = 0.36418 0.22399
# Poissons Ratio (y) = 0.22328 -0.12466
# Poissons Ratio (z) = 0.23636 -0.21456
#
# Static dielectric constant tensor:
#      x y z
#    x 1.743940 0.000000 0.000000 
#    y 0.000000 1.830440 0.000000 
#    z 0.000000 0.000000 1.735800 
# 
# From -- ./inp_files/4899.got.cif
#   From: 2010.05.17/outbox.cif.g08.bks.cpg/sg17_3_cif.got.tgz:4899.got - 2010.06.03 22:34:06.
