data_PCOD9311781
_publ_section_title
;
Structure prediction by ZEFSAII (Michael W. Deem and Ramdas Pophale) SiO2 
 PCOD9311781
Probable space group: P 21 21 2
;
_chemical_formula_sum "Si O2"
_cell_formula_units_Z 32
_cell_length_a 18.178238
_cell_length_b 8.522086
_cell_length_c 11.908152
_cell_angle_alpha 90.000000
_cell_angle_beta 90.000000
_cell_angle_gamma 90.000000
_cell_volume 1844.769319
_symmetry_space_group_name_H-M "P 21 21 2"
_symmetry_group_IT_number 18
_symmetry_cell_setting 'orthorhombic'
loop_
_space_group_symop_operation_xyz
x,y,z
-x,-y,z
1/2+x,1/2-y,-z
1/2-x,1/2+y,-z
loop_
_atom_site_type_symbol
_atom_site_label
_atom_site_fract_x
_atom_site_fract_y
_atom_site_fract_z
Si Si1 0.343422 0.203187 0.425276
Si Si2 0.274933 0.430898 0.605925
Si Si3 0.999395 0.813812 0.187822
Si Si4 0.658940 0.380632 0.800355
Si Si5 0.693735 0.675552 0.193846
Si Si6 0.782814 0.369546 0.244143
Si Si7 0.635212 0.691940 0.945991
Si Si8 0.931764 0.384082 0.373888
O O1 0.305881 0.345561 0.495498
O O2 0.352641 0.257378 0.297989
O O3 0.413973 0.158428 0.498493
O O4 0.290008 0.051126 0.422930
O O5 0.332905 0.534410 0.678700
O O6 0.255003 0.284530 0.688025
O O7 0.913561 0.772670 0.190036
O O8 0.051292 0.761224 0.085414
O O9 0.041699 0.761189 0.298979
O O10 0.000000 0.000000 0.184643
O O11 0.732788 0.282114 0.816464
O O12 0.651398 0.521167 0.890485
O O13 0.722875 0.502746 0.225607
O O14 0.651997 0.684082 0.076419
O O15 0.813437 0.310792 0.124177
O O16 0.853532 0.430861 0.316587
O O17 0.000000 0.500000 0.364529
#
# Coordination Sequence:
#
# PCOD9311781 Si02
#       8
#     4   4   4   4   4   4   4   4
#     4  10  19  31  49  72 102 132 159 201 254 299
#     4   9  18  32  50  76  99 123 165 211 248 285
#     4   9  17  32  53  73  95 124 163 211 248 280
#     4   9  18  32  53  74  94 127 170 210 245 282
#     4  11  19  30  51  75 102 133 162 197 252 304
#     4   9  18  32  50  74  98 125 167 212 243 283
#     4   9  18  31  49  74 103 127 160 208 251 291
#     4  10  19  32  50  72  97 127 165 206 246 290
#
# _framework density 17.346342
#
# number of rings (size 3 to 8) (size 9 to 14) (size 15 to 20)
#    0.000    2.500    0.000    5.250    0.000    1.000 
#    0.000    1.250    0.000   20.250    0.000    0.000 
#    0.000    0.000    0.000    0.000    0.000    0.000 
#
# Total GULP energy -178233.282244 kJ/mol
# GULP energy per Si atom -5569.790070 kJ/mol
# Density = 1.730686 g / cm^3
# Si number density = 17.346342 Si / 1000 Ang^3
#
#
#
# Elastic Constant Matrix: (Units=GPa)
#
#
# Indices 1 2 3 4 5 6 
#
# 1 56.7322 18.1245 34.7369 0.0000 0.0000 0.0000
# 2 18.1245 43.0946 21.7621 0.0000 0.0000 0.0000
# 3 34.7369 21.7621 128.2697 0.0000 0.0000 0.0000
# 4 0.0000 0.0000 0.0000 15.4236 0.0000 0.0000
# 5 0.0000 0.0000 0.0000 0.0000 10.2897 0.0000
# 6 0.0000 0.0000 0.0000 0.0000 0.0000 18.8370
#
#
#
# Elastic Compliance Matrix: (Units=1/GPa)
#
#
# Indices 1 2 3 4 5 6 
#
# 1 0.022974 -0.007131 -0.005012 0.000000 0.000000 0.000000
# 2 -0.007131 0.027593 -0.002750 0.000000 0.000000 0.000000
# 3 -0.005012 -0.002750 0.009620 0.000000 0.000000 0.000000
# 4 0.000000 0.000000 0.000000 0.064836 0.000000 0.000000
# 5 0.000000 0.000000 0.000000 0.000000 0.097185 0.000000
# 6 0.000000 0.000000 0.000000 0.000000 0.000000 0.053087
#
#
# Mechanical properties :
#
#
# Convention : Reuss Voigt Hill
#
# Bulk Modulus (GPa) = 32.89462 41.92704 37.41083
# Shear Modulus (GPa) = 15.86229 19.14160 17.50195
#
# Velocity S-wave (km/s) = 3.02726 3.32549 3.17988
# Velocity P-wave (km/s) = 5.58782 6.24245 5.92418
#
# Compressibility (1/GPa) = 0.03040011
#
# Stress axis : x y z
#
# Youngs Moduli (GPa) = 43.52837 36.24141 103.95169
#
# Poissons Ratio (x) = 0.25845 0.52097
# Poissons Ratio (y) = 0.31041 0.28588
# Poissons Ratio (z) = 0.21815 0.09967
#
# Static dielectric constant tensor:
#      x y z
#    x 1.632460 0.000000 0.000000 
#    y 0.000000 1.607360 0.000000 
#    z 0.000000 0.000000 1.584910 
# 
# From -- ./inp_files/6222.got.cif
#   From: 2010.05.17/outbox.cif.g08.bks.cpg/sg18_4_cif.got.tgz:6222.got - 2010.06.03 22:40:56.
