data_PCOD9311202
_publ_section_title
;
Structure prediction by ZEFSAII (Michael W. Deem and Ramdas Pophale) SiO2 
 PCOD9311202
Probable space group: P 2 2 21
;
_chemical_formula_sum "Si O2"
_cell_formula_units_Z 22
_cell_length_a 12.152907
_cell_length_b 5.749309
_cell_length_c 14.064602
_cell_angle_alpha 90.000000
_cell_angle_beta 90.000000
_cell_angle_gamma 90.000000
_cell_volume 982.705241
_symmetry_space_group_name_H-M "P 2 2 21"
_symmetry_group_IT_number 17
_symmetry_cell_setting 'orthorhombic'
loop_
_space_group_symop_operation_xyz
x,y,z
-x,-y,1/2+z
x,-y,-z
-x,y,1/2-z
loop_
_atom_site_type_symbol
_atom_site_label
_atom_site_fract_x
_atom_site_fract_y
_atom_site_fract_z
Si Si1 0.375483 0.859759 0.099564
Si Si2 0.517139 0.500000 0.000000
Si Si3 0.213732 0.819048 0.269079
Si Si4 0.000000 0.136728 0.250000
Si Si5 0.330406 0.186663 0.384101
Si Si6 0.500000 0.816173 0.750000
Si Si7 0.896158 0.577491 0.897250
O O1 0.273045 0.796016 0.167470
O O2 0.453474 0.027159 0.163522
O O3 0.438333 0.620132 0.076677
O O4 0.352240 0.000000 0.000000
O O5 0.593132 0.715791 0.967455
O O6 0.156883 0.608753 0.324942
O O7 0.111648 0.992132 0.251553
O O8 0.304902 0.932915 0.340262
O O9 0.006690 0.295840 0.342643
O O10 0.393295 0.310028 0.294265
O O11 0.209084 0.259746 0.414844
O O12 0.934128 0.500000 0.000000
#
# Coordination Sequence:
#
# PCOD9311202 Si02
#       7
#     4   2   4   2   4   2   4
#     4  11  25  43  64 100 140 190 228 282 347 419
#     4  12  24  36  68 100 146 188 232 262 342 416
#     4  10  25  47  70  99 144 176 232 300 350 414
#     4  10  24  50  74 100 134 174 234 294 366 410
#     4  10  23  37  64 100 137 179 230 275 331 417
#     4  10  22  40  62  90 146 184 228 276 336 396
#     4  11  24  44  74 105 131 181 232 293 356 425
#
# _framework density 22.387180000000001
#
# number of rings (size 3 to 8) (size 9 to 14) (size 15 to 20)
#    0.000    1.455    2.727    0.545    7.636    5.818 
#    6.545    0.000    0.000    0.000    0.000    0.000 
#    0.000    0.000    0.000    0.000    0.000    0.000 
#
# Total GULP energy -122640.430271 kJ/mol
# GULP energy per Si atom -5574.565012 kJ/mol
# Density = 2.233623 g / cm^3
# Si number density = 22.387180 Si / 1000 Ang^3
#
#
#
# Elastic Constant Matrix: (Units=GPa)
#
#
# Indices 1 2 3 4 5 6 
#
# 1 76.6455 13.4227 43.4774 0.0000 0.0000 0.0000
# 2 13.4227 28.1962 24.0512 0.0000 0.0000 0.0000
# 3 43.4774 24.0512 138.5878 0.0000 0.0000 0.0000
# 4 0.0000 0.0000 0.0000 31.0970 0.0000 0.0000
# 5 0.0000 0.0000 0.0000 0.0000 43.2612 0.0000
# 6 0.0000 0.0000 0.0000 0.0000 0.0000 5.0213
#
#
#
# Elastic Compliance Matrix: (Units=1/GPa)
#
#
# Indices 1 2 3 4 5 6 
#
# 1 0.016242 -0.003974 -0.004406 0.000000 0.000000 0.000000
# 2 -0.003974 0.042600 -0.006146 0.000000 0.000000 0.000000
# 3 -0.004406 -0.006146 0.009665 0.000000 0.000000 0.000000
# 4 0.000000 0.000000 0.000000 0.032157 0.000000 0.000000
# 5 0.000000 0.000000 0.000000 0.000000 0.023115 0.000000
# 6 0.000000 0.000000 0.000000 0.000000 0.000000 0.199152
#
#
# Mechanical properties :
#
#
# Convention : Reuss Voigt Hill
#
# Bulk Modulus (GPa) = 25.34543 45.03690 35.19117
# Shear Modulus (GPa) = 13.69352 26.70778 20.20065
#
# Velocity S-wave (km/s) = 2.47588 3.45772 3.00714
# Velocity P-wave (km/s) = 4.41806 6.00850 5.27358
#
# Compressibility (1/GPa) = 0.03945485
#
# Stress axis : x y z
#
# Youngs Moduli (GPa) = 61.56789 23.47400 103.47144
#
# Poissons Ratio (x) = 0.09328 0.45588
# Poissons Ratio (y) = 0.24466 0.63598
# Poissons Ratio (z) = 0.27126 0.14428
#
# Static dielectric constant tensor:
#      x y z
#    x 1.827410 0.000000 0.000000 
#    y 0.000000 1.913100 0.000000 
#    z 0.000000 0.000000 1.917960 
# 
# From -- ./inp_files/8441.got.cif
#   From: 2010.05.17/outbox.cif.g08.bks.cpg/sg17_5_cif.got.tgz:8441.got - 2010.06.03 22:34:06.
