data_PCOD9311438
_publ_section_title
;
Structure prediction by ZEFSAII (Michael W. Deem and Ramdas Pophale) SiO2 
 PCOD9311438
Probable space group: P 2 2 21
;
_chemical_formula_sum "Si O2"
_cell_formula_units_Z 20
_cell_length_a 5.031044
_cell_length_b 28.444897
_cell_length_c 5.264848
_cell_angle_alpha 90.000000
_cell_angle_beta 90.000000
_cell_angle_gamma 90.000000
_cell_volume 753.439385
_symmetry_space_group_name_H-M "P 2 2 21"
_symmetry_group_IT_number 17
_symmetry_cell_setting 'orthorhombic'
loop_
_space_group_symop_operation_xyz
x,y,z
-x,-y,1/2+z
x,-y,-z
-x,y,1/2-z
loop_
_atom_site_type_symbol
_atom_site_label
_atom_site_fract_x
_atom_site_fract_y
_atom_site_fract_z
Si Si1 0.819140 0.552730 0.497293
Si Si2 0.500000 0.372943 0.250000
Si Si3 0.313708 0.100245 0.499995
Si Si4 0.686529 0.000000 0.000000
Si Si5 0.231279 0.696662 0.417979
Si Si6 0.684117 0.799269 0.999195
O O1 0.701071 0.500000 0.500000
O O2 0.601152 0.592715 0.530611
O O3 0.000000 0.557637 0.250000
O O4 0.000000 0.556377 0.750000
O O5 0.280828 0.337148 0.349000
O O6 0.500000 0.099978 0.750000
O O7 0.165834 0.150471 0.497778
O O8 0.163470 0.050132 0.499833
O O9 0.500000 0.100558 0.250000
O O10 0.500000 0.000131 0.250000
O O11 0.500000 0.698420 0.250000
O O12 0.160806 0.750309 0.492613
O O13 0.000000 0.676490 0.250000
O O14 0.500000 0.800080 0.250000
O O15 0.500000 0.797057 0.750000
#
# Coordination Sequence:
#
# PCOD9311438 Si02
#       6
#     4   2   4   2   4   4
#     4  10  26  50  78 113 154 200 252 308 372 448
#     4  12  28  46  80 110 156 198 258 308 384 442
#     4   8  13  21  41  66 108 156 211 272 346 414
#     4   8  12  18  30  64 102 148 204 270 336 416
#     4  11  27  47  72 107 150 193 251 306 373 444
#     4   9  17  36  57  85 124 177 228 291 356 433
#
# _framework density 26.544937000000001
#
# number of rings (size 3 to 8) (size 9 to 14) (size 15 to 20)
#    0.000    2.400    1.000    0.000    5.600    2.400 
#    0.000    0.000    0.000    0.000    0.000    0.000 
#    0.000   41.600    0.000    0.000    0.000   47.400 
#
# Total GULP energy -112047.526028 kJ/mol
# GULP energy per Si atom -5602.376301 kJ/mol
# Density = 2.648452 g / cm^3
# Si number density = 26.544937 Si / 1000 Ang^3
#
#
#
# Elastic Constant Matrix: (Units=GPa)
#
#
# Indices 1 2 3 4 5 6 
#
# 1 66.1481 27.8998 43.0320 0.0000 0.0000 0.0000
# 2 27.8998 274.8151 26.9315 0.0000 0.0000 0.0000
# 3 43.0320 26.9315 207.3381 0.0000 0.0000 0.0000
# 4 0.0000 0.0000 0.0000 23.8995 0.0000 0.0000
# 5 0.0000 0.0000 0.0000 0.0000 62.4286 0.0000
# 6 0.0000 0.0000 0.0000 0.0000 0.0000 -26.2701
#
#
#
# Elastic Compliance Matrix: (Units=1/GPa)
#
#
# Indices 1 2 3 4 5 6 
#
# 1 0.018056 -0.001485 -0.003555 0.000000 0.000000 0.000000
# 2 -0.001485 0.003808 -0.000186 0.000000 0.000000 0.000000
# 3 -0.003555 -0.000186 0.005585 0.000000 0.000000 0.000000
# 4 0.000000 0.000000 0.000000 0.041842 0.000000 0.000000
# 5 0.000000 0.000000 0.000000 0.000000 0.016018 0.000000
# 6 0.000000 0.000000 0.000000 0.000000 0.000000 -0.038066
#
#
# Mechanical properties :
#
#
# Convention : Reuss Voigt Hill
#
# Bulk Modulus (GPa) = 58.83248 82.66975 70.75111
# Shear Modulus (GPa) = 78.91333 42.04081 60.47707
#
# Velocity S-wave (km/s) = 5.45827 3.98397 4.77832
# Velocity P-wave (km/s) = 7.86989 7.23696 7.56005
#
# Compressibility (1/GPa) = 0.01699741
#
# Stress axis : x y z
#
# Youngs Moduli (GPa) = 55.38243 262.61764 179.05092
#
# Poissons Ratio (x) = 0.38992 0.63646
# Poissons Ratio (y) = 0.08223 0.03338
# Poissons Ratio (z) = 0.19686 0.04896
#
# Static dielectric constant tensor:
#      x y z
#    x 1.928360 0.000000 0.000000 
#    y 0.000000 2.114220 0.000000 
#    z 0.000000 0.000000 1.921660 
# 
# From -- ./inp_files/407.got.cif
#   From: 2010.05.17/outbox.cif.g08.bks.cpg/sg17_1_cif.got.tgz:407.got - 2010.06.03 22:34:06.
