data_PCOD9311421
_publ_section_title
;
Structure prediction by ZEFSAII (Michael W. Deem and Ramdas Pophale) SiO2 
 PCOD9311421
Probable space group: P 2 2 21
;
_chemical_formula_sum "Si O2"
_cell_formula_units_Z 20
_cell_length_a 5.221906
_cell_length_b 9.005607
_cell_length_c 16.225957
_cell_angle_alpha 90.000000
_cell_angle_beta 90.000000
_cell_angle_gamma 90.000000
_cell_volume 763.048883
_symmetry_space_group_name_H-M "P 2 2 21"
_symmetry_group_IT_number 17
_symmetry_cell_setting 'orthorhombic'
loop_
_space_group_symop_operation_xyz
x,y,z
-x,-y,1/2+z
x,-y,-z
-x,y,1/2-z
loop_
_atom_site_type_symbol
_atom_site_label
_atom_site_fract_x
_atom_site_fract_y
_atom_site_fract_z
Si Si1 0.213746 0.263996 0.393262
Si Si2 0.786254 0.236004 0.606738
Si Si3 0.000000 0.900208 0.750000
Si Si4 0.500000 0.899289 0.250000
Si Si5 0.088465 0.500000 0.000000
Si Si6 0.500000 0.600711 0.750000
Si Si7 0.000000 0.599792 0.250000
Si Si8 0.088466 0.000000 0.500000
O O1 0.000156 0.202429 0.330026
O O2 0.095727 0.404634 0.440072
O O3 0.445038 0.306783 0.332987
O O4 0.256521 0.125738 0.454448
O O5 0.554962 0.193217 0.667013
O O6 0.743479 0.374262 0.545552
O O7 0.999845 0.297571 0.669974
O O8 0.904273 0.095366 0.559928
O O9 0.749571 0.999495 0.757600
O O10 0.250429 0.499495 0.757600
#
# Coordination Sequence:
#
# PCOD9311421 Si02
#       8
#     4   4   2   2   2   2   2   2
#     4  11  24  51  87 124 179 225 293 353 442 511
#     4  11  24  51  87 124 179 225 293 353 442 511
#     4  12  26  50  84 124 164 232 282 352 418 542
#     4  12  26  50  88 122 168 232 286 348 422 544
#     4  10  24  50  90 130 180 218 292 374 440 498
#     4  12  26  50  88 122 168 232 286 348 422 544
#     4  12  26  50  84 124 164 232 282 352 418 542
#     4  10  24  50  90 130 180 218 292 374 440 498
#
# _framework density 26.210642
#
# number of rings (size 3 to 8) (size 9 to 14) (size 15 to 20)
#    0.000    0.800    4.000    2.400    0.000    0.000 
#    0.000    6.000    0.000    0.000    0.000    0.000 
#    0.000    0.000    0.000    0.000    0.000    0.000 
#
# Total GULP energy -112258.487070 kJ/mol
# GULP energy per Si atom -5612.924353 kJ/mol
# Density = 2.615099 g / cm^3
# Si number density = 26.210642 Si / 1000 Ang^3
#
#
#
# Elastic Constant Matrix: (Units=GPa)
#
#
# Indices 1 2 3 4 5 6 
#
# 1 193.3771 99.2024 66.0786 0.0000 0.0000 0.0000
# 2 99.2024 210.1815 106.5932 0.0000 0.0000 0.0000
# 3 66.0786 106.5932 166.6615 0.0000 0.0000 0.0000
# 4 0.0000 0.0000 0.0000 94.1017 0.0000 0.0000
# 5 0.0000 0.0000 0.0000 0.0000 50.8603 0.0000
# 6 0.0000 0.0000 0.0000 0.0000 0.0000 44.5172
#
#
#
# Elastic Compliance Matrix: (Units=1/GPa)
#
#
# Indices 1 2 3 4 5 6 
#
# 1 0.006928 -0.002778 -0.000970 0.000000 0.000000 0.000000
# 2 -0.002778 0.008156 -0.004115 0.000000 0.000000 0.000000
# 3 -0.000970 -0.004115 0.009017 0.000000 0.000000 0.000000
# 4 0.000000 0.000000 0.000000 0.010627 0.000000 0.000000
# 5 0.000000 0.000000 0.000000 0.000000 0.019662 0.000000
# 6 0.000000 0.000000 0.000000 0.000000 0.000000 0.022463
#
#
# Mechanical properties :
#
#
# Convention : Reuss Voigt Hill
#
# Bulk Modulus (GPa) = 119.41017 123.77428 121.59222
# Shear Modulus (GPa) = 52.42798 57.78556 55.10677
#
# Velocity S-wave (km/s) = 4.47727 4.70047 4.59023
# Velocity P-wave (km/s) = 8.50792 8.76269 8.63625
#
# Compressibility (1/GPa) = 0.00837450
#
# Stress axis : x y z
#
# Youngs Moduli (GPa) = 144.34699 122.61330 110.90633
#
# Poissons Ratio (x) = 0.34059 0.10759
# Poissons Ratio (y) = 0.40097 0.45637
# Poissons Ratio (z) = 0.14003 0.50454
#
# Static dielectric constant tensor:
#      x y z
#    x 2.010910 0.000000 0.000000 
#    y 0.000000 2.105780 0.000000 
#    z 0.000000 0.000000 2.118270 
# 
# From -- ./inp_files/9004.got.cif
#   From: 2010.05.17/outbox.cif.g08.bks.cpg/sg17_5_cif.got.tgz:9004.got - 2010.06.03 22:34:06.
