data_PCOD9311207
_publ_section_title
;
Structure prediction by ZEFSAII (Michael W. Deem and Ramdas Pophale) SiO2 
 PCOD9311207
Probable space group: P 2 2 21
;
_chemical_formula_sum "Si O2"
_cell_formula_units_Z 22
_cell_length_a 11.700433
_cell_length_b 17.515289
_cell_length_c 5.069950
_cell_angle_alpha 90.000000
_cell_angle_beta 90.000000
_cell_angle_gamma 90.000000
_cell_volume 1039.017633
_symmetry_space_group_name_H-M "P 2 2 21"
_symmetry_group_IT_number 17
_symmetry_cell_setting 'orthorhombic'
loop_
_space_group_symop_operation_xyz
x,y,z
-x,-y,1/2+z
x,-y,-z
-x,y,1/2-z
loop_
_atom_site_type_symbol
_atom_site_label
_atom_site_fract_x
_atom_site_fract_y
_atom_site_fract_z
Si Si1 0.500000 0.744416 0.250000
Si Si2 0.000000 0.314935 0.250000
Si Si3 0.000000 0.576319 0.250000
Si Si4 0.765819 0.231562 0.173314
Si Si5 0.423420 0.000000 0.000000
Si Si6 0.205810 0.500000 0.000000
Si Si7 0.379124 0.632918 0.837540
Si Si8 0.307116 0.149398 0.791092
O O1 0.572386 0.689664 0.437877
O O2 0.589244 0.806515 0.139744
O O3 0.006401 0.369520 0.500149
O O4 0.887158 0.264785 0.259774
O O5 0.115652 0.527572 0.220193
O O6 0.686511 0.308713 0.139890
O O7 0.716927 0.185723 0.423889
O O8 0.786079 0.175686 0.922629
O O9 0.346194 0.064482 0.858923
O O10 0.500000 0.970376 0.750000
O O11 0.287985 0.429947 0.076600
O O12 0.500000 0.595813 0.750000
#
# Coordination Sequence:
#
# PCOD9311207 Si02
#       8
#     2   2   2   4   2   2   4   4
#     4  10  22  40  62  94 140 186 226 278 340 440
#     4  12  25  50  76  98 131 184 262 312 355 442
#     4  12  27  50  68  98 139 186 256 324 377 414
#     4  11  24  44  70 100 135 187 242 297 360 417
#     4  12  24  40  68 112 154 198 224 276 366 450
#     4  12  28  46  66 104 140 198 246 338 370 440
#     4  11  24  44  65 100 141 197 242 298 381 445
#     4  11  23  41  69 102 147 182 228 286 348 439
#
# _framework density 21.173848
#
# number of rings (size 3 to 8) (size 9 to 14) (size 15 to 20)
#    0.000    0.727    4.545    2.727    3.818    0.000 
#    3.273    0.000    0.000    2.182    0.000    0.000 
#    0.000    0.000    0.000    0.000    0.000    0.000 
#
# Total GULP energy -122656.543757 kJ/mol
# GULP energy per Si atom -5575.297444 kJ/mol
# Density = 2.112566 g / cm^3
# Si number density = 21.173848 Si / 1000 Ang^3
#
#
#
# Elastic Constant Matrix: (Units=GPa)
#
#
# Indices 1 2 3 4 5 6 
#
# 1 116.2467 62.5080 8.6130 0.0000 0.0000 0.0000
# 2 62.5080 148.6875 52.2086 0.0000 0.0000 0.0000
# 3 8.6130 52.2086 112.1562 0.0000 0.0000 0.0000
# 4 0.0000 0.0000 0.0000 48.0538 0.0000 0.0000
# 5 0.0000 0.0000 0.0000 0.0000 22.2775 0.0000
# 6 0.0000 0.0000 0.0000 0.0000 0.0000 -100.4486
#
#
#
# Elastic Compliance Matrix: (Units=1/GPa)
#
#
# Indices 1 2 3 4 5 6 
#
# 1 0.011354 -0.005340 0.001614 0.000000 0.000000 0.000000
# 2 -0.005340 0.010551 -0.004501 0.000000 0.000000 0.000000
# 3 0.001614 -0.004501 0.010888 0.000000 0.000000 0.000000
# 4 0.000000 0.000000 0.000000 0.020810 0.000000 0.000000
# 5 0.000000 0.000000 0.000000 0.000000 0.044888 0.000000
# 6 0.000000 0.000000 0.000000 0.000000 0.000000 -0.009955
#
#
# Mechanical properties :
#
#
# Convention : Reuss Voigt Hill
#
# Bulk Modulus (GPa) = 61.20806 69.30551 65.25679
# Shear Modulus (GPa) = 45.27476 10.89394 28.08435
#
# Velocity S-wave (km/s) = 4.62913 2.27072 3.64589
# Velocity P-wave (km/s) = 7.58564 6.29902 6.97207
#
# Compressibility (1/GPa) = 0.01633772
#
# Stress axis : x y z
#
# Youngs Moduli (GPa) = 88.07302 94.77774 91.84759
#
# Poissons Ratio (x) = 0.50611 -0.14822
# Poissons Ratio (y) = 0.47031 0.41344
# Poissons Ratio (z) = -0.14213 0.42663
#
# Static dielectric constant tensor:
#      x y z
#    x 1.883030 0.000000 0.000000 
#    y 0.000000 1.795000 0.000000 
#    z 0.000000 0.000000 2.221090 
# 
# From -- ./inp_files/1626.got.cif
#   From: 2010.05.17/outbox.cif.g08.bks.cpg/sg17_1_cif.got.tgz:1626.got - 2010.06.03 22:34:06.
