data_PCOD9311720
_publ_section_title
;
Structure prediction by ZEFSAII (Michael W. Deem and Ramdas Pophale) SiO2 
 PCOD9311720
Probable space group: P 21 21 2
;
_chemical_formula_sum "Si O2"
_cell_formula_units_Z 30
_cell_length_a 8.636678
_cell_length_b 8.205131
_cell_length_c 21.146729
_cell_angle_alpha 90.000000
_cell_angle_beta 90.000000
_cell_angle_gamma 90.000000
_cell_volume 1498.564524
_symmetry_space_group_name_H-M "P 21 21 2"
_symmetry_group_IT_number 18
_symmetry_cell_setting 'orthorhombic'
loop_
_space_group_symop_operation_xyz
x,y,z
-x,-y,z
1/2+x,1/2-y,-z
1/2-x,1/2+y,-z
loop_
_atom_site_type_symbol
_atom_site_label
_atom_site_fract_x
_atom_site_fract_y
_atom_site_fract_z
Si Si1 0.316605 0.023449 0.354570
Si Si2 0.500000 0.000000 0.664169
Si Si3 0.891523 0.842558 0.465866
Si Si4 0.100524 0.349412 0.017948
Si Si5 0.658689 0.419224 0.088016
Si Si6 0.948632 0.313321 0.147015
Si Si7 0.086673 0.163979 0.267287
Si Si8 0.807905 0.302366 0.410743
O O1 0.239967 0.120930 0.413720
O O2 0.258551 0.118037 0.291573
O O3 0.500000 0.000000 0.357885
O O4 0.242632 0.843901 0.364954
O O5 0.470059 0.832202 0.701424
O O6 0.662605 0.965941 0.627929
O O7 0.810460 0.801634 0.531451
O O8 0.019202 0.719252 0.439600
O O9 0.000000 0.000000 0.474827
O O10 0.244947 0.435706 0.053231
O O11 0.000000 0.500000 0.991218
O O12 0.002032 0.274106 0.075704
O O13 0.132445 0.216961 0.965445
O O14 0.500000 0.500000 0.110801
O O15 0.763257 0.333411 0.142161
O O16 0.000000 0.500000 0.160326
O O17 0.034964 0.194759 0.195148
O O18 0.000000 0.000000 0.289830
#
# Coordination Sequence:
#
# PCOD9311720 Si02
#       8
#     4   2   4   4   4   4   4   4
#     4  11  23  42  64  93 133 168 218 282 327 396
#     4  12  24  40  74  88 128 176 218 262 336 378
#     4  10  22  37  61  97 133 169 216 266 337 410
#     4   9  19  34  57  93 133 169 212 257 333 393
#     4  10  18  34  59  93 134 164 212 272 322 389
#     4   9  21  38  63  89 123 176 216 266 324 398
#     4  12  23  46  68  92 125 174 233 266 322 410
#     4  11  23  39  64  99 132 171 213 269 339 392
#
# _framework density 20.019158999999998
#
# number of rings (size 3 to 8) (size 9 to 14) (size 15 to 20)
#    0.000    1.867    3.333    2.800    4.667    2.667 
#    0.000    2.667    0.000    3.200    0.000    0.000 
#    0.000    0.000    0.000    0.000    0.000    0.000 
#
# Total GULP energy -167111.625297 kJ/mol
# GULP energy per Si atom -5570.387510 kJ/mol
# Density = 1.997359 g / cm^3
# Si number density = 20.019159 Si / 1000 Ang^3
#
#
#
# Elastic Constant Matrix: (Units=GPa)
#
#
# Indices 1 2 3 4 5 6 
#
# 1 126.3951 26.1182 48.9001 0.0000 0.0000 0.0000
# 2 26.1182 77.1357 36.1977 0.0000 0.0000 0.0000
# 3 48.9001 36.1977 72.2796 0.0000 0.0000 0.0000
# 4 0.0000 0.0000 0.0000 22.5328 0.0000 0.0000
# 5 0.0000 0.0000 0.0000 0.0000 12.4864 0.0000
# 6 0.0000 0.0000 0.0000 0.0000 0.0000 10.3238
#
#
#
# Elastic Compliance Matrix: (Units=1/GPa)
#
#
# Indices 1 2 3 4 5 6 
#
# 1 0.010722 -0.000296 -0.007106 0.000000 0.000000 0.000000
# 2 -0.000296 0.016955 -0.008291 0.000000 0.000000 0.000000
# 3 -0.007106 -0.008291 0.022794 0.000000 0.000000 0.000000
# 4 0.000000 0.000000 0.000000 0.044380 0.000000 0.000000
# 5 0.000000 0.000000 0.000000 0.000000 0.080087 0.000000
# 6 0.000000 0.000000 0.000000 0.000000 0.000000 0.096864
#
#
# Mechanical properties :
#
#
# Convention : Reuss Voigt Hill
#
# Bulk Modulus (GPa) = 52.39289 55.36025 53.87657
# Shear Modulus (GPa) = 16.15251 20.04156 18.09703
#
# Velocity S-wave (km/s) = 2.84360 3.16748 3.00990
# Velocity P-wave (km/s) = 6.08355 6.41022 6.24902
#
# Compressibility (1/GPa) = 0.01908656
#
# Stress axis : x y z
#
# Youngs Moduli (GPa) = 93.26729 58.97944 43.87034
#
# Poissons Ratio (x) = 0.01746 0.31172
# Poissons Ratio (y) = 0.02761 0.36372
# Poissons Ratio (z) = 0.66272 0.48899
#
# Static dielectric constant tensor:
#      x y z
#    x 1.749410 0.000000 0.000000 
#    y 0.000000 1.739870 0.000000 
#    z 0.000000 0.000000 1.769780 
# 
# From -- ./inp_files/7544.got.cif
#   From: 2010.05.17/outbox.cif.g08.bks.cpg/sg18_4_cif.got.tgz:7544.got - 2010.06.03 22:40:56.
