data_PCOD9311188
_publ_section_title
;
Structure prediction by ZEFSAII (Michael W. Deem and Ramdas Pophale) SiO2 
 PCOD9311188
Probable space group: P 2 2 21
;
_chemical_formula_sum "Si O2"
_cell_formula_units_Z 20
_cell_length_a 5.339725
_cell_length_b 5.187913
_cell_length_c 30.352736
_cell_angle_alpha 90.000000
_cell_angle_beta 90.000000
_cell_angle_gamma 90.000000
_cell_volume 840.832365
_symmetry_space_group_name_H-M "P 2 2 21"
_symmetry_group_IT_number 17
_symmetry_cell_setting 'orthorhombic'
loop_
_space_group_symop_operation_xyz
x,y,z
-x,-y,1/2+z
x,-y,-z
-x,y,1/2-z
loop_
_atom_site_type_symbol
_atom_site_label
_atom_site_fract_x
_atom_site_fract_y
_atom_site_fract_z
Si Si1 0.168699 0.217610 0.870926
Si Si2 0.862646 0.256049 0.030524
Si Si3 0.633628 0.078843 0.448997
Si Si4 0.066845 0.728388 0.664884
Si Si5 0.425238 0.081192 0.201547
O O1 0.299365 0.159070 0.917536
O O2 0.972957 0.983533 0.864479
O O3 0.371815 0.151060 0.832761
O O4 0.019556 0.475639 0.861021
O O5 0.134079 0.273727 0.052169
O O6 0.627749 0.212860 0.062389
O O7 0.812721 0.500000 0.000000
O O8 0.884907 0.000000 0.000000
O O9 0.606557 0.000000 0.500000
O O10 0.345553 0.743966 0.683887
O O11 0.841654 0.769813 0.700788
O O12 0.500000 0.991238 0.250000
#
# Coordination Sequence:
#
# PCOD9311188 Si02
#       5
#     4   4   4   4   4
#     4  10  26  43  69 101 138 181 228 290 341 419
#     4  10  22  39  60  89 122 168 217 267 320 389
#     4  10  23  42  65  96 133 176 225 275 338 403
#     4  10  25  42  68  99 139 174 228 279 349 414
#     4  10  24  47  69 103 135 182 226 292 349 425
#
# _framework density 23.785958000000001
#
# number of rings (size 3 to 8) (size 9 to 14) (size 15 to 20)
#    1.200    0.800    0.000    1.200    5.600    7.200 
#    3.600    0.000    0.000    0.000    0.000    0.000 
#    0.000    0.000    0.000    0.000    0.000    0.000 
#
# Total GULP energy -111593.824597 kJ/mol
# GULP energy per Si atom -5579.691230 kJ/mol
# Density = 2.373182 g / cm^3
# Si number density = 23.785958 Si / 1000 Ang^3
#
#
#
# Elastic Constant Matrix: (Units=GPa)
#
#
# Indices 1 2 3 4 5 6 
#
# 1 189.0491 27.2776 12.0489 0.0000 0.0000 0.0000
# 2 27.2776 131.5473 27.3517 0.0000 0.0000 0.0000
# 3 12.0489 27.3517 113.3989 0.0000 0.0000 0.0000
# 4 0.0000 0.0000 0.0000 13.3217 0.0000 0.0000
# 5 0.0000 0.0000 0.0000 0.0000 23.6211 0.0000
# 6 0.0000 0.0000 0.0000 0.0000 0.0000 21.6943
#
#
#
# Elastic Compliance Matrix: (Units=1/GPa)
#
#
# Indices 1 2 3 4 5 6 
#
# 1 0.005464 -0.001066 -0.000324 0.000000 0.000000 0.000000
# 2 -0.001066 0.008211 -0.001867 0.000000 0.000000 0.000000
# 3 -0.000324 -0.001867 0.009303 0.000000 0.000000 0.000000
# 4 0.000000 0.000000 0.000000 0.075065 0.000000 0.000000
# 5 0.000000 0.000000 0.000000 0.000000 0.042335 0.000000
# 6 0.000000 0.000000 0.000000 0.000000 0.000000 0.046095
#
#
# Mechanical properties :
#
#
# Convention : Reuss Voigt Hill
#
# Bulk Modulus (GPa) = 60.73405 63.03909 61.88657
# Shear Modulus (GPa) = 25.19206 36.21521 30.70364
#
# Velocity S-wave (km/s) = 3.25793 3.90621 3.59671
# Velocity P-wave (km/s) = 6.30406 6.84871 6.58202
#
# Compressibility (1/GPa) = 0.01646523
#
# Stress axis : x y z
#
# Youngs Moduli (GPa) = 183.01524 121.78677 107.49007
#
# Poissons Ratio (x) = 0.12979 0.03477
# Poissons Ratio (y) = 0.19505 0.20071
# Poissons Ratio (z) = 0.05921 0.22741
#
# Static dielectric constant tensor:
#      x y z
#    x 1.987030 0.000000 0.000000 
#    y 0.000000 1.851200 0.000000 
#    z 0.000000 0.000000 1.945860 
# 
# From -- ./inp_files/11029.got.cif
#   From: 2010.05.17/outbox.cif.g08.bks.cpg/sg17_6_cif.got.tgz:11029.got - 2010.06.03 22:34:06.
