data_PCOD9311122
_publ_section_title
;
Structure prediction by ZEFSAII (Michael W. Deem and Ramdas Pophale) SiO2 
 PCOD9311122
Probable space group: P 2 2 21
;
_chemical_formula_sum "Si O2"
_cell_formula_units_Z 14
_cell_length_a 8.430804
_cell_length_b 8.393214
_cell_length_c 9.449354
_cell_angle_alpha 90.000000
_cell_angle_beta 90.000000
_cell_angle_gamma 90.000000
_cell_volume 668.650861
_symmetry_space_group_name_H-M "P 2 2 21"
_symmetry_group_IT_number 17
_symmetry_cell_setting 'orthorhombic'
loop_
_space_group_symop_operation_xyz
x,y,z
-x,-y,1/2+z
x,-y,-z
-x,y,1/2-z
loop_
_atom_site_type_symbol
_atom_site_label
_atom_site_fract_x
_atom_site_fract_y
_atom_site_fract_z
Si Si1 0.716372 0.513604 0.653954
Si Si2 0.609894 0.000000 0.000000
Si Si3 0.975664 0.500000 0.000000
Si Si4 0.500000 0.781683 0.750000
Si Si5 0.169590 0.228973 0.676068
O O1 0.634180 0.500000 0.500000
O O2 0.899348 0.551941 0.619809
O O3 0.644761 0.656317 0.742527
O O4 0.723656 0.338336 0.720462
O O5 0.725708 0.907459 0.108331
O O6 0.510083 0.113835 0.106342
O O7 0.876664 0.646860 0.053575
O O8 0.000000 0.183762 0.750000
#
# Coordination Sequence:
#
# PCOD9311122 Si02
#       5
#     4   2   2   2   4
#     4   9  22  39  69  90 117 175 218 270 293 380
#     4  12  30  40  64  98 142 174 196 276 336 390
#     4   8  18  38  70  94 114 162 224 272 304 370
#     4  12  28  42  62  96 134 178 216 258 320 396
#     4  10  21  42  66  97 125 165 218 267 328 374
#
# _framework density 20.937685999999999
#
# number of rings (size 3 to 8) (size 9 to 14) (size 15 to 20)
#    0.857    1.143    0.000    1.714    8.000    2.286 
#    0.000    0.000    0.000    0.000    0.000    0.000 
#    0.000    0.000    0.000    0.000    0.000    0.000 
#
# Total GULP energy -78012.660609 kJ/mol
# GULP energy per Si atom -5572.332901 kJ/mol
# Density = 2.089003 g / cm^3
# Si number density = 20.937686 Si / 1000 Ang^3
#
#
#
# Elastic Constant Matrix: (Units=GPa)
#
#
# Indices 1 2 3 4 5 6 
#
# 1 47.2392 27.6288 21.4457 0.0000 0.0000 0.0000
# 2 27.6288 67.9754 37.9755 0.0000 0.0000 0.0000
# 3 21.4457 37.9755 93.0482 0.0000 0.0000 0.0000
# 4 0.0000 0.0000 0.0000 202.7833 0.0000 0.0000
# 5 0.0000 0.0000 0.0000 0.0000 20.4401 0.0000
# 6 0.0000 0.0000 0.0000 0.0000 0.0000 -7.0944
#
#
#
# Elastic Compliance Matrix: (Units=1/GPa)
#
#
# Indices 1 2 3 4 5 6 
#
# 1 0.028164 -0.010131 -0.002357 0.000000 0.000000 0.000000
# 2 -0.010131 0.022700 -0.006930 0.000000 0.000000 0.000000
# 3 -0.002357 -0.006930 0.014118 0.000000 0.000000 0.000000
# 4 0.000000 0.000000 0.000000 0.004931 0.000000 0.000000
# 5 0.000000 0.000000 0.000000 0.000000 0.048923 0.000000
# 6 0.000000 0.000000 0.000000 0.000000 0.000000 -0.140957
#
#
# Mechanical properties :
#
#
# Convention : Reuss Voigt Hill
#
# Bulk Modulus (GPa) = 38.24296 42.48475 40.36385
# Shear Modulus (GPa) = 196.61442 51.30666 123.96054
#
# Velocity S-wave (km/s) = 9.70095 4.95557 7.70279
# Velocity P-wave (km/s) = 11.99094 7.28551 9.92122
#
# Compressibility (1/GPa) = 0.02614860
#
# Stress axis : x y z
#
# Youngs Moduli (GPa) = 35.50655 44.05242 70.82932
#
# Poissons Ratio (x) = 0.44628 0.16691
# Poissons Ratio (y) = 0.35971 0.49082
# Poissons Ratio (z) = 0.08367 0.30527
#
# Static dielectric constant tensor:
#      x y z
#    x 1.690100 0.000000 0.000000 
#    y 0.000000 1.717410 0.000000 
#    z 0.000000 0.000000 1.897470 
# 
# From -- ./inp_files/6149.got.cif
#   From: 2010.05.17/outbox.cif.g08.bks.cpg/sg17_4_cif.got.tgz:6149.got - 2010.06.03 22:34:06.
