data_PCOD9311463
_publ_section_title
;
Structure prediction by ZEFSAII (Michael W. Deem and Ramdas Pophale) SiO2 
 PCOD9311463
Probable space group: P 2 2 21
;
_chemical_formula_sum "Si O2"
_cell_formula_units_Z 30
_cell_length_a 10.937824
_cell_length_b 6.627130
_cell_length_c 20.168494
_cell_angle_alpha 90.000000
_cell_angle_beta 90.000000
_cell_angle_gamma 90.000000
_cell_volume 1461.941152
_symmetry_space_group_name_H-M "P 2 2 21"
_symmetry_group_IT_number 17
_symmetry_cell_setting 'orthorhombic'
loop_
_space_group_symop_operation_xyz
x,y,z
-x,-y,1/2+z
x,-y,-z
-x,y,1/2-z
loop_
_atom_site_type_symbol
_atom_site_label
_atom_site_fract_x
_atom_site_fract_y
_atom_site_fract_z
Si Si1 0.255986 0.645166 0.563187
Si Si2 0.500000 0.513586 0.250000
Si Si3 0.951824 0.973566 0.931697
Si Si4 0.346784 0.180700 0.183251
Si Si5 0.894729 0.352511 0.848110
Si Si6 0.671820 0.143309 0.801422
Si Si7 0.534205 0.066789 0.077406
Si Si8 0.065314 0.293869 0.182877
O O1 0.249471 0.500000 0.500000
O O2 0.170730 0.842976 0.553645
O O3 0.198176 0.522365 0.624252
O O4 0.392352 0.722084 0.575018
O O5 0.433499 0.367709 0.199099
O O6 0.403655 0.659524 0.283886
O O7 0.019684 0.842920 0.877208
O O8 0.928616 0.196535 0.905275
O O9 0.022785 0.000000 0.000000
O O10 0.405365 0.082319 0.116898
O O11 0.209967 0.267336 0.183005
O O12 0.351693 0.024304 0.245071
O O13 0.813778 0.210083 0.800715
O O14 0.012685 0.478480 0.825476
O O15 0.621705 0.066538 0.873031
O O16 0.524878 0.000000 0.000000
O O17 0.000000 0.219684 0.250000
#
# Coordination Sequence:
#
# PCOD9311463 Si02
#       8
#     4   2   4   4   4   4   4   4
#     4  11  21  39  69 107 141 176 232 296 352 419
#     4  12  22  44  76  94 134 188 244 278 366 424
#     4  11  22  42  71  99 141 184 240 293 351 423
#     4  12  26  48  69 102 147 184 242 301 357 439
#     4  11  23  39  71 102 134 181 236 293 358 406
#     4  12  23  44  74 102 136 191 238 294 353 422
#     4  12  24  43  70 109 145 184 230 291 365 430
#     4  11  27  44  66 102 140 189 240 300 356 430
#
# _framework density 20.520662000000002
#
# number of rings (size 3 to 8) (size 9 to 14) (size 15 to 20)
#    0.000    0.533    5.333    3.600    1.867    3.200 
#    0.000    0.000    5.867    0.000    0.000    0.000 
#    0.000    0.000    0.000    0.000    0.000    0.000 
#
# Total GULP energy -167530.903090 kJ/mol
# GULP energy per Si atom -5584.363436 kJ/mol
# Density = 2.047396 g / cm^3
# Si number density = 20.520662 Si / 1000 Ang^3
#
#
#
# Elastic Constant Matrix: (Units=GPa)
#
#
# Indices 1 2 3 4 5 6 
#
# 1 120.2512 38.3738 46.7633 0.0000 0.0000 0.0000
# 2 38.3738 108.6211 55.4950 0.0000 0.0000 0.0000
# 3 46.7633 55.4950 132.6295 0.0000 0.0000 0.0000
# 4 0.0000 0.0000 0.0000 27.0037 0.0000 0.0000
# 5 0.0000 0.0000 0.0000 0.0000 20.1500 0.0000
# 6 0.0000 0.0000 0.0000 0.0000 0.0000 45.6512
#
#
#
# Elastic Compliance Matrix: (Units=1/GPa)
#
#
# Indices 1 2 3 4 5 6 
#
# 1 0.010038 -0.002211 -0.002614 0.000000 0.000000 0.000000
# 2 -0.002211 0.012196 -0.004324 0.000000 0.000000 0.000000
# 3 -0.002614 -0.004324 0.010271 0.000000 0.000000 0.000000
# 4 0.000000 0.000000 0.000000 0.037032 0.000000 0.000000
# 5 0.000000 0.000000 0.000000 0.000000 0.049628 0.000000
# 6 0.000000 0.000000 0.000000 0.000000 0.000000 0.021905
#
#
# Mechanical properties :
#
#
# Convention : Reuss Voigt Hill
#
# Bulk Modulus (GPa) = 70.38430 71.41846 70.90138
# Shear Modulus (GPa) = 30.46863 33.28563 31.87713
#
# Velocity S-wave (km/s) = 3.85746 4.03184 3.94562
# Velocity P-wave (km/s) = 7.36300 7.52018 7.44200
#
# Compressibility (1/GPa) = 0.01420771
#
# Stress axis : x y z
#
# Youngs Moduli (GPa) = 99.62139 81.99205 97.36412
#
# Poissons Ratio (x) = 0.18125 0.25454
# Poissons Ratio (y) = 0.22022 0.42098
# Poissons Ratio (z) = 0.26044 0.35452
#
# Static dielectric constant tensor:
#      x y z
#    x 1.765450 0.000000 0.000000 
#    y 0.000000 1.724300 0.000000 
#    z 0.000000 0.000000 1.776410 
# 
# From -- ./inp_files/10249.got.cif
#   From: 2010.05.17/outbox.cif.g08.bks.cpg/sg17_6_cif.got.tgz:10249.got - 2010.06.03 22:34:06.
