data_PCOD9311845
_publ_section_title
;
Structure prediction by ZEFSAII (Michael W. Deem and Ramdas Pophale) SiO2 
 PCOD9311845
Probable space group: P 21 21 2
;
_chemical_formula_sum "Si O2"
_cell_formula_units_Z 16
_cell_length_a 5.055419
_cell_length_b 18.949771
_cell_length_c 8.961616
_cell_angle_alpha 90.000000
_cell_angle_beta 90.000000
_cell_angle_gamma 90.000000
_cell_volume 858.514141
_symmetry_space_group_name_H-M "P 21 21 2"
_symmetry_group_IT_number 18
_symmetry_cell_setting 'orthorhombic'
loop_
_space_group_symop_operation_xyz
x,y,z
-x,-y,z
1/2+x,1/2-y,-z
1/2-x,1/2+y,-z
loop_
_atom_site_type_symbol
_atom_site_label
_atom_site_fract_x
_atom_site_fract_y
_atom_site_fract_z
Si Si1 0.963967 0.920335 0.073999
Si Si2 0.598607 0.775350 0.414540
Si Si3 0.897964 0.219391 0.920729
Si Si4 0.963673 0.580204 0.718707
O O1 0.675103 0.912025 0.146122
O O2 0.174100 0.911248 0.209503
O O3 0.000000 0.000000 0.017959
O O4 0.026796 0.861353 0.952927
O O5 0.389698 0.737502 0.522217
O O6 0.577619 0.742396 0.249634
O O7 0.525983 0.857809 0.396592
O O8 0.605678 0.235884 0.980674
O O9 0.000000 0.500000 0.661877
#
# Coordination Sequence:
#
# PCOD9311845 Si02
#       4
#     4   4   4   4
#     4  10  19  35  60  89 112 147 201 251 287 335
#     4  12  24  38  58  90 124 156 194 239 298 353
#     4  12  21  38  62  86 117 152 202 243 290 342
#     4  10  20  37  60  85 115 153 199 239 289 354
#
# _framework density 18.636852000000001
#
# number of rings (size 3 to 8) (size 9 to 14) (size 15 to 20)
#    0.000    1.000    5.000    3.000    0.000    0.000 
#    0.000    2.500    0.000    0.000    0.000    0.000 
#    0.000    0.000    0.000    0.000    0.000    0.000 
#
# Total GULP energy -89420.445893 kJ/mol
# GULP energy per Si atom -5588.777868 kJ/mol
# Density = 1.859443 g / cm^3
# Si number density = 18.636852 Si / 1000 Ang^3
#
#
#
# Elastic Constant Matrix: (Units=GPa)
#
#
# Indices 1 2 3 4 5 6 
#
# 1 53.0865 -11.4193 -12.1711 0.0000 0.0000 0.0000
# 2 -11.4193 112.6825 28.2122 0.0000 0.0000 0.0000
# 3 -12.1711 28.2122 45.0998 0.0000 0.0000 0.0000
# 4 0.0000 0.0000 0.0000 23.1899 0.0000 0.0000
# 5 0.0000 0.0000 0.0000 0.0000 20.9815 0.0000
# 6 0.0000 0.0000 0.0000 0.0000 0.0000 26.2436
#
#
#
# Elastic Compliance Matrix: (Units=1/GPa)
#
#
# Indices 1 2 3 4 5 6 
#
# 1 0.020141 0.000807 0.004931 0.000000 0.000000 0.000000
# 2 0.000807 0.010555 -0.006385 0.000000 0.000000 0.000000
# 3 0.004931 -0.006385 0.027498 0.000000 0.000000 0.000000
# 4 0.000000 0.000000 0.000000 0.043122 0.000000 0.000000
# 5 0.000000 0.000000 0.000000 0.000000 0.047661 0.000000
# 6 0.000000 0.000000 0.000000 0.000000 0.000000 0.038104
#
#
# Mechanical properties :
#
#
# Convention : Reuss Voigt Hill
#
# Bulk Modulus (GPa) = 17.57496 24.45694 21.01595
# Shear Modulus (GPa) = 24.11466 27.83280 25.97373
#
# Velocity S-wave (km/s) = 3.60102 3.86868 3.73725
# Velocity P-wave (km/s) = 5.17112 5.75387 5.47026
#
# Compressibility (1/GPa) = 0.05689912
#
# Stress axis : x y z
#
# Youngs Moduli (GPa) = 49.64945 94.74348 36.36645
#
# Poissons Ratio (x) = -0.07642 -0.17932
# Poissons Ratio (y) = -0.04004 0.23220
# Poissons Ratio (z) = -0.24482 0.60493
#
# Static dielectric constant tensor:
#      x y z
#    x 1.632160 0.000000 0.000000 
#    y 0.000000 1.681430 0.000000 
#    z 0.000000 0.000000 1.582230 
# 
# From -- ./inp_files/1936.got.cif
#   From: 2010.05.17/outbox.cif.g08.bks.cpg/sg18_1_cif.got.tgz:1936.got - 2010.06.03 22:40:56.
