data_PCOD9311254
_publ_section_title
;
Structure prediction by ZEFSAII (Michael W. Deem and Ramdas Pophale) SiO2 
 PCOD9311254
Probable space group: P 2 2 21
;
_chemical_formula_sum "Si O2"
_cell_formula_units_Z 32
_cell_length_a 18.301891
_cell_length_b 5.589888
_cell_length_c 14.245623
_cell_angle_alpha 90.000000
_cell_angle_beta 90.000000
_cell_angle_gamma 90.000000
_cell_volume 1457.405881
_symmetry_space_group_name_H-M "P 2 2 21"
_symmetry_group_IT_number 17
_symmetry_cell_setting 'orthorhombic'
loop_
_space_group_symop_operation_xyz
x,y,z
-x,-y,1/2+z
x,-y,-z
-x,y,1/2-z
loop_
_atom_site_type_symbol
_atom_site_label
_atom_site_fract_x
_atom_site_fract_y
_atom_site_fract_z
Si Si1 0.699137 0.578234 0.267410
Si Si2 0.185586 0.198787 0.299478
Si Si3 0.312774 0.062657 0.609794
Si Si4 0.447079 0.486773 0.885790
Si Si5 0.934471 0.504025 0.195181
Si Si6 0.026285 0.243148 0.950778
Si Si7 0.527595 0.982863 0.886446
Si Si8 0.839468 0.810231 0.335978
O O1 0.749223 0.352320 0.245555
O O2 0.682132 0.682417 0.163120
O O3 0.628215 0.532461 0.328907
O O4 0.753497 0.754153 0.327215
O O5 0.122309 0.332602 0.357283
O O6 0.231794 0.017382 0.361527
O O7 0.147848 0.064108 0.212969
O O8 0.388816 0.949818 0.647611
O O9 0.316194 0.000000 0.500000
O O10 0.492726 0.242920 0.861366
O O11 0.484532 0.741275 0.860970
O O12 0.436832 0.500000 0.000000
O O13 0.879415 0.618929 0.269420
O O14 0.000000 0.372907 0.250000
O O15 0.974992 0.712233 0.139205
O O16 0.112619 0.211536 0.928494
O O17 0.018294 0.500000 0.000000
O O18 0.002692 0.000000 0.000000
O O19 0.529003 0.000000 0.000000
#
# Coordination Sequence:
#
# PCOD9311254 Si02
#       8
#     4   4   4   4   4   4   4   4
#     4  10  23  41  63 100 130 178 234 283 337 420
#     4  10  22  42  69  91 131 177 231 273 342 407
#     4  10  23  44  64  95 138 180 229 284 350 409
#     4  10  22  42  67  98 137 177 229 283 345 407
#     4   9  21  42  67  90 130 177 218 273 340 400
#     4  11  26  43  67 105 135 169 227 280 339 413
#     4   9  21  41  67  95 134 180 219 280 346 406
#     4   9  22  43  65  90 134 182 214 279 344 407
#
# _framework density 21.956821999999999
#
# number of rings (size 3 to 8) (size 9 to 14) (size 15 to 20)
#    0.000    2.250    0.000    0.000   12.250    2.000 
#    6.750    0.000    0.000    0.000    0.000    0.000 
#    0.000    0.000    0.000    0.000    0.000    0.000 
#
# Total GULP energy -178142.669283 kJ/mol
# GULP energy per Si atom -5566.958415 kJ/mol
# Density = 2.190685 g / cm^3
# Si number density = 21.956822 Si / 1000 Ang^3
#
#
#
# Elastic Constant Matrix: (Units=GPa)
#
#
# Indices 1 2 3 4 5 6 
#
# 1 117.8942 44.1082 13.9917 0.0000 0.0000 0.0000
# 2 44.1082 104.3798 17.5965 0.0000 0.0000 0.0000
# 3 13.9917 17.5965 49.6842 0.0000 0.0000 0.0000
# 4 0.0000 0.0000 0.0000 6.4068 0.0000 0.0000
# 5 0.0000 0.0000 0.0000 0.0000 -1.2243 0.0000
# 6 0.0000 0.0000 0.0000 0.0000 0.0000 34.7127
#
#
#
# Elastic Compliance Matrix: (Units=1/GPa)
#
#
# Indices 1 2 3 4 5 6 
#
# 1 0.010169 -0.004057 -0.001427 0.000000 0.000000 0.000000
# 2 -0.004057 0.011807 -0.003039 0.000000 0.000000 0.000000
# 3 -0.001427 -0.003039 0.021605 0.000000 0.000000 0.000000
# 4 0.000000 0.000000 0.000000 0.156084 0.000000 0.000000
# 5 0.000000 0.000000 0.000000 0.000000 -0.816766 0.000000
# 6 0.000000 0.000000 0.000000 0.000000 0.000000 0.028808
#
#
# Mechanical properties :
#
#
# Convention : Reuss Voigt Hill
#
# Bulk Modulus (GPa) = 37.68507 47.03902 42.36205
# Shear Modulus (GPa) = -8.89044 21.06315 6.08635
#
# Velocity S-wave (km/s) = -2.01441 3.10062 1.66673
# Velocity P-wave (km/s) = 3.43367 5.85563 4.79992
#
# Compressibility (1/GPa) = 0.02653571
#
# Stress axis : x y z
#
# Youngs Moduli (GPa) = 98.33521 84.69540 46.28476
#
# Poissons Ratio (x) = 0.34358 0.06605
# Poissons Ratio (y) = 0.39892 0.14067
# Poissons Ratio (z) = 0.14033 0.25741
#
# Static dielectric constant tensor:
#      x y z
#    x 1.810020 0.000000 0.000000 
#    y 0.000000 1.916070 0.000000 
#    z 0.000000 0.000000 1.891270 
# 
# From -- ./inp_files/8692.got.cif
#   From: 2010.05.17/outbox.cif.g08.bks.cpg/sg17_5_cif.got.tgz:8692.got - 2010.06.03 22:34:06.
