data_PCOD9311028
_publ_section_title
;
Structure prediction by ZEFSAII (Michael W. Deem and Ramdas Pophale) SiO2 
 PCOD9311028
Probable space group: P 2 2 21
;
_chemical_formula_sum "Si O2"
_cell_formula_units_Z 16
_cell_length_a 16.207810
_cell_length_b 5.101561
_cell_length_c 7.010816
_cell_angle_alpha 90.000000
_cell_angle_beta 90.000000
_cell_angle_gamma 90.000000
_cell_volume 579.690242
_symmetry_space_group_name_H-M "P 2 2 21"
_symmetry_group_IT_number 17
_symmetry_cell_setting 'orthorhombic'
loop_
_space_group_symop_operation_xyz
x,y,z
-x,-y,1/2+z
x,-y,-z
-x,y,1/2-z
loop_
_atom_site_type_symbol
_atom_site_label
_atom_site_fract_x
_atom_site_fract_y
_atom_site_fract_z
Si Si1 0.169199 0.929444 0.223490
Si Si2 0.330800 0.570554 0.276509
Si Si3 0.907836 0.436374 0.276071
Si Si4 0.592164 0.936376 0.776071
O O1 0.250000 0.749999 0.249998
O O2 0.100204 0.730176 0.303637
O O3 0.156937 0.777412 0.696386
O O4 0.160335 0.000000 0.000000
O O5 0.339663 0.500000 0.500000
O O6 0.343063 0.277409 0.196386
O O7 0.399795 0.769821 0.196363
O O8 0.893103 0.500000 0.500000
O O9 0.000000 0.333721 0.250000
O O10 0.500000 0.833724 0.750000
O O11 0.606898 0.000000 0.000000
#
# Coordination Sequence:
#
# PCOD9311028 Si02
#       4
#     4   4   4   4
#     4  10  21  38  59  86 120 157 202 255 309 372
#     4  10  21  38  59  86 120 157 202 255 309 372
#     4  10  21  38  59  86 119 155 200 253 309 372
#     4  10  21  38  59  86 119 155 200 253 309 372
#
# _framework density 27.600949
#
# number of rings (size 3 to 8) (size 9 to 14) (size 15 to 20)
#    0.000    2.000    0.000    3.000    0.000    2.000 
#    0.000    5.000    0.000    0.000    0.000    0.000 
#    0.000    0.000    0.000    0.000    0.000    0.000 
#
# Total GULP energy -89281.215188 kJ/mol
# GULP energy per Si atom -5580.075949 kJ/mol
# Density = 2.753813 g / cm^3
# Si number density = 27.600949 Si / 1000 Ang^3
#
#
#
# Elastic Constant Matrix: (Units=GPa)
#
#
# Indices 1 2 3 4 5 6 
#
# 1 132.0856 79.6067 -28.2923 0.0000 0.0000 0.0000
# 2 79.6067 291.0031 33.6639 0.0000 0.0000 0.0000
# 3 -28.2923 33.6639 99.7334 0.0000 0.0000 0.0000
# 4 0.0000 0.0000 0.0000 -0.8461 0.0000 0.0000
# 5 0.0000 0.0000 0.0000 0.0000 24.2353 0.0000
# 6 0.0000 0.0000 0.0000 0.0000 0.0000 47.7403
#
#
#
# Elastic Compliance Matrix: (Units=1/GPa)
#
#
# Indices 1 2 3 4 5 6 
#
# 1 0.010457 -0.003334 0.004092 0.000000 0.000000 0.000000
# 2 -0.003334 0.004639 -0.002512 0.000000 0.000000 0.000000
# 3 0.004092 -0.002512 0.012035 0.000000 0.000000 0.000000
# 4 0.000000 0.000000 0.000000 -1.181840 0.000000 0.000000
# 5 0.000000 0.000000 0.000000 0.000000 0.041262 0.000000
# 6 0.000000 0.000000 0.000000 0.000000 0.000000 0.020947
#
#
# Mechanical properties :
#
#
# Convention : Reuss Voigt Hill
#
# Bulk Modulus (GPa) = 42.33149 76.97540 59.65344
# Shear Modulus (GPa) = -4.62484 43.41548 19.39532
#
# Velocity S-wave (km/s) = -1.29586 3.97037 2.65373
# Velocity P-wave (km/s) = 3.62371 6.99769 5.57221
#
# Compressibility (1/GPa) = 0.02362307
#
# Stress axis : x y z
#
# Youngs Moduli (GPa) = 95.63427 215.56722 83.08978
#
# Poissons Ratio (x) = 0.71866 -0.33997
# Poissons Ratio (y) = 0.31883 0.20868
# Poissons Ratio (z) = -0.39130 0.54141
#
# Static dielectric constant tensor:
#      x y z
#    x 2.302410 0.000000 0.000000 
#    y 0.000000 2.181290 0.000000 
#    z 0.000000 0.000000 2.248930 
# 
# From -- ./inp_files/5334.got.cif
#   From: 2010.05.17/outbox.cif.g08.bks.cpg/sg17_3_cif.got.tgz:5334.got - 2010.06.03 22:34:06.
