data_PCOD9311162
_publ_section_title
;
Structure prediction by ZEFSAII (Michael W. Deem and Ramdas Pophale) SiO2 
 PCOD9311162
Probable space group: P 2 2 21
;
_chemical_formula_sum "Si O2"
_cell_formula_units_Z 20
_cell_length_a 8.073729
_cell_length_b 10.495806
_cell_length_c 11.522488
_cell_angle_alpha 90.000000
_cell_angle_beta 90.000000
_cell_angle_gamma 90.000000
_cell_volume 976.419012
_symmetry_space_group_name_H-M "P 2 2 21"
_symmetry_group_IT_number 17
_symmetry_cell_setting 'orthorhombic'
loop_
_space_group_symop_operation_xyz
x,y,z
-x,-y,1/2+z
x,-y,-z
-x,y,1/2-z
loop_
_atom_site_type_symbol
_atom_site_label
_atom_site_fract_x
_atom_site_fract_y
_atom_site_fract_z
Si Si1 0.780896 0.257053 0.462306
Si Si2 0.776324 0.478277 0.870252
Si Si3 0.000000 0.317267 0.250000
Si Si4 0.500000 0.079084 0.750000
Si Si5 0.837238 0.768549 0.281291
Si Si6 0.430348 0.000000 0.000000
Si Si7 0.449372 0.500000 0.000000
O O1 0.863176 0.275164 0.587322
O O2 0.659277 0.380121 0.458425
O O3 0.912029 0.247483 0.357919
O O4 0.678909 0.126015 0.475664
O O5 0.850790 0.594943 0.798500
O O6 0.826464 0.352068 0.803088
O O7 0.847075 0.500000 0.000000
O O8 0.578706 0.470326 0.895425
O O9 0.334339 0.159376 0.769284
O O10 0.474918 0.013051 0.623610
O O11 0.000000 0.848884 0.250000
#
# Coordination Sequence:
#
# PCOD9311162 Si02
#       7
#     4   4   2   2   4   2   2
#     4  11  25  45  68  99 142 184 237 296 352 431
#     4  10  22  37  62 104 139 177 226 283 357 417
#     4  12  24  38  66 100 144 176 234 298 350 420
#     4  10  24  46  74 100 140 194 240 298 354 440
#     4  11  21  42  70  98 139 190 236 288 354 430
#     4  10  24  50  70 102 144 186 244 292 356 426
#     4  10  24  40  70 102 136 188 226 290 354 432
#
# _framework density 20.483011000000001
#
# number of rings (size 3 to 8) (size 9 to 14) (size 15 to 20)
#    0.600    0.800    1.000    4.800    1.400    4.000 
#   10.800    1.000    0.000    0.000    0.000    0.000 
#    0.000    0.000    0.000    0.000    0.000    0.000 
#
# Total GULP energy -111404.430354 kJ/mol
# GULP energy per Si atom -5570.221518 kJ/mol
# Density = 2.043639 g / cm^3
# Si number density = 20.483011 Si / 1000 Ang^3
#
#
#
# Elastic Constant Matrix: (Units=GPa)
#
#
# Indices 1 2 3 4 5 6 
#
# 1 112.1631 23.0317 52.4110 0.0000 0.0000 0.0000
# 2 23.0317 71.3981 36.1648 0.0000 0.0000 0.0000
# 3 52.4110 36.1648 188.7325 0.0000 0.0000 0.0000
# 4 0.0000 0.0000 0.0000 34.3787 0.0000 0.0000
# 5 0.0000 0.0000 0.0000 0.0000 39.8112 0.0000
# 6 0.0000 0.0000 0.0000 0.0000 0.0000 -5.5299
#
#
#
# Elastic Compliance Matrix: (Units=1/GPa)
#
#
# Indices 1 2 3 4 5 6 
#
# 1 0.010527 -0.002121 -0.002517 0.000000 0.000000 0.000000
# 2 -0.002121 0.015939 -0.002465 0.000000 0.000000 0.000000
# 3 -0.002517 -0.002465 0.006470 0.000000 0.000000 0.000000
# 4 0.000000 0.000000 0.000000 0.029088 0.000000 0.000000
# 5 0.000000 0.000000 0.000000 0.000000 0.025119 0.000000
# 6 0.000000 0.000000 0.000000 0.000000 0.000000 -0.180834
#
#
# Mechanical properties :
#
#
# Convention : Reuss Voigt Hill
#
# Bulk Modulus (GPa) = 53.39139 66.16763 59.77951
# Shear Modulus (GPa) = -68.26688 31.11106 -18.57791
#
# Velocity S-wave (km/s) = -5.77935 3.90150 -3.01490
# Velocity P-wave (km/s) = 4.29089 7.25737 4.13870
#
# Compressibility (1/GPa) = 0.01872961
#
# Stress axis : x y z
#
# Youngs Moduli (GPa) = 94.99167 62.73977 154.56295
#
# Poissons Ratio (x) = 0.13307 0.38903
# Poissons Ratio (y) = 0.20147 0.38103
# Poissons Ratio (z) = 0.23909 0.15467
#
# Static dielectric constant tensor:
#      x y z
#    x 1.750880 0.000000 0.000000 
#    y 0.000000 1.925530 0.000000 
#    z 0.000000 0.000000 1.788370 
# 
# From -- ./inp_files/6456.got.cif
#   From: 2010.05.17/outbox.cif.g08.bks.cpg/sg17_4_cif.got.tgz:6456.got - 2010.06.03 22:34:06.
