data_PCOD9311537
_publ_section_title
;
Structure prediction by ZEFSAII (Michael W. Deem and Ramdas Pophale) SiO2 
 PCOD9311537
Probable space group: P 2 2 21
;
_chemical_formula_sum "Si O2"
_cell_formula_units_Z 18
_cell_length_a 4.950225
_cell_length_b 13.710973
_cell_length_c 11.287451
_cell_angle_alpha 90.000000
_cell_angle_beta 90.000000
_cell_angle_gamma 90.000000
_cell_volume 766.106404
_symmetry_space_group_name_H-M "P 2 2 21"
_symmetry_group_IT_number 17
_symmetry_cell_setting 'orthorhombic'
loop_
_space_group_symop_operation_xyz
x,y,z
-x,-y,1/2+z
x,-y,-z
-x,y,1/2-z
loop_
_atom_site_type_symbol
_atom_site_label
_atom_site_fract_x
_atom_site_fract_y
_atom_site_fract_z
Si Si1 0.500000 0.553604 0.250000
Si Si2 0.139136 0.033557 0.376953
Si Si3 0.500000 0.109653 0.750000
Si Si4 0.263770 0.725452 0.093178
Si Si5 0.000000 0.594830 0.750000
Si Si6 0.766814 0.744287 0.942436
O O1 0.391248 0.628652 0.150253
O O2 0.250219 0.479564 0.252225
O O3 0.199662 0.146783 0.394215
O O4 0.000000 0.023058 0.250000
O O5 0.001845 0.000000 0.500000
O O6 0.386432 0.959667 0.353881
O O7 0.696223 0.184086 0.681762
O O8 0.452131 0.736562 0.976481
O O9 0.949753 0.726077 0.059360
O O10 0.900235 0.667860 0.853084
#
# Coordination Sequence:
#
# PCOD9311537 Si02
#       6
#     2   4   2   4   2   4
#     4  11  26  47  76 106 140 193 252 315 388 464
#     4  12  26  46  75 111 154 211 253 317 390 467
#     4  11  26  43  74 104 154 197 262 307 386 462
#     4  11  26  48  73 105 146 196 254 315 379 463
#     4  12  26  46  72 108 146 188 248 320 388 456
#     4  12  26  46  72 107 149 195 246 318 383 458
#
# _framework density 23.495431
#
# number of rings (size 3 to 8) (size 9 to 14) (size 15 to 20)
#    0.000    0.444    3.333    4.000    3.111    8.889 
#    0.000    0.000    0.000    0.000    0.000    0.000 
#    0.000    0.000    0.000    0.000    0.000    0.000 
#
# Total GULP energy -100493.826169 kJ/mol
# GULP energy per Si atom -5582.990343 kJ/mol
# Density = 2.344195 g / cm^3
# Si number density = 23.495431 Si / 1000 Ang^3
#
#
#
# Elastic Constant Matrix: (Units=GPa)
#
#
# Indices 1 2 3 4 5 6 
#
# 1 107.3106 45.2989 10.3753 0.0000 0.0000 0.0000
# 2 45.2989 207.3449 57.9500 0.0000 0.0000 0.0000
# 3 10.3753 57.9500 101.5054 0.0000 0.0000 0.0000
# 4 0.0000 0.0000 0.0000 28.7957 0.0000 0.0000
# 5 0.0000 0.0000 0.0000 0.0000 22.8755 0.0000
# 6 0.0000 0.0000 0.0000 0.0000 0.0000 -213.1054
#
#
#
# Elastic Compliance Matrix: (Units=1/GPa)
#
#
# Indices 1 2 3 4 5 6 
#
# 1 0.010272 -0.002321 0.000275 0.000000 0.000000 0.000000
# 2 -0.002321 0.006263 -0.003338 0.000000 0.000000 0.000000
# 3 0.000275 -0.003338 0.011729 0.000000 0.000000 0.000000
# 4 0.000000 0.000000 0.000000 0.034727 0.000000 0.000000
# 5 0.000000 0.000000 0.000000 0.000000 0.043715 0.000000
# 6 0.000000 0.000000 0.000000 0.000000 0.000000 -0.004693
#
#
# Mechanical properties :
#
#
# Convention : Reuss Voigt Hill
#
# Bulk Modulus (GPa) = 57.15614 71.48991 64.32303
# Shear Modulus (GPa) = 42.15334 -12.11773 15.01781
#
# Velocity S-wave (km/s) = 4.24029 -2.27347 2.53094
# Velocity P-wave (km/s) = 6.95361 4.85815 5.99810
#
# Compressibility (1/GPa) = 0.01749593
#
# Stress axis : x y z
#
# Youngs Moduli (GPa) = 97.35294 159.66867 85.25558
#
# Poissons Ratio (x) = 0.37059 -0.02346
# Poissons Ratio (y) = 0.22596 0.28461
# Poissons Ratio (z) = -0.02679 0.53303
#
# Static dielectric constant tensor:
#      x y z
#    x 1.911320 0.000000 0.000000 
#    y 0.000000 1.883070 0.000000 
#    z 0.000000 0.000000 1.970940 
# 
# From -- ./inp_files/5839.got.cif
#   From: 2010.05.17/outbox.cif.g08.bks.cpg/sg17_3_cif.got.tgz:5839.got - 2010.06.03 22:34:06.
