data_PCOD9311448
_publ_section_title
;
Structure prediction by ZEFSAII (Michael W. Deem and Ramdas Pophale) SiO2 
 PCOD9311448
Probable space group: P 2 2 21
;
_chemical_formula_sum "Si O2"
_cell_formula_units_Z 24
_cell_length_a 9.361290
_cell_length_b 10.402276
_cell_length_c 11.543219
_cell_angle_alpha 90.000000
_cell_angle_beta 90.000000
_cell_angle_gamma 90.000000
_cell_volume 1124.063917
_symmetry_space_group_name_H-M "P 2 2 21"
_symmetry_group_IT_number 17
_symmetry_cell_setting 'orthorhombic'
loop_
_space_group_symop_operation_xyz
x,y,z
-x,-y,1/2+z
x,-y,-z
-x,y,1/2-z
loop_
_atom_site_type_symbol
_atom_site_label
_atom_site_fract_x
_atom_site_fract_y
_atom_site_fract_z
Si Si1 0.834980 0.255222 0.750791
Si Si2 0.951420 0.219156 0.366028
Si Si3 0.298474 0.138656 0.971428
Si Si4 0.790332 0.649461 0.996278
Si Si5 0.782845 0.475958 0.365668
Si Si6 0.487531 0.673308 0.876685
O O1 0.740605 0.171499 0.661209
O O2 0.775777 0.280626 0.879394
O O3 0.835232 0.399203 0.698876
O O4 0.000000 0.209640 0.750000
O O5 0.848221 0.146822 0.454236
O O6 0.861641 0.346030 0.327439
O O7 0.000000 0.147198 0.250000
O O8 0.089643 0.269543 0.431450
O O9 0.400886 0.244878 0.028606
O O10 0.361888 0.000000 0.000000
O O11 0.838034 0.500000 0.000000
O O12 0.642345 0.646315 0.926803
O O13 0.813849 0.500000 0.500000
O O14 0.613374 0.450592 0.354421
O O15 0.500000 0.738391 0.750000
#
# Coordination Sequence:
#
# PCOD9311448 Si02
#       6
#     4   4   4   4   4   4
#     4  12  22  41  70 102 138 171 231 289 345 413
#     4  11  21  39  66  96 130 172 222 275 346 410
#     4  11  26  48  67  89 134 188 237 290 336 385
#     4  12  23  37  67 110 139 167 212 279 359 433
#     4  11  19  37  64  94 137 174 203 266 352 423
#     4  11  24  44  64  96 138 177 225 270 348 429
#
# _framework density 21.351099999999999
#
# number of rings (size 3 to 8) (size 9 to 14) (size 15 to 20)
#    0.000    0.667    5.000    6.500    0.000    1.333 
#    3.000    0.833    0.000    0.000    0.000    0.000 
#    0.000    0.000    0.000    0.000    0.000    0.000 
#
# Total GULP energy -134195.298820 kJ/mol
# GULP energy per Si atom -5591.470784 kJ/mol
# Density = 2.130250 g / cm^3
# Si number density = 21.351100 Si / 1000 Ang^3
#
#
#
# Elastic Constant Matrix: (Units=GPa)
#
#
# Indices 1 2 3 4 5 6 
#
# 1 83.9901 -14.5887 11.0727 0.0000 0.0000 0.0000
# 2 -14.5887 38.8557 -4.3980 0.0000 0.0000 0.0000
# 3 11.0727 -4.3980 123.5150 0.0000 0.0000 0.0000
# 4 0.0000 0.0000 0.0000 10.5821 0.0000 0.0000
# 5 0.0000 0.0000 0.0000 0.0000 39.4308 0.0000
# 6 0.0000 0.0000 0.0000 0.0000 0.0000 11.5018
#
#
#
# Elastic Compliance Matrix: (Units=1/GPa)
#
#
# Indices 1 2 3 4 5 6 
#
# 1 0.012855 0.004715 -0.000985 0.000000 0.000000 0.000000
# 2 0.004715 0.027570 0.000559 0.000000 0.000000 0.000000
# 3 -0.000985 0.000559 0.008204 0.000000 0.000000 0.000000
# 4 0.000000 0.000000 0.000000 0.094499 0.000000 0.000000
# 5 0.000000 0.000000 0.000000 0.000000 0.025361 0.000000
# 6 0.000000 0.000000 0.000000 0.000000 0.000000 0.086943
#
#
# Mechanical properties :
#
#
# Convention : Reuss Voigt Hill
#
# Bulk Modulus (GPa) = 17.48004 25.61477 21.54740
# Shear Modulus (GPa) = 18.80250 29.25460 24.02855
#
# Velocity S-wave (km/s) = 2.97077 3.70559 3.35834
# Velocity P-wave (km/s) = 4.46900 5.50741 5.01515
#
# Compressibility (1/GPa) = 0.05720812
#
# Stress axis : x y z
#
# Youngs Moduli (GPa) = 77.79115 36.27157 121.88665
#
# Poissons Ratio (x) = -0.17102 0.12000
# Poissons Ratio (y) = -0.36679 -0.06813
# Poissons Ratio (z) = 0.07659 -0.02028
#
# Static dielectric constant tensor:
#      x y z
#    x 1.770160 0.000000 0.000000 
#    y 0.000000 1.780570 0.000000 
#    z 0.000000 0.000000 1.850600 
# 
# From -- ./inp_files/6535.got.cif
#   From: 2010.05.17/outbox.cif.g08.bks.cpg/sg17_4_cif.got.tgz:6535.got - 2010.06.03 22:34:06.
