data_PCOD9311544
_publ_section_title
;
Structure prediction by ZEFSAII (Michael W. Deem and Ramdas Pophale) SiO2 
 PCOD9311544
Probable space group: P 2 2 21
;
_chemical_formula_sum "Si O2"
_cell_formula_units_Z 16
_cell_length_a 14.824584
_cell_length_b 8.231659
_cell_length_c 4.901174
_cell_angle_alpha 90.000000
_cell_angle_beta 90.000000
_cell_angle_gamma 90.000000
_cell_volume 598.094774
_symmetry_space_group_name_H-M "P 2 2 21"
_symmetry_group_IT_number 17
_symmetry_cell_setting 'orthorhombic'
loop_
_space_group_symop_operation_xyz
x,y,z
-x,-y,1/2+z
x,-y,-z
-x,y,1/2-z
loop_
_atom_site_type_symbol
_atom_site_label
_atom_site_fract_x
_atom_site_fract_y
_atom_site_fract_z
Si Si1 0.915539 0.000000 0.000000
Si Si2 0.846814 0.500000 0.000000
Si Si3 0.000000 0.304029 0.250000
Si Si4 0.695444 0.255595 0.107978
Si Si5 0.435687 0.000000 0.500000
Si Si6 0.781607 0.000000 0.500000
Si Si7 0.446455 0.500000 0.500000
O O1 0.973259 0.165134 0.030226
O O2 0.849349 0.967262 0.251101
O O3 0.777518 0.349931 0.963679
O O4 0.914940 0.426482 0.227347
O O5 0.619818 0.386765 0.176035
O O6 0.727708 0.151240 0.367297
O O7 0.636188 0.137828 0.918536
O O8 0.500000 0.953242 0.750000
O O9 0.500000 0.583861 0.250000
#
# Coordination Sequence:
#
# PCOD9311544 Si02
#       7
#     2   2   2   4   2   2   2
#     4  12  28  52  93 117 172 230 302 364 428 521
#     4  11  28  54  77 126 176 228 285 366 446 507
#     4  12  28  56  84 126 174 232 300 362 438 524
#     4  11  26  52  83 125 174 227 290 367 439 538
#     4  12  26  50  86 124 168 226 296 358 434 534
#     4  12  26  52  87 127 164 228 302 358 446 507
#     4  11  26  50  81 124 178 226 281 362 460 531
#
# _framework density 26.751615000000001
#
# number of rings (size 3 to 8) (size 9 to 14) (size 15 to 20)
#    0.000    0.500    2.500    3.750    0.000    7.000 
#    0.000    1.250    0.000    0.000    0.000    0.000 
#    0.000    0.000    0.000    0.000    0.000    0.000 
#
# Total GULP energy -89226.644481 kJ/mol
# GULP energy per Si atom -5576.665280 kJ/mol
# Density = 2.669073 g / cm^3
# Si number density = 26.751615 Si / 1000 Ang^3
#
#
#
# Elastic Constant Matrix: (Units=GPa)
#
#
# Indices 1 2 3 4 5 6 
#
# 1 198.5525 101.9131 81.5258 0.0000 0.0000 0.0000
# 2 101.9131 174.6806 70.7796 0.0000 0.0000 0.0000
# 3 81.5258 70.7796 172.1123 0.0000 0.0000 0.0000
# 4 0.0000 0.0000 0.0000 29.7470 0.0000 0.0000
# 5 0.0000 0.0000 0.0000 0.0000 33.4239 0.0000
# 6 0.0000 0.0000 0.0000 0.0000 0.0000 38.8870
#
#
#
# Elastic Compliance Matrix: (Units=1/GPa)
#
#
# Indices 1 2 3 4 5 6 
#
# 1 0.007824 -0.003676 -0.002195 0.000000 0.000000 0.000000
# 2 -0.003676 0.008596 -0.001794 0.000000 0.000000 0.000000
# 3 -0.002195 -0.001794 0.007587 0.000000 0.000000 0.000000
# 4 0.000000 0.000000 0.000000 0.033617 0.000000 0.000000
# 5 0.000000 0.000000 0.000000 0.000000 0.029919 0.000000
# 6 0.000000 0.000000 0.000000 0.000000 0.000000 0.025716
#
#
# Mechanical properties :
#
#
# Convention : Reuss Voigt Hill
#
# Bulk Modulus (GPa) = 115.21614 117.08692 116.15153
# Shear Modulus (GPa) = 38.02851 39.82002 38.92427
#
# Velocity S-wave (km/s) = 3.77442 3.86231 3.81862
# Velocity P-wave (km/s) = 7.88399 7.98455 7.93443
#
# Compressibility (1/GPa) = 0.00867934
#
# Stress axis : x y z
#
# Youngs Moduli (GPa) = 127.80945 116.33202 131.79642
#
# Poissons Ratio (x) = 0.42759 0.28924
# Poissons Ratio (y) = 0.46977 0.23645
# Poissons Ratio (z) = 0.28049 0.20870
#
# Static dielectric constant tensor:
#      x y z
#    x 2.111200 0.000000 0.000000 
#    y 0.000000 2.295640 0.000000 
#    z 0.000000 0.000000 2.288780 
# 
# From -- ./inp_files/1942.got.cif
#   From: 2010.05.17/outbox.cif.g08.bks.cpg/sg17_1_cif.got.tgz:1942.got - 2010.06.03 22:34:06.
