data_PCOD9311611
_publ_section_title
;
Structure prediction by ZEFSAII (Michael W. Deem and Ramdas Pophale) SiO2 
 PCOD9311611
Probable space group: P 2 2 21
;
_chemical_formula_sum "Si O2"
_cell_formula_units_Z 20
_cell_length_a 9.000000
_cell_length_b 12.000000
_cell_length_c 9.000000
_cell_angle_alpha 90.000000
_cell_angle_beta 90.000000
_cell_angle_gamma 90.000000
_cell_volume 972.000000
_symmetry_space_group_name_H-M "P 2 2 21"
_symmetry_group_IT_number 17
_symmetry_cell_setting 'orthorhombic'
loop_
_space_group_symop_operation_xyz
x,y,z
-x,-y,1/2+z
x,-y,-z
-x,y,1/2-z
loop_
_atom_site_type_symbol
_atom_site_label
_atom_site_fract_x
_atom_site_fract_y
_atom_site_fract_z
Si Si1 0.726972 0.871104 0.061785
Si Si2 0.034536 0.121387 0.073478
Si Si3 0.744115 0.250779 0.616161
Si Si4 0.783845 0.500000 0.000000
Si Si5 0.463821 0.687460 0.572991
Si Si6 0.000000 0.591033 0.250000
O O1 0.711437 0.831411 0.237914
O O2 0.603383 0.807922 0.966758
O O3 0.889562 0.828912 0.009132
O O4 0.722765 0.000000 0.000000
O O5 0.000000 0.116666 0.250000
O O6 0.182572 0.184249 0.022148
O O7 0.050017 0.000000 0.000000
O O8 0.604044 0.316933 0.543092
O O9 0.875298 0.333165 0.669034
O O10 0.668664 0.398327 0.030022
O O11 0.896782 0.520973 0.136785
O O12 0.500000 0.675742 0.750000
#
# Coordination Sequence:
#
# PCOD9311611 Si02
#       6
#     4   4   4   2   4   2
#     4  11  23  45  71 108 155 202 255 306 376 460
#     4  11  21  38  68 105 151 203 257 307 363 450
#     4  12  24  47  75 109 152 204 250 319 384 451
#     4  12  30  52  78 112 144 200 262 322 390 458
#     4  12  29  46  73 111 156 197 254 318 388 460
#     4  12  28  50  82 106 146 198 258 326 376 458
#
# _framework density 20.576132000000001
#
# number of rings (size 3 to 8) (size 9 to 14) (size 15 to 20)
#    0.000    0.400    4.000    4.200    5.600    2.400 
#    1.800    0.000    0.000    0.000    0.000    0.000 
#    0.000    0.000    0.000    0.000    0.000    0.000 
#
# Total GULP energy -111608.636833 kJ/mol
# GULP energy per Si atom -5580.431842 kJ/mol
# Density = 2.052930 g / cm^3
# Si number density = 20.576132 Si / 1000 Ang^3
#
#
#
# Elastic Constant Matrix: (Units=GPa)
#
#
# Indices 1 2 3 4 5 6 
#
# 1 149.9294 55.1873 59.5968 0.0000 0.0000 0.0000
# 2 55.1873 77.9578 47.0675 0.0000 0.0000 0.0000
# 3 59.5968 47.0675 186.4813 0.0000 0.0000 0.0000
# 4 0.0000 0.0000 0.0000 30.8921 0.0000 0.0000
# 5 0.0000 0.0000 0.0000 0.0000 56.6989 0.0000
# 6 0.0000 0.0000 0.0000 0.0000 0.0000 42.9977
#
#
#
# Elastic Compliance Matrix: (Units=1/GPa)
#
#
# Indices 1 2 3 4 5 6 
#
# 1 0.009390 -0.005705 -0.001561 0.000000 0.000000 0.000000
# 2 -0.005705 0.018600 -0.002871 0.000000 0.000000 0.000000
# 3 -0.001561 -0.002871 0.006586 0.000000 0.000000 0.000000
# 4 0.000000 0.000000 0.000000 0.032371 0.000000 0.000000
# 5 0.000000 0.000000 0.000000 0.000000 0.017637 0.000000
# 6 0.000000 0.000000 0.000000 0.000000 0.000000 0.023257
#
#
# Mechanical properties :
#
#
# Convention : Reuss Voigt Hill
#
# Bulk Modulus (GPa) = 69.92366 82.00795 75.96580
# Shear Modulus (GPa) = 37.62720 42.95220 40.28970
#
# Velocity S-wave (km/s) = 4.28095 4.57385 4.42982
# Velocity P-wave (km/s) = 7.64801 8.23625 7.94757
#
# Compressibility (1/GPa) = 0.01430131
#
# Stress axis : x y z
#
# Youngs Moduli (GPa) = 106.49319 53.76449 151.83569
#
# Poissons Ratio (x) = 0.30673 0.23703
# Poissons Ratio (y) = 0.60754 0.43596
# Poissons Ratio (z) = 0.16624 0.15437
#
# Static dielectric constant tensor:
#      x y z
#    x 1.768130 0.000000 0.000000 
#    y 0.000000 1.803340 0.000000 
#    z 0.000000 0.000000 1.742010 
# 
# From -- ./inp_files/4073.got.cif
#   From: 2010.05.17/outbox.ucp.g08.bks.cvg/sg17_3_cif.got.tgz:4073.got - 2010.06.11 13:12:59.
