data_PCOD9311938
_publ_section_title
;
Structure prediction by ZEFSAII (Michael W. Deem and Ramdas Pophale) SiO2 
 PCOD9311938
Probable space group: P 21 21 2
;
_chemical_formula_sum "Si O2"
_cell_formula_units_Z 26
_cell_length_a 20.116120
_cell_length_b 9.122229
_cell_length_c 6.336022
_cell_angle_alpha 90.000000
_cell_angle_beta 90.000000
_cell_angle_gamma 90.000000
_cell_volume 1162.684451
_symmetry_space_group_name_H-M "P 21 21 2"
_symmetry_group_IT_number 18
_symmetry_cell_setting 'orthorhombic'
loop_
_space_group_symop_operation_xyz
x,y,z
-x,-y,z
1/2+x,1/2-y,-z
1/2-x,1/2+y,-z
loop_
_atom_site_type_symbol
_atom_site_label
_atom_site_fract_x
_atom_site_fract_y
_atom_site_fract_z
Si Si1 0.987721 0.761408 0.518947
Si Si2 0.000000 0.500000 0.191339
Si Si3 0.736997 0.647149 0.287210
Si Si4 0.888501 0.011266 0.470125
Si Si5 0.320012 0.094915 0.516592
Si Si6 0.335876 0.330332 0.893577
Si Si7 0.573570 0.870440 0.162641
O O1 0.989897 0.641960 0.334754
O O2 0.003933 0.680209 0.737474
O O3 0.921184 0.856100 0.518934
O O4 0.050663 0.871714 0.489044
O O5 0.061689 0.524700 0.034293
O O6 0.672056 0.560372 0.380444
O O7 0.731762 0.813607 0.370517
O O8 0.796562 0.557972 0.389966
O O9 0.729448 0.644165 0.034682
O O10 0.861713 0.029055 0.231760
O O11 0.328666 0.206184 0.713282
O O12 0.383009 0.077200 0.362105
O O13 0.389274 0.267858 0.058508
#
# Coordination Sequence:
#
# PCOD9311938 Si02
#       7
#     4   2   4   4   4   4   4
#     4  11  22  42  65  95 131 164 213 262 313 387
#     4  12  24  40  66  94 128 172 206 254 326 392
#     4  10  22  43  67  89 126 168 213 266 323 370
#     4  10  21  42  66  94 126 162 213 266 310 381
#     4  10  22  43  65  92 125 165 216 264 315 377
#     4  10  19  40  66  92 122 167 212 255 321 373
#     4  11  21  42  65  88 132 171 199 259 327 372
#
# _framework density 22.362044999999998
#
# number of rings (size 3 to 8) (size 9 to 14) (size 15 to 20)
#    0.000    1.538    6.154    0.462    0.000    6.154 
#   11.077    0.000    0.000    0.000    0.000    0.000 
#    0.000    0.000    0.000    0.000    0.000    0.000 
#
# Total GULP energy -145220.476984 kJ/mol
# GULP energy per Si atom -5585.402961 kJ/mol
# Density = 2.231115 g / cm^3
# Si number density = 22.362045 Si / 1000 Ang^3
#
#
#
# Elastic Constant Matrix: (Units=GPa)
#
#
# Indices 1 2 3 4 5 6 
#
# 1 31.4187 13.7012 12.9571 0.0000 0.0000 0.0000
# 2 13.7012 59.5222 10.8049 0.0000 0.0000 0.0000
# 3 12.9571 10.8049 97.2848 0.0000 0.0000 0.0000
# 4 0.0000 0.0000 0.0000 20.8713 0.0000 0.0000
# 5 0.0000 0.0000 0.0000 0.0000 30.9440 0.0000
# 6 0.0000 0.0000 0.0000 0.0000 0.0000 38.7604
#
#
#
# Elastic Compliance Matrix: (Units=1/GPa)
#
#
# Indices 1 2 3 4 5 6 
#
# 1 0.036880 -0.007754 -0.004051 0.000000 0.000000 0.000000
# 2 -0.007754 0.018776 -0.001053 0.000000 0.000000 0.000000
# 3 -0.004051 -0.001053 0.010936 0.000000 0.000000 0.000000
# 4 0.000000 0.000000 0.000000 0.047913 0.000000 0.000000
# 5 0.000000 0.000000 0.000000 0.000000 0.032316 0.000000
# 6 0.000000 0.000000 0.000000 0.000000 0.000000 0.025800
#
#
# Mechanical properties :
#
#
# Convention : Reuss Voigt Hill
#
# Bulk Modulus (GPa) = 24.46349 29.23911 26.85130
# Shear Modulus (GPa) = 23.58924 28.16599 25.87761
#
# Velocity S-wave (km/s) = 3.25141 3.55286 3.40547
# Velocity P-wave (km/s) = 5.00590 5.47121 5.24372
#
# Compressibility (1/GPa) = 0.04087723
#
# Stress axis : x y z
#
# Youngs Moduli (GPa) = 27.11492 53.25839 91.44513
#
# Poissons Ratio (x) = 0.41296 0.37042
# Poissons Ratio (y) = 0.21025 0.09626
# Poissons Ratio (z) = 0.10984 0.05606
#
# Static dielectric constant tensor:
#      x y z
#    x 1.889940 0.000000 0.000000 
#    y 0.000000 1.851550 0.000000 
#    z 0.000000 0.000000 1.823370 
# 
# From -- ./inp_files/2109.got.cif
#   From: 2010.05.17/outbox.cif.g08.bks.cpg/sg18_2_cif.got.tgz:2109.got - 2010.06.03 22:40:56.
