data_PCOD9311341
_publ_section_title
;
Structure prediction by ZEFSAII (Michael W. Deem and Ramdas Pophale) SiO2 
 PCOD9311341
Probable space group: P 2 2 21
;
_chemical_formula_sum "Si O2"
_cell_formula_units_Z 14
_cell_length_a 4.992487
_cell_length_b 7.808888
_cell_length_c 17.887776
_cell_angle_alpha 90.000000
_cell_angle_beta 90.000000
_cell_angle_gamma 90.000000
_cell_volume 697.368754
_symmetry_space_group_name_H-M "P 2 2 21"
_symmetry_group_IT_number 17
_symmetry_cell_setting 'orthorhombic'
loop_
_space_group_symop_operation_xyz
x,y,z
-x,-y,1/2+z
x,-y,-z
-x,y,1/2-z
loop_
_atom_site_type_symbol
_atom_site_label
_atom_site_fract_x
_atom_site_fract_y
_atom_site_fract_z
Si Si1 0.996331 0.244246 0.415121
Si Si2 0.633713 0.833227 0.042583
Si Si3 0.702240 0.500000 0.500000
Si Si4 0.515655 0.918070 0.838566
O O1 0.084059 0.187722 0.499382
O O2 0.267548 0.221406 0.368008
O O3 0.880747 0.431759 0.431203
O O4 0.770695 0.134595 0.373287
O O5 0.622696 0.902363 0.126561
O O6 0.477414 0.659534 0.026428
O O7 0.512966 0.000000 0.000000
O O8 0.500000 0.922114 0.750000
#
# Coordination Sequence:
#
# PCOD9311341 Si02
#       4
#     4   4   2   4
#     4  11  23  41  70 104 130 179 234 286 327 406
#     4  10  23  41  72  99 132 177 236 279 334 404
#     4  12  22  42  70 112 124 178 238 294 322 408
#     4  11  25  44  70 100 141 186 224 281 360 409
#
# _framework density 20.075464
#
# number of rings (size 3 to 8) (size 9 to 14) (size 15 to 20)
#    0.000    1.143    5.714    1.714   12.000    0.000 
#    0.000    1.429    6.286    0.000    0.000    0.000 
#    0.000    0.000    0.000    0.000    0.000    0.000 
#
# Total GULP energy -78007.358294 kJ/mol
# GULP energy per Si atom -5571.954164 kJ/mol
# Density = 2.002977 g / cm^3
# Si number density = 20.075464 Si / 1000 Ang^3
#
#
#
# Elastic Constant Matrix: (Units=GPa)
#
#
# Indices 1 2 3 4 5 6 
#
# 1 135.5185 41.7072 60.1131 0.0000 0.0000 0.0000
# 2 41.7072 134.7014 43.0571 0.0000 0.0000 0.0000
# 3 60.1131 43.0571 132.1260 0.0000 0.0000 0.0000
# 4 0.0000 0.0000 0.0000 14.5524 0.0000 0.0000
# 5 0.0000 0.0000 0.0000 0.0000 23.4968 0.0000
# 6 0.0000 0.0000 0.0000 0.0000 0.0000 32.5303
#
#
#
# Elastic Compliance Matrix: (Units=1/GPa)
#
#
# Indices 1 2 3 4 5 6 
#
# 1 0.009605 -0.001760 -0.003796 0.000000 0.000000 0.000000
# 2 -0.001760 0.008610 -0.002005 0.000000 0.000000 0.000000
# 3 -0.003796 -0.002005 0.009949 0.000000 0.000000 0.000000
# 4 0.000000 0.000000 0.000000 0.068717 0.000000 0.000000
# 5 0.000000 0.000000 0.000000 0.000000 0.042559 0.000000
# 6 0.000000 0.000000 0.000000 0.000000 0.000000 0.030741
#
#
# Mechanical properties :
#
#
# Convention : Reuss Voigt Hill
#
# Bulk Modulus (GPa) = 76.68312 76.90007 76.79160
# Shear Modulus (GPa) = 26.36441 31.28048 28.82244
#
# Velocity S-wave (km/s) = 3.62783 3.95162 3.79318
# Velocity P-wave (km/s) = 7.47185 7.69474 7.58411
#
# Compressibility (1/GPa) = 0.01304068
#
# Stress axis : x y z
#
# Youngs Moduli (GPa) = 104.11505 116.14751 100.51274
#
# Poissons Ratio (x) = 0.20447 0.38156
# Poissons Ratio (y) = 0.18329 0.20151
# Poissons Ratio (z) = 0.39524 0.23285
#
# Static dielectric constant tensor:
#      x y z
#    x 1.798210 0.000000 0.000000 
#    y 0.000000 1.746860 0.000000 
#    z 0.000000 0.000000 1.754520 
# 
# From -- ./inp_files/8824.got.cif
#   From: 2010.05.17/outbox.cif.g08.bks.cpg/sg17_5_cif.got.tgz:8824.got - 2010.06.03 22:34:06.
