data_PCOD9311262
_publ_section_title
;
Structure prediction by ZEFSAII (Michael W. Deem and Ramdas Pophale) SiO2 
 PCOD9311262
Probable space group: P 2 2 21
;
_chemical_formula_sum "Si O2"
_cell_formula_units_Z 18
_cell_length_a 6.202191
_cell_length_b 16.172597
_cell_length_c 7.874445
_cell_angle_alpha 90.000000
_cell_angle_beta 90.000000
_cell_angle_gamma 90.000000
_cell_volume 789.850423
_symmetry_space_group_name_H-M "P 2 2 21"
_symmetry_group_IT_number 17
_symmetry_cell_setting 'orthorhombic'
loop_
_space_group_symop_operation_xyz
x,y,z
-x,-y,1/2+z
x,-y,-z
-x,y,1/2-z
loop_
_atom_site_type_symbol
_atom_site_label
_atom_site_fract_x
_atom_site_fract_y
_atom_site_fract_z
Si Si1 0.000000 0.948417 0.750000
Si Si2 0.876819 0.652809 0.930081
Si Si3 0.632378 0.070009 0.597307
Si Si4 0.842078 0.500000 0.500000
Si Si5 0.004447 0.169670 0.953428
Si Si6 0.500000 0.572143 0.750000
O O1 0.094522 0.891976 0.595929
O O2 0.817167 0.007825 0.671919
O O3 0.632257 0.626827 0.886605
O O4 0.000000 0.661137 0.750000
O O5 0.002864 0.578742 0.023565
O O6 0.911794 0.740067 0.018562
O O7 0.500000 0.106546 0.750000
O O8 0.744806 0.146729 0.504028
O O9 0.496932 0.000000 0.500000
O O10 0.682896 0.518691 0.656708
O O11 0.000000 0.155708 0.750000
#
# Coordination Sequence:
#
# PCOD9311262 Si02
#       6
#     2   4   4   2   4   2
#     4  10  22  46  62  88 136 172 226 296 350 400
#     4  10  22  44  63  95 141 177 223 287 346 415
#     4  10  23  40  65  94 128 178 231 289 352 412
#     4  10  22  42  72  96 138 178 232 284 350 418
#     4  11  23  41  67  94 134 181 225 288 346 408
#     4  10  22  42  70 100 132 190 226 276 360 416
#
# _framework density 22.789124999999999
#
# number of rings (size 3 to 8) (size 9 to 14) (size 15 to 20)
#    0.000    1.778    2.222    0.667    3.111    4.444 
#   12.000    0.000    0.000    0.000    0.000    0.000 
#    0.000    0.000    0.000    0.000    0.000    0.000 
#
# Total GULP energy -100285.388451 kJ/mol
# GULP energy per Si atom -5571.410469 kJ/mol
# Density = 2.273726 g / cm^3
# Si number density = 22.789125 Si / 1000 Ang^3
#
#
#
# Elastic Constant Matrix: (Units=GPa)
#
#
# Indices 1 2 3 4 5 6 
#
# 1 91.5071 61.3846 22.4878 0.0000 0.0000 0.0000
# 2 61.3846 165.3289 52.7493 0.0000 0.0000 0.0000
# 3 22.4878 52.7493 102.6317 0.0000 0.0000 0.0000
# 4 0.0000 0.0000 0.0000 26.3813 0.0000 0.0000
# 5 0.0000 0.0000 0.0000 0.0000 36.4058 0.0000
# 6 0.0000 0.0000 0.0000 0.0000 0.0000 19.3820
#
#
#
# Elastic Compliance Matrix: (Units=1/GPa)
#
#
# Indices 1 2 3 4 5 6 
#
# 1 0.014574 -0.005254 -0.000493 0.000000 0.000000 0.000000
# 2 -0.005254 0.009129 -0.003541 0.000000 0.000000 0.000000
# 3 -0.000493 -0.003541 0.011671 0.000000 0.000000 0.000000
# 4 0.000000 0.000000 0.000000 0.037906 0.000000 0.000000
# 5 0.000000 0.000000 0.000000 0.000000 0.027468 0.000000
# 6 0.000000 0.000000 0.000000 0.000000 0.000000 0.051594
#
#
# Mechanical properties :
#
#
# Convention : Reuss Voigt Hill
#
# Bulk Modulus (GPa) = 59.52775 70.30124 64.91449
# Shear Modulus (GPa) = 28.32597 31.29023 29.80810
#
# Velocity S-wave (km/s) = 3.52939 3.70947 3.62055
# Velocity P-wave (km/s) = 6.54115 7.01872 6.78414
#
# Compressibility (1/GPa) = 0.01679889
#
# Stress axis : x y z
#
# Youngs Moduli (GPa) = 68.61752 109.54231 85.67906
#
# Poissons Ratio (x) = 0.57550 0.04224
# Poissons Ratio (y) = 0.36049 0.30337
# Poissons Ratio (z) = 0.03383 0.38787
#
# Static dielectric constant tensor:
#      x y z
#    x 1.913330 0.000000 0.000000 
#    y 0.000000 1.845130 0.000000 
#    z 0.000000 0.000000 1.921440 
# 
# From -- ./inp_files/3442.got.cif
#   From: 2010.05.17/outbox.cif.g08.bks.cpg/sg17_2_cif.got.tgz:3442.got - 2010.06.03 22:34:06.
