data_PCOD9311583
_publ_section_title
;
Structure prediction by ZEFSAII (Michael W. Deem and Ramdas Pophale) SiO2 
 PCOD9311583
Probable space group: P 2 2 21
;
_chemical_formula_sum "Si O2"
_cell_formula_units_Z 10
_cell_length_a 7.837949
_cell_length_b 11.310927
_cell_length_c 4.932397
_cell_angle_alpha 90.000000
_cell_angle_beta 90.000000
_cell_angle_gamma 90.000000
_cell_volume 437.279037
_symmetry_space_group_name_H-M "P 2 2 21"
_symmetry_group_IT_number 17
_symmetry_cell_setting 'orthorhombic'
loop_
_space_group_symop_operation_xyz
x,y,z
-x,-y,1/2+z
x,-y,-z
-x,y,1/2-z
loop_
_atom_site_type_symbol
_atom_site_label
_atom_site_fract_x
_atom_site_fract_y
_atom_site_fract_z
Si Si1 0.691005 0.618627 0.357419
Si Si2 0.806944 0.240592 0.149811
Si Si3 0.376056 0.000000 0.500000
O O1 0.758925 0.500000 0.500000
O O2 0.500000 0.595924 0.250000
O O3 0.694621 0.714825 0.596524
O O4 0.791788 0.668046 0.099482
O O5 0.000000 0.233692 0.250000
O O6 0.738629 0.114257 0.055677
O O7 0.500000 0.974980 0.250000
#
# Coordination Sequence:
#
# PCOD9311583 Si02
#       3
#     4   4   2
#     4  12  25  46  73 102 138 186 236 281 338 414
#     4  12  27  46  71 105 143 180 228 290 352 407
#     4  12  26  46  74 102 138 186 236 282 338 416
#
# _framework density 22.868691999999999
#
# number of rings (size 3 to 8) (size 9 to 14) (size 15 to 20)
#    0.000    0.000    0.000   12.000    0.000    8.000 
#    0.000    2.000    0.000    0.000    0.000    0.000 
#    0.000    0.000    0.000    0.000    0.000    0.000 
#
# Total GULP energy -56118.220848 kJ/mol
# GULP energy per Si atom -5611.822085 kJ/mol
# Density = 2.281664 g / cm^3
# Si number density = 22.868692 Si / 1000 Ang^3
#
#
#
# Elastic Constant Matrix: (Units=GPa)
#
#
# Indices 1 2 3 4 5 6 
#
# 1 111.7192 67.1848 70.7455 0.0000 0.0000 0.0000
# 2 67.1848 146.0498 81.6036 0.0000 0.0000 0.0000
# 3 70.7455 81.6036 201.7090 0.0000 0.0000 0.0000
# 4 0.0000 0.0000 0.0000 54.3820 0.0000 0.0000
# 5 0.0000 0.0000 0.0000 0.0000 33.2279 0.0000
# 6 0.0000 0.0000 0.0000 0.0000 0.0000 -152.7374
#
#
#
# Elastic Compliance Matrix: (Units=1/GPa)
#
#
# Indices 1 2 3 4 5 6 
#
# 1 0.013559 -0.004626 -0.002884 0.000000 0.000000 0.000000
# 2 -0.004626 0.010425 -0.002595 0.000000 0.000000 0.000000
# 3 -0.002884 -0.002595 0.007019 0.000000 0.000000 0.000000
# 4 0.000000 0.000000 0.000000 0.018388 0.000000 0.000000
# 5 0.000000 0.000000 0.000000 0.000000 0.030095 0.000000
# 6 0.000000 0.000000 0.000000 0.000000 0.000000 -0.006547
#
#
# Mechanical properties :
#
#
# Convention : Reuss Voigt Hill
#
# Bulk Modulus (GPa) = 92.65331 99.83844 96.24588
# Shear Modulus (GPa) = 51.68074 2.97079 27.32576
#
# Velocity S-wave (km/s) = 4.75899 1.14100 3.46048
# Velocity P-wave (km/s) = 8.41431 6.74447 7.62524
#
# Compressibility (1/GPa) = 0.01079292
#
# Stress axis : x y z
#
# Youngs Moduli (GPa) = 73.74988 95.92380 142.46902
#
# Poissons Ratio (x) = 0.44374 0.41091
# Poissons Ratio (y) = 0.34116 0.36972
# Poissons Ratio (z) = 0.21271 0.24893
#
# Static dielectric constant tensor:
#      x y z
#    x 1.824650 0.000000 0.000000 
#    y 0.000000 1.843760 0.000000 
#    z 0.000000 0.000000 1.824750 
# 
# From -- ./inp_files/515.got.cif
#   From: 2010.05.17/outbox.cif.g08.bks.cpg/sg17_1_cif.got.tgz:515.got - 2010.06.03 22:34:06.
