data_PCOD9311833
_publ_section_title
;
Structure prediction by ZEFSAII (Michael W. Deem and Ramdas Pophale) SiO2 
 PCOD9311833
Probable space group: P 21 21 2
;
_chemical_formula_sum "Si O2"
_cell_formula_units_Z 20
_cell_length_a 4.938371
_cell_length_b 12.461806
_cell_length_c 15.949178
_cell_angle_alpha 90.000000
_cell_angle_beta 90.000000
_cell_angle_gamma 90.000000
_cell_volume 981.528704
_symmetry_space_group_name_H-M "P 21 21 2"
_symmetry_group_IT_number 18
_symmetry_cell_setting 'orthorhombic'
loop_
_space_group_symop_operation_xyz
x,y,z
-x,-y,z
1/2+x,1/2-y,-z
1/2-x,1/2+y,-z
loop_
_atom_site_type_symbol
_atom_site_label
_atom_site_fract_x
_atom_site_fract_y
_atom_site_fract_z
Si Si1 0.472374 0.872509 0.930482
Si Si2 0.402423 0.887937 0.520990
Si Si3 0.019711 0.262584 0.888957
Si Si4 0.099387 0.163145 0.408764
Si Si5 0.760840 0.929143 0.235026
O O1 0.175746 0.837896 0.902825
O O2 0.685081 0.792662 0.883188
O O3 0.500000 0.000000 0.920151
O O4 0.493734 0.837702 0.028208
O O5 0.606887 0.862985 0.445177
O O6 0.430623 0.791184 0.586042
O O7 0.112764 0.885001 0.475630
O O8 0.500000 0.000000 0.557604
O O9 0.883411 0.334864 0.817329
O O10 0.086166 0.117601 0.316197
O O11 0.500000 0.000000 0.260136
O O12 0.000000 0.000000 0.190442
#
# Coordination Sequence:
#
# PCOD9311833 Si02
#       5
#     4   4   4   4   4
#     4  10  20  38  60  82 114 153 191 237 283 337
#     4  10  19  35  56  80 111 146 184 227 269 323
#     4  10  22  36  57  89 115 146 196 234 283 351
#     4  10  21  34  55  84 110 143 187 224 273 335
#     4  12  23  37  58  85 118 148 182 240 295 336
#
# _framework density 20.376379
#
# number of rings (size 3 to 8) (size 9 to 14) (size 15 to 20)
#    0.000    1.600    0.000    6.000    0.000    3.200 
#    0.000    1.000    0.000    7.200    0.000    5.600 
#    0.000    0.000    0.000    0.000    0.000    0.000 
#
# Total GULP energy -111592.747540 kJ/mol
# GULP energy per Si atom -5579.637377 kJ/mol
# Density = 2.033000 g / cm^3
# Si number density = 20.376379 Si / 1000 Ang^3
#
#
#
# Elastic Constant Matrix: (Units=GPa)
#
#
# Indices 1 2 3 4 5 6 
#
# 1 70.3254 6.4196 0.1098 0.0000 0.0000 0.0000
# 2 6.4196 142.2358 22.9124 0.0000 0.0000 0.0000
# 3 0.1098 22.9124 36.0663 0.0000 0.0000 0.0000
# 4 0.0000 0.0000 0.0000 12.2909 0.0000 0.0000
# 5 0.0000 0.0000 0.0000 0.0000 13.9335 0.0000
# 6 0.0000 0.0000 0.0000 0.0000 0.0000 30.3715
#
#
#
# Elastic Compliance Matrix: (Units=1/GPa)
#
#
# Indices 1 2 3 4 5 6 
#
# 1 0.014284 -0.000710 0.000408 0.000000 0.000000 0.000000
# 2 -0.000710 0.007867 -0.004996 0.000000 0.000000 0.000000
# 3 0.000408 -0.004996 0.030899 0.000000 0.000000 0.000000
# 4 0.000000 0.000000 0.000000 0.081361 0.000000 0.000000
# 5 0.000000 0.000000 0.000000 0.000000 0.071769 0.000000
# 6 0.000000 0.000000 0.000000 0.000000 0.000000 0.032926
#
#
# Mechanical properties :
#
#
# Convention : Reuss Voigt Hill
#
# Bulk Modulus (GPa) = 23.55513 34.16790 28.86152
# Shear Modulus (GPa) = 18.94983 25.93157 22.44070
#
# Velocity S-wave (km/s) = 3.05288 3.57126 3.32220
# Velocity P-wave (km/s) = 4.90019 5.81464 5.37689
#
# Compressibility (1/GPa) = 0.04245360
#
# Stress axis : x y z
#
# Youngs Moduli (GPa) = 70.00930 127.10664 32.36323
#
# Poissons Ratio (x) = 0.09029 -0.01320
# Poissons Ratio (y) = 0.04973 0.16168
# Poissons Ratio (z) = -0.02855 0.63501
#
# Static dielectric constant tensor:
#      x y z
#    x 1.720180 0.000000 0.000000 
#    y 0.000000 1.771730 0.000000 
#    z 0.000000 0.000000 1.722560 
# 
# From -- ./inp_files/6419.got.cif
#   From: 2010.05.17/outbox.cif.g08.bks.cpg/sg18_4_cif.got.tgz:6419.got - 2010.06.03 22:40:56.
