data_PCOD9311868
_publ_section_title
;
Structure prediction by ZEFSAII (Michael W. Deem and Ramdas Pophale) SiO2 
 PCOD9311868
Probable space group: P 21 21 2
;
_chemical_formula_sum "Si O2"
_cell_formula_units_Z 24
_cell_length_a 8.110378
_cell_length_b 13.739277
_cell_length_c 10.050912
_cell_angle_alpha 90.000000
_cell_angle_beta 90.000000
_cell_angle_gamma 90.000000
_cell_volume 1119.980460
_symmetry_space_group_name_H-M "P 21 21 2"
_symmetry_group_IT_number 18
_symmetry_cell_setting 'orthorhombic'
loop_
_space_group_symop_operation_xyz
x,y,z
-x,-y,z
1/2+x,1/2-y,-z
1/2-x,1/2+y,-z
loop_
_atom_site_type_symbol
_atom_site_label
_atom_site_fract_x
_atom_site_fract_y
_atom_site_fract_z
Si Si1 0.864602 0.115723 0.891615
Si Si2 0.136622 0.872382 0.585512
Si Si3 0.963155 0.749281 0.092680
Si Si4 0.171681 0.555504 0.473476
Si Si5 0.338370 0.068978 0.837649
Si Si6 0.126160 0.205777 0.383949
O O1 0.920496 0.124882 0.738066
O O2 0.701107 0.182526 0.917682
O O3 0.802689 0.002838 0.897007
O O4 0.997456 0.167539 0.985829
O O5 0.308418 0.814267 0.594669
O O6 0.010640 0.819254 0.491042
O O7 0.182935 0.976104 0.526617
O O8 0.111713 0.669714 0.093353
O O9 0.944104 0.800456 0.236252
O O10 0.179718 0.592069 0.320185
O O11 0.219527 0.635894 0.581612
O O12 0.000000 0.500000 0.497196
O O13 0.500000 0.000000 0.842325
#
# Coordination Sequence:
#
# PCOD9311868 Si02
#       6
#     4   4   4   4   4   4
#     4   9  20  37  59  84 116 161 205 244 302 368
#     4  10  21  37  58  86 117 157 203 245 303 375
#     4  10  20  37  59  87 117 151 203 258 300 355
#     4  10  19  36  60  86 118 157 198 247 309 375
#     4   8  16  35  60  82 112 157 201 243 300 368
#     4  11  21  36  61  91 119 153 201 257 306 357
#
# _framework density 21.428947000000001
#
# number of rings (size 3 to 8) (size 9 to 14) (size 15 to 20)
#    0.000    2.333    0.000    5.500    0.000    2.667 
#    0.000    9.167    0.000    9.000    0.000    1.167 
#    0.000    0.000    0.000    0.000    0.000    0.000 
#
# Total GULP energy -133991.759215 kJ/mol
# GULP energy per Si atom -5582.989967 kJ/mol
# Density = 2.138017 g / cm^3
# Si number density = 21.428947 Si / 1000 Ang^3
#
#
#
# Elastic Constant Matrix: (Units=GPa)
#
#
# Indices 1 2 3 4 5 6 
#
# 1 81.6206 24.6220 33.0199 0.0000 0.0000 0.0000
# 2 24.6220 106.3088 68.7691 0.0000 0.0000 0.0000
# 3 33.0199 68.7691 67.9970 0.0000 0.0000 0.0000
# 4 0.0000 0.0000 0.0000 14.2783 0.0000 0.0000
# 5 0.0000 0.0000 0.0000 0.0000 32.9752 0.0000
# 6 0.0000 0.0000 0.0000 0.0000 0.0000 50.4284
#
#
#
# Elastic Compliance Matrix: (Units=1/GPa)
#
#
# Indices 1 2 3 4 5 6 
#
# 1 0.015750 0.003759 -0.011450 0.000000 0.000000 0.000000
# 2 0.003759 0.028101 -0.030246 0.000000 0.000000 0.000000
# 3 -0.011450 -0.030246 0.050856 0.000000 0.000000 0.000000
# 4 0.000000 0.000000 0.000000 0.070037 0.000000 0.000000
# 5 0.000000 0.000000 0.000000 0.000000 0.030326 0.000000
# 6 0.000000 0.000000 0.000000 0.000000 0.000000 0.019830
#
#
# Mechanical properties :
#
#
# Convention : Reuss Voigt Hill
#
# Bulk Modulus (GPa) = 53.09639 56.52758 54.81199
# Shear Modulus (GPa) = 16.83214 28.17076 22.50145
#
# Velocity S-wave (km/s) = 2.80569 3.62969 3.24396
# Velocity P-wave (km/s) = 5.94370 6.63344 6.29802
#
# Compressibility (1/GPa) = 0.01883367
#
# Stress axis : x y z
#
# Youngs Moduli (GPa) = 63.49225 35.58548 19.66345
#
# Poissons Ratio (x) = -0.13376 0.22514
# Poissons Ratio (y) = -0.23866 0.59474
# Poissons Ratio (z) = 0.72697 1.07631
#
# Static dielectric constant tensor:
#      x y z
#    x 1.880420 0.000000 0.000000 
#    y 0.000000 1.815420 0.000000 
#    z 0.000000 0.000000 1.715520 
# 
# From -- ./inp_files/3165.got.cif
#   From: 2010.05.17/outbox.cif.g08.bks.cpg/sg18_2_cif.got.tgz:3165.got - 2010.06.03 22:40:56.
