data_PCOD9311459
_publ_section_title
;
Structure prediction by ZEFSAII (Michael W. Deem and Ramdas Pophale) SiO2 
 PCOD9311459
Probable space group: P 2 2 21
;
_chemical_formula_sum "Si O2"
_cell_formula_units_Z 20
_cell_length_a 16.070096
_cell_length_b 5.004472
_cell_length_c 11.539428
_cell_angle_alpha 90.000000
_cell_angle_beta 90.000000
_cell_angle_gamma 90.000000
_cell_volume 928.027865
_symmetry_space_group_name_H-M "P 2 2 21"
_symmetry_group_IT_number 17
_symmetry_cell_setting 'orthorhombic'
loop_
_space_group_symop_operation_xyz
x,y,z
-x,-y,1/2+z
x,-y,-z
-x,y,1/2-z
loop_
_atom_site_type_symbol
_atom_site_label
_atom_site_fract_x
_atom_site_fract_y
_atom_site_fract_z
Si Si1 0.598632 0.047677 0.757401
Si Si2 0.937196 0.986757 0.640571
Si Si3 0.689857 0.552163 0.865074
Si Si4 0.169867 0.511586 0.197079
Si Si5 0.683159 0.252155 0.445748
O O1 0.500000 0.066367 0.750000
O O2 0.639386 0.328076 0.792556
O O3 0.643568 0.831422 0.840413
O O4 0.624369 0.927624 0.633807
O O5 0.863331 0.196848 0.667687
O O6 0.000000 0.043955 0.750000
O O7 0.960516 0.000000 0.500000
O O8 0.903654 0.690796 0.666589
O O9 0.785976 0.532991 0.821497
O O10 0.685920 0.500000 0.000000
O O11 0.247164 0.425742 0.117978
O O12 0.632035 0.500000 0.500000
O O13 0.731387 0.000000 0.500000
#
# Coordination Sequence:
#
# PCOD9311459 Si02
#       5
#     4   4   4   4   4
#     4  11  24  40  58  90 130 166 214 270 326 391
#     4  12  26  43  67  98 132 168 208 263 330 397
#     4  11  24  42  65  92 125 173 222 271 333 398
#     4  11  23  42  66  91 124 162 209 263 312 384
#     4  11  21  37  63  91 117 159 212 261 315 374
#
# _framework density 21.551076999999999
#
# number of rings (size 3 to 8) (size 9 to 14) (size 15 to 20)
#    0.000    0.800    0.000   10.200    0.000    4.000 
#    0.000    0.000    0.000    0.000    0.000    0.000 
#    0.000    0.000    0.000    0.000    0.000    0.000 
#
# Total GULP energy -111398.176925 kJ/mol
# GULP energy per Si atom -5569.908846 kJ/mol
# Density = 2.150203 g / cm^3
# Si number density = 21.551077 Si / 1000 Ang^3
#
#
#
# Elastic Constant Matrix: (Units=GPa)
#
#
# Indices 1 2 3 4 5 6 
#
# 1 79.3556 -1.7488 43.0174 0.0000 0.0000 0.0000
# 2 -1.7488 70.0814 16.3466 0.0000 0.0000 0.0000
# 3 43.0174 16.3466 77.0418 0.0000 0.0000 0.0000
# 4 0.0000 0.0000 0.0000 -15.7732 0.0000 0.0000
# 5 0.0000 0.0000 0.0000 0.0000 -7.5400 0.0000
# 6 0.0000 0.0000 0.0000 0.0000 0.0000 12.0934
#
#
#
# Elastic Compliance Matrix: (Units=1/GPa)
#
#
# Indices 1 2 3 4 5 6 
#
# 1 0.018671 0.003048 -0.011072 0.000000 0.000000 0.000000
# 2 0.003048 0.015510 -0.004993 0.000000 0.000000 0.000000
# 3 -0.011072 -0.004993 0.020221 0.000000 0.000000 0.000000
# 4 0.000000 0.000000 0.000000 -0.063399 0.000000 0.000000
# 5 0.000000 0.000000 0.000000 0.000000 -0.132626 0.000000
# 6 0.000000 0.000000 0.000000 0.000000 0.000000 0.082690
#
#
# Mechanical properties :
#
#
# Convention : Reuss Voigt Hill
#
# Bulk Modulus (GPa) = 35.24959 37.96769 36.60864
# Shear Modulus (GPa) = -213.27500 9.01360 -102.13070
#
# Velocity S-wave (km/s) = -9.95879 2.04732 -6.89151
# Velocity P-wave (km/s) = 10.76312 4.82125 6.80442
#
# Compressibility (1/GPa) = 0.02836912
#
# Stress axis : x y z
#
# Youngs Moduli (GPa) = 53.56034 64.47532 49.45238
#
# Poissons Ratio (x) = -0.19655 0.54753
# Poissons Ratio (y) = -0.16327 0.24691
# Poissons Ratio (z) = 0.59301 0.32192
#
# Static dielectric constant tensor:
#      x y z
#    x 1.869330 0.000000 0.000000 
#    y 0.000000 1.969240 0.000000 
#    z 0.000000 0.000000 1.782960 
# 
# From -- ./inp_files/7160.got.cif
#   From: 2010.05.17/outbox.cif.g08.bks.cpg/sg17_4_cif.got.tgz:7160.got - 2010.06.03 22:34:06.
