data_PCOD9311182
_publ_section_title
;
Structure prediction by ZEFSAII (Michael W. Deem and Ramdas Pophale) SiO2 
 PCOD9311182
Probable space group: P 2 2 21
;
_chemical_formula_sum "Si O2"
_cell_formula_units_Z 22
_cell_length_a 5.398981
_cell_length_b 14.815104
_cell_length_c 13.163092
_cell_angle_alpha 90.000000
_cell_angle_beta 90.000000
_cell_angle_gamma 90.000000
_cell_volume 1052.869198
_symmetry_space_group_name_H-M "P 2 2 21"
_symmetry_group_IT_number 17
_symmetry_cell_setting 'orthorhombic'
loop_
_space_group_symop_operation_xyz
x,y,z
-x,-y,1/2+z
x,-y,-z
-x,y,1/2-z
loop_
_atom_site_type_symbol
_atom_site_label
_atom_site_fract_x
_atom_site_fract_y
_atom_site_fract_z
Si Si1 0.500000 0.849847 0.750000
Si Si2 0.487964 0.718721 0.466267
Si Si3 0.101063 0.224000 0.401985
Si Si4 0.297364 0.630231 0.843903
Si Si5 0.000000 0.522525 0.250000
Si Si6 0.726534 0.904959 0.550942
Si Si7 0.500000 0.636160 0.250000
O O1 0.679822 0.791121 0.821899
O O2 0.640667 0.908391 0.667536
O O3 0.200416 0.727397 0.497493
O O4 0.883386 0.718142 0.649062
O O5 0.601905 0.817738 0.495044
O O6 0.544686 0.693086 0.351994
O O7 0.575050 0.358067 0.453389
O O8 0.009663 0.126373 0.437616
O O9 0.500000 0.622962 0.750000
O O10 0.109562 0.546668 0.834063
O O11 0.247034 0.580054 0.273508
O O12 0.686174 0.000000 0.500000
#
# Coordination Sequence:
#
# PCOD9311182 Si02
#       7
#     2   4   4   4   2   4   2
#     4  10  22  38  66  98 138 180 232 300 354 438
#     4  10  26  46  74  98 149 195 234 304 362 455
#     4  10  23  39  73 102 140 184 232 307 368 425
#     4  11  24  44  71 111 137 180 238 308 372 414
#     4  12  28  48  72 104 144 190 248 308 344 454
#     4  10  23  41  67 108 138 189 237 300 360 433
#     4  12  30  54  68 106 150 206 246 288 386 444
#
# _framework density 20.895285000000001
#
# number of rings (size 3 to 8) (size 9 to 14) (size 15 to 20)
#    0.000    1.455    0.909    1.636   26.727    4.364 
#    3.273    1.818    0.000    0.000    0.000    0.000 
#    0.000    0.000    0.000    0.000    0.000    0.000 
#
# Total GULP energy -122511.683008 kJ/mol
# GULP energy per Si atom -5568.712864 kJ/mol
# Density = 2.084773 g / cm^3
# Si number density = 20.895285 Si / 1000 Ang^3
#
#
#
# Elastic Constant Matrix: (Units=GPa)
#
#
# Indices 1 2 3 4 5 6 
#
# 1 98.9425 32.6837 36.5202 0.0000 0.0000 0.0000
# 2 32.6837 102.0120 58.2506 0.0000 0.0000 0.0000
# 3 36.5202 58.2506 158.0012 0.0000 0.0000 0.0000
# 4 0.0000 0.0000 0.0000 17.6676 0.0000 0.0000
# 5 0.0000 0.0000 0.0000 0.0000 19.8547 0.0000
# 6 0.0000 0.0000 0.0000 0.0000 0.0000 8.0849
#
#
#
# Elastic Compliance Matrix: (Units=1/GPa)
#
#
# Indices 1 2 3 4 5 6 
#
# 1 0.011639 -0.002778 -0.001666 0.000000 0.000000 0.000000
# 2 -0.002778 0.013080 -0.004180 0.000000 0.000000 0.000000
# 3 -0.001666 -0.004180 0.008255 0.000000 0.000000 0.000000
# 4 0.000000 0.000000 0.000000 0.056601 0.000000 0.000000
# 5 0.000000 0.000000 0.000000 0.000000 0.050366 0.000000
# 6 0.000000 0.000000 0.000000 0.000000 0.000000 0.123687
#
#
# Mechanical properties :
#
#
# Convention : Reuss Voigt Hill
#
# Bulk Modulus (GPa) = 63.58778 68.20719 65.89748
# Shear Modulus (GPa) = 17.47531 24.55485 21.01508
#
# Velocity S-wave (km/s) = 2.89507 3.43175 3.17477
# Velocity P-wave (km/s) = 6.45546 6.95814 6.71151
#
# Compressibility (1/GPa) = 0.01572629
#
# Stress axis : x y z
#
# Youngs Moduli (GPa) = 85.91452 76.45491 121.13474
#
# Poissons Ratio (x) = 0.21237 0.20184
# Poissons Ratio (y) = 0.23865 0.50635
# Poissons Ratio (z) = 0.14316 0.31958
#
# Static dielectric constant tensor:
#      x y z
#    x 1.900540 0.000000 0.000000 
#    y 0.000000 1.781440 0.000000 
#    z 0.000000 0.000000 1.756560 
# 
# From -- ./inp_files/7723.got.cif
#   From: 2010.05.17/outbox.cif.g08.bks.cpg/sg17_4_cif.got.tgz:7723.got - 2010.06.03 22:34:06.
