data_PCOD9311235
_publ_section_title
;
Structure prediction by ZEFSAII (Michael W. Deem and Ramdas Pophale) SiO2 
 PCOD9311235
Probable space group: P 2 2 21
;
_chemical_formula_sum "Si O2"
_cell_formula_units_Z 24
_cell_length_a 9.171364
_cell_length_b 15.536401
_cell_length_c 7.305053
_cell_angle_alpha 90.000000
_cell_angle_beta 90.000000
_cell_angle_gamma 90.000000
_cell_volume 1040.896920
_symmetry_space_group_name_H-M "P 2 2 21"
_symmetry_group_IT_number 17
_symmetry_cell_setting 'orthorhombic'
loop_
_space_group_symop_operation_xyz
x,y,z
-x,-y,1/2+z
x,-y,-z
-x,y,1/2-z
loop_
_atom_site_type_symbol
_atom_site_label
_atom_site_fract_x
_atom_site_fract_y
_atom_site_fract_z
Si Si1 0.935175 0.760574 0.456956
Si Si2 0.244668 0.270500 0.465019
Si Si3 0.385202 0.500000 0.000000
Si Si4 0.703459 0.095252 0.448377
Si Si5 0.627513 0.901935 0.978173
Si Si6 0.500000 0.355577 0.250000
Si Si7 0.164415 0.597852 0.221341
O O1 0.822252 0.834852 0.499416
O O2 0.854282 0.668704 0.440199
O O3 0.000000 0.772764 0.250000
O O4 0.078470 0.753707 0.583144
O O5 0.302412 0.183416 0.563214
O O6 0.360996 0.298318 0.310961
O O7 0.222329 0.349604 0.604395
O O8 0.470261 0.417957 0.076947
O O9 0.279865 0.527834 0.164651
O O10 0.541924 0.100174 0.535533
O O11 0.663097 0.108532 0.236554
O O12 0.758726 0.000000 0.500000
O O13 0.681102 0.000000 0.000000
O O14 0.000000 0.563719 0.250000
#
# Coordination Sequence:
#
# PCOD9311235 Si02
#       7
#     4   4   2   4   4   2   4
#     4   9  22  44  66  98 133 180 232 272 335 397
#     4  10  23  45  67  95 141 176 228 270 334 406
#     4  12  26  44  72 100 136 168 224 284 350 412
#     4  10  22  41  66  97 139 184 231 278 329 398
#     4  10  23  40  64 106 140 182 225 276 336 393
#     4  12  26  44  68 104 132 174 226 280 346 418
#     4   9  23  45  68 100 131 177 221 279 338 407
#
# _framework density 23.057037000000001
#
# number of rings (size 3 to 8) (size 9 to 14) (size 15 to 20)
#    0.000    2.333    0.000    2.000    9.333    4.000 
#    6.000    0.000    0.000    0.000    0.000    0.000 
#    0.000    0.000    0.000    0.000    0.000    0.000 
#
# Total GULP energy -133996.288405 kJ/mol
# GULP energy per Si atom -5583.178684 kJ/mol
# Density = 2.300456 g / cm^3
# Si number density = 23.057037 Si / 1000 Ang^3
#
#
#
# Elastic Constant Matrix: (Units=GPa)
#
#
# Indices 1 2 3 4 5 6 
#
# 1 106.3487 49.4217 43.4519 0.0000 0.0000 0.0000
# 2 49.4217 82.1442 18.5892 0.0000 0.0000 0.0000
# 3 43.4519 18.5892 56.4047 0.0000 0.0000 0.0000
# 4 0.0000 0.0000 0.0000 25.0206 0.0000 0.0000
# 5 0.0000 0.0000 0.0000 0.0000 32.3340 0.0000
# 6 0.0000 0.0000 0.0000 0.0000 0.0000 -19.7493
#
#
#
# Elastic Compliance Matrix: (Units=1/GPa)
#
#
# Indices 1 2 3 4 5 6 
#
# 1 0.017647 -0.008149 -0.010909 0.000000 0.000000 0.000000
# 2 -0.008149 0.016917 0.000702 0.000000 0.000000 0.000000
# 3 -0.010909 0.000702 0.025902 0.000000 0.000000 0.000000
# 4 0.000000 0.000000 0.000000 0.039967 0.000000 0.000000
# 5 0.000000 0.000000 0.000000 0.000000 0.030927 0.000000
# 6 0.000000 0.000000 0.000000 0.000000 0.000000 -0.050635
#
#
# Mechanical properties :
#
#
# Convention : Reuss Voigt Hill
#
# Bulk Modulus (GPa) = 42.09715 51.98035 47.03875
# Shear Modulus (GPa) = 39.88673 16.41672 28.15172
#
# Velocity S-wave (km/s) = 4.16374 2.67124 3.49801
# Velocity P-wave (km/s) = 6.43530 5.66632 6.06301
#
# Compressibility (1/GPa) = 0.02375458
#
# Stress axis : x y z
#
# Youngs Moduli (GPa) = 56.66698 59.11072 38.60766
#
# Poissons Ratio (x) = 0.48166 0.42117
# Poissons Ratio (y) = 0.46175 -0.02710
# Poissons Ratio (z) = 0.61818 -0.04149
#
# Static dielectric constant tensor:
#      x y z
#    x 1.867420 0.000000 0.000000 
#    y 0.000000 1.855100 0.000000 
#    z 0.000000 0.000000 1.924890 
# 
# From -- ./inp_files/4270.got.cif
#   From: 2010.05.17/outbox.cif.g08.bks.cpg/sg17_3_cif.got.tgz:4270.got - 2010.06.03 22:34:06.
