data_PCOD9311180
_publ_section_title
;
Structure prediction by ZEFSAII (Michael W. Deem and Ramdas Pophale) SiO2 
 PCOD9311180
Probable space group: P 2 2 21
;
_chemical_formula_sum "Si O2"
_cell_formula_units_Z 24
_cell_length_a 8.413044
_cell_length_b 25.912409
_cell_length_c 5.529780
_cell_angle_alpha 90.000000
_cell_angle_beta 90.000000
_cell_angle_gamma 90.000000
_cell_volume 1205.504410
_symmetry_space_group_name_H-M "P 2 2 21"
_symmetry_group_IT_number 17
_symmetry_cell_setting 'orthorhombic'
loop_
_space_group_symop_operation_xyz
x,y,z
-x,-y,1/2+z
x,-y,-z
-x,y,1/2-z
loop_
_atom_site_type_symbol
_atom_site_label
_atom_site_fract_x
_atom_site_fract_y
_atom_site_fract_z
Si Si1 0.398983 0.000000 0.500000
Si Si2 0.396963 0.114035 0.500433
Si Si3 0.738952 0.305426 0.600345
Si Si4 0.096560 0.500000 0.500000
Si Si5 0.000000 0.721210 0.750000
Si Si6 0.165703 0.206873 0.616334
Si Si7 0.500000 0.652927 0.750000
Si Si8 0.670148 0.593129 0.113141
O O1 0.319490 0.943531 0.508349
O O2 0.500000 0.999191 0.250000
O O3 0.500000 0.115896 0.750000
O O4 0.268440 0.158725 0.533744
O O5 0.500000 0.120387 0.250000
O O6 0.746208 0.248739 0.715086
O O7 0.576847 0.311826 0.452324
O O8 0.741011 0.355273 0.768745
O O9 0.895555 0.309995 0.436798
O O10 0.210617 0.453805 0.592064
O O11 0.000000 0.514061 0.750000
O O12 0.120127 0.758505 0.612123
O O13 0.000000 0.192246 0.750000
O O14 0.368893 0.613939 0.652784
O O15 0.500000 0.581687 0.250000
#
# Coordination Sequence:
#
# PCOD9311180 Si02
#       8
#     2   4   4   2   2   4   2   4
#     4   8  16  36  60  88 124 160 218 276 334 372
#     4  10  22  38  65  95 124 172 223 281 325 389
#     4  10  22  42  63  97 122 175 210 267 324 396
#     4  12  32  50  74 112 138 172 226 284 328 398
#     4  10  22  40  62  84 136 174 208 262 328 402
#     4  10  23  40  59  91 136 172 213 266 336 394
#     4  10  22  42  70  94 126 166 224 266 318 398
#     4  10  25  47  73  96 132 176 221 272 335 394
#
# _framework density 19.908676
#
# number of rings (size 3 to 8) (size 9 to 14) (size 15 to 20)
#    0.000    2.000    0.000    1.000   10.500    6.667 
#    3.000    0.000    1.833    0.000    0.000    0.000 
#    0.000    0.000    0.000    0.000    0.000    0.000 
#
# Total GULP energy -133776.556137 kJ/mol
# GULP energy per Si atom -5574.023172 kJ/mol
# Density = 1.986336 g / cm^3
# Si number density = 19.908676 Si / 1000 Ang^3
#
#
#
# Elastic Constant Matrix: (Units=GPa)
#
#
# Indices 1 2 3 4 5 6 
#
# 1 65.2529 65.1529 21.2761 0.0000 0.0000 0.0000
# 2 65.1529 119.9109 25.5639 0.0000 0.0000 0.0000
# 3 21.2761 25.5639 85.9185 0.0000 0.0000 0.0000
# 4 0.0000 0.0000 0.0000 -214.7036 0.0000 0.0000
# 5 0.0000 0.0000 0.0000 0.0000 13.5502 0.0000
# 6 0.0000 0.0000 0.0000 0.0000 0.0000 -53.8101
#
#
#
# Elastic Compliance Matrix: (Units=1/GPa)
#
#
# Indices 1 2 3 4 5 6 
#
# 1 0.034276 -0.017953 -0.003146 0.000000 0.000000 0.000000
# 2 -0.017953 0.018308 -0.001001 0.000000 0.000000 0.000000
# 3 -0.003146 -0.001001 0.012716 0.000000 0.000000 0.000000
# 4 0.000000 0.000000 0.000000 -0.004658 0.000000 0.000000
# 5 0.000000 0.000000 0.000000 0.000000 0.073800 0.000000
# 6 0.000000 0.000000 0.000000 0.000000 0.000000 -0.018584
#
#
# Mechanical properties :
#
#
# Convention : Reuss Voigt Hill
#
# Bulk Modulus (GPa) = 47.39656 55.00757 51.20206
# Shear Modulus (GPa) = 29.92345 -40.38672 -5.23163
#
# Velocity S-wave (km/s) = 3.88111 -4.50888 -1.62281
# Velocity P-wave (km/s) = 6.62893 0.76369 4.71836
#
# Compressibility (1/GPa) = 0.02109858
#
# Stress axis : x y z
#
# Youngs Moduli (GPa) = 29.17457 54.62162 78.64111
#
# Poissons Ratio (x) = 0.98063 0.24742
# Poissons Ratio (y) = 0.52378 0.07876
# Poissons Ratio (z) = 0.09179 0.05470
#
# Static dielectric constant tensor:
#      x y z
#    x 1.768050 0.000000 0.000000 
#    y 0.000000 1.676230 0.000000 
#    z 0.000000 0.000000 1.808840 
# 
# From -- ./inp_files/1059.got.cif
#   From: 2010.05.17/outbox.cif.g08.bks.cpg/sg17_1_cif.got.tgz:1059.got - 2010.06.03 22:34:06.
