data_PCOD9311645
_publ_section_title
;
Structure prediction by ZEFSAII (Michael W. Deem and Ramdas Pophale) SiO2 
 PCOD9311645
Probable space group: P 21 21 2
;
_chemical_formula_sum "Si O2"
_cell_formula_units_Z 32
_cell_length_a 5.557371
_cell_length_b 30.984150
_cell_length_c 8.260415
_cell_angle_alpha 90.000000
_cell_angle_beta 90.000000
_cell_angle_gamma 90.000000
_cell_volume 1422.364301
_symmetry_space_group_name_H-M "P 21 21 2"
_symmetry_group_IT_number 18
_symmetry_cell_setting 'orthorhombic'
loop_
_space_group_symop_operation_xyz
x,y,z
-x,-y,z
1/2+x,1/2-y,-z
1/2-x,1/2+y,-z
loop_
_atom_site_type_symbol
_atom_site_label
_atom_site_fract_x
_atom_site_fract_y
_atom_site_fract_z
Si Si1 0.621267 0.262996 0.864865
Si Si2 0.541948 0.824710 0.022271
Si Si3 0.861387 0.234022 0.559282
Si Si4 0.708041 0.674978 0.687237
Si Si5 0.541885 0.412829 0.732229
Si Si6 0.040399 0.449507 0.734224
Si Si7 0.529737 0.448610 0.100904
Si Si8 0.029710 0.417768 0.109239
O O1 0.690324 0.305721 0.964852
O O2 0.832786 0.249216 0.742818
O O3 0.401397 0.280490 0.758670
O O4 0.579785 0.218900 0.957538
O O5 0.433977 0.836228 0.199529
O O6 0.504088 0.866524 0.913859
O O7 0.644347 0.263158 0.481361
O O8 0.763302 0.187183 0.500895
O O9 0.517502 0.637042 0.707858
O O10 0.801997 0.426221 0.666325
O O11 0.301441 0.436386 0.666862
O O12 0.548191 0.425297 0.924036
O O13 0.000000 0.500000 0.718760
O O14 0.047402 0.437846 0.926477
O O15 0.500000 0.500000 0.077791
O O16 0.287734 0.430231 0.183200
O O17 0.786036 0.437763 0.182520
#
# Coordination Sequence:
#
# PCOD9311645 Si02
#       8
#     4   4   4   4   4   4   4   4
#     4  11  23  36  54  79 108 149 194 233 279 325
#     4  12  21  34  53  77 111 146 184 235 280 330
#     4  10  22  38  57  75 105 143 191 229 271 321
#     4  11  21  36  52  76 106 149 184 232 273 333
#     4  10  18  27  45  68  97 134 169 206 263 320
#     4  10  17  28  44  68 103 136 160 205 268 333
#     4  10  17  29  45  68 103 137 163 206 268 336
#     4  10  19  28  44  69  99 138 166 209 264 325
#
# _framework density 22.497755000000002
#
# number of rings (size 3 to 8) (size 9 to 14) (size 15 to 20)
#    0.000    1.500    5.000    5.250    0.000    0.000 
#    0.000    0.000    0.000    0.000    0.000    0.000 
#    0.000    6.000    0.000    0.500    0.000    0.000 
#
# Total GULP energy -178207.665184 kJ/mol
# GULP energy per Si atom -5568.989537 kJ/mol
# Density = 2.244655 g / cm^3
# Si number density = 22.497755 Si / 1000 Ang^3
#
#
#
# Elastic Constant Matrix: (Units=GPa)
#
#
# Indices 1 2 3 4 5 6 
#
# 1 128.3269 4.9609 2.1955 0.0000 0.0000 0.0000
# 2 4.9609 103.1687 8.0876 0.0000 0.0000 0.0000
# 3 2.1955 8.0876 1.7420 0.0000 0.0000 0.0000
# 4 0.0000 0.0000 0.0000 -127.5691 0.0000 0.0000
# 5 0.0000 0.0000 0.0000 0.0000 4.2127 0.0000
# 6 0.0000 0.0000 0.0000 0.0000 0.0000 43.9488
#
#
#
# Elastic Compliance Matrix: (Units=1/GPa)
#
#
# Indices 1 2 3 4 5 6 
#
# 1 0.007991 0.000637 -0.013029 0.000000 0.000000 0.000000
# 2 0.000637 0.015290 -0.071793 0.000000 0.000000 0.000000
# 3 -0.013029 -0.071793 0.923804 0.000000 0.000000 0.000000
# 4 0.000000 0.000000 0.000000 -0.007839 0.000000 0.000000
# 5 0.000000 0.000000 0.000000 0.000000 0.237375 0.000000
# 6 0.000000 0.000000 0.000000 0.000000 0.000000 0.022754
#
#
# Mechanical properties :
#
#
# Convention : Reuss Voigt Hill
#
# Bulk Modulus (GPa) = 1.28417 29.30283 15.29350
# Shear Modulus (GPa) = 3.07254 -1.34860 0.86197
#
# Velocity S-wave (km/s) = 1.16990 -0.77507 0.61965
# Velocity P-wave (km/s) = 1.54820 3.50030 2.70638
#
# Compressibility (1/GPa) = 0.77871555
#
# Stress axis : x y z
#
# Youngs Moduli (GPa) = 125.14273 65.40132 1.08248
#
# Poissons Ratio (x) = -0.04167 0.01410
# Poissons Ratio (y) = -0.07974 0.07771
# Poissons Ratio (z) = 1.63054 4.69533
#
# Static dielectric constant tensor:
#      x y z
#    x 2.243770 0.000000 0.000000 
#    y 0.000000 1.813600 0.000000 
#    z 0.000000 0.000000 1.892310 
# 
# From -- ./inp_files/2676.got.cif
#   From: 2010.05.17/outbox.cif.g08.bks.cpg/sg18_2_cif.got.tgz:2676.got - 2010.06.03 22:40:56.
