data_PCOD9311622
_publ_section_title
;
Structure prediction by ZEFSAII (Michael W. Deem and Ramdas Pophale) SiO2 
 PCOD9311622
Probable space group: P 21 21 2
;
_chemical_formula_sum "Si O2"
_cell_formula_units_Z 26
_cell_length_a 5.365613
_cell_length_b 18.241342
_cell_length_c 10.606526
_cell_angle_alpha 90.000000
_cell_angle_beta 90.000000
_cell_angle_gamma 90.000000
_cell_volume 1038.124145
_symmetry_space_group_name_H-M "P 21 21 2"
_symmetry_group_IT_number 18
_symmetry_cell_setting 'orthorhombic'
loop_
_space_group_symop_operation_xyz
x,y,z
-x,-y,z
1/2+x,1/2-y,-z
1/2-x,1/2+y,-z
loop_
_atom_site_type_symbol
_atom_site_label
_atom_site_fract_x
_atom_site_fract_y
_atom_site_fract_z
Si Si1 0.832571 0.937137 0.927203
Si Si2 0.419926 0.737407 0.420744
Si Si3 0.490473 0.106611 0.361218
Si Si4 0.500000 0.000000 0.139521
Si Si5 0.484055 0.182679 0.865490
Si Si6 0.008064 0.777050 0.883353
Si Si7 0.509216 0.580613 0.482671
O O1 0.979657 0.859819 0.948005
O O2 0.726396 0.974700 0.052202
O O3 0.000000 0.000000 0.865553
O O4 0.414554 0.097381 0.860347
O O5 0.136171 0.751758 0.468530
O O6 0.505308 0.807284 0.339808
O O7 0.451282 0.650400 0.395366
O O8 0.556954 0.066262 0.232720
O O9 0.218007 0.083604 0.414176
O O10 0.714627 0.089205 0.458328
O O11 0.486397 0.213789 0.011064
O O12 0.249334 0.224526 0.808930
O O13 0.737457 0.211056 0.811529
O O14 0.500000 0.500000 0.424254
#
# Coordination Sequence:
#
# PCOD9311622 Si02
#       7
#     4   4   4   2   4   4   4
#     4  10  21  29  45  67  97 123 157 182 225 272
#     4   8  16  28  44  60  80 115 159 201 230 265
#     4  10  20  30  42  60  94 133 155 176 233 284
#     4  12  22  30  42  66 108 136 156 172 226 306
#     4   8  15  30  46  60  81 116 153 188 222 255
#     4   8  15  29  47  60  80 118 154 185 222 256
#     4  10  16  30  46  64  82 117 165 207 235 263
#
# _framework density 25.045176000000001
#
# number of rings (size 3 to 8) (size 9 to 14) (size 15 to 20)
#    0.923    1.846    1.538    0.923    2.154    0.000 
#    0.000    0.000    0.000    0.000    0.000    0.000 
#    0.000    1.231    5.231    0.000    0.000    0.000 
#
# Total GULP energy -144909.498167 kJ/mol
# GULP energy per Si atom -5573.442237 kJ/mol
# Density = 2.498817 g / cm^3
# Si number density = 25.045176 Si / 1000 Ang^3
#
#
#
# Elastic Constant Matrix: (Units=GPa)
#
#
# Indices 1 2 3 4 5 6 
#
# 1 164.6361 18.9969 14.3930 0.0000 0.0000 0.0000
# 2 18.9969 188.0143 31.8343 0.0000 0.0000 0.0000
# 3 14.3930 31.8343 51.2754 0.0000 0.0000 0.0000
# 4 0.0000 0.0000 0.0000 43.5666 0.0000 0.0000
# 5 0.0000 0.0000 0.0000 0.0000 29.4209 0.0000
# 6 0.0000 0.0000 0.0000 0.0000 0.0000 45.1652
#
#
#
# Elastic Compliance Matrix: (Units=1/GPa)
#
#
# Indices 1 2 3 4 5 6 
#
# 1 0.006250 -0.000374 -0.001522 0.000000 0.000000 0.000000
# 2 -0.000374 0.005966 -0.003599 0.000000 0.000000 0.000000
# 3 -0.001522 -0.003599 0.022164 0.000000 0.000000 0.000000
# 4 0.000000 0.000000 0.000000 0.022953 0.000000 0.000000
# 5 0.000000 0.000000 0.000000 0.000000 0.033989 0.000000
# 6 0.000000 0.000000 0.000000 0.000000 0.000000 0.022141
#
#
# Mechanical properties :
#
#
# Convention : Reuss Voigt Hill
#
# Bulk Modulus (GPa) = 42.75310 59.37491 51.06401
# Shear Modulus (GPa) = 37.80686 46.21064 42.00875
#
# Velocity S-wave (km/s) = 3.88950 4.30011 4.09995
# Velocity P-wave (km/s) = 6.10561 6.95796 6.54567
#
# Compressibility (1/GPa) = 0.02339012
#
# Stress axis : x y z
#
# Youngs Moduli (GPa) = 159.99431 167.61977 45.11759
#
# Poissons Ratio (x) = 0.06265 0.06869
# Poissons Ratio (y) = 0.05980 0.16238
# Poissons Ratio (z) = 0.24357 0.60326
#
# Static dielectric constant tensor:
#      x y z
#    x 2.108110 0.000000 0.000000 
#    y 0.000000 1.980300 0.000000 
#    z 0.000000 0.000000 2.234960 
# 
# From -- ./inp_files/7527.got.cif
#   From: 2010.05.17/outbox.cif.g08.bks.cpg/sg18_4_cif.got.tgz:7527.got - 2010.06.03 22:40:56.
