data_PCOD9311336
_publ_section_title
;
Structure prediction by ZEFSAII (Michael W. Deem and Ramdas Pophale) SiO2 
 PCOD9311336
Probable space group: P 2 2 21
;
_chemical_formula_sum "Si O2"
_cell_formula_units_Z 18
_cell_length_a 5.136750
_cell_length_b 4.950757
_cell_length_c 25.840447
_cell_angle_alpha 90.000000
_cell_angle_beta 90.000000
_cell_angle_gamma 90.000000
_cell_volume 657.143266
_symmetry_space_group_name_H-M "P 2 2 21"
_symmetry_group_IT_number 17
_symmetry_cell_setting 'orthorhombic'
loop_
_space_group_symop_operation_xyz
x,y,z
-x,-y,1/2+z
x,-y,-z
-x,y,1/2-z
loop_
_atom_site_type_symbol
_atom_site_label
_atom_site_fract_x
_atom_site_fract_y
_atom_site_fract_z
Si Si1 0.294669 0.572131 0.446344
Si Si2 0.000000 0.247239 0.750000
Si Si3 0.300703 0.433939 0.337441
Si Si4 0.346019 0.931466 0.162595
Si Si5 0.336777 0.926140 0.946289
O O1 0.153531 0.500000 0.500000
O O2 0.161476 0.494810 0.392345
O O3 0.545841 0.371576 0.447431
O O4 0.410297 0.872252 0.445735
O O5 0.151519 0.443845 0.710877
O O6 0.176549 0.059434 0.786238
O O7 0.406289 0.131379 0.332972
O O8 0.555424 0.625536 0.340763
O O9 0.207932 0.011576 0.108793
O O10 0.197845 0.000000 0.000000
#
# Coordination Sequence:
#
# PCOD9311336 Si02
#       5
#     4   2   4   4   4
#     4   8  14  29  56  85 116 157 201 253 317 372
#     4  12  26  42  68  96 132 178 218 260 320 384
#     4  10  23  41  62  93 128 166 215 265 316 379
#     4  10  23  41  62  93 128 166 215 265 316 379
#     4   8  14  29  56  85 116 157 201 253 317 372
#
# _framework density 27.391290999999999
#
# number of rings (size 3 to 8) (size 9 to 14) (size 15 to 20)
#    0.000    2.667    0.000    0.667    0.000    7.111 
#    0.000    0.000    0.000   26.667    0.000    6.222 
#    0.000    0.000    0.000    0.000    0.000    0.000 
#
# Total GULP energy -100861.722348 kJ/mol
# GULP energy per Si atom -5603.429019 kJ/mol
# Density = 2.732895 g / cm^3
# Si number density = 27.391291 Si / 1000 Ang^3
#
#
#
# Elastic Constant Matrix: (Units=GPa)
#
#
# Indices 1 2 3 4 5 6 
#
# 1 60.4419 29.5351 48.5279 0.0000 0.0000 0.0000
# 2 29.5351 116.2481 20.5000 0.0000 0.0000 0.0000
# 3 48.5279 20.5000 303.9259 0.0000 0.0000 0.0000
# 4 0.0000 0.0000 0.0000 40.6300 0.0000 0.0000
# 5 0.0000 0.0000 0.0000 0.0000 -162.4306 0.0000
# 6 0.0000 0.0000 0.0000 0.0000 0.0000 48.2354
#
#
#
# Elastic Compliance Matrix: (Units=1/GPa)
#
#
# Indices 1 2 3 4 5 6 
#
# 1 0.021418 -0.004897 -0.003090 0.000000 0.000000 0.000000
# 2 -0.004897 0.009825 0.000119 0.000000 0.000000 0.000000
# 3 -0.003090 0.000119 0.003776 0.000000 0.000000 0.000000
# 4 0.000000 0.000000 0.000000 0.024612 0.000000 0.000000
# 5 0.000000 0.000000 0.000000 0.000000 -0.006156 0.000000
# 6 0.000000 0.000000 0.000000 0.000000 0.000000 0.020732
#
#
# Mechanical properties :
#
#
# Convention : Reuss Voigt Hill
#
# Bulk Modulus (GPa) = 51.85470 75.30465 63.57967
# Shear Modulus (GPa) = 51.88358 10.75713 31.32035
#
# Velocity S-wave (km/s) = 4.35692 1.98387 3.38515
# Velocity P-wave (km/s) = 6.65451 5.72709 6.20814
#
# Compressibility (1/GPa) = 0.01928466
#
# Stress axis : x y z
#
# Youngs Moduli (GPa) = 46.68913 101.77674 264.86212
#
# Poissons Ratio (x) = 0.49839 0.81831
# Poissons Ratio (y) = 0.22863 -0.03156
# Poissons Ratio (z) = 0.14425 -0.01213
#
# Static dielectric constant tensor:
#      x y z
#    x 2.136640 0.000000 0.000000 
#    y 0.000000 2.018210 0.000000 
#    z 0.000000 0.000000 2.224650 
# 
# From -- ./inp_files/10711.got.cif
#   From: 2010.05.17/outbox.cif.g08.bks.cpg/sg17_6_cif.got.tgz:10711.got - 2010.06.03 22:34:06.
