data_PCOD9311505
_publ_section_title
;
Structure prediction by ZEFSAII (Michael W. Deem and Ramdas Pophale) SiO2 
 PCOD9311505
Probable space group: P 2 2 21
;
_chemical_formula_sum "Si O2"
_cell_formula_units_Z 16
_cell_length_a 6.401849
_cell_length_b 7.075038
_cell_length_c 15.744001
_cell_angle_alpha 90.000000
_cell_angle_beta 90.000000
_cell_angle_gamma 90.000000
_cell_volume 713.098153
_symmetry_space_group_name_H-M "P 2 2 21"
_symmetry_group_IT_number 17
_symmetry_cell_setting 'orthorhombic'
loop_
_space_group_symop_operation_xyz
x,y,z
-x,-y,1/2+z
x,-y,-z
-x,y,1/2-z
loop_
_atom_site_type_symbol
_atom_site_label
_atom_site_fract_x
_atom_site_fract_y
_atom_site_fract_z
Si Si1 0.944404 0.000000 0.500000
Si Si2 0.645781 0.920544 0.634538
Si Si3 0.304525 0.224611 0.572505
Si Si4 0.000000 0.144624 0.250000
Si Si5 0.303314 0.641992 0.625613
O O1 0.090161 0.106325 0.567611
O O2 0.789163 0.130253 0.446548
O O3 0.513401 0.738318 0.659581
O O4 0.807104 0.970004 0.709360
O O5 0.487789 0.086972 0.605779
O O6 0.299477 0.416698 0.625041
O O7 0.313624 0.287312 0.473010
O O8 0.890896 0.273732 0.177716
#
# Coordination Sequence:
#
# PCOD9311505 Si02
#       5
#     2   4   4   2   4
#     4  12  20  44  74 108 134 190 240 290 354 430
#     4  12  23  47  72 104 145 186 240 296 360 424
#     4  11  23  45  73 107 137 188 251 285 350 445
#     4  12  26  46  72 104 152 190 230 312 378 406
#     4  11  24  45  71 104 144 185 239 300 355 430
#
# _framework density 22.437306
#
# number of rings (size 3 to 8) (size 9 to 14) (size 15 to 20)
#    0.000    0.500    7.500    0.750    0.000    2.000 
#    0.000   18.750    0.000    0.000    0.000    0.000 
#    0.000    0.000    0.000    0.000    0.000    0.000 
#
# Total GULP energy -89320.682708 kJ/mol
# GULP energy per Si atom -5582.542669 kJ/mol
# Density = 2.238624 g / cm^3
# Si number density = 22.437306 Si / 1000 Ang^3
#
#
#
# Elastic Constant Matrix: (Units=GPa)
#
#
# Indices 1 2 3 4 5 6 
#
# 1 165.2005 80.8428 63.1406 0.0000 0.0000 0.0000
# 2 80.8428 145.5498 41.9043 0.0000 0.0000 0.0000
# 3 63.1406 41.9043 94.7004 0.0000 0.0000 0.0000
# 4 0.0000 0.0000 0.0000 16.5574 0.0000 0.0000
# 5 0.0000 0.0000 0.0000 0.0000 67.6371 0.0000
# 6 0.0000 0.0000 0.0000 0.0000 0.0000 -3.7823
#
#
#
# Elastic Compliance Matrix: (Units=1/GPa)
#
#
# Indices 1 2 3 4 5 6 
#
# 1 0.009895 -0.004121 -0.004773 0.000000 0.000000 0.000000
# 2 -0.004121 0.009590 -0.001496 0.000000 0.000000 0.000000
# 3 -0.004773 -0.001496 0.014404 0.000000 0.000000 0.000000
# 4 0.000000 0.000000 0.000000 0.060396 0.000000 0.000000
# 5 0.000000 0.000000 0.000000 0.000000 0.014785 0.000000
# 6 0.000000 0.000000 0.000000 0.000000 0.000000 -0.264389
#
#
# Mechanical properties :
#
#
# Convention : Reuss Voigt Hill
#
# Bulk Modulus (GPa) = 76.29024 86.35845 81.32435
# Shear Modulus (GPa) = -38.41169 30.71998 -3.84586
#
# Velocity S-wave (km/s) = -4.14207 3.70421 -1.31064
# Velocity P-wave (km/s) = 3.34659 7.54104 5.83382
#
# Compressibility (1/GPa) = 0.01310784
#
# Stress axis : x y z
#
# Youngs Moduli (GPa) = 101.06568 104.27195 69.42487
#
# Poissons Ratio (x) = 0.42975 0.33139
# Poissons Ratio (y) = 0.41654 0.10384
# Poissons Ratio (z) = 0.48242 0.15596
#
# Static dielectric constant tensor:
#      x y z
#    x 1.859590 0.000000 0.000000 
#    y 0.000000 1.788130 0.000000 
#    z 0.000000 0.000000 1.962810 
# 
# From -- ./inp_files/8813.got.cif
#   From: 2010.05.17/outbox.cif.g08.bks.cpg/sg17_5_cif.got.tgz:8813.got - 2010.06.03 22:34:06.
