data_PCOD9311756
_publ_section_title
;
Structure prediction by ZEFSAII (Michael W. Deem and Ramdas Pophale) SiO2 
 PCOD9311756
Probable space group: P 21 21 2
;
_chemical_formula_sum "Si O2"
_cell_formula_units_Z 18
_cell_length_a 7.838835
_cell_length_b 13.892611
_cell_length_c 6.874554
_cell_angle_alpha 90.000000
_cell_angle_beta 90.000000
_cell_angle_gamma 90.000000
_cell_volume 748.651892
_symmetry_space_group_name_H-M "P 21 21 2"
_symmetry_group_IT_number 18
_symmetry_cell_setting 'orthorhombic'
loop_
_space_group_symop_operation_xyz
x,y,z
-x,-y,z
1/2+x,1/2-y,-z
1/2-x,1/2+y,-z
loop_
_atom_site_type_symbol
_atom_site_label
_atom_site_fract_x
_atom_site_fract_y
_atom_site_fract_z
Si Si1 0.085374 0.299637 0.513000
Si Si2 0.905585 0.192961 0.209084
Si Si3 0.265212 0.971713 0.032269
Si Si4 0.500000 0.000000 0.683383
Si Si5 0.097312 0.659483 0.869098
O O1 0.265410 0.309143 0.619584
O O2 0.078237 0.398928 0.917957
O O3 0.070996 0.229229 0.327893
O O4 0.956000 0.275056 0.688827
O O5 0.895168 0.094120 0.087085
O O6 0.858816 0.275188 0.052947
O O7 0.326918 0.002822 0.816276
O O8 0.276910 0.069213 0.156287
O O9 0.520901 0.096209 0.559981
#
# Coordination Sequence:
#
# PCOD9311756 Si02
#       5
#     4   4   4   2   4
#     4  11  22  36  67  93 122 162 216 256 306 380
#     4  11  22  36  63 100 123 161 209 266 312 362
#     4   9  18  37  62  86 123 164 206 256 295 365
#     4  10  18  40  66  94 114 176 222 242 294 392
#     4   9  19  38  57  90 122 160 209 257 303 359
#
# _framework density 24.043218
#
# number of rings (size 3 to 8) (size 9 to 14) (size 15 to 20)
#    0.000    2.222    4.444    2.667    3.111    0.000 
#    0.000    0.000    0.000   32.000    0.000    0.000 
#    0.000    0.000    0.000    0.000    0.000    0.000 
#
# Total GULP energy -100381.853722 kJ/mol
# GULP energy per Si atom -5576.769651 kJ/mol
# Density = 2.398849 g / cm^3
# Si number density = 24.043218 Si / 1000 Ang^3
#
#
#
# Elastic Constant Matrix: (Units=GPa)
#
#
# Indices 1 2 3 4 5 6 
#
# 1 52.9996 3.7190 -6.1352 0.0000 0.0000 0.0000
# 2 3.7190 110.8230 32.4535 0.0000 0.0000 0.0000
# 3 -6.1352 32.4535 97.2975 0.0000 0.0000 0.0000
# 4 0.0000 0.0000 0.0000 50.6271 0.0000 0.0000
# 5 0.0000 0.0000 0.0000 0.0000 24.9153 0.0000
# 6 0.0000 0.0000 0.0000 0.0000 0.0000 34.1034
#
#
#
# Elastic Compliance Matrix: (Units=1/GPa)
#
#
# Indices 1 2 3 4 5 6 
#
# 1 0.019128 -0.001103 0.001574 0.000000 0.000000 0.000000
# 2 -0.001103 0.010064 -0.003426 0.000000 0.000000 0.000000
# 3 0.001574 -0.003426 0.011520 0.000000 0.000000 0.000000
# 4 0.000000 0.000000 0.000000 0.019752 0.000000 0.000000
# 5 0.000000 0.000000 0.000000 0.000000 0.040136 0.000000
# 6 0.000000 0.000000 0.000000 0.000000 0.000000 0.029323
#
#
# Mechanical properties :
#
#
# Convention : Reuss Voigt Hill
#
# Bulk Modulus (GPa) = 28.73485 35.68831 32.21158
# Shear Modulus (GPa) = 33.91376 37.33467 35.62422
#
# Velocity S-wave (km/s) = 3.75978 3.94485 3.85343
# Velocity P-wave (km/s) = 5.55205 5.96865 5.76411
#
# Compressibility (1/GPa) = 0.03480095
#
# Stress axis : x y z
#
# Youngs Moduli (GPa) = 52.28035 99.36636 86.80669
#
# Poissons Ratio (x) = 0.10958 -0.13663
# Poissons Ratio (y) = 0.05766 0.29743
# Poissons Ratio (z) = -0.08229 0.34046
#
# Static dielectric constant tensor:
#      x y z
#    x 2.117920 0.000000 0.000000 
#    y 0.000000 1.909880 0.000000 
#    z 0.000000 0.000000 1.991490 
# 
# From -- ./inp_files/1087.got.cif
#   From: 2010.05.17/outbox.cif.g08.bks.cpg/sg18_1_cif.got.tgz:1087.got - 2010.06.03 22:40:56.
