data_PCOD9311137
_publ_section_title
;
Structure prediction by ZEFSAII (Michael W. Deem and Ramdas Pophale) SiO2 
 PCOD9311137
Probable space group: P 2 2 21
;
_chemical_formula_sum "Si O2"
_cell_formula_units_Z 18
_cell_length_a 11.731783
_cell_length_b 6.592141
_cell_length_c 10.134364
_cell_angle_alpha 90.000000
_cell_angle_beta 90.000000
_cell_angle_gamma 90.000000
_cell_volume 783.767062
_symmetry_space_group_name_H-M "P 2 2 21"
_symmetry_group_IT_number 17
_symmetry_cell_setting 'orthorhombic'
loop_
_space_group_symop_operation_xyz
x,y,z
-x,-y,1/2+z
x,-y,-z
-x,y,1/2-z
loop_
_atom_site_type_symbol
_atom_site_label
_atom_site_fract_x
_atom_site_fract_y
_atom_site_fract_z
Si Si1 0.766648 0.141119 0.832895
Si Si2 0.500000 0.254376 0.250000
Si Si3 0.049494 0.000000 0.500000
Si Si4 0.695274 0.491458 0.643118
Si Si5 0.563726 0.000000 0.000000
Si Si6 0.890918 0.773308 0.697048
O O1 0.740853 0.284717 0.709123
O O2 0.651267 0.139863 0.917552
O O3 0.807782 0.916555 0.785290
O O4 0.870321 0.176065 0.936305
O O5 0.390161 0.398888 0.244519
O O6 0.502253 0.116847 0.383128
O O7 0.964233 0.073633 0.389011
O O8 0.635891 0.500000 0.500000
O O9 0.805454 0.630317 0.622708
O O10 0.000000 0.645002 0.750000
#
# Coordination Sequence:
#
# PCOD9311137 Si02
#       6
#     4   2   2   4   2   4
#     4  10  23  46  71 104 150 192 236 309 371 439
#     4  12  30  48  78 110 142 200 252 306 372 446
#     4   9  20  41  76 100 150 195 237 292 374 448
#     4  12  28  44  71 110 149 191 248 309 366 445
#     4  11  26  51  76 100 146 201 239 310 374 434
#     4  10  21  43  68 108 143 190 242 292 370 442
#
# _framework density 22.966004999999999
#
# number of rings (size 3 to 8) (size 9 to 14) (size 15 to 20)
#    0.000    1.333    2.222    1.333    6.222    5.333 
#    0.000    0.000    0.000    0.000    0.000    0.000 
#    0.000    0.000    0.000    0.000    0.000    0.000 
#
# Total GULP energy -100211.960067 kJ/mol
# GULP energy per Si atom -5567.331115 kJ/mol
# Density = 2.291373 g / cm^3
# Si number density = 22.966005 Si / 1000 Ang^3
#
#
#
# Elastic Constant Matrix: (Units=GPa)
#
#
# Indices 1 2 3 4 5 6 
#
# 1 77.9373 26.3117 0.6293 0.0000 0.0000 0.0000
# 2 26.3117 54.6190 40.5419 0.0000 0.0000 0.0000
# 3 0.6293 40.5419 108.4587 0.0000 0.0000 0.0000
# 4 0.0000 0.0000 0.0000 28.1336 0.0000 0.0000
# 5 0.0000 0.0000 0.0000 0.0000 47.3264 0.0000
# 6 0.0000 0.0000 0.0000 0.0000 0.0000 -49.8047
#
#
#
# Elastic Compliance Matrix: (Units=1/GPa)
#
#
# Indices 1 2 3 4 5 6 
#
# 1 0.016474 -0.010885 0.003973 0.000000 0.000000 0.000000
# 2 -0.010885 0.032532 -0.012097 0.000000 0.000000 0.000000
# 3 0.003973 -0.012097 0.013719 0.000000 0.000000 0.000000
# 4 0.000000 0.000000 0.000000 0.035545 0.000000 0.000000
# 5 0.000000 0.000000 0.000000 0.000000 0.021130 0.000000
# 6 0.000000 0.000000 0.000000 0.000000 0.000000 -0.020078
#
#
# Mechanical properties :
#
#
# Convention : Reuss Voigt Hill
#
# Bulk Modulus (GPa) = 40.47563 41.77565 41.12564
# Shear Modulus (GPa) = 34.34691 16.69988 25.52340
#
# Velocity S-wave (km/s) = 3.87144 2.69951 3.33732
# Velocity P-wave (km/s) = 6.13567 5.28641 5.72681
#
# Compressibility (1/GPa) = 0.02470622
#
# Stress axis : x y z
#
# Youngs Moduli (GPa) = 60.70344 30.73933 72.89178
#
# Poissons Ratio (x) = 0.33460 -0.28962
# Poissons Ratio (y) = 0.66076 0.88178
# Poissons Ratio (z) = -0.24119 0.37186
#
# Static dielectric constant tensor:
#      x y z
#    x 1.856750 0.000000 0.000000 
#    y 0.000000 1.862360 0.000000 
#    z 0.000000 0.000000 2.246240 
# 
# From -- ./inp_files/6860.got.cif
#   From: 2010.05.17/outbox.cif.g08.bks.cpg/sg17_4_cif.got.tgz:6860.got - 2010.06.03 22:34:06.
