data_PCOD9311350
_publ_section_title
;
Structure prediction by ZEFSAII (Michael W. Deem and Ramdas Pophale) SiO2 
 PCOD9311350
Probable space group: P 2 2 21
;
_chemical_formula_sum "Si O2"
_cell_formula_units_Z 22
_cell_length_a 6.404657
_cell_length_b 12.505272
_cell_length_c 13.182206
_cell_angle_alpha 90.000000
_cell_angle_beta 90.000000
_cell_angle_gamma 90.000000
_cell_volume 1055.788951
_symmetry_space_group_name_H-M "P 2 2 21"
_symmetry_group_IT_number 17
_symmetry_cell_setting 'orthorhombic'
loop_
_space_group_symop_operation_xyz
x,y,z
-x,-y,1/2+z
x,-y,-z
-x,y,1/2-z
loop_
_atom_site_type_symbol
_atom_site_label
_atom_site_fract_x
_atom_site_fract_y
_atom_site_fract_z
Si Si1 0.117604 0.968848 0.652438
Si Si2 0.786221 0.258301 0.080955
Si Si3 0.500000 0.649530 0.750000
Si Si4 0.189396 0.604545 0.930380
Si Si5 0.575817 0.788286 0.453638
Si Si6 0.500000 0.897799 0.250000
Si Si7 0.780447 0.000000 0.500000
O O1 0.151053 0.864918 0.585027
O O2 0.000000 0.925002 0.750000
O O3 0.936818 0.031130 0.591516
O O4 0.322539 0.031697 0.691133
O O5 0.634101 0.277105 0.175607
O O6 0.962717 0.347273 0.095395
O O7 0.651269 0.261253 0.978423
O O8 0.340103 0.592064 0.830600
O O9 0.179662 0.500000 0.000000
O O10 0.275282 0.698272 0.002966
O O11 0.593430 0.823159 0.337747
O O12 0.632693 0.897178 0.516233
#
# Coordination Sequence:
#
# PCOD9311350 Si02
#       7
#     4   4   2   4   4   2   2
#     4  12  23  37  65  96 142 180 231 277 344 427
#     4  11  23  42  69 101 135 188 231 296 342 430
#     4  10  23  43  74 102 134 172 244 292 350 414
#     4  11  25  47  73 103 138 185 240 299 361 424
#     4  11  25  43  65  99 141 179 235 285 361 422
#     4  12  25  41  62 106 144 194 220 286 360 440
#     4  12  22  44  64 100 142 188 230 296 354 432
#
# _framework density 20.837496999999999
#
# number of rings (size 3 to 8) (size 9 to 14) (size 15 to 20)
#    0.000    0.727    3.636    4.364    2.545    3.636 
#    0.000    1.818    0.000    0.000    0.000    0.000 
#    0.000    0.000    0.000    0.000    0.000    0.000 
#
# Total GULP energy -122601.383593 kJ/mol
# GULP energy per Si atom -5572.790163 kJ/mol
# Density = 2.079007 g / cm^3
# Si number density = 20.837497 Si / 1000 Ang^3
#
#
#
# Elastic Constant Matrix: (Units=GPa)
#
#
# Indices 1 2 3 4 5 6 
#
# 1 86.4459 35.3968 28.4903 0.0000 0.0000 0.0000
# 2 35.3968 101.2164 30.7804 0.0000 0.0000 0.0000
# 3 28.4903 30.7804 90.0148 0.0000 0.0000 0.0000
# 4 0.0000 0.0000 0.0000 31.4399 0.0000 0.0000
# 5 0.0000 0.0000 0.0000 0.0000 31.3301 0.0000
# 6 0.0000 0.0000 0.0000 0.0000 0.0000 -27.0427
#
#
#
# Elastic Compliance Matrix: (Units=1/GPa)
#
#
# Indices 1 2 3 4 5 6 
#
# 1 0.014251 -0.004031 -0.003132 0.000000 0.000000 0.000000
# 2 -0.004031 0.012167 -0.002884 0.000000 0.000000 0.000000
# 3 -0.003132 -0.002884 0.013087 0.000000 0.000000 0.000000
# 4 0.000000 0.000000 0.000000 0.031807 0.000000 0.000000
# 5 0.000000 0.000000 0.000000 0.000000 0.031918 0.000000
# 6 0.000000 0.000000 0.000000 0.000000 0.000000 -0.036979
#
#
# Mechanical properties :
#
#
# Convention : Reuss Voigt Hill
#
# Bulk Modulus (GPa) = 51.52237 51.89024 51.70631
# Shear Modulus (GPa) = 53.86996 19.34609 36.60803
#
# Velocity S-wave (km/s) = 5.09004 3.05032 4.19601
# Velocity P-wave (km/s) = 7.70222 6.11247 6.95293
#
# Compressibility (1/GPa) = 0.01940904
#
# Stress axis : x y z
#
# Youngs Moduli (GPa) = 70.17136 82.19087 76.41211
#
# Poissons Ratio (x) = 0.33133 0.23932
# Poissons Ratio (y) = 0.28288 0.22041
# Poissons Ratio (z) = 0.21978 0.23708
#
# Static dielectric constant tensor:
#      x y z
#    x 1.869440 0.000000 0.000000 
#    y 0.000000 1.710020 0.000000 
#    z 0.000000 0.000000 1.885420 
# 
# From -- ./inp_files/5981.got.cif
#   From: 2010.05.17/outbox.cif.g08.bks.cpg/sg17_3_cif.got.tgz:5981.got - 2010.06.03 22:34:06.
