data_PCOD9311435
_publ_section_title
;
Structure prediction by ZEFSAII (Michael W. Deem and Ramdas Pophale) SiO2 
 PCOD9311435
Probable space group: P 2 2 21
;
_chemical_formula_sum "Si O2"
_cell_formula_units_Z 18
_cell_length_a 6.156493
_cell_length_b 12.042596
_cell_length_c 10.269453
_cell_angle_alpha 90.000000
_cell_angle_beta 90.000000
_cell_angle_gamma 90.000000
_cell_volume 761.378868
_symmetry_space_group_name_H-M "P 2 2 21"
_symmetry_group_IT_number 17
_symmetry_cell_setting 'orthorhombic'
loop_
_space_group_symop_operation_xyz
x,y,z
-x,-y,1/2+z
x,-y,-z
-x,y,1/2-z
loop_
_atom_site_type_symbol
_atom_site_label
_atom_site_fract_x
_atom_site_fract_y
_atom_site_fract_z
Si Si1 0.341474 0.000000 0.500000
Si Si2 0.300839 0.712431 0.945161
Si Si3 0.028029 0.837886 0.378242
Si Si4 0.500000 0.125367 0.250000
Si Si5 0.009482 0.500000 0.000000
Si Si6 0.333019 0.636679 0.363315
O O1 0.465894 0.040914 0.371667
O O2 0.180011 0.101358 0.521716
O O3 0.331205 0.784478 0.814291
O O4 0.153137 0.601533 0.945665
O O5 0.182594 0.793401 0.049104
O O6 0.528229 0.671687 0.009069
O O7 0.000000 0.912902 0.250000
O O8 0.185117 0.740733 0.325092
O O9 0.843231 0.456532 0.891478
O O10 0.500000 0.607255 0.250000
#
# Coordination Sequence:
#
# PCOD9311435 Si02
#       6
#     2   4   4   2   2   4
#     4  12  30  48  80 118 152 214 258 330 392 466
#     4  11  25  52  73 115 157 204 259 332 386 483
#     4  11  25  45  78 109 151 200 263 318 392 468
#     4  12  30  52  82 116 164 208 268 328 398 468
#     4  10  26  48  76 114 152 210 258 322 408 466
#     4  11  22  49  73 110 146 203 260 325 390 470
#
# _framework density 23.641317000000001
#
# number of rings (size 3 to 8) (size 9 to 14) (size 15 to 20)
#    0.000    0.889    4.444    0.667    7.778    0.000 
#   12.000    0.000    0.000    0.000    0.000    0.000 
#    0.000    0.000    0.000    0.000    0.000    0.000 
#
# Total GULP energy -100471.055430 kJ/mol
# GULP energy per Si atom -5581.725302 kJ/mol
# Density = 2.358751 g / cm^3
# Si number density = 23.641317 Si / 1000 Ang^3
#
#
#
# Elastic Constant Matrix: (Units=GPa)
#
#
# Indices 1 2 3 4 5 6 
#
# 1 101.5113 34.1100 37.5342 0.0000 0.0000 0.0000
# 2 34.1100 70.6905 40.6987 0.0000 0.0000 0.0000
# 3 37.5342 40.6987 120.0625 0.0000 0.0000 0.0000
# 4 0.0000 0.0000 0.0000 23.6293 0.0000 0.0000
# 5 0.0000 0.0000 0.0000 0.0000 49.5476 0.0000
# 6 0.0000 0.0000 0.0000 0.0000 0.0000 23.3368
#
#
#
# Elastic Compliance Matrix: (Units=1/GPa)
#
#
# Indices 1 2 3 4 5 6 
#
# 1 0.012234 -0.004599 -0.002266 0.000000 0.000000 0.000000
# 2 -0.004599 0.019305 -0.005106 0.000000 0.000000 0.000000
# 3 -0.002266 -0.005106 0.010768 0.000000 0.000000 0.000000
# 4 0.000000 0.000000 0.000000 0.042320 0.000000 0.000000
# 5 0.000000 0.000000 0.000000 0.000000 0.020183 0.000000
# 6 0.000000 0.000000 0.000000 0.000000 0.000000 0.042851
#
#
# Mechanical properties :
#
#
# Convention : Reuss Voigt Hill
#
# Bulk Modulus (GPa) = 54.44937 57.43889 55.94413
# Shear Modulus (GPa) = 28.13333 31.29750 29.71541
#
# Velocity S-wave (km/s) = 3.45339 3.64242 3.54916
# Velocity P-wave (km/s) = 6.24361 6.48370 6.36479
#
# Compressibility (1/GPa) = 0.01836569
#
# Stress axis : x y z
#
# Youngs Moduli (GPa) = 81.73805 51.79981 92.86554
#
# Poissons Ratio (x) = 0.23822 0.21041
# Poissons Ratio (y) = 0.37590 0.47420
# Poissons Ratio (z) = 0.18520 0.26451
#
# Static dielectric constant tensor:
#      x y z
#    x 1.877450 0.000000 0.000000 
#    y 0.000000 1.907580 0.000000 
#    z 0.000000 0.000000 2.083310 
# 
# From -- ./inp_files/5855.got.cif
#   From: 2010.05.17/outbox.cif.g08.bks.cpg/sg17_3_cif.got.tgz:5855.got - 2010.06.03 22:34:06.
