data_PCOD9311538
_publ_section_title
;
Structure prediction by ZEFSAII (Michael W. Deem and Ramdas Pophale) SiO2 
 PCOD9311538
Probable space group: P 2 2 21
;
_chemical_formula_sum "Si O2"
_cell_formula_units_Z 16
_cell_length_a 9.530869
_cell_length_b 8.888514
_cell_length_c 8.305299
_cell_angle_alpha 90.000000
_cell_angle_beta 90.000000
_cell_angle_gamma 90.000000
_cell_volume 703.585585
_symmetry_space_group_name_H-M "P 2 2 21"
_symmetry_group_IT_number 17
_symmetry_cell_setting 'orthorhombic'
loop_
_space_group_symop_operation_xyz
x,y,z
-x,-y,1/2+z
x,-y,-z
-x,y,1/2-z
loop_
_atom_site_type_symbol
_atom_site_label
_atom_site_fract_x
_atom_site_fract_y
_atom_site_fract_z
Si Si1 0.396836 0.119232 0.113346
Si Si2 0.844855 0.560992 0.820325
Si Si3 0.847963 0.078100 0.173336
Si Si4 0.388902 0.381516 0.880280
O O1 0.500000 0.181300 0.250000
O O2 0.273274 0.030226 0.203246
O O3 0.340044 0.249281 0.997806
O O4 0.475921 0.000000 0.000000
O O5 0.825115 0.741161 0.832111
O O6 0.734502 0.472164 0.708465
O O7 0.000000 0.534656 0.750000
O O8 0.835223 0.500000 0.000000
O O9 0.000000 0.048100 0.250000
O O10 0.837678 0.000000 0.000000
O O11 0.500000 0.324784 0.750000
O O12 0.463610 0.500000 0.000000
#
# Coordination Sequence:
#
# PCOD9311538 Si02
#       4
#     4   4   4   4
#     4  12  27  47  71 104 142 187 240 291 353 420
#     4  11  26  44  73 107 140 182 233 292 356 422
#     4  11  26  47  73 104 141 184 235 289 356 422
#     4  12  25  45  72 104 142 185 234 290 350 421
#
# _framework density 22.740662
#
# number of rings (size 3 to 8) (size 9 to 14) (size 15 to 20)
#    0.000    0.500    2.500    4.500   10.500    1.000 
#    0.000    0.000    0.000    0.000    0.000    0.000 
#    0.000    0.000    0.000    0.000    0.000    0.000 
#
# Total GULP energy -89549.165793 kJ/mol
# GULP energy per Si atom -5596.822862 kJ/mol
# Density = 2.268890 g / cm^3
# Si number density = 22.740662 Si / 1000 Ang^3
#
#
#
# Elastic Constant Matrix: (Units=GPa)
#
#
# Indices 1 2 3 4 5 6 
#
# 1 121.7039 35.6789 69.0200 0.0000 0.0000 0.0000
# 2 35.6789 91.5791 79.6668 0.0000 0.0000 0.0000
# 3 69.0200 79.6668 192.9358 0.0000 0.0000 0.0000
# 4 0.0000 0.0000 0.0000 54.2330 0.0000 0.0000
# 5 0.0000 0.0000 0.0000 0.0000 39.4516 0.0000
# 6 0.0000 0.0000 0.0000 0.0000 0.0000 15.7931
#
#
#
# Elastic Compliance Matrix: (Units=1/GPa)
#
#
# Indices 1 2 3 4 5 6 
#
# 1 0.010402 -0.001273 -0.003196 0.000000 0.000000 0.000000
# 2 -0.001273 0.017196 -0.006645 0.000000 0.000000 0.000000
# 3 -0.003196 -0.006645 0.009070 0.000000 0.000000 0.000000
# 4 0.000000 0.000000 0.000000 0.018439 0.000000 0.000000
# 5 0.000000 0.000000 0.000000 0.000000 0.025348 0.000000
# 6 0.000000 0.000000 0.000000 0.000000 0.000000 0.063319
#
#
# Mechanical properties :
#
#
# Convention : Reuss Voigt Hill
#
# Bulk Modulus (GPa) = 69.24610 86.10557 77.67584
# Shear Modulus (GPa) = 29.27142 36.68575 32.97859
#
# Velocity S-wave (km/s) = 3.59163 4.02085 3.81229
# Velocity P-wave (km/s) = 6.90769 7.71380 7.32185
#
# Compressibility (1/GPa) = 0.01444125
#
# Stress axis : x y z
#
# Youngs Moduli (GPa) = 96.13466 58.15196 110.24971
#
# Poissons Ratio (x) = 0.07400 0.35233
# Poissons Ratio (y) = 0.12234 0.73266
# Poissons Ratio (z) = 0.30722 0.38645
#
# Static dielectric constant tensor:
#      x y z
#    x 1.819760 0.000000 0.000000 
#    y 0.000000 1.868820 0.000000 
#    z 0.000000 0.000000 1.849220 
# 
# From -- ./inp_files/3746.got.cif
#   From: 2010.05.17/outbox.cif.g08.bks.cpg/sg17_2_cif.got.tgz:3746.got - 2010.06.03 22:34:06.
