data_PCOD9311225
_publ_section_title
;
Structure prediction by ZEFSAII (Michael W. Deem and Ramdas Pophale) SiO2 
 PCOD9311225
Probable space group: P 2 2 21
;
_chemical_formula_sum "Si O2"
_cell_formula_units_Z 12
_cell_length_a 12.028599
_cell_length_b 5.055577
_cell_length_c 7.690900
_cell_angle_alpha 90.000000
_cell_angle_beta 90.000000
_cell_angle_gamma 90.000000
_cell_volume 467.695230
_symmetry_space_group_name_H-M "P 2 2 21"
_symmetry_group_IT_number 17
_symmetry_cell_setting 'orthorhombic'
loop_
_space_group_symop_operation_xyz
x,y,z
-x,-y,1/2+z
x,-y,-z
-x,y,1/2-z
loop_
_atom_site_type_symbol
_atom_site_label
_atom_site_fract_x
_atom_site_fract_y
_atom_site_fract_z
Si Si1 0.772905 0.597756 0.201307
Si Si2 0.867135 0.000000 0.000000
Si Si3 0.415190 0.736388 0.894189
Si Si4 0.000000 0.371578 0.250000
O O1 0.681376 0.444063 0.309023
O O2 0.891414 0.541411 0.289631
O O3 0.785035 0.092184 0.843583
O O4 0.766820 0.500000 0.000000
O O5 0.952484 0.200761 0.091064
O O6 0.500000 0.839011 0.750000
O O7 0.477669 0.500000 0.000000
O O8 0.379868 0.000000 0.000000
#
# Coordination Sequence:
#
# PCOD9311225 Si02
#       4
#     4   2   4   2
#     4  10  24  43  74 112 158 211 257 323 392 467
#     4  10  22  40  70 108 170 200 264 318 388 476
#     4  12  29  52  82 115 152 204 266 333 399 476
#     4  10  22  40  68 114 152 210 250 318 386 462
#
# _framework density 25.657734000000001
#
# number of rings (size 3 to 8) (size 9 to 14) (size 15 to 20)
#    0.000    1.333    0.000    3.000   11.667    4.000 
#    6.000    0.000    0.000    0.000    0.000    0.000 
#    0.000    0.000    0.000    0.000    0.000    0.000 
#
# Total GULP energy -66916.854655 kJ/mol
# GULP energy per Si atom -5576.404555 kJ/mol
# Density = 2.559934 g / cm^3
# Si number density = 25.657734 Si / 1000 Ang^3
#
#
#
# Elastic Constant Matrix: (Units=GPa)
#
#
# Indices 1 2 3 4 5 6 
#
# 1 136.3656 36.0111 53.4682 0.0000 0.0000 0.0000
# 2 36.0111 131.0521 51.3421 0.0000 0.0000 0.0000
# 3 53.4682 51.3421 120.4792 0.0000 0.0000 0.0000
# 4 0.0000 0.0000 0.0000 39.7245 0.0000 0.0000
# 5 0.0000 0.0000 0.0000 0.0000 37.2088 0.0000
# 6 0.0000 0.0000 0.0000 0.0000 0.0000 18.5811
#
#
#
# Elastic Compliance Matrix: (Units=1/GPa)
#
#
# Indices 1 2 3 4 5 6 
#
# 1 0.009006 -0.001091 -0.003532 0.000000 0.000000 0.000000
# 2 -0.001091 0.009292 -0.003476 0.000000 0.000000 0.000000
# 3 -0.003532 -0.003476 0.011349 0.000000 0.000000 0.000000
# 4 0.000000 0.000000 0.000000 0.025173 0.000000 0.000000
# 5 0.000000 0.000000 0.000000 0.000000 0.026875 0.000000
# 6 0.000000 0.000000 0.000000 0.000000 0.000000 0.053818
#
#
# Mechanical properties :
#
#
# Convention : Reuss Voigt Hill
#
# Bulk Modulus (GPa) = 74.35061 74.39329 74.37195
# Shear Modulus (GPa) = 32.01143 35.57459 33.79301
#
# Velocity S-wave (km/s) = 3.53602 3.72762 3.63308
# Velocity P-wave (km/s) = 6.76106 6.89814 6.82994
#
# Compressibility (1/GPa) = 0.01344979
#
# Stress axis : x y z
#
# Youngs Moduli (GPa) = 111.03442 107.61979 88.11529
#
# Poissons Ratio (x) = 0.11742 0.31122
# Poissons Ratio (y) = 0.12114 0.30625
# Poissons Ratio (z) = 0.39217 0.37404
#
# Static dielectric constant tensor:
#      x y z
#    x 1.972210 0.000000 0.000000 
#    y 0.000000 2.443260 0.000000 
#    z 0.000000 0.000000 2.116060 
# 
# From -- ./inp_files/4468.got.cif
#   From: 2010.05.17/outbox.cif.g08.bks.cpg/sg17_3_cif.got.tgz:4468.got - 2010.06.03 22:34:06.
