data_PCOD9311944
_publ_section_title
;
Structure prediction by ZEFSAII (Michael W. Deem and Ramdas Pophale) SiO2 
 PCOD9311944
Probable space group: P 21 21 2
;
_chemical_formula_sum "Si O2"
_cell_formula_units_Z 28
_cell_length_a 18.384372
_cell_length_b 11.111344
_cell_length_c 5.316594
_cell_angle_alpha 90.000000
_cell_angle_beta 90.000000
_cell_angle_gamma 90.000000
_cell_volume 1086.047673
_symmetry_space_group_name_H-M "P 21 21 2"
_symmetry_group_IT_number 18
_symmetry_cell_setting 'orthorhombic'
loop_
_space_group_symop_operation_xyz
x,y,z
-x,-y,z
1/2+x,1/2-y,-z
1/2-x,1/2+y,-z
loop_
_atom_site_type_symbol
_atom_site_label
_atom_site_fract_x
_atom_site_fract_y
_atom_site_fract_z
Si Si1 0.177241 0.372499 0.969298
Si Si2 0.242933 0.816197 0.531873
Si Si3 0.054173 0.835404 0.926619
Si Si4 0.433090 0.770173 0.390819
Si Si5 0.638873 0.873969 0.198022
Si Si6 0.133224 0.019525 0.616395
Si Si7 0.000000 0.500000 0.529598
Si Si8 0.500000 0.500000 0.725681
O O1 0.231634 0.317589 0.757091
O O2 0.098692 0.335551 0.859133
O O3 0.180634 0.517598 0.938501
O O4 0.196884 0.324939 0.244719
O O5 0.188328 0.708386 0.615222
O O6 0.205703 0.948178 0.561487
O O7 0.105135 0.724677 0.992045
O O8 0.006647 0.798616 0.685388
O O9 0.102043 0.954361 0.867505
O O10 0.994210 0.877057 0.120518
O O11 0.374209 0.662021 0.414810
O O12 0.456911 0.880894 0.573454
O O13 0.568135 0.934002 0.330946
O O14 0.073599 0.979848 0.417699
#
# Coordination Sequence:
#
# PCOD9311944 Si02
#       8
#     4   4   4   4   4   4   2   2
#     4  11  27  47  68 101 136 192 235 279 346 413
#     4  11  28  45  71 100 140 189 234 287 340 418
#     4  10  20  41  65 100 135 171 223 296 355 410
#     4  10  19  41  67  96 137 169 231 287 342 418
#     4   9  22  45  71  99 144 181 239 289 359 417
#     4  11  23  39  62 100 137 173 229 280 352 410
#     4   8  18  40  72  96 134 180 226 294 362 412
#     4  12  20  36  68 104 130 172 226 284 362 410
#
# _framework density 25.781556999999999
#
# number of rings (size 3 to 8) (size 9 to 14) (size 15 to 20)
#    0.000    1.714    2.857    0.000    8.000    1.143 
#    2.571    0.000    0.000    6.857    0.000    0.000 
#    0.000    0.000    0.000    0.000    0.000    0.000 
#
# Total GULP energy -155978.026404 kJ/mol
# GULP energy per Si atom -5570.643800 kJ/mol
# Density = 2.572288 g / cm^3
# Si number density = 25.781557 Si / 1000 Ang^3
#
#
#
# Elastic Constant Matrix: (Units=GPa)
#
#
# Indices 1 2 3 4 5 6 
#
# 1 73.6863 36.5212 10.0520 0.0000 0.0000 0.0000
# 2 36.5212 192.1471 30.3515 0.0000 0.0000 0.0000
# 3 10.0520 30.3515 56.2513 0.0000 0.0000 0.0000
# 4 0.0000 0.0000 0.0000 11.1068 0.0000 0.0000
# 5 0.0000 0.0000 0.0000 0.0000 27.4578 0.0000
# 6 0.0000 0.0000 0.0000 0.0000 0.0000 64.0538
#
#
#
# Elastic Compliance Matrix: (Units=1/GPa)
#
#
# Indices 1 2 3 4 5 6 
#
# 1 0.015063 -0.002665 -0.001254 0.000000 0.000000 0.000000
# 2 -0.002665 0.006161 -0.002848 0.000000 0.000000 0.000000
# 3 -0.001254 -0.002848 0.019538 0.000000 0.000000 0.000000
# 4 0.000000 0.000000 0.000000 0.090035 0.000000 0.000000
# 5 0.000000 0.000000 0.000000 0.000000 0.036419 0.000000
# 6 0.000000 0.000000 0.000000 0.000000 0.000000 0.015612
#
#
# Mechanical properties :
#
#
# Convention : Reuss Voigt Hill
#
# Bulk Modulus (GPa) = 36.72638 52.88157 44.80397
# Shear Modulus (GPa) = 24.33833 36.86769 30.60301
#
# Velocity S-wave (km/s) = 3.07583 3.78564 3.44904
# Velocity P-wave (km/s) = 5.18560 6.29794 5.76864
#
# Compressibility (1/GPa) = 0.02722839
#
# Stress axis : x y z
#
# Youngs Moduli (GPa) = 66.38826 162.31859 51.18214
#
# Poissons Ratio (x) = 0.43257 0.06417
# Poissons Ratio (y) = 0.17692 0.14576
# Poissons Ratio (z) = 0.08324 0.46227
#
# Static dielectric constant tensor:
#      x y z
#    x 2.037480 0.000000 0.000000 
#    y 0.000000 2.082120 0.000000 
#    z 0.000000 0.000000 2.066830 
# 
# From -- ./inp_files/1981.got.cif
#   From: 2010.05.17/outbox.cif.g08.bks.cpg/sg18_1_cif.got.tgz:1981.got - 2010.06.03 22:40:56.
