data_PCOD9311450
_publ_section_title
;
Structure prediction by ZEFSAII (Michael W. Deem and Ramdas Pophale) SiO2 
 PCOD9311450
Probable space group: P 2 2 21
;
_chemical_formula_sum "Si O2"
_cell_formula_units_Z 20
_cell_length_a 5.028064
_cell_length_b 10.334151
_cell_length_c 19.363857
_cell_angle_alpha 90.000000
_cell_angle_beta 90.000000
_cell_angle_gamma 90.000000
_cell_volume 1006.160971
_symmetry_space_group_name_H-M "P 2 2 21"
_symmetry_group_IT_number 17
_symmetry_cell_setting 'orthorhombic'
loop_
_space_group_symop_operation_xyz
x,y,z
-x,-y,1/2+z
x,-y,-z
-x,y,1/2-z
loop_
_atom_site_type_symbol
_atom_site_label
_atom_site_fract_x
_atom_site_fract_y
_atom_site_fract_z
Si Si1 0.909996 0.876630 0.549490
Si Si2 0.585628 0.287955 0.016870
Si Si3 0.811629 0.527637 0.684838
Si Si4 0.751618 0.837387 0.702280
Si Si5 0.679170 0.459875 0.893413
O O1 0.699821 0.777398 0.516903
O O2 0.798089 0.899957 0.627049
O O3 0.197551 0.808154 0.550232
O O4 0.923155 0.000000 0.500000
O O5 0.579252 0.417030 0.062612
O O6 0.665144 0.333232 0.940405
O O7 0.752341 0.681295 0.689750
O O8 0.531029 0.458369 0.669833
O O9 0.000000 0.494349 0.750000
O O10 0.017030 0.492838 0.624103
O O11 0.500000 0.869981 0.750000
O O12 0.000000 0.868151 0.750000
#
# Coordination Sequence:
#
# PCOD9311450 Si02
#       5
#     4   4   4   4   4
#     4  12  24  41  62  89 123 160 212 259 299 371
#     4  11  22  38  59  88 119 159 195 242 316 356
#     4  11  20  33  57  90 125 154 194 245 310 366
#     4  11  21  36  59  87 119 151 196 257 309 355
#     4  11  20  36  59  86 126 151 189 247 299 383
#
# _framework density 19.877535000000002
#
# number of rings (size 3 to 8) (size 9 to 14) (size 15 to 20)
#    0.000    0.800    4.000    6.000    0.000    3.200 
#    0.000    0.000    0.000   12.000    0.000    0.000 
#    0.000    0.000    0.000    0.000    0.000    0.000 
#
# Total GULP energy -111660.258386 kJ/mol
# GULP energy per Si atom -5583.012919 kJ/mol
# Density = 1.983229 g / cm^3
# Si number density = 19.877535 Si / 1000 Ang^3
#
#
#
# Elastic Constant Matrix: (Units=GPa)
#
#
# Indices 1 2 3 4 5 6 
#
# 1 102.9943 -6.4239 17.4524 0.0000 0.0000 0.0000
# 2 -6.4239 15.0777 23.3760 0.0000 0.0000 0.0000
# 3 17.4524 23.3760 114.8559 0.0000 0.0000 0.0000
# 4 0.0000 0.0000 0.0000 -122.1532 0.0000 0.0000
# 5 0.0000 0.0000 0.0000 0.0000 39.9123 0.0000
# 6 0.0000 0.0000 0.0000 0.0000 0.0000 -4.6672
#
#
#
# Elastic Compliance Matrix: (Units=1/GPa)
#
#
# Indices 1 2 3 4 5 6 
#
# 1 0.011025 0.010658 -0.003844 0.000000 0.000000 0.000000
# 2 0.010658 0.107200 -0.023437 0.000000 0.000000 0.000000
# 3 -0.003844 -0.023437 0.014061 0.000000 0.000000 0.000000
# 4 0.000000 0.000000 0.000000 -0.008186 0.000000 0.000000
# 5 0.000000 0.000000 0.000000 0.000000 0.025055 0.000000
# 6 0.000000 0.000000 0.000000 0.000000 0.000000 -0.214263
#
#
# Mechanical properties :
#
#
# Convention : Reuss Voigt Hill
#
# Bulk Modulus (GPa) = 10.09709 33.52633 21.81171
# Shear Modulus (GPa) = 4336.05393 -4.14672 2165.95361
#
# Velocity S-wave (km/s) = 46.75596 -1.44591 33.04564
# Velocity P-wave (km/s) = 54.03626 3.75706 38.30165
#
# Compressibility (1/GPa) = 0.09903846
#
# Stress axis : x y z
#
# Youngs Moduli (GPa) = 90.69919 9.32833 71.11964
#
# Poissons Ratio (x) = -0.09942 0.27342
# Poissons Ratio (y) = -0.96665 1.66686
# Poissons Ratio (z) = 0.34869 0.21863
#
# Static dielectric constant tensor:
#      x y z
#    x 3.433530 0.000000 0.000000 
#    y 0.000000 1.660050 0.000000 
#    z 0.000000 0.000000 1.775220 
# 
# From -- ./inp_files/8929.got.cif
#   From: 2010.05.17/outbox.cif.g08.bks.cpg/sg17_5_cif.got.tgz:8929.got - 2010.06.03 22:34:06.
