data_PCOD9311042
_publ_section_title
;
Structure prediction by ZEFSAII (Michael W. Deem and Ramdas Pophale) SiO2 
 PCOD9311042
Probable space group: P 2 2 21
;
_chemical_formula_sum "Si O2"
_cell_formula_units_Z 22
_cell_length_a 16.020548
_cell_length_b 7.764305
_cell_length_c 8.849491
_cell_angle_alpha 90.000000
_cell_angle_beta 90.000000
_cell_angle_gamma 90.000000
_cell_volume 1100.774212
_symmetry_space_group_name_H-M "P 2 2 21"
_symmetry_group_IT_number 17
_symmetry_cell_setting 'orthorhombic'
loop_
_space_group_symop_operation_xyz
x,y,z
-x,-y,1/2+z
x,-y,-z
-x,y,1/2-z
loop_
_atom_site_type_symbol
_atom_site_label
_atom_site_fract_x
_atom_site_fract_y
_atom_site_fract_z
Si Si1 0.596312 0.807927 0.932019
Si Si2 0.408173 0.191842 0.070362
Si Si3 0.237732 0.673816 0.418829
Si Si4 0.240414 0.677222 0.057443
Si Si5 0.130317 0.000000 0.000000
Si Si6 0.124816 0.000000 0.500000
Si Si7 0.000000 0.983189 0.750000
O O1 0.605809 0.816359 0.750762
O O2 0.502076 0.743137 0.961010
O O3 0.670832 0.704412 0.009059
O O4 0.600711 0.000000 0.000000
O O5 0.335300 0.302003 0.997349
O O6 0.402489 0.000000 0.000000
O O7 0.204462 0.500000 0.500000
O O8 0.241326 0.666159 0.238143
O O9 0.182649 0.843855 0.447820
O O10 0.202426 0.500000 0.000000
O O11 0.190552 0.836449 0.982836
O O12 0.069559 0.059703 0.863704
O O13 0.064437 0.087812 0.374518
#
# Coordination Sequence:
#
# PCOD9311042 Si02
#       7
#     4   4   4   4   2   2   2
#     4  10  21  38  63  96 135 180 226 272 322 381
#     4  10  21  38  63  96 135 180 226 272 322 381
#     4  12  26  42  69 101 136 179 222 272 330 392
#     4  12  26  42  69 101 136 179 222 272 330 392
#     4  11  24  48  71 100 132 170 217 272 332 407
#     4  11  24  48  71 100 132 170 217 272 332 407
#     4  10  24  46  78  94 128 174 212 270 346 396
#
# _framework density 19.985932999999999
#
# number of rings (size 3 to 8) (size 9 to 14) (size 15 to 20)
#    0.000    1.091    3.636    2.182    5.091    2.909 
#    0.000    5.455    0.000    0.000    0.000    0.000 
#    0.000    0.000    0.000    0.000    0.000    0.000 
#
# Total GULP energy -122568.898892 kJ/mol
# GULP energy per Si atom -5571.313586 kJ/mol
# Density = 1.994044 g / cm^3
# Si number density = 19.985933 Si / 1000 Ang^3
#
#
#
# Elastic Constant Matrix: (Units=GPa)
#
#
# Indices 1 2 3 4 5 6 
#
# 1 108.0658 43.3446 53.1441 0.0000 0.0000 0.0000
# 2 43.3446 115.5657 30.5807 0.0000 0.0000 0.0000
# 3 53.1441 30.5807 104.1609 0.0000 0.0000 0.0000
# 4 0.0000 0.0000 0.0000 26.3218 0.0000 0.0000
# 5 0.0000 0.0000 0.0000 0.0000 26.6171 0.0000
# 6 0.0000 0.0000 0.0000 0.0000 0.0000 -16.9237
#
#
#
# Elastic Compliance Matrix: (Units=1/GPa)
#
#
# Indices 1 2 3 4 5 6 
#
# 1 0.013563 -0.003530 -0.005884 0.000000 0.000000 0.000000
# 2 -0.003530 0.010301 -0.001223 0.000000 0.000000 0.000000
# 3 -0.005884 -0.001223 0.012961 0.000000 0.000000 0.000000
# 4 0.000000 0.000000 0.000000 0.037991 0.000000 0.000000
# 5 0.000000 0.000000 0.000000 0.000000 0.037570 0.000000
# 6 0.000000 0.000000 0.000000 0.000000 0.000000 -0.059089
#
#
# Mechanical properties :
#
#
# Convention : Reuss Voigt Hill
#
# Bulk Modulus (GPa) = 64.30190 64.65903 64.48047
# Shear Modulus (GPa) = 62.69209 20.58457 41.63833
#
# Velocity S-wave (km/s) = 5.60680 3.21277 4.56936
# Velocity P-wave (km/s) = 8.61153 6.79596 7.75704
#
# Compressibility (1/GPa) = 0.01555164
#
# Stress axis : x y z
#
# Youngs Moduli (GPa) = 73.73052 97.08026 77.15163
#
# Poissons Ratio (x) = 0.34270 0.45393
# Poissons Ratio (y) = 0.26027 0.09437
# Poissons Ratio (z) = 0.43380 0.11874
#
# Static dielectric constant tensor:
#      x y z
#    x 1.704760 0.000000 0.000000 
#    y 0.000000 1.705620 0.000000 
#    z 0.000000 0.000000 1.674260 
# 
# From -- ./inp_files/5097.got.cif
#   From: 2010.05.17/outbox.cif.g08.bks.cpg/sg17_3_cif.got.tgz:5097.got - 2010.06.03 22:34:06.
