data_PCOD9311584
_publ_section_title
;
Structure prediction by ZEFSAII (Michael W. Deem and Ramdas Pophale) SiO2 
 PCOD9311584
Probable space group: P 2 2 21
;
_chemical_formula_sum "Si O2"
_cell_formula_units_Z 14
_cell_length_a 4.681820
_cell_length_b 10.600227
_cell_length_c 10.706603
_cell_angle_alpha 90.000000
_cell_angle_beta 90.000000
_cell_angle_gamma 90.000000
_cell_volume 531.351092
_symmetry_space_group_name_H-M "P 2 2 21"
_symmetry_group_IT_number 17
_symmetry_cell_setting 'orthorhombic'
loop_
_space_group_symop_operation_xyz
x,y,z
-x,-y,1/2+z
x,-y,-z
-x,y,1/2-z
loop_
_atom_site_type_symbol
_atom_site_label
_atom_site_fract_x
_atom_site_fract_y
_atom_site_fract_z
Si Si1 0.347118 0.741153 0.121058
Si Si2 0.500000 0.759525 0.750000
Si Si3 0.825651 0.358325 0.026301
Si Si4 0.190058 0.990761 0.869781
O O1 0.500000 0.700584 0.250000
O O2 0.979122 0.723626 0.428679
O O3 0.402058 0.891239 0.116045
O O4 0.508329 0.654478 0.024656
O O5 0.255477 0.685767 0.669052
O O6 0.339591 0.857424 0.843265
O O7 0.924946 0.500000 0.000000
O O8 0.000000 0.016451 0.750000
O O9 0.022916 0.000000 0.000000
#
# Coordination Sequence:
#
# PCOD9311584 Si02
#       4
#     4   2   4   4
#     4  12  26  51  82 122 162 226 293 366 444 520
#     4  12  28  50  84 120 178 228 292 378 450 538
#     4  12  29  53  82 123 176 232 296 359 445 547
#     4  12  25  47  80 122 175 220 294 374 454 534
#
# _framework density 26.347928
#
# number of rings (size 3 to 8) (size 9 to 14) (size 15 to 20)
#    0.000    0.000    4.286    5.143    2.000    1.143 
#    5.143    0.000    0.000    0.000    0.000    0.000 
#    0.000    0.000    0.000    0.000    0.000    0.000 
#
# Total GULP energy -77999.276688 kJ/mol
# GULP energy per Si atom -5571.376906 kJ/mol
# Density = 2.628796 g / cm^3
# Si number density = 26.347928 Si / 1000 Ang^3
#
#
#
# Elastic Constant Matrix: (Units=GPa)
#
#
# Indices 1 2 3 4 5 6 
#
# 1 112.6436 34.0611 58.5591 0.0000 0.0000 0.0000
# 2 34.0611 164.1667 62.0277 0.0000 0.0000 0.0000
# 3 58.5591 62.0277 225.9887 0.0000 0.0000 0.0000
# 4 0.0000 0.0000 0.0000 21.6991 0.0000 0.0000
# 5 0.0000 0.0000 0.0000 0.0000 61.8558 0.0000
# 6 0.0000 0.0000 0.0000 0.0000 0.0000 32.9138
#
#
#
# Elastic Compliance Matrix: (Units=1/GPa)
#
#
# Indices 1 2 3 4 5 6 
#
# 1 0.010496 -0.001283 -0.002368 0.000000 0.000000 0.000000
# 2 -0.001283 0.006953 -0.001576 0.000000 0.000000 0.000000
# 3 -0.002368 -0.001576 0.005471 0.000000 0.000000 0.000000
# 4 0.000000 0.000000 0.000000 0.046085 0.000000 0.000000
# 5 0.000000 0.000000 0.000000 0.000000 0.016167 0.000000
# 6 0.000000 0.000000 0.000000 0.000000 0.000000 0.030382
#
#
# Mechanical properties :
#
#
# Convention : Reuss Voigt Hill
#
# Bulk Modulus (GPa) = 80.21198 90.23275 85.22237
# Shear Modulus (GPa) = 38.41320 46.50382 42.45851
#
# Velocity S-wave (km/s) = 3.82242 4.20574 4.01865
# Velocity P-wave (km/s) = 7.07040 7.60955 7.34493
#
# Compressibility (1/GPa) = 0.01246697
#
# Stress axis : x y z
#
# Youngs Moduli (GPa) = 95.27050 143.82205 182.77983
#
# Poissons Ratio (x) = 0.18455 0.43276
# Poissons Ratio (y) = 0.12225 0.28804
# Poissons Ratio (z) = 0.22557 0.22665
#
# Static dielectric constant tensor:
#      x y z
#    x 2.043800 0.000000 0.000000 
#    y 0.000000 2.044430 0.000000 
#    z 0.000000 0.000000 2.566750 
# 
# From -- ./inp_files/3754.got.cif
#   From: 2010.05.17/outbox.cif.g08.bks.cpg/sg17_2_cif.got.tgz:3754.got - 2010.06.03 22:34:06.
