data_PCOD9311337
_publ_section_title
;
Structure prediction by ZEFSAII (Michael W. Deem and Ramdas Pophale) SiO2 
 PCOD9311337
Probable space group: P 2 2 21
;
_chemical_formula_sum "Si O2"
_cell_formula_units_Z 24
_cell_length_a 7.590593
_cell_length_b 5.289723
_cell_length_c 27.252478
_cell_angle_alpha 90.000000
_cell_angle_beta 90.000000
_cell_angle_gamma 90.000000
_cell_volume 1094.245159
_symmetry_space_group_name_H-M "P 2 2 21"
_symmetry_group_IT_number 17
_symmetry_cell_setting 'orthorhombic'
loop_
_space_group_symop_operation_xyz
x,y,z
-x,-y,1/2+z
x,-y,-z
-x,y,1/2-z
loop_
_atom_site_type_symbol
_atom_site_label
_atom_site_fract_x
_atom_site_fract_y
_atom_site_fract_z
Si Si1 0.047338 0.250197 0.972015
Si Si2 0.652087 0.749603 0.986121
Si Si3 0.285950 0.243378 0.878514
Si Si4 0.670551 0.806708 0.775733
Si Si5 0.528982 0.255233 0.116882
Si Si6 0.186330 0.297788 0.765267
O O1 0.125206 0.250934 0.917449
O O2 0.832465 0.250320 0.981319
O O3 0.108541 0.500000 0.000000
O O4 0.108105 0.000000 0.000000
O O5 0.549699 0.500000 0.000000
O O6 0.668238 0.747165 0.927847
O O7 0.550923 0.000000 0.000000
O O8 0.410941 0.490443 0.884681
O O9 0.215325 0.245428 0.822660
O O10 0.401675 0.989626 0.886225
O O11 0.500000 0.926535 0.750000
O O12 0.633914 0.762909 0.832502
O O13 0.693650 0.534111 0.750698
O O14 0.803738 0.034062 0.764684
O O15 0.000000 0.409980 0.750000
#
# Coordination Sequence:
#
# PCOD9311337 Si02
#       6
#     4   4   4   4   4   4
#     4  10  23  41  64  87 131 172 213 278 340 396
#     4  10  23  43  63  94 130 168 227 275 329 404
#     4  12  24  42  65 100 131 177 220 278 341 406
#     4  12  23  46  72 100 144 182 225 292 332 410
#     4  12  25  40  73  98 131 179 232 271 345 405
#     4  12  26  43  69 104 143 181 230 278 344 408
#
# _framework density 21.932928
#
# number of rings (size 3 to 8) (size 9 to 14) (size 15 to 20)
#    0.000    0.667    3.333    4.000    0.000    9.333 
#    0.000    0.000    0.000    0.000    0.000    0.000 
#    0.000    0.000    0.000    0.000    0.000    0.000 
#
# Total GULP energy -133958.665292 kJ/mol
# GULP energy per Si atom -5581.611054 kJ/mol
# Density = 2.188301 g / cm^3
# Si number density = 21.932928 Si / 1000 Ang^3
#
#
#
# Elastic Constant Matrix: (Units=GPa)
#
#
# Indices 1 2 3 4 5 6 
#
# 1 77.5790 6.5257 18.1582 0.0000 0.0000 0.0000
# 2 6.5257 172.4058 18.8158 0.0000 0.0000 0.0000
# 3 18.1582 18.8158 146.5600 0.0000 0.0000 0.0000
# 4 0.0000 0.0000 0.0000 70.6251 0.0000 0.0000
# 5 0.0000 0.0000 0.0000 0.0000 34.6809 0.0000
# 6 0.0000 0.0000 0.0000 0.0000 0.0000 37.6413
#
#
#
# Elastic Compliance Matrix: (Units=1/GPa)
#
#
# Indices 1 2 3 4 5 6 
#
# 1 0.013293 -0.000328 -0.001605 0.000000 0.000000 0.000000
# 2 -0.000328 0.005891 -0.000716 0.000000 0.000000 0.000000
# 3 -0.001605 -0.000716 0.007114 0.000000 0.000000 0.000000
# 4 0.000000 0.000000 0.000000 0.014159 0.000000 0.000000
# 5 0.000000 0.000000 0.000000 0.000000 0.028834 0.000000
# 6 0.000000 0.000000 0.000000 0.000000 0.000000 0.026567
#
#
# Mechanical properties :
#
#
# Convention : Reuss Voigt Hill
#
# Bulk Modulus (GPa) = 47.61698 53.72712 50.67205
# Shear Modulus (GPa) = 46.22974 52.12579 49.17776
#
# Velocity S-wave (km/s) = 4.59603 4.88033 4.74031
# Velocity P-wave (km/s) = 7.06556 7.50374 7.28794
#
# Compressibility (1/GPa) = 0.02100091
#
# Stress axis : x y z
#
# Youngs Moduli (GPa) = 75.22573 169.75661 140.57071
#
# Poissons Ratio (x) = 0.05568 0.22560
# Poissons Ratio (y) = 0.02468 0.10060
# Poissons Ratio (z) = 0.12073 0.12148
#
# Static dielectric constant tensor:
#      x y z
#    x 1.685390 0.000000 0.000000 
#    y 0.000000 1.824320 0.000000 
#    z 0.000000 0.000000 1.774730 
# 
# From -- ./inp_files/10952.got.cif
#   From: 2010.05.17/outbox.cif.g08.bks.cpg/sg17_6_cif.got.tgz:10952.got - 2010.06.03 22:34:06.
