data_PCOD9311892
_publ_section_title
;
Structure prediction by ZEFSAII (Michael W. Deem and Ramdas Pophale) SiO2 
 PCOD9311892
Probable space group: P 21 21 2
;
_chemical_formula_sum "Si O2"
_cell_formula_units_Z 28
_cell_length_a 12.755687
_cell_length_b 5.185392
_cell_length_c 20.675137
_cell_angle_alpha 90.000000
_cell_angle_beta 90.000000
_cell_angle_gamma 90.000000
_cell_volume 1367.520493
_symmetry_space_group_name_H-M "P 21 21 2"
_symmetry_group_IT_number 18
_symmetry_cell_setting 'orthorhombic'
loop_
_space_group_symop_operation_xyz
x,y,z
-x,-y,z
1/2+x,1/2-y,-z
1/2-x,1/2+y,-z
loop_
_atom_site_type_symbol
_atom_site_label
_atom_site_fract_x
_atom_site_fract_y
_atom_site_fract_z
Si Si1 0.279614 0.798797 0.598479
Si Si2 0.885677 0.892986 0.519072
Si Si3 0.777765 0.431255 0.284105
Si Si4 0.882232 0.592674 0.648458
Si Si5 0.336680 0.509717 0.930974
Si Si6 0.614493 0.992502 0.015716
Si Si7 0.620568 0.441115 0.781027
O O1 0.365956 0.662178 0.555736
O O2 0.207179 0.629092 0.646811
O O3 0.202694 0.912813 0.544282
O O4 0.326166 0.018238 0.644638
O O5 0.880885 0.667436 0.572359
O O6 0.000000 0.000000 0.528299
O O7 0.659906 0.333098 0.307801
O O8 0.821830 0.677508 0.242983
O O9 0.817045 0.184254 0.246173
O O10 0.000000 0.500000 0.665428
O O11 0.373335 0.748852 0.974140
O O12 0.375471 0.545787 0.858698
O O13 0.373319 0.248365 0.966559
O O14 0.210080 0.515216 0.934326
O O15 0.500000 0.000000 0.046435
O O16 0.500000 0.500000 0.760643
#
# Coordination Sequence:
#
# PCOD9311892 Si02
#       7
#     4   4   4   4   4   4   4
#     4  11  22  41  62  93 128 158 210 272 319 407
#     4  11  22  36  65  96 125 164 203 268 344 403
#     4  11  26  44  65  92 126 171 220 271 315 385
#     4  11  22  43  68  89 125 165 217 269 338 401
#     4  10  22  37  66  99 132 173 219 260 312 384
#     4  10  19  37  64 101 137 170 209 265 322 368
#     4  12  24  45  66  92 132 176 221 265 321 387
#
# _framework density 20.475013000000001
#
# number of rings (size 3 to 8) (size 9 to 14) (size 15 to 20)
#    0.000    1.143    4.286    2.571    0.000    0.571 
#    2.571    0.714    0.000    0.000    0.000    0.000 
#    0.000    0.000    0.000    0.000    0.000    0.000 
#
# Total GULP energy -156016.752874 kJ/mol
# GULP energy per Si atom -5572.026888 kJ/mol
# Density = 2.042841 g / cm^3
# Si number density = 20.475013 Si / 1000 Ang^3
#
#
#
# Elastic Constant Matrix: (Units=GPa)
#
#
# Indices 1 2 3 4 5 6 
#
# 1 74.2952 15.2818 15.2373 0.0000 0.0000 0.0000
# 2 15.2818 131.8292 19.3635 0.0000 0.0000 0.0000
# 3 15.2373 19.3635 52.2385 0.0000 0.0000 0.0000
# 4 0.0000 0.0000 0.0000 41.2546 0.0000 0.0000
# 5 0.0000 0.0000 0.0000 0.0000 37.5254 0.0000
# 6 0.0000 0.0000 0.0000 0.0000 0.0000 19.6708
#
#
#
# Elastic Compliance Matrix: (Units=1/GPa)
#
#
# Indices 1 2 3 4 5 6 
#
# 1 0.014470 -0.001118 -0.003806 0.000000 0.000000 0.000000
# 2 -0.001118 0.008109 -0.002680 0.000000 0.000000 0.000000
# 3 -0.003806 -0.002680 0.021246 0.000000 0.000000 0.000000
# 4 0.000000 0.000000 0.000000 0.024240 0.000000 0.000000
# 5 0.000000 0.000000 0.000000 0.000000 0.026649 0.000000
# 6 0.000000 0.000000 0.000000 0.000000 0.000000 0.050837
#
#
# Mechanical properties :
#
#
# Convention : Reuss Voigt Hill
#
# Bulk Modulus (GPa) = 34.94381 39.79202 37.36791
# Shear Modulus (GPa) = 29.36024 33.58885 31.47454
#
# Velocity S-wave (km/s) = 3.79087 4.05468 3.92499
# Velocity P-wave (km/s) = 6.02200 6.43406 6.23144
#
# Compressibility (1/GPa) = 0.02861737
#
# Stress axis : x y z
#
# Youngs Moduli (GPa) = 69.10614 123.32299 47.06671
#
# Poissons Ratio (x) = 0.13792 0.17915
# Poissons Ratio (y) = 0.07729 0.12612
# Poissons Ratio (z) = 0.26304 0.33045
#
# Static dielectric constant tensor:
#      x y z
#    x 1.764550 0.000000 0.000000 
#    y 0.000000 1.488680 0.000000 
#    z 0.000000 0.000000 1.687210 
# 
# From -- ./inp_files/7556.got.cif
#   From: 2010.05.17/outbox.cif.g08.bks.cpg/sg18_4_cif.got.tgz:7556.got - 2010.06.03 22:40:56.
