data_PCOD9311642
_publ_section_title
;
Structure prediction by ZEFSAII (Michael W. Deem and Ramdas Pophale) SiO2 
 PCOD9311642
Probable space group: P 21 21 2
;
_chemical_formula_sum "Si O2"
_cell_formula_units_Z 24
_cell_length_a 12.929624
_cell_length_b 5.442142
_cell_length_c 15.002733
_cell_angle_alpha 90.000000
_cell_angle_beta 90.000000
_cell_angle_gamma 90.000000
_cell_volume 1055.665054
_symmetry_space_group_name_H-M "P 21 21 2"
_symmetry_group_IT_number 18
_symmetry_cell_setting 'orthorhombic'
loop_
_space_group_symop_operation_xyz
x,y,z
-x,-y,z
1/2+x,1/2-y,-z
1/2-x,1/2+y,-z
loop_
_atom_site_type_symbol
_atom_site_label
_atom_site_fract_x
_atom_site_fract_y
_atom_site_fract_z
Si Si1 0.229692 0.498154 0.552766
Si Si2 0.345923 0.872843 0.983317
Si Si3 0.000000 0.000000 0.758364
Si Si4 0.298312 0.369289 0.736734
Si Si5 0.500000 0.000000 0.359541
Si Si6 0.714843 0.628033 0.197725
Si Si7 0.630426 0.629922 0.925908
O O1 0.258238 0.763044 0.512009
O O2 0.310321 0.437867 0.633692
O O3 0.109302 0.509497 0.586396
O O4 0.283242 0.879846 0.889744
O O5 0.403969 0.620016 0.971352
O O6 0.402977 0.129422 0.978858
O O7 0.257006 0.868520 0.057806
O O8 0.008264 0.247067 0.698200
O O9 0.901136 0.048379 0.818368
O O10 0.223525 0.597335 0.764543
O O11 0.382001 0.369901 0.818407
O O12 0.256239 0.090422 0.738704
#
# Coordination Sequence:
#
# PCOD9311642 Si02
#       7
#     4   4   2   4   2   4   4
#     4  12  24  39  58  83 111 144 191 241 287 350
#     4   8  14  23  37  64  92 128 160 200 244 296
#     4  12  18  32  52  76 106 150 180 214 288 354
#     4  10  18  32  47  73 101 135 176 224 272 325
#     4  12  24  40  58  80 112 150 180 232 304 342
#     4  10  17  27  46  70 102 136 176 207 265 331
#     4   8  14  24  41  60  95 127 161 204 252 294
#
# _framework density 22.734483000000001
#
# number of rings (size 3 to 8) (size 9 to 14) (size 15 to 20)
#    0.000    2.000    3.333    2.000    0.000    0.000 
#    0.000    0.000    0.000    0.000    0.000    2.333 
#    0.000    0.000    0.000    0.000    0.000    0.000 
#
# Total GULP energy -133738.102404 kJ/mol
# GULP energy per Si atom -5572.420934 kJ/mol
# Density = 2.268274 g / cm^3
# Si number density = 22.734483 Si / 1000 Ang^3
#
#
#
# Elastic Constant Matrix: (Units=GPa)
#
#
# Indices 1 2 3 4 5 6 
#
# 1 68.9998 40.0270 -0.3707 0.0000 0.0000 0.0000
# 2 40.0270 208.7196 30.7899 0.0000 0.0000 0.0000
# 3 -0.3707 30.7899 82.0532 0.0000 0.0000 0.0000
# 4 0.0000 0.0000 0.0000 38.3381 0.0000 0.0000
# 5 0.0000 0.0000 0.0000 0.0000 -140.2632 0.0000
# 6 0.0000 0.0000 0.0000 0.0000 0.0000 37.0683
#
#
#
# Elastic Compliance Matrix: (Units=1/GPa)
#
#
# Indices 1 2 3 4 5 6 
#
# 1 0.016443 -0.003350 0.001331 0.000000 0.000000 0.000000
# 2 -0.003350 0.005754 -0.002174 0.000000 0.000000 0.000000
# 3 0.001331 -0.002174 0.013009 0.000000 0.000000 0.000000
# 4 0.000000 0.000000 0.000000 0.026084 0.000000 0.000000
# 5 0.000000 0.000000 0.000000 0.000000 -0.007129 0.000000
# 6 0.000000 0.000000 0.000000 0.000000 0.000000 0.026977
#
#
# Mechanical properties :
#
#
# Convention : Reuss Voigt Hill
#
# Bulk Modulus (GPa) = 37.28448 55.62946 46.45697
# Shear Modulus (GPa) = 50.77992 6.31706 28.54849
#
# Velocity S-wave (km/s) = 4.73123 1.66873 3.54748
# Velocity P-wave (km/s) = 6.80306 5.31368 6.10397
#
# Compressibility (1/GPa) = 0.02682081
#
# Stress axis : x y z
#
# Youngs Moduli (GPa) = 60.81556 173.78388 76.86898
#
# Poissons Ratio (x) = 0.58213 -0.10233
# Poissons Ratio (y) = 0.20372 0.16714
# Poissons Ratio (z) = -0.08096 0.37787
#
# Static dielectric constant tensor:
#      x y z
#    x 1.875590 0.000000 0.000000 
#    y 0.000000 1.976720 0.000000 
#    z 0.000000 0.000000 1.874790 
# 
# From -- ./inp_files/6503.got.cif
#   From: 2010.05.17/outbox.cif.g08.bks.cpg/sg18_4_cif.got.tgz:6503.got - 2010.06.03 22:40:56.
