data_PCOD9311621
_publ_section_title
;
Structure prediction by ZEFSAII (Michael W. Deem and Ramdas Pophale) SiO2 
 PCOD9311621
Probable space group: P 21 21 2
;
_chemical_formula_sum "Si O2"
_cell_formula_units_Z 26
_cell_length_a 17.400177
_cell_length_b 10.969555
_cell_length_c 5.189180
_cell_angle_alpha 90.000000
_cell_angle_beta 90.000000
_cell_angle_gamma 90.000000
_cell_volume 990.470196
_symmetry_space_group_name_H-M "P 21 21 2"
_symmetry_group_IT_number 18
_symmetry_cell_setting 'orthorhombic'
loop_
_space_group_symop_operation_xyz
x,y,z
-x,-y,z
1/2+x,1/2-y,-z
1/2-x,1/2+y,-z
loop_
_atom_site_type_symbol
_atom_site_label
_atom_site_fract_x
_atom_site_fract_y
_atom_site_fract_z
Si Si1 0.522147 0.666366 0.212962
Si Si2 0.219418 0.077836 0.451356
Si Si3 0.651198 0.489335 0.052060
Si Si4 0.129649 0.598712 0.810773
Si Si5 0.798405 0.592119 0.207353
Si Si6 0.941871 0.750708 0.272540
Si Si7 0.500000 0.000000 0.550656
O O1 0.577507 0.782333 0.162396
O O2 0.460792 0.678700 0.986437
O O3 0.576969 0.551478 0.172900
O O4 0.479062 0.681422 0.483335
O O5 0.185722 0.105785 0.734759
O O6 0.291247 0.145549 0.323620
O O7 0.153787 0.051658 0.243477
O O8 0.719094 0.594235 0.048582
O O9 0.234981 0.452585 0.479519
O O10 0.075026 0.514709 0.629761
O O11 0.154367 0.516821 0.057954
O O12 0.854032 0.704076 0.260725
O O13 0.987522 0.620860 0.284406
#
# Coordination Sequence:
#
# PCOD9311621 Si02
#       7
#     4   4   4   4   4   4   2
#     4  11  23  29  45  73 105 118 150 209 235 253
#     4   9  18  31  50  56  87 129 169 175 212 284
#     4   9  19  34  45  62  92 133 155 190 232 262
#     4  10  18  29  46  70  94 127 161 186 219 275
#     4   9  18  32  48  63  89 136 165 176 212 297
#     4  11  20  29  44  69  98 128 156 185 227 275
#     4  10  16  28  40  68 102 128 146 184 222 270
#
# _framework density 26.250160000000001
#
# number of rings (size 3 to 8) (size 9 to 14) (size 15 to 20)
#    0.923    1.231    1.538    3.692    4.308    0.615 
#    0.000    0.000    0.000    0.000    0.000    0.000 
#    0.000   16.000    0.000    0.000    0.000    0.000 
#
# Total GULP energy -145291.738874 kJ/mol
# GULP energy per Si atom -5588.143803 kJ/mol
# Density = 2.619041 g / cm^3
# Si number density = 26.250160 Si / 1000 Ang^3
#
#
#
# Elastic Constant Matrix: (Units=GPa)
#
#
# Indices 1 2 3 4 5 6 
#
# 1 140.0477 9.0708 36.5057 0.0000 0.0000 0.0000
# 2 9.0708 95.4750 31.6806 0.0000 0.0000 0.0000
# 3 36.5057 31.6806 154.6007 0.0000 0.0000 0.0000
# 4 0.0000 0.0000 0.0000 30.0418 0.0000 0.0000
# 5 0.0000 0.0000 0.0000 0.0000 47.1576 0.0000
# 6 0.0000 0.0000 0.0000 0.0000 0.0000 47.3556
#
#
#
# Elastic Compliance Matrix: (Units=1/GPa)
#
#
# Indices 1 2 3 4 5 6 
#
# 1 0.007610 -0.000136 -0.001769 0.000000 0.000000 0.000000
# 2 -0.000136 0.011241 -0.002271 0.000000 0.000000 0.000000
# 3 -0.001769 -0.002271 0.007351 0.000000 0.000000 0.000000
# 4 0.000000 0.000000 0.000000 0.033287 0.000000 0.000000
# 5 0.000000 0.000000 0.000000 0.000000 0.021205 0.000000
# 6 0.000000 0.000000 0.000000 0.000000 0.000000 0.021117
#
#
# Mechanical properties :
#
#
# Convention : Reuss Voigt Hill
#
# Bulk Modulus (GPa) = 56.02403 60.51529 58.26966
# Shear Modulus (GPa) = 43.06102 45.76877 44.41490
#
# Velocity S-wave (km/s) = 4.05459 4.18013 4.11784
# Velocity P-wave (km/s) = 6.58090 6.81185 6.69737
#
# Compressibility (1/GPa) = 0.01784948
#
# Stress axis : x y z
#
# Youngs Moduli (GPa) = 131.39924 88.96383 136.02750
#
# Poissons Ratio (x) = 0.01210 0.24066
# Poissons Ratio (y) = 0.01787 0.30896
# Poissons Ratio (z) = 0.23247 0.20206
#
# Static dielectric constant tensor:
#      x y z
#    x 2.139270 0.000000 0.000000 
#    y 0.000000 2.132930 0.000000 
#    z 0.000000 0.000000 2.009080 
# 
# From -- ./inp_files/2019.got.cif
#   From: 2010.05.17/outbox.cif.g08.bks.cpg/sg18_2_cif.got.tgz:2019.got - 2010.06.03 22:40:56.
