data_PCOD9311178
_publ_section_title
;
Structure prediction by ZEFSAII (Michael W. Deem and Ramdas Pophale) SiO2 
 PCOD9311178
Probable space group: P 2 2 21
;
_chemical_formula_sum "Si O2"
_cell_formula_units_Z 18
_cell_length_a 19.754478
_cell_length_b 5.584029
_cell_length_c 7.285231
_cell_angle_alpha 90.000000
_cell_angle_beta 90.000000
_cell_angle_gamma 90.000000
_cell_volume 803.630757
_symmetry_space_group_name_H-M "P 2 2 21"
_symmetry_group_IT_number 17
_symmetry_cell_setting 'orthorhombic'
loop_
_space_group_symop_operation_xyz
x,y,z
-x,-y,1/2+z
x,-y,-z
-x,y,1/2-z
loop_
_atom_site_type_symbol
_atom_site_label
_atom_site_fract_x
_atom_site_fract_y
_atom_site_fract_z
Si Si1 0.132699 0.736132 0.688927
Si Si2 0.743869 0.500000 0.000000
Si Si3 0.500000 0.628078 0.750000
Si Si4 0.361965 0.631434 0.197681
Si Si5 0.920696 0.765887 0.217340
Si Si6 0.435581 0.000000 0.000000
O O1 0.207440 0.686521 0.607570
O O2 0.109052 0.489684 0.785955
O O3 0.088918 0.751601 0.502386
O O4 0.119116 0.993572 0.780478
O O5 0.697369 0.614044 0.156940
O O6 0.569441 0.487329 0.774307
O O7 0.517156 0.793819 0.576846
O O8 0.346834 0.500000 0.000000
O O9 0.385808 0.899706 0.154463
O O10 0.000000 0.788466 0.250000
#
# Coordination Sequence:
#
# PCOD9311178 Si02
#       6
#     4   2   2   4   4   2
#     4   9  20  36  57  95 127 161 233 263 316 433
#     4  10  22  42  68  88 134 192 214 276 360 406
#     4  10  22  38  64  94 134 162 232 298 340 408
#     4  10  23  42  62  94 133 172 233 288 340 422
#     4   9  16  33  60  86 125 158 204 275 319 374
#     4  10  22  40  60  98 132 164 228 302 344 412
#
# _framework density 22.398344000000002
#
# number of rings (size 3 to 8) (size 9 to 14) (size 15 to 20)
#    0.000    2.667    0.000    1.333    7.778    0.000 
#   32.000    0.000   39.111    0.000    0.000    0.000 
#    0.000    0.000    0.000    0.000    0.000    0.000 
#
# Total GULP energy -100420.746766 kJ/mol
# GULP energy per Si atom -5578.930376 kJ/mol
# Density = 2.234736 g / cm^3
# Si number density = 22.398344 Si / 1000 Ang^3
#
#
#
# Elastic Constant Matrix: (Units=GPa)
#
#
# Indices 1 2 3 4 5 6 
#
# 1 176.0040 68.9939 58.0119 0.0000 0.0000 0.0000
# 2 68.9939 182.7744 26.2052 0.0000 0.0000 0.0000
# 3 58.0119 26.2052 89.3311 0.0000 0.0000 0.0000
# 4 0.0000 0.0000 0.0000 6.7023 0.0000 0.0000
# 5 0.0000 0.0000 0.0000 0.0000 63.4992 0.0000
# 6 0.0000 0.0000 0.0000 0.0000 0.0000 -56.2583
#
#
#
# Elastic Compliance Matrix: (Units=1/GPa)
#
#
# Indices 1 2 3 4 5 6 
#
# 1 0.008137 -0.002415 -0.004575 0.000000 0.000000 0.000000
# 2 -0.002415 0.006428 -0.000317 0.000000 0.000000 0.000000
# 3 -0.004575 -0.000317 0.014259 0.000000 0.000000 0.000000
# 4 0.000000 0.000000 0.000000 0.149202 0.000000 0.000000
# 5 0.000000 0.000000 0.000000 0.000000 0.015748 0.000000
# 6 0.000000 0.000000 0.000000 0.000000 0.000000 -0.017775
#
#
# Mechanical properties :
#
#
# Convention : Reuss Voigt Hill
#
# Bulk Modulus (GPa) = 70.38434 83.83683 77.11059
# Shear Modulus (GPa) = 25.59494 22.44855 24.02174
#
# Velocity S-wave (km/s) = 3.38407 3.16925 3.27842
# Velocity P-wave (km/s) = 6.83823 7.13466 6.98802
#
# Compressibility (1/GPa) = 0.01420770
#
# Stress axis : x y z
#
# Youngs Moduli (GPa) = 122.90136 155.55767 70.13305
#
# Poissons Ratio (x) = 0.37574 0.32088
# Poissons Ratio (y) = 0.29686 0.02225
# Poissons Ratio (z) = 0.56232 0.04934
#
# Static dielectric constant tensor:
#      x y z
#    x 1.782480 0.000000 0.000000 
#    y 0.000000 1.961840 0.000000 
#    z 0.000000 0.000000 1.881570 
# 
# From -- ./inp_files/5348.got.cif
#   From: 2010.05.17/outbox.cif.g08.bks.cpg/sg17_3_cif.got.tgz:5348.got - 2010.06.03 22:34:06.
