data_PCOD9311731
_publ_section_title
;
Structure prediction by ZEFSAII (Michael W. Deem and Ramdas Pophale) SiO2 
 PCOD9311731
Probable space group: P 21 21 2
;
_chemical_formula_sum "Si O2"
_cell_formula_units_Z 26
_cell_length_a 12.028162
_cell_length_b 13.592076
_cell_length_c 7.936291
_cell_angle_alpha 90.000000
_cell_angle_beta 90.000000
_cell_angle_gamma 90.000000
_cell_volume 1297.485899
_symmetry_space_group_name_H-M "P 21 21 2"
_symmetry_group_IT_number 18
_symmetry_cell_setting 'orthorhombic'
loop_
_space_group_symop_operation_xyz
x,y,z
-x,-y,z
1/2+x,1/2-y,-z
1/2-x,1/2+y,-z
loop_
_atom_site_type_symbol
_atom_site_label
_atom_site_fract_x
_atom_site_fract_y
_atom_site_fract_z
Si Si1 0.000000 0.500000 0.522100
Si Si2 0.621276 0.633691 0.537733
Si Si3 0.180837 0.645665 0.506048
Si Si4 0.256893 0.564358 0.871614
Si Si5 0.664066 0.336849 0.185931
Si Si6 0.847063 0.617344 0.756388
Si Si7 0.500000 0.500000 0.776403
Si Si8 0.500000 0.500000 0.281319
O O1 0.099688 0.559380 0.436988
O O2 0.052466 0.416911 0.641238
O O3 0.620846 0.747723 0.486372
O O4 0.738500 0.618927 0.633374
O O5 0.526104 0.598160 0.667066
O O6 0.595992 0.556252 0.389081
O O7 0.224248 0.614228 0.692061
O O8 0.278802 0.655202 0.369504
O O9 0.178378 0.469335 0.887476
O O10 0.383074 0.523550 0.861698
O O11 0.254340 0.633503 0.033817
O O12 0.633104 0.223156 0.165632
O O13 0.560581 0.411076 0.187285
#
# Coordination Sequence:
#
# PCOD9311731 Si02
#       8
#     2   4   4   4   4   4   2   2
#     4  10  18  36  58  78 112 156 184 224 284 326
#     4   9  18  34  58  84 109 144 184 228 280 330
#     4  10  21  37  58  81 114 150 185 229 278 332
#     4  10  21  38  58  81 114 149 181 230 284 329
#     4  11  22  37  58  87 112 145 192 231 275 336
#     4   9  20  37  56  80 115 148 185 230 277 335
#     4   9  17  36  58  81 111 142 181 231 278 327
#     4  11  19  32  58  87 111 140 187 233 272 329
#
# _framework density 20.038753
#
# number of rings (size 3 to 8) (size 9 to 14) (size 15 to 20)
#    0.000    2.154    0.000    5.077    0.000    2.462 
#    0.000   15.385    0.000    0.000    0.000    0.000 
#    0.000    0.000    0.000    0.000    0.000    0.000 
#
# Total GULP energy -144826.228746 kJ/mol
# GULP energy per Si atom -5570.239567 kJ/mol
# Density = 1.999314 g / cm^3
# Si number density = 20.038753 Si / 1000 Ang^3
#
#
#
# Elastic Constant Matrix: (Units=GPa)
#
#
# Indices 1 2 3 4 5 6 
#
# 1 34.9491 5.6914 -8.1641 0.0000 0.0000 0.0000
# 2 5.6914 144.5020 29.5869 0.0000 0.0000 0.0000
# 3 -8.1641 29.5869 54.1382 0.0000 0.0000 0.0000
# 4 0.0000 0.0000 0.0000 14.8236 0.0000 0.0000
# 5 0.0000 0.0000 0.0000 0.0000 44.1866 0.0000
# 6 0.0000 0.0000 0.0000 0.0000 0.0000 34.1402
#
#
#
# Elastic Compliance Matrix: (Units=1/GPa)
#
#
# Indices 1 2 3 4 5 6 
#
# 1 0.030382 -0.002404 0.005895 0.000000 0.000000 0.000000
# 2 -0.002404 0.007982 -0.004725 0.000000 0.000000 0.000000
# 3 0.005895 -0.004725 0.021942 0.000000 0.000000 0.000000
# 4 0.000000 0.000000 0.000000 0.067460 0.000000 0.000000
# 5 0.000000 0.000000 0.000000 0.000000 0.022631 0.000000
# 6 0.000000 0.000000 0.000000 0.000000 0.000000 0.029291
#
#
# Mechanical properties :
#
#
# Convention : Reuss Voigt Hill
#
# Bulk Modulus (GPa) = 17.28920 31.97978 24.63449
# Shear Modulus (GPa) = 24.82184 32.39508 28.60846
#
# Velocity S-wave (km/s) = 3.52332 4.02509 3.78253
# Velocity P-wave (km/s) = 5.01980 6.13151 5.60329
#
# Compressibility (1/GPa) = 0.05783959
#
# Stress axis : x y z
#
# Youngs Moduli (GPa) = 32.91471 125.27520 45.57371
#
# Poissons Ratio (x) = 0.30112 -0.26866
# Poissons Ratio (y) = 0.07912 0.21533
# Poissons Ratio (z) = -0.19404 0.59192
#
# Static dielectric constant tensor:
#      x y z
#    x 1.738050 0.000000 0.000000 
#    y 0.000000 1.711990 0.000000 
#    z 0.000000 0.000000 1.738640 
# 
# From -- ./inp_files/3805.got.cif
#   From: 2010.05.17/outbox.cif.g08.bks.cpg/sg18_2_cif.got.tgz:3805.got - 2010.06.03 22:40:56.
