data_PCOD9311360
_publ_section_title
;
Structure prediction by ZEFSAII (Michael W. Deem and Ramdas Pophale) SiO2 
 PCOD9311360
Probable space group: P 2 2 21
;
_chemical_formula_sum "Si O2"
_cell_formula_units_Z 28
_cell_length_a 5.197026
_cell_length_b 8.132775
_cell_length_c 24.960860
_cell_angle_alpha 90.000000
_cell_angle_beta 90.000000
_cell_angle_gamma 90.000000
_cell_volume 1055.001777
_symmetry_space_group_name_H-M "P 2 2 21"
_symmetry_group_IT_number 17
_symmetry_cell_setting 'orthorhombic'
loop_
_space_group_symop_operation_xyz
x,y,z
-x,-y,1/2+z
x,-y,-z
-x,y,1/2-z
loop_
_atom_site_type_symbol
_atom_site_label
_atom_site_fract_x
_atom_site_fract_y
_atom_site_fract_z
Si Si1 0.000000 0.715428 0.750000
Si Si2 0.619586 0.457154 0.803145
Si Si3 0.523942 0.965287 0.365753
Si Si4 0.951753 0.159011 0.813077
Si Si5 0.607046 0.500000 0.000000
Si Si6 0.244394 0.298683 0.142314
Si Si7 0.527861 0.186980 0.522514
Si Si8 0.014916 0.320347 0.467850
O O1 0.217385 0.604738 0.722234
O O2 0.134786 0.785565 0.802924
O O3 0.500000 0.370923 0.750000
O O4 0.400236 0.541805 0.838509
O O5 0.825406 0.334865 0.828740
O O6 0.284511 0.962602 0.325640
O O7 0.578088 0.154090 0.380403
O O8 0.822425 0.207701 0.498987
O O9 0.449353 0.860579 0.417021
O O10 0.000000 0.160986 0.750000
O O11 0.214021 0.116453 0.843379
O O12 0.679721 0.294662 0.018518
O O13 0.446665 0.582688 0.045040
O O14 0.042678 0.331667 0.094207
O O15 0.464352 0.000000 0.500000
O O16 0.060270 0.500000 0.500000
#
# Coordination Sequence:
#
# PCOD9311360 Si02
#       8
#     2   4   4   4   2   4   4   4
#     4  10  24  46  72 110 154 198 262 328 384 492
#     4  10  23  47  73 109 155 200 273 326 396 466
#     4  12  29  48  77 114 160 212 261 330 416 477
#     4  12  27  49  76 112 157 208 268 330 402 472
#     4   8  22  42  74 110 146 188 250 326 384 450
#     4  11  28  47  77 116 154 218 260 332 412 495
#     4  10  23  47  70 111 149 193 256 319 388 471
#     4  10  23  45  76 108 150 196 260 316 396 462
#
# _framework density 26.540237000000001
#
# number of rings (size 3 to 8) (size 9 to 14) (size 15 to 20)
#    0.857    0.571    0.714    2.571    7.000    6.286 
#    0.000    1.429    0.000    0.000    0.000    0.000 
#    0.000    0.000    0.000    0.000    0.000    0.000 
#
# Total GULP energy -156006.835058 kJ/mol
# GULP energy per Si atom -5571.672681 kJ/mol
# Density = 2.647983 g / cm^3
# Si number density = 26.540237 Si / 1000 Ang^3
#
#
#
# Elastic Constant Matrix: (Units=GPa)
#
#
# Indices 1 2 3 4 5 6 
#
# 1 138.7607 44.6645 30.9127 0.0000 0.0000 0.0000
# 2 44.6645 113.8073 44.5851 0.0000 0.0000 0.0000
# 3 30.9127 44.5851 110.9781 0.0000 0.0000 0.0000
# 4 0.0000 0.0000 0.0000 32.6529 0.0000 0.0000
# 5 0.0000 0.0000 0.0000 0.0000 36.5541 0.0000
# 6 0.0000 0.0000 0.0000 0.0000 0.0000 48.7774
#
#
#
# Elastic Compliance Matrix: (Units=1/GPa)
#
#
# Indices 1 2 3 4 5 6 
#
# 1 0.008382 -0.002818 -0.001202 0.000000 0.000000 0.000000
# 2 -0.002818 0.011376 -0.003785 0.000000 0.000000 0.000000
# 3 -0.001202 -0.003785 0.010866 0.000000 0.000000 0.000000
# 4 0.000000 0.000000 0.000000 0.030625 0.000000 0.000000
# 5 0.000000 0.000000 0.000000 0.000000 0.027357 0.000000
# 6 0.000000 0.000000 0.000000 0.000000 0.000000 0.020501
#
#
# Mechanical properties :
#
#
# Convention : Reuss Voigt Hill
#
# Bulk Modulus (GPa) = 66.61357 67.09675 66.85516
# Shear Modulus (GPa) = 38.54371 39.82246 39.18308
#
# Velocity S-wave (km/s) = 3.81501 3.87777 3.84652
# Velocity P-wave (km/s) = 6.67527 6.73688 6.70615
#
# Compressibility (1/GPa) = 0.01501196
#
# Stress axis : x y z
#
# Youngs Moduli (GPa) = 119.30730 87.90632 92.02698
#
# Poissons Ratio (x) = 0.24776 0.11066
# Poissons Ratio (y) = 0.33626 0.34833
# Poissons Ratio (z) = 0.14346 0.33274
#
# Static dielectric constant tensor:
#      x y z
#    x 2.158350 0.000000 0.000000 
#    y 0.000000 3.748690 0.000000 
#    z 0.000000 0.000000 2.171620 
# 
# From -- ./inp_files/10883.got.cif
#   From: 2010.05.17/outbox.cif.g08.bks.cpg/sg17_6_cif.got.tgz:10883.got - 2010.06.03 22:34:06.
