data_PCOD9311017
_publ_section_title
;
Structure prediction by ZEFSAII (Michael W. Deem and Ramdas Pophale) SiO2 
 PCOD9311017
Probable space group: P 2 2 21
;
_chemical_formula_sum "Si O2"
_cell_formula_units_Z 32
_cell_length_a 18.675192
_cell_length_b 14.363569
_cell_length_c 5.730355
_cell_angle_alpha 90.000000
_cell_angle_beta 90.000000
_cell_angle_gamma 90.000000
_cell_volume 1537.124229
_symmetry_space_group_name_H-M "P 2 2 21"
_symmetry_group_IT_number 17
_symmetry_cell_setting 'orthorhombic'
loop_
_space_group_symop_operation_xyz
x,y,z
-x,-y,1/2+z
x,-y,-z
-x,y,1/2-z
loop_
_atom_site_type_symbol
_atom_site_label
_atom_site_fract_x
_atom_site_fract_y
_atom_site_fract_z
Si Si1 0.074183 0.251207 0.135008
Si Si2 0.685156 0.944147 0.755401
Si Si3 0.789130 0.293956 0.614895
Si Si4 0.690216 0.596198 0.126305
Si Si5 0.554050 0.603930 0.439340
Si Si6 0.073882 0.931465 0.172222
Si Si7 0.179274 0.849019 0.515307
Si Si8 0.650331 0.264440 0.276240
O O1 0.129628 0.218120 0.332946
O O2 0.000000 0.285498 0.250000
O O3 0.130704 0.308255 0.978872
O O4 0.055732 0.162469 0.970285
O O5 0.640244 0.847120 0.734797
O O6 0.684348 0.000000 0.500000
O O7 0.763614 0.902967 0.826705
O O8 0.665273 0.000000 0.000000
O O9 0.765409 0.382899 0.758476
O O10 0.787298 0.207051 0.795702
O O11 0.723208 0.278663 0.432846
O O12 0.628512 0.583958 0.313590
O O13 0.693088 0.500000 0.000000
O O14 0.669066 0.683721 0.964726
O O15 0.524633 0.500000 0.500000
O O16 0.500000 0.645880 0.250000
O O17 0.580864 0.678177 0.630858
O O18 0.122380 0.912799 0.389286
O O19 0.000000 0.976967 0.250000
O O20 0.113930 0.000000 0.000000
#
# Coordination Sequence:
#
# PCOD9311017 Si02
#       8
#     4   4   4   4   4   4   4   4
#     4  11  21  36  54  78 118 168 228 285 366 438
#     4  12  27  42  66  97 135 193 253 313 356 408
#     4  10  21  37  62  86 133 170 224 286 349 437
#     4  11  21  39  68 101 143 175 213 282 353 437
#     4  11  24  40  69 113 154 186 215 263 351 452
#     4  11  24  34  45  71 110 164 216 277 356 442
#     4  11  23  38  54  82 122 163 220 298 358 416
#     4  11  23  43  63 102 143 181 232 284 349 414
#
# _framework density 20.818093999999999
#
# number of rings (size 3 to 8) (size 9 to 14) (size 15 to 20)
#    0.000    1.000    5.000    1.500    5.250    0.000 
#    0.000    0.000    0.000    0.000    3.250    0.000 
#   52.500    0.000    0.000    0.000    0.000    0.000 
#
# Total GULP energy -178348.462277 kJ/mol
# GULP energy per Si atom -5573.389446 kJ/mol
# Density = 2.077071 g / cm^3
# Si number density = 20.818094 Si / 1000 Ang^3
#
#
#
# Elastic Constant Matrix: (Units=GPa)
#
#
# Indices 1 2 3 4 5 6 
#
# 1 69.9475 14.9532 14.2941 0.0000 0.0000 0.0000
# 2 14.9532 51.1289 11.2521 0.0000 0.0000 0.0000
# 3 14.2941 11.2521 74.8180 0.0000 0.0000 0.0000
# 4 0.0000 0.0000 0.0000 32.4752 0.0000 0.0000
# 5 0.0000 0.0000 0.0000 0.0000 45.0811 0.0000
# 6 0.0000 0.0000 0.0000 0.0000 0.0000 26.4369
#
#
#
# Elastic Compliance Matrix: (Units=1/GPa)
#
#
# Indices 1 2 3 4 5 6 
#
# 1 0.015649 -0.004053 -0.002380 0.000000 0.000000 0.000000
# 2 -0.004053 0.021278 -0.002426 0.000000 0.000000 0.000000
# 3 -0.002380 -0.002426 0.014185 0.000000 0.000000 0.000000
# 4 0.000000 0.000000 0.000000 0.030793 0.000000 0.000000
# 5 0.000000 0.000000 0.000000 0.000000 0.022182 0.000000
# 6 0.000000 0.000000 0.000000 0.000000 0.000000 0.037826
#
#
# Mechanical properties :
#
#
# Convention : Reuss Voigt Hill
#
# Bulk Modulus (GPa) = 29.94520 30.76591 30.35556
# Shear Modulus (GPa) = 29.28046 31.15831 30.21938
#
# Velocity S-wave (km/s) = 3.75439 3.87291 3.81411
# Velocity P-wave (km/s) = 5.76276 5.89998 5.83177
#
# Compressibility (1/GPa) = 0.03339434
#
# Stress axis : x y z
#
# Youngs Moduli (GPa) = 63.90062 46.99787 70.49538
#
# Poissons Ratio (x) = 0.19048 0.16780
# Poissons Ratio (y) = 0.25899 0.17100
# Poissons Ratio (z) = 0.15210 0.11400
#
# Static dielectric constant tensor:
#      x y z
#    x 1.735590 0.000000 0.000000 
#    y 0.000000 1.788900 0.000000 
#    z 0.000000 0.000000 1.681610 
# 
# From -- ./inp_files/2726.got.cif
#   From: 2010.05.17/outbox.cif.g08.bks.cpg/sg17_2_cif.got.tgz:2726.got - 2010.06.03 22:34:06.
