data_PCOD9311920
_publ_section_title
;
Structure prediction by ZEFSAII (Michael W. Deem and Ramdas Pophale) SiO2 
 PCOD9311920
Probable space group: P 21 21 2
;
_chemical_formula_sum "Si O2"
_cell_formula_units_Z 18
_cell_length_a 7.568525
_cell_length_b 5.461195
_cell_length_c 18.879860
_cell_angle_alpha 90.000000
_cell_angle_beta 90.000000
_cell_angle_gamma 90.000000
_cell_volume 780.364857
_symmetry_space_group_name_H-M "P 21 21 2"
_symmetry_group_IT_number 18
_symmetry_cell_setting 'orthorhombic'
loop_
_space_group_symop_operation_xyz
x,y,z
-x,-y,z
1/2+x,1/2-y,-z
1/2-x,1/2+y,-z
loop_
_atom_site_type_symbol
_atom_site_label
_atom_site_fract_x
_atom_site_fract_y
_atom_site_fract_z
Si Si1 0.500000 0.500000 0.029568
Si Si2 0.351910 0.811655 0.902442
Si Si3 0.698115 0.901480 0.536114
Si Si4 0.784911 0.287645 0.301630
Si Si5 0.690067 0.291592 0.752082
O O1 0.430016 0.703200 0.974756
O O2 0.664350 0.578715 0.076549
O O3 0.324718 0.639063 0.834902
O O4 0.500000 0.000000 0.876416
O O5 0.702313 0.636445 0.497573
O O6 0.749418 0.854173 0.617302
O O7 0.500000 0.000000 0.536324
O O8 0.725520 0.522596 0.256144
O O9 0.995705 0.247908 0.283740
O O10 0.713904 0.017734 0.284814
#
# Coordination Sequence:
#
# PCOD9311920 Si02
#       5
#     2   4   4   4   4
#     4  12  26  42  70 106 154 182 250 302 364 446
#     4  12  24  43  68 109 141 196 241 304 371 434
#     4  12  25  42  71 107 144 184 241 294 361 441
#     4  10  19  38  66  98 127 185 240 282 344 444
#     4  10  20  36  70  93 130 181 257 279 347 438
#
# _framework density 23.066133000000001
#
# number of rings (size 3 to 8) (size 9 to 14) (size 15 to 20)
#    0.000    0.889    6.667    3.333    3.111    0.000 
#    0.000    0.000    9.778    0.000    0.000    0.000 
#    0.000    0.000    0.000    0.000    0.000    0.000 
#
# Total GULP energy -100522.795960 kJ/mol
# GULP energy per Si atom -5584.599776 kJ/mol
# Density = 2.301363 g / cm^3
# Si number density = 23.066133 Si / 1000 Ang^3
#
#
#
# Elastic Constant Matrix: (Units=GPa)
#
#
# Indices 1 2 3 4 5 6 
#
# 1 72.5970 24.0942 16.7484 0.0000 0.0000 0.0000
# 2 24.0942 166.7210 42.2784 0.0000 0.0000 0.0000
# 3 16.7484 42.2784 144.9184 0.0000 0.0000 0.0000
# 4 0.0000 0.0000 0.0000 24.1952 0.0000 0.0000
# 5 0.0000 0.0000 0.0000 0.0000 13.7619 0.0000
# 6 0.0000 0.0000 0.0000 0.0000 0.0000 13.7141
#
#
#
# Elastic Compliance Matrix: (Units=1/GPa)
#
#
# Indices 1 2 3 4 5 6 
#
# 1 0.014647 -0.001822 -0.001161 0.000000 0.000000 0.000000
# 2 -0.001822 0.006704 -0.001745 0.000000 0.000000 0.000000
# 3 -0.001161 -0.001745 0.007544 0.000000 0.000000 0.000000
# 4 0.000000 0.000000 0.000000 0.041331 0.000000 0.000000
# 5 0.000000 0.000000 0.000000 0.000000 0.072665 0.000000
# 6 0.000000 0.000000 0.000000 0.000000 0.000000 0.072918
#
#
# Mechanical properties :
#
#
# Convention : Reuss Voigt Hill
#
# Bulk Modulus (GPa) = 51.44643 61.16425 56.30534
# Shear Modulus (GPa) = 21.57546 30.40858 25.99202
#
# Velocity S-wave (km/s) = 3.06171 3.63481 3.36050
# Velocity P-wave (km/s) = 5.90348 6.64757 6.28654
#
# Compressibility (1/GPa) = 0.01943769
#
# Stress axis : x y z
#
# Youngs Moduli (GPa) = 68.27160 149.16535 132.55957
#
# Poissons Ratio (x) = 0.27183 0.15392
# Poissons Ratio (y) = 0.12441 0.23134
# Poissons Ratio (z) = 0.07927 0.26032
#
# Static dielectric constant tensor:
#      x y z
#    x 1.857920 0.000000 0.000000 
#    y 0.000000 2.017230 0.000000 
#    z 0.000000 0.000000 1.801060 
# 
# From -- ./inp_files/7272.got.cif
#   From: 2010.05.17/outbox.cif.g08.bks.cpg/sg18_4_cif.got.tgz:7272.got - 2010.06.03 22:40:56.
