data_PCOD9311598
_publ_section_title
;
Structure prediction by ZEFSAII (Michael W. Deem and Ramdas Pophale) SiO2 
 PCOD9311598
Probable space group: P 2 2 21
;
_chemical_formula_sum "Si O2"
_cell_formula_units_Z 12
_cell_length_a 10.355659
_cell_length_b 5.278867
_cell_length_c 9.023566
_cell_angle_alpha 90.000000
_cell_angle_beta 90.000000
_cell_angle_gamma 90.000000
_cell_volume 493.283581
_symmetry_space_group_name_H-M "P 2 2 21"
_symmetry_group_IT_number 17
_symmetry_cell_setting 'orthorhombic'
loop_
_space_group_symop_operation_xyz
x,y,z
-x,-y,1/2+z
x,-y,-z
-x,y,1/2-z
loop_
_atom_site_type_symbol
_atom_site_label
_atom_site_fract_x
_atom_site_fract_y
_atom_site_fract_z
Si Si1 0.249563 0.303575 0.764049
Si Si2 0.090374 0.000000 0.000000
Si Si3 0.551241 0.500000 0.500000
Si Si4 0.000000 0.356354 0.250000
Si Si5 0.619495 0.000000 0.000000
O O1 0.297531 0.116334 0.635233
O O2 0.131208 0.486910 0.722456
O O3 0.363754 0.445058 0.852695
O O4 0.183299 0.141914 0.890179
O O5 0.012305 0.188695 0.102991
O O6 0.468256 0.247087 0.465205
#
# Coordination Sequence:
#
# PCOD9311598 Si02
#       5
#     4   2   2   2   2
#     4  12  29  55  89 130 178 235 306 376 456 545
#     4  12  27  51  88 122 184 230 296 374 462 546
#     4  12  28  58  90 128 182 244 302 378 444 540
#     4  12  28  54  86 132 174 242 292 386 464 534
#     4  12  33  55  94 132 178 244 310 368 456 536
#
# _framework density 24.326778999999998
#
# number of rings (size 3 to 8) (size 9 to 14) (size 15 to 20)
#    0.000    0.000    3.333    3.000    4.667   13.333 
#    0.000    0.000    0.000    0.000    0.000    0.000 
#    0.000    0.000    0.000    0.000    0.000    0.000 
#
# Total GULP energy -67276.557727 kJ/mol
# GULP energy per Si atom -5606.379811 kJ/mol
# Density = 2.427141 g / cm^3
# Si number density = 24.326779 Si / 1000 Ang^3
#
#
#
# Elastic Constant Matrix: (Units=GPa)
#
#
# Indices 1 2 3 4 5 6 
#
# 1 175.7432 135.9246 130.5251 0.0000 0.0000 0.0000
# 2 135.9246 224.2834 132.8493 0.0000 0.0000 0.0000
# 3 130.5251 132.8493 221.6424 0.0000 0.0000 0.0000
# 4 0.0000 0.0000 0.0000 82.5295 0.0000 0.0000
# 5 0.0000 0.0000 0.0000 0.0000 40.5201 0.0000
# 6 0.0000 0.0000 0.0000 0.0000 0.0000 112.0837
#
#
#
# Elastic Compliance Matrix: (Units=1/GPa)
#
#
# Indices 1 2 3 4 5 6 
#
# 1 0.013180 -0.005256 -0.004611 0.000000 0.000000 0.000000
# 2 -0.005256 0.009009 -0.002305 0.000000 0.000000 0.000000
# 3 -0.004611 -0.002305 0.008609 0.000000 0.000000 0.000000
# 4 0.000000 0.000000 0.000000 0.012117 0.000000 0.000000
# 5 0.000000 0.000000 0.000000 0.000000 0.024679 0.000000
# 6 0.000000 0.000000 0.000000 0.000000 0.000000 0.008922
#
#
# Mechanical properties :
#
#
# Convention : Reuss Voigt Hill
#
# Bulk Modulus (GPa) = 154.94672 157.80744 156.37708
# Shear Modulus (GPa) = 48.53795 61.85132 55.19464
#
# Velocity S-wave (km/s) = 4.47167 5.04781 4.76845
# Velocity P-wave (km/s) = 9.51279 9.94910 9.73339
#
# Compressibility (1/GPa) = 0.00645383
#
# Stress axis : x y z
#
# Youngs Moduli (GPa) = 75.86992 110.99642 116.16214
#
# Poissons Ratio (x) = 0.58345 0.53566
# Poissons Ratio (y) = 0.39881 0.26770
# Poissons Ratio (z) = 0.34986 0.25579
#
# Static dielectric constant tensor:
#      x y z
#    x 1.959860 0.000000 0.000000 
#    y 0.000000 1.817980 0.000000 
#    z 0.000000 0.000000 1.885980 
# 
# From -- ./inp_files/4452.got.cif
#   From: 2010.05.17/outbox.cif.g08.bks.cpg/sg17_3_cif.got.tgz:4452.got - 2010.06.03 22:34:06.
