data_PCOD9311498
_publ_section_title
;
Structure prediction by ZEFSAII (Michael W. Deem and Ramdas Pophale) SiO2 
 PCOD9311498
Probable space group: P 2 2 21
;
_chemical_formula_sum "Si O2"
_cell_formula_units_Z 20
_cell_length_a 5.187916
_cell_length_b 11.688477
_cell_length_c 15.393234
_cell_angle_alpha 90.000000
_cell_angle_beta 90.000000
_cell_angle_gamma 90.000000
_cell_volume 933.427805
_symmetry_space_group_name_H-M "P 2 2 21"
_symmetry_group_IT_number 17
_symmetry_cell_setting 'orthorhombic'
loop_
_space_group_symop_operation_xyz
x,y,z
-x,-y,1/2+z
x,-y,-z
-x,y,1/2-z
loop_
_atom_site_type_symbol
_atom_site_label
_atom_site_fract_x
_atom_site_fract_y
_atom_site_fract_z
Si Si1 0.831790 0.740315 0.926599
Si Si2 0.763712 0.774548 0.305232
Si Si3 0.000000 0.668759 0.750000
Si Si4 0.325734 0.500000 0.500000
Si Si5 0.317961 0.472423 0.833151
Si Si6 0.671252 0.863818 0.496188
O O1 0.826455 0.733605 0.820986
O O2 0.829316 0.613268 0.970906
O O3 0.582031 0.804078 0.964477
O O4 0.084234 0.810150 0.954132
O O5 0.500000 0.774462 0.250000
O O6 0.843106 0.644197 0.331094
O O7 0.706211 0.834581 0.395238
O O8 0.000000 0.824021 0.250000
O O9 0.841167 0.586083 0.685458
O O10 0.510003 0.525929 0.418551
O O11 0.500000 0.465950 0.750000
O O12 0.656697 0.000000 0.500000
#
# Coordination Sequence:
#
# PCOD9311498 Si02
#       6
#     4   4   2   2   4   4
#     4  12  28  46  76 110 148 194 245 308 381 447
#     4  11  24  44  71 106 138 188 247 303 364 431
#     4  12  26  42  72 114 156 190 240 310 392 466
#     4  12  24  44  74 110 152 198 240 306 394 452
#     4  11  23  41  66 107 153 192 231 299 372 461
#     4  12  28  53  76 102 146 202 259 305 359 438
#
# _framework density 21.426404000000002
#
# number of rings (size 3 to 8) (size 9 to 14) (size 15 to 20)
#    0.000    0.400    5.000    3.000    5.600    0.800 
#    5.400    0.000    0.000    0.000    0.000    0.000 
#    0.000    0.000    0.000    0.000    0.000    0.000 
#
# Total GULP energy -111896.226510 kJ/mol
# GULP energy per Si atom -5594.811325 kJ/mol
# Density = 2.137764 g / cm^3
# Si number density = 21.426404 Si / 1000 Ang^3
#
#
#
# Elastic Constant Matrix: (Units=GPa)
#
#
# Indices 1 2 3 4 5 6 
#
# 1 122.7719 50.8173 56.8209 0.0000 0.0000 0.0000
# 2 50.8173 136.5022 56.3182 0.0000 0.0000 0.0000
# 3 56.8209 56.3182 193.9959 0.0000 0.0000 0.0000
# 4 0.0000 0.0000 0.0000 -336.7009 0.0000 0.0000
# 5 0.0000 0.0000 0.0000 0.0000 46.4233 0.0000
# 6 0.0000 0.0000 0.0000 0.0000 0.0000 6.6530
#
#
#
# Elastic Compliance Matrix: (Units=1/GPa)
#
#
# Indices 1 2 3 4 5 6 
#
# 1 0.010382 -0.002966 -0.002180 0.000000 0.000000 0.000000
# 2 -0.002966 0.009170 -0.001793 0.000000 0.000000 0.000000
# 3 -0.002180 -0.001793 0.006314 0.000000 0.000000 0.000000
# 4 0.000000 0.000000 0.000000 -0.002970 0.000000 0.000000
# 5 0.000000 0.000000 0.000000 0.000000 0.021541 0.000000
# 6 0.000000 0.000000 0.000000 0.000000 0.000000 0.150309
#
#
# Mechanical properties :
#
#
# Convention : Reuss Voigt Hill
#
# Bulk Modulus (GPa) = 83.41924 86.79810 85.10867
# Shear Modulus (GPa) = 23.51633 -37.43736 -6.96051
#
# Velocity S-wave (km/s) = 3.31651 -4.18455 -1.80433
# Velocity P-wave (km/s) = 7.32687 4.15338 5.95540
#
# Compressibility (1/GPa) = 0.01198764
#
# Stress axis : x y z
#
# Youngs Moduli (GPa) = 96.32501 109.05307 158.38155
#
# Poissons Ratio (x) = 0.32340 0.34524
# Poissons Ratio (y) = 0.28565 0.28405
# Poissons Ratio (z) = 0.20997 0.19558
#
# Static dielectric constant tensor:
#      x y z
#    x 2.013520 0.000000 0.000000 
#    y 0.000000 1.802840 0.000000 
#    z 0.000000 0.000000 1.762960 
# 
# From -- ./inp_files/7637.got.cif
#   From: 2010.05.17/outbox.cif.g08.bks.cpg/sg17_4_cif.got.tgz:7637.got - 2010.06.03 22:34:06.
