data_PCOD9311539
_publ_section_title
;
Structure prediction by ZEFSAII (Michael W. Deem and Ramdas Pophale) SiO2 
 PCOD9311539
Probable space group: P 2 2 21
;
_chemical_formula_sum "Si O2"
_cell_formula_units_Z 12
_cell_length_a 4.925789
_cell_length_b 18.164791
_cell_length_c 5.387684
_cell_angle_alpha 90.000000
_cell_angle_beta 90.000000
_cell_angle_gamma 90.000000
_cell_volume 482.068024
_symmetry_space_group_name_H-M "P 2 2 21"
_symmetry_group_IT_number 17
_symmetry_cell_setting 'orthorhombic'
loop_
_space_group_symop_operation_xyz
x,y,z
-x,-y,1/2+z
x,-y,-z
-x,y,1/2-z
loop_
_atom_site_type_symbol
_atom_site_label
_atom_site_fract_x
_atom_site_fract_y
_atom_site_fract_z
Si Si1 0.000000 0.957035 0.750000
Si Si2 0.819167 0.421208 0.000958
Si Si3 0.500000 0.857600 0.750000
Si Si4 0.735559 0.259377 0.919767
O O1 0.733444 0.912679 0.649924
O O2 0.092506 0.000000 0.500000
O O3 0.000000 0.418708 0.250000
O O4 0.666616 0.500000 0.000000
O O5 0.667147 0.343577 0.995136
O O6 0.000000 0.422436 0.750000
O O7 0.285335 0.797746 0.637709
O O8 0.500000 0.229199 0.750000
O O9 0.000000 0.260867 0.750000
#
# Coordination Sequence:
#
# PCOD9311539 Si02
#       4
#     2   4   2   4
#     4  12  30  54  82 116 152 196 246 310 394 476
#     4   9  20  41  67 100 147 199 253 310 368 433
#     4  12  28  48  82 112 152 200 248 320 378 472
#     4  11  26  45  72 111 151 200 257 316 377 446
#
# _framework density 24.892752999999999
#
# number of rings (size 3 to 8) (size 9 to 14) (size 15 to 20)
#    0.000    1.333    0.000    3.000   18.667    0.000 
#    3.000    1.667    0.000    0.000    0.000    0.000 
#    0.000    0.000    0.000    0.000    0.000    0.000 
#
# Total GULP energy -66827.300776 kJ/mol
# GULP energy per Si atom -5568.941731 kJ/mol
# Density = 2.483610 g / cm^3
# Si number density = 24.892753 Si / 1000 Ang^3
#
#
#
# Elastic Constant Matrix: (Units=GPa)
#
#
# Indices 1 2 3 4 5 6 
#
# 1 105.8304 19.2782 13.5187 0.0000 0.0000 0.0000
# 2 19.2782 124.4631 31.2927 0.0000 0.0000 0.0000
# 3 13.5187 31.2927 123.6005 0.0000 0.0000 0.0000
# 4 0.0000 0.0000 0.0000 215.0028 0.0000 0.0000
# 5 0.0000 0.0000 0.0000 0.0000 33.8300 0.0000
# 6 0.0000 0.0000 0.0000 0.0000 0.0000 34.5775
#
#
#
# Elastic Compliance Matrix: (Units=1/GPa)
#
#
# Indices 1 2 3 4 5 6 
#
# 1 0.009785 -0.001331 -0.000733 0.000000 0.000000 0.000000
# 2 -0.001331 0.008762 -0.002073 0.000000 0.000000 0.000000
# 3 -0.000733 -0.002073 0.008696 0.000000 0.000000 0.000000
# 4 0.000000 0.000000 0.000000 0.004651 0.000000 0.000000
# 5 0.000000 0.000000 0.000000 0.000000 0.029560 0.000000
# 6 0.000000 0.000000 0.000000 0.000000 0.000000 0.028921
#
#
# Mechanical properties :
#
#
# Convention : Reuss Voigt Hill
#
# Bulk Modulus (GPa) = 52.71967 53.56369 53.14168
# Shear Modulus (GPa) = 47.63225 76.00235 61.81730
#
# Velocity S-wave (km/s) = 4.37910 5.53156 4.98872
# Velocity P-wave (km/s) = 6.84057 7.89697 7.38768
#
# Compressibility (1/GPa) = 0.01896825
#
# Stress axis : x y z
#
# Youngs Moduli (GPa) = 102.19459 114.13140 115.00160
#
# Poissons Ratio (x) = 0.15194 0.08432
# Poissons Ratio (y) = 0.13605 0.23836
# Poissons Ratio (z) = 0.07493 0.23656
#
# Static dielectric constant tensor:
#      x y z
#    x 0.566290 0.000000 0.000000 
#    y 0.000000 1.988170 0.000000 
#    z 0.000000 0.000000 1.975780 
# 
# From -- ./inp_files/120.got.cif
#   From: 2010.05.17/outbox.cif.g08.bks.cpg/sg17_1_cif.got.tgz:120.got - 2010.06.03 22:34:06.
