data_PCOD9311726
_publ_section_title
;
Structure prediction by ZEFSAII (Michael W. Deem and Ramdas Pophale) SiO2 
 PCOD9311726
Probable space group: P 21 21 2
;
_chemical_formula_sum "Si O2"
_cell_formula_units_Z 24
_cell_length_a 4.790647
_cell_length_b 12.644728
_cell_length_c 16.333237
_cell_angle_alpha 90.000000
_cell_angle_beta 90.000000
_cell_angle_gamma 90.000000
_cell_volume 989.409159
_symmetry_space_group_name_H-M "P 21 21 2"
_symmetry_group_IT_number 18
_symmetry_cell_setting 'orthorhombic'
loop_
_space_group_symop_operation_xyz
x,y,z
-x,-y,z
1/2+x,1/2-y,-z
1/2-x,1/2+y,-z
loop_
_atom_site_type_symbol
_atom_site_label
_atom_site_fract_x
_atom_site_fract_y
_atom_site_fract_z
Si Si1 0.500000 0.500000 0.229440
Si Si2 0.402908 0.340257 0.097886
Si Si3 0.142752 0.364139 0.340421
Si Si4 0.354036 0.783258 0.309869
Si Si5 0.615584 0.700811 0.866928
Si Si6 0.000000 0.000000 0.035827
Si Si7 0.383917 0.822475 0.485433
O O1 0.564896 0.403644 0.168846
O O2 0.257117 0.456495 0.285271
O O3 0.632038 0.249617 0.076400
O O4 0.125905 0.288413 0.133294
O O5 0.326651 0.428918 0.030181
O O6 0.835894 0.319921 0.326524
O O7 0.183653 0.392838 0.435943
O O8 0.333835 0.262078 0.315545
O O9 0.321622 0.854615 0.392016
O O10 0.258008 0.823808 0.221093
O O11 0.455910 0.597701 0.902248
O O12 0.200864 0.716883 0.504422
#
# Coordination Sequence:
#
# PCOD9311726 Si02
#       7
#     2   4   4   4   4   2   4
#     4  11  20  36  59  92 122 162 211 248 308 353
#     4  11  26  42  64  92 127 159 204 265 314 370
#     4  10  19  32  53  87 121 159 198 243 296 355
#     4  10  18  35  57  83 117 159 199 244 300 349
#     4  12  23  45  65  93 123 163 207 259 313 372
#     4  11  28  44  69  92 122 164 207 252 324 389
#     4   8  16  29  50  77 114 154 192 236 291 346
#
# _framework density 24.256902
#
# number of rings (size 3 to 8) (size 9 to 14) (size 15 to 20)
#    0.000    1.667    3.333    1.000    0.000    6.667 
#    0.000    0.833    0.000    0.000    0.000   11.667 
#    0.000    0.000    0.000    0.000    0.000    0.000 
#
# Total GULP energy -133698.080144 kJ/mol
# GULP energy per Si atom -5570.753339 kJ/mol
# Density = 2.420169 g / cm^3
# Si number density = 24.256902 Si / 1000 Ang^3
#
#
#
# Elastic Constant Matrix: (Units=GPa)
#
#
# Indices 1 2 3 4 5 6 
#
# 1 72.5057 15.9566 0.8669 0.0000 0.0000 0.0000
# 2 15.9566 73.3704 38.8899 0.0000 0.0000 0.0000
# 3 0.8669 38.8899 148.1429 0.0000 0.0000 0.0000
# 4 0.0000 0.0000 0.0000 3.5221 0.0000 0.0000
# 5 0.0000 0.0000 0.0000 0.0000 7.0883 0.0000
# 6 0.0000 0.0000 0.0000 0.0000 0.0000 13.4605
#
#
#
# Elastic Compliance Matrix: (Units=1/GPa)
#
#
# Indices 1 2 3 4 5 6 
#
# 1 0.014581 -0.003631 0.000868 0.000000 0.000000 0.000000
# 2 -0.003631 0.016737 -0.004372 0.000000 0.000000 0.000000
# 3 0.000868 -0.004372 0.007893 0.000000 0.000000 0.000000
# 4 0.000000 0.000000 0.000000 0.283925 0.000000 0.000000
# 5 0.000000 0.000000 0.000000 0.000000 0.141078 0.000000
# 6 0.000000 0.000000 0.000000 0.000000 0.000000 0.074291
#
#
# Mechanical properties :
#
#
# Convention : Reuss Voigt Hill
#
# Bulk Modulus (GPa) = 40.09731 45.04954 42.57343
# Shear Modulus (GPa) = 8.91125 20.70121 14.80623
#
# Velocity S-wave (km/s) = 1.91877 2.92450 2.47329
# Velocity P-wave (km/s) = 4.63412 5.47866 5.07399
#
# Compressibility (1/GPa) = 0.02493933
#
# Stress axis : x y z
#
# Youngs Moduli (GPa) = 68.58365 59.74877 126.69468
#
# Poissons Ratio (x) = 0.21695 -0.10996
# Poissons Ratio (y) = 0.24903 0.55396
# Poissons Ratio (z) = -0.05952 0.26125
#
# Static dielectric constant tensor:
#      x y z
#    x 1.915150 0.000000 0.000000 
#    y 0.000000 1.983580 0.000000 
#    z 0.000000 0.000000 2.067600 
# 
# From -- ./inp_files/7154.got.cif
#   From: 2010.05.17/outbox.cif.g08.bks.cpg/sg18_4_cif.got.tgz:7154.got - 2010.06.03 22:40:56.
