data_PCOD9311163
_publ_section_title
;
Structure prediction by ZEFSAII (Michael W. Deem and Ramdas Pophale) SiO2 
 PCOD9311163
Probable space group: P 2 2 21
;
_chemical_formula_sum "Si O2"
_cell_formula_units_Z 16
_cell_length_a 7.231382
_cell_length_b 5.230270
_cell_length_c 19.743083
_cell_angle_alpha 90.000000
_cell_angle_beta 90.000000
_cell_angle_gamma 90.000000
_cell_volume 746.724471
_symmetry_space_group_name_H-M "P 2 2 21"
_symmetry_group_IT_number 17
_symmetry_cell_setting 'orthorhombic'
loop_
_space_group_symop_operation_xyz
x,y,z
-x,-y,1/2+z
x,-y,-z
-x,y,1/2-z
loop_
_atom_site_type_symbol
_atom_site_label
_atom_site_fract_x
_atom_site_fract_y
_atom_site_fract_z
Si Si1 0.955900 0.618624 0.930499
Si Si2 0.380218 0.252204 0.044604
Si Si3 0.665754 0.845670 0.841684
Si Si4 0.165060 0.348656 0.698365
O O1 0.162638 0.714140 0.941196
O O2 0.937521 0.402279 0.873071
O O3 0.822503 0.834461 0.900829
O O4 0.886727 0.500000 0.000000
O O5 0.483389 0.222091 0.116385
O O6 0.437799 0.500000 0.000000
O O7 0.412993 0.000000 0.000000
O O8 0.726273 0.616602 0.791384
O O9 0.690403 0.118198 0.807263
O O10 0.000000 0.297454 0.750000
#
# Coordination Sequence:
#
# PCOD9311163 Si02
#       4
#     4   4   4   4
#     4   9  23  37  64  87 123 158 202 252 309 360
#     4  11  23  36  61  95 128 153 203 257 313 366
#     4  10  22  37  63  84 124 156 206 245 309 353
#     4  10  22  40  64  84 124 167 206 246 307 365
#
# _framework density 21.426915999999999
#
# number of rings (size 3 to 8) (size 9 to 14) (size 15 to 20)
#    1.500    0.500    0.000    3.000   10.500    0.000 
#    0.000    1.250    0.000    0.000    0.000    0.000 
#    0.000    0.000    0.000    0.000    0.000    0.000 
#
# Total GULP energy -89219.580602 kJ/mol
# GULP energy per Si atom -5576.223788 kJ/mol
# Density = 2.137815 g / cm^3
# Si number density = 21.426916 Si / 1000 Ang^3
#
#
#
# Elastic Constant Matrix: (Units=GPa)
#
#
# Indices 1 2 3 4 5 6 
#
# 1 55.7025 -1.5112 -8.7005 0.0000 0.0000 0.0000
# 2 -1.5112 130.6147 4.5941 0.0000 0.0000 0.0000
# 3 -8.7005 4.5941 53.3605 0.0000 0.0000 0.0000
# 4 0.0000 0.0000 0.0000 17.5243 0.0000 0.0000
# 5 0.0000 0.0000 0.0000 0.0000 -13.8516 0.0000
# 6 0.0000 0.0000 0.0000 0.0000 0.0000 -4.6641
#
#
#
# Elastic Compliance Matrix: (Units=1/GPa)
#
#
# Indices 1 2 3 4 5 6 
#
# 1 0.018423 0.000108 0.002995 0.000000 0.000000 0.000000
# 2 0.000108 0.007680 -0.000644 0.000000 0.000000 0.000000
# 3 0.002995 -0.000644 0.019284 0.000000 0.000000 0.000000
# 4 0.000000 0.000000 0.000000 0.057064 0.000000 0.000000
# 5 0.000000 0.000000 0.000000 0.000000 -0.072194 0.000000
# 6 0.000000 0.000000 0.000000 0.000000 0.000000 -0.214402
#
#
# Mechanical properties :
#
#
# Convention : Reuss Voigt Hill
#
# Bulk Modulus (GPa) = 19.87874 25.38249 22.63061
# Shear Modulus (GPa) = -29.02013 16.15473 -6.43270
#
# Velocity S-wave (km/s) = -3.68418 2.74879 -1.73455
# Velocity P-wave (km/s) = 2.96647 4.68468 2.56381
#
# Compressibility (1/GPa) = 0.05030501
#
# Stress axis : x y z
#
# Youngs Moduli (GPa) = 54.27945 130.20851 51.85605
#
# Poissons Ratio (x) = -0.01404 -0.15529
# Poissons Ratio (y) = -0.00585 0.03338
# Poissons Ratio (z) = -0.16255 0.08381
#
# Static dielectric constant tensor:
#      x y z
#    x 1.764480 0.000000 0.000000 
#    y 0.000000 1.880140 0.000000 
#    z 0.000000 0.000000 1.781650 
# 
# From -- ./inp_files/8863.got.cif
#   From: 2010.05.17/outbox.cif.g08.bks.cpg/sg17_5_cif.got.tgz:8863.got - 2010.06.03 22:34:06.
