data_PCOD9311270
_publ_section_title
;
Structure prediction by ZEFSAII (Michael W. Deem and Ramdas Pophale) SiO2 
 PCOD9311270
Probable space group: P 2 2 21
;
_chemical_formula_sum "Si O2"
_cell_formula_units_Z 18
_cell_length_a 8.512041
_cell_length_b 5.024527
_cell_length_c 17.804132
_cell_angle_alpha 90.000000
_cell_angle_beta 90.000000
_cell_angle_gamma 90.000000
_cell_volume 761.464562
_symmetry_space_group_name_H-M "P 2 2 21"
_symmetry_group_IT_number 17
_symmetry_cell_setting 'orthorhombic'
loop_
_space_group_symop_operation_xyz
x,y,z
-x,-y,1/2+z
x,-y,-z
-x,y,1/2-z
loop_
_atom_site_type_symbol
_atom_site_label
_atom_site_fract_x
_atom_site_fract_y
_atom_site_fract_z
Si Si1 0.310013 0.555255 0.190155
Si Si2 0.905419 0.621815 0.929940
Si Si3 0.110799 0.031487 0.179886
Si Si4 0.350051 0.000000 0.500000
Si Si5 0.632638 0.318821 0.856177
O O1 0.226824 0.273849 0.204116
O O2 0.340782 0.723373 0.267187
O O3 0.475687 0.499767 0.149507
O O4 0.195713 0.766062 0.149625
O O5 0.806628 0.420120 0.878383
O O6 0.004239 0.829270 0.882930
O O7 0.761681 0.769950 0.970160
O O8 0.999160 0.500000 0.000000
O O9 0.000000 0.960803 0.250000
O O10 0.419933 0.887556 0.421585
#
# Coordination Sequence:
#
# PCOD9311270 Si02
#       5
#     4   4   4   2   4
#     4  11  26  41  72  99 139 171 234 288 342 392
#     4  10  23  42  68  93 134 182 228 270 346 417
#     4  12  24  43  68 103 135 178 223 287 343 404
#     4  10  22  42  72  90 134 182 228 268 340 424
#     4  10  23  44  66 100 130 185 227 283 337 412
#
# _framework density 23.638658
#
# number of rings (size 3 to 8) (size 9 to 14) (size 15 to 20)
#    0.000    1.333    2.222    2.000    9.333    1.778 
#    4.000    0.000    0.000    0.000    0.000    0.000 
#    0.000    0.000    0.000    0.000    0.000    0.000 
#
# Total GULP energy -100248.241659 kJ/mol
# GULP energy per Si atom -5569.346759 kJ/mol
# Density = 2.358486 g / cm^3
# Si number density = 23.638658 Si / 1000 Ang^3
#
#
#
# Elastic Constant Matrix: (Units=GPa)
#
#
# Indices 1 2 3 4 5 6 
#
# 1 76.0339 15.7959 -3.8491 0.0000 0.0000 0.0000
# 2 15.7959 79.7867 -1.4634 0.0000 0.0000 0.0000
# 3 -3.8491 -1.4634 68.0044 0.0000 0.0000 0.0000
# 4 0.0000 0.0000 0.0000 28.5996 0.0000 0.0000
# 5 0.0000 0.0000 0.0000 0.0000 33.5000 0.0000
# 6 0.0000 0.0000 0.0000 0.0000 0.0000 20.8194
#
#
#
# Elastic Compliance Matrix: (Units=1/GPa)
#
#
# Indices 1 2 3 4 5 6 
#
# 1 0.013751 -0.002709 0.000720 0.000000 0.000000 0.000000
# 2 -0.002709 0.013072 0.000128 0.000000 0.000000 0.000000
# 3 0.000720 0.000128 0.014748 0.000000 0.000000 0.000000
# 4 0.000000 0.000000 0.000000 0.034966 0.000000 0.000000
# 5 0.000000 0.000000 0.000000 0.000000 0.029851 0.000000
# 6 0.000000 0.000000 0.000000 0.000000 0.000000 0.048032
#
#
# Mechanical properties :
#
#
# Convention : Reuss Voigt Hill
#
# Bulk Modulus (GPa) = 26.42053 27.19912 26.80982
# Shear Modulus (GPa) = 29.28097 30.80655 30.04376
#
# Velocity S-wave (km/s) = 3.52332 3.61394 3.56892
# Velocity P-wave (km/s) = 5.26809 5.38008 5.32438
#
# Compressibility (1/GPa) = 0.03784936
#
# Stress axis : x y z
#
# Youngs Moduli (GPa) = 72.72025 76.49865 67.80382
#
# Poissons Ratio (x) = 0.20725 -0.04882
# Poissons Ratio (y) = 0.19702 -0.00868
# Poissons Ratio (z) = -0.05236 -0.00979
#
# Static dielectric constant tensor:
#      x y z
#    x 1.981160 0.000000 0.000000 
#    y 0.000000 1.799260 0.000000 
#    z 0.000000 0.000000 1.892940 
# 
# From -- ./inp_files/8870.got.cif
#   From: 2010.05.17/outbox.cif.g08.bks.cpg/sg17_5_cif.got.tgz:8870.got - 2010.06.03 22:34:06.
