data_PCOD9311919
_publ_section_title
;
Structure prediction by ZEFSAII (Michael W. Deem and Ramdas Pophale) SiO2 
 PCOD9311919
Probable space group: P 21 21 2
;
_chemical_formula_sum "Si O2"
_cell_formula_units_Z 30
_cell_length_a 13.994478
_cell_length_b 11.795857
_cell_length_c 7.684630
_cell_angle_alpha 90.000000
_cell_angle_beta 90.000000
_cell_angle_gamma 90.000000
_cell_volume 1268.554600
_symmetry_space_group_name_H-M "P 21 21 2"
_symmetry_group_IT_number 18
_symmetry_cell_setting 'orthorhombic'
loop_
_space_group_symop_operation_xyz
x,y,z
-x,-y,z
1/2+x,1/2-y,-z
1/2-x,1/2+y,-z
loop_
_atom_site_type_symbol
_atom_site_label
_atom_site_fract_x
_atom_site_fract_y
_atom_site_fract_z
Si Si1 0.263543 0.058789 0.268574
Si Si2 0.237850 0.301736 0.371455
Si Si3 0.758115 0.230007 0.219743
Si Si4 0.415495 0.423332 0.730951
Si Si5 0.483131 0.778446 0.550901
Si Si6 0.923578 0.595285 0.770911
Si Si7 0.786584 0.488416 0.136722
Si Si8 0.000000 0.500000 0.236688
O O1 0.282909 0.189977 0.288599
O O2 0.162933 0.013118 0.340178
O O3 0.351899 0.985945 0.341553
O O4 0.258871 0.028206 0.064249
O O5 0.263120 0.299911 0.574930
O O6 0.124686 0.275649 0.376469
O O7 0.257281 0.413467 0.258203
O O8 0.853012 0.164926 0.151249
O O9 0.659017 0.177676 0.142993
O O10 0.763989 0.363923 0.209680
O O11 0.500000 0.500000 0.812387
O O12 0.465815 0.339085 0.593434
O O13 0.478293 0.815625 0.350766
O O14 0.523288 0.888120 0.651114
O O15 0.000000 0.500000 0.834548
O O16 0.900009 0.516273 0.138188
#
# Coordination Sequence:
#
# PCOD9311919 Si02
#       8
#     4   4   4   4   4   4   4   2
#     4  11  26  42  65  99 145 181 228 290 355 429
#     4  10  24  40  68  99 129 179 227 288 346 410
#     4  10  24  41  69  97 134 174 240 295 338 420
#     4  11  22  40  65  98 133 182 232 282 356 413
#     4  10  19  38  66  94 124 169 237 280 338 404
#     4  10  23  40  67  96 135 174 228 301 345 401
#     4  11  25  43  68  99 144 186 233 283 365 423
#     4  10  20  36  64  96 120 176 238 278 330 424
#
# _framework density 23.648962999999998
#
# number of rings (size 3 to 8) (size 9 to 14) (size 15 to 20)
#    0.000    1.600    3.333    0.000   14.000    0.000 
#    0.000    1.333    0.000    0.000    0.000    0.000 
#    0.000    0.000    0.000    0.000    0.000    0.000 
#
# Total GULP energy -167161.404426 kJ/mol
# GULP energy per Si atom -5572.046814 kJ/mol
# Density = 2.359514 g / cm^3
# Si number density = 23.648963 Si / 1000 Ang^3
#
#
#
# Elastic Constant Matrix: (Units=GPa)
#
#
# Indices 1 2 3 4 5 6 
#
# 1 108.2312 39.3010 8.8473 0.0000 0.0000 0.0000
# 2 39.3010 202.3795 39.7831 0.0000 0.0000 0.0000
# 3 8.8473 39.7831 72.9987 0.0000 0.0000 0.0000
# 4 0.0000 0.0000 0.0000 23.6316 0.0000 0.0000
# 5 0.0000 0.0000 0.0000 0.0000 21.4385 0.0000
# 6 0.0000 0.0000 0.0000 0.0000 0.0000 48.0047
#
#
#
# Elastic Compliance Matrix: (Units=1/GPa)
#
#
# Indices 1 2 3 4 5 6 
#
# 1 0.009942 -0.001897 -0.000171 0.000000 0.000000 0.000000
# 2 -0.001897 0.005896 -0.002983 0.000000 0.000000 0.000000
# 3 -0.000171 -0.002983 0.015345 0.000000 0.000000 0.000000
# 4 0.000000 0.000000 0.000000 0.042316 0.000000 0.000000
# 5 0.000000 0.000000 0.000000 0.000000 0.046645 0.000000
# 6 0.000000 0.000000 0.000000 0.000000 0.000000 0.020831
#
#
# Mechanical properties :
#
#
# Convention : Reuss Voigt Hill
#
# Bulk Modulus (GPa) = 47.43649 62.16356 54.80003
# Shear Modulus (GPa) = 31.62426 38.32684 34.97555
#
# Velocity S-wave (km/s) = 3.66079 4.03010 3.84988
# Velocity P-wave (km/s) = 6.16203 6.92811 6.55627
#
# Compressibility (1/GPa) = 0.02108082
#
# Stress axis : x y z
#
# Youngs Moduli (GPa) = 100.57985 169.60436 65.16573
#
# Poissons Ratio (x) = 0.32176 0.01115
# Poissons Ratio (y) = 0.19081 0.19441
# Poissons Ratio (z) = 0.01721 0.50599
#
# Static dielectric constant tensor:
#      x y z
#    x 2.005780 0.000000 0.000000 
#    y 0.000000 1.930280 0.000000 
#    z 0.000000 0.000000 2.021140 
# 
# From -- ./inp_files/4269.got.cif
#   From: 2010.05.17/outbox.cif.g08.bks.cpg/sg18_3_cif.got.tgz:4269.got - 2010.06.03 22:40:56.
