data_PCOD9311343
_publ_section_title
;
Structure prediction by ZEFSAII (Michael W. Deem and Ramdas Pophale) SiO2 
 PCOD9311343
Probable space group: P 2 2 21
;
_chemical_formula_sum "Si O2"
_cell_formula_units_Z 24
_cell_length_a 9.916841
_cell_length_b 5.155604
_cell_length_c 24.429125
_cell_angle_alpha 90.000000
_cell_angle_beta 90.000000
_cell_angle_gamma 90.000000
_cell_volume 1248.995328
_symmetry_space_group_name_H-M "P 2 2 21"
_symmetry_group_IT_number 17
_symmetry_cell_setting 'orthorhombic'
loop_
_space_group_symop_operation_xyz
x,y,z
-x,-y,1/2+z
x,-y,-z
-x,y,1/2-z
loop_
_atom_site_type_symbol
_atom_site_label
_atom_site_fract_x
_atom_site_fract_y
_atom_site_fract_z
Si Si1 0.279558 0.251858 0.462306
Si Si2 0.394721 0.330376 0.702059
Si Si3 0.030606 0.748963 0.961134
Si Si4 0.791077 0.219144 0.352017
Si Si5 0.144834 0.720309 0.221987
Si Si6 0.530467 0.833568 0.861090
O O1 0.299814 0.500000 0.500000
O O2 0.392000 0.238452 0.416173
O O3 0.125152 0.264305 0.440566
O O4 0.288056 0.000000 0.500000
O O5 0.500000 0.273418 0.750000
O O6 0.250510 0.279209 0.728227
O O7 0.415480 0.625371 0.683157
O O8 0.428571 0.125637 0.654787
O O9 0.128825 0.764848 0.909253
O O10 0.054918 0.500000 0.000000
O O11 0.044152 0.000000 0.000000
O O12 0.837831 0.973968 0.315745
O O13 0.821313 0.474880 0.316361
O O14 0.630876 0.193837 0.362850
O O15 0.000000 0.703734 0.250000
#
# Coordination Sequence:
#
# PCOD9311343 Si02
#       6
#     4   4   4   4   4   4
#     4  10  23  42  63  92 124 159 209 256 309 373
#     4  12  23  43  63  91 132 165 203 251 313 367
#     4  10  23  42  63  89 124 164 203 257 313 365
#     4  12  24  43  64  95 127 163 212 254 311 370
#     4  12  27  41  63  95 128 167 209 258 302 373
#     4  12  24  40  68  94 123 169 204 257 312 370
#
# _framework density 19.215444000000002
#
# number of rings (size 3 to 8) (size 9 to 14) (size 15 to 20)
#    0.000    0.667    3.333    4.000    4.667    1.333 
#    0.000    0.000    0.000    0.000    0.000    0.000 
#    0.000    0.000    0.000    0.000    0.000    0.000 
#
# Total GULP energy -134234.514676 kJ/mol
# GULP energy per Si atom -5593.104778 kJ/mol
# Density = 1.917171 g / cm^3
# Si number density = 19.215444 Si / 1000 Ang^3
#
#
#
# Elastic Constant Matrix: (Units=GPa)
#
#
# Indices 1 2 3 4 5 6 
#
# 1 156.3895 10.0817 64.0916 0.0000 0.0000 0.0000
# 2 10.0817 109.5885 13.4880 0.0000 0.0000 0.0000
# 3 64.0916 13.4880 75.1155 0.0000 0.0000 0.0000
# 4 0.0000 0.0000 0.0000 19.5277 0.0000 0.0000
# 5 0.0000 0.0000 0.0000 0.0000 44.2513 0.0000
# 6 0.0000 0.0000 0.0000 0.0000 0.0000 21.5379
#
#
#
# Elastic Compliance Matrix: (Units=1/GPa)
#
#
# Indices 1 2 3 4 5 6 
#
# 1 0.009834 0.000131 -0.008415 0.000000 0.000000 0.000000
# 2 0.000131 0.009333 -0.001788 0.000000 0.000000 0.000000
# 3 -0.008415 -0.001788 0.020813 0.000000 0.000000 0.000000
# 4 0.000000 0.000000 0.000000 0.051209 0.000000 0.000000
# 5 0.000000 0.000000 0.000000 0.000000 0.022598 0.000000
# 6 0.000000 0.000000 0.000000 0.000000 0.000000 0.046430
#
#
# Mechanical properties :
#
#
# Convention : Reuss Voigt Hill
#
# Bulk Modulus (GPa) = 50.40736 57.37957 53.89346
# Shear Modulus (GPa) = 26.74178 33.95885 30.35032
#
# Velocity S-wave (km/s) = 3.73457 4.20845 3.97857
# Velocity P-wave (km/s) = 6.69968 7.31715 7.01521
#
# Compressibility (1/GPa) = 0.01983837
#
# Stress axis : x y z
#
# Youngs Moduli (GPa) = 101.68493 107.14648 48.04589
#
# Poissons Ratio (x) = -0.01403 0.40428
# Poissons Ratio (y) = -0.01331 0.08589
# Poissons Ratio (z) = 0.85563 0.19153
#
# Static dielectric constant tensor:
#      x y z
#    x 1.626690 0.000000 0.000000 
#    y 0.000000 1.666210 0.000000 
#    z 0.000000 0.000000 1.633170 
# 
# From -- ./inp_files/10542.got.cif
#   From: 2010.05.17/outbox.cif.g08.bks.cpg/sg17_6_cif.got.tgz:10542.got - 2010.06.03 22:34:06.
