data_PCOD9311193
_publ_section_title
;
Structure prediction by ZEFSAII (Michael W. Deem and Ramdas Pophale) SiO2 
 PCOD9311193
Probable space group: P 2 2 21
;
_chemical_formula_sum "Si O2"
_cell_formula_units_Z 12
_cell_length_a 17.065901
_cell_length_b 4.903744
_cell_length_c 5.088783
_cell_angle_alpha 90.000000
_cell_angle_beta 90.000000
_cell_angle_gamma 90.000000
_cell_volume 425.864014
_symmetry_space_group_name_H-M "P 2 2 21"
_symmetry_group_IT_number 17
_symmetry_cell_setting 'orthorhombic'
loop_
_space_group_symop_operation_xyz
x,y,z
-x,-y,1/2+z
x,-y,-z
-x,y,1/2-z
loop_
_atom_site_type_symbol
_atom_site_label
_atom_site_fract_x
_atom_site_fract_y
_atom_site_fract_z
Si Si1 0.500000 0.912106 0.250000
Si Si2 0.745971 0.200208 0.754151
Si Si3 0.618381 0.500000 0.500000
Si Si4 0.083047 0.197005 0.749979
O O1 0.556093 0.741645 0.455207
O O2 0.444511 0.000000 0.500000
O O3 0.679932 0.430067 0.727429
O O4 0.832447 0.336737 0.750098
O O5 0.736826 0.000000 0.500000
O O6 0.741068 0.000000 0.000000
O O7 0.000000 0.353711 0.750000
O O8 0.082476 0.000000 0.500000
O O9 0.083422 0.000000 0.000000
#
# Coordination Sequence:
#
# PCOD9311193 Si02
#       4
#     2   4   2   4
#     4  12  28  48  70 100 136 178 228 284 348 420
#     4  10  22  39  64  98 133 173 224 276 329 397
#     4  12  26  46  72  98 132 176 224 280 348 408
#     4   8  14  28  53  85 124 171 217 263 319 381
#
# _framework density 28.178007000000001
#
# number of rings (size 3 to 8) (size 9 to 14) (size 15 to 20)
#    0.000    2.000    0.000    3.000    0.000    6.667 
#    0.000    0.000    0.000   20.000    0.000    0.000 
#    0.000    0.000    0.000    0.000    0.000    2.000 
#
# Total GULP energy -66894.308543 kJ/mol
# GULP energy per Si atom -5574.525712 kJ/mol
# Density = 2.811387 g / cm^3
# Si number density = 28.178007 Si / 1000 Ang^3
#
#
#
# Elastic Constant Matrix: (Units=GPa)
#
#
# Indices 1 2 3 4 5 6 
#
# 1 82.1644 -49.6895 -113.6461 0.0000 0.0000 0.0000
# 2 -49.6895 59.8528 4.5962 0.0000 0.0000 0.0000
# 3 -113.6461 4.5962 229.3034 0.0000 0.0000 0.0000
# 4 0.0000 0.0000 0.0000 68.2636 0.0000 0.0000
# 5 0.0000 0.0000 0.0000 0.0000 -9.6850 0.0000
# 6 0.0000 0.0000 0.0000 0.0000 0.0000 -86.4634
#
#
#
# Elastic Compliance Matrix: (Units=1/GPa)
#
#
# Indices 1 2 3 4 5 6 
#
# 1 -0.084929 -0.067379 -0.040741 0.000000 0.000000 0.000000
# 2 -0.067379 -0.036722 -0.032658 0.000000 0.000000 0.000000
# 3 -0.040741 -0.032658 -0.015176 0.000000 0.000000 0.000000
# 4 0.000000 0.000000 0.000000 0.014649 0.000000 0.000000
# 5 0.000000 0.000000 0.000000 0.000000 -0.103252 0.000000
# 6 0.000000 0.000000 0.000000 0.000000 0.000000 -0.011566
#
#
# Mechanical properties :
#
#
# Convention : Reuss Voigt Hill
#
# Bulk Modulus (GPa) = -2.39015 5.98242 1.79614
# Shear Modulus (GPa) = -52.68664 29.76036 -11.46314
#
# Velocity S-wave (km/s) = -4.32879 3.25338 -2.01915
# Velocity P-wave (km/s) = 5.08277 4.02993 2.19023
#
# Compressibility (1/GPa) = -0.41838426
#
# Stress axis : x y z
#
# Youngs Moduli (GPa) = -11.77455 -27.23147 -65.89173
#
# Poissons Ratio (x) = -1.83483 -2.68452
# Poissons Ratio (y) = -0.79336 -2.15189
# Poissons Ratio (z) = -0.47971 -0.88932
#
# Static dielectric constant tensor:
#      x y z
#    x 2.384890 0.000000 0.000000 
#    y 0.000000 3.049720 0.000000 
#    z 0.000000 0.000000 1.999390 
# 
# From -- ./inp_files/2381.got.cif
#   From: 2010.05.17/outbox.cif.g08.bks.cpg/sg17_2_cif.got.tgz:2381.got - 2010.06.03 22:34:06.
