data_PCOD9311812
_publ_section_title
;
Structure prediction by ZEFSAII (Michael W. Deem and Ramdas Pophale) SiO2 
 PCOD9311812
Probable space group: P 21 21 2
;
_chemical_formula_sum "Si O2"
_cell_formula_units_Z 20
_cell_length_a 4.865287
_cell_length_b 16.984448
_cell_length_c 11.569930
_cell_angle_alpha 90.000000
_cell_angle_beta 90.000000
_cell_angle_gamma 90.000000
_cell_volume 956.072072
_symmetry_space_group_name_H-M "P 21 21 2"
_symmetry_group_IT_number 18
_symmetry_cell_setting 'orthorhombic'
loop_
_space_group_symop_operation_xyz
x,y,z
-x,-y,z
1/2+x,1/2-y,-z
1/2-x,1/2+y,-z
loop_
_atom_site_type_symbol
_atom_site_label
_atom_site_fract_x
_atom_site_fract_y
_atom_site_fract_z
Si Si1 0.589683 0.146656 0.964075
Si Si2 0.017221 0.815358 0.617876
Si Si3 0.238458 0.550664 0.227946
Si Si4 0.023624 0.792682 0.356883
Si Si5 0.904074 0.829255 0.109587
O O1 0.401067 0.146739 0.077456
O O2 0.893822 0.133811 0.013206
O O3 0.446120 0.089963 0.872446
O O4 0.574215 0.234673 0.910805
O O5 0.892418 0.884354 0.694519
O O6 0.982446 0.832244 0.481638
O O7 0.832221 0.739253 0.645703
O O8 0.324673 0.784932 0.643050
O O9 0.500000 0.500000 0.185504
O O10 0.000000 0.500000 0.292863
O O11 0.970068 0.842778 0.242828
#
# Coordination Sequence:
#
# PCOD9311812 Si02
#       5
#     4   4   4   4   4
#     4  10  21  33  54  85 114 151 193 229 297 344
#     4  10  21  35  56  88 118 150 195 233 304 345
#     4  12  24  38  58  81 126 163 196 235 275 366
#     4  10  19  35  60  86 120 145 182 261 299 343
#     4  10  19  33  58  83 117 144 181 256 295 340
#
# _framework density 20.918927
#
# number of rings (size 3 to 8) (size 9 to 14) (size 15 to 20)
#    0.000    1.600    2.000    3.600    5.600    0.000 
#    0.000    0.000    0.000    4.800    0.000    0.000 
#    0.000    0.000    0.000    0.000    0.000    0.000 
#
# Total GULP energy -111633.641126 kJ/mol
# GULP energy per Si atom -5581.682056 kJ/mol
# Density = 2.087131 g / cm^3
# Si number density = 20.918927 Si / 1000 Ang^3
#
#
#
# Elastic Constant Matrix: (Units=GPa)
#
#
# Indices 1 2 3 4 5 6 
#
# 1 77.5770 2.8041 -9.3669 0.0000 0.0000 0.0000
# 2 2.8041 38.8768 14.3298 0.0000 0.0000 0.0000
# 3 -9.3669 14.3298 105.1365 0.0000 0.0000 0.0000
# 4 0.0000 0.0000 0.0000 10.3498 0.0000 0.0000
# 5 0.0000 0.0000 0.0000 0.0000 27.3192 0.0000
# 6 0.0000 0.0000 0.0000 0.0000 0.0000 19.5931
#
#
#
# Elastic Compliance Matrix: (Units=1/GPa)
#
#
# Indices 1 2 3 4 5 6 
#
# 1 0.013108 -0.001449 0.001365 0.000000 0.000000 0.000000
# 2 -0.001449 0.027243 -0.003842 0.000000 0.000000 0.000000
# 3 0.001365 -0.003842 0.010157 0.000000 0.000000 0.000000
# 4 0.000000 0.000000 0.000000 0.096620 0.000000 0.000000
# 5 0.000000 0.000000 0.000000 0.000000 0.036604 0.000000
# 6 0.000000 0.000000 0.000000 0.000000 0.000000 0.051038
#
#
# Mechanical properties :
#
#
# Convention : Reuss Voigt Hill
#
# Bulk Modulus (GPa) = 23.44327 26.34714 24.89521
# Shear Modulus (GPa) = 19.46735 25.70730 22.58733
#
# Velocity S-wave (km/s) = 3.05390 3.50937 3.28953
# Velocity P-wave (km/s) = 4.86478 5.38917 5.13368
#
# Compressibility (1/GPa) = 0.04265616
#
# Stress axis : x y z
#
# Youngs Moduli (GPa) = 76.29143 36.70669 98.45661
#
# Poissons Ratio (x) = 0.05318 -0.13442
# Poissons Ratio (y) = 0.11052 0.37829
# Poissons Ratio (z) = -0.10416 0.14103
#
# Static dielectric constant tensor:
#      x y z
#    x 1.734260 0.000000 0.000000 
#    y 0.000000 1.796200 0.000000 
#    z 0.000000 0.000000 1.768070 
# 
# From -- ./inp_files/5082.got.cif
#   From: 2010.05.17/outbox.cif.g08.bks.cpg/sg18_3_cif.got.tgz:5082.got - 2010.06.03 22:40:56.
