data_PCOD9311064
_publ_section_title
;
Structure prediction by ZEFSAII (Michael W. Deem and Ramdas Pophale) SiO2 
 PCOD9311064
Probable space group: P 2 2 21
;
_chemical_formula_sum "Si O2"
_cell_formula_units_Z 20
_cell_length_a 12.400827
_cell_length_b 8.778300
_cell_length_c 8.896247
_cell_angle_alpha 90.000000
_cell_angle_beta 90.000000
_cell_angle_gamma 90.000000
_cell_volume 968.429254
_symmetry_space_group_name_H-M "P 2 2 21"
_symmetry_group_IT_number 17
_symmetry_cell_setting 'orthorhombic'
loop_
_space_group_symop_operation_xyz
x,y,z
-x,-y,1/2+z
x,-y,-z
-x,y,1/2-z
loop_
_atom_site_type_symbol
_atom_site_label
_atom_site_fract_x
_atom_site_fract_y
_atom_site_fract_z
Si Si1 0.760340 0.226210 0.585015
Si Si2 0.797440 0.923621 0.739797
Si Si3 0.000000 0.716685 0.750000
Si Si4 0.500000 0.456084 0.250000
Si Si5 0.900299 0.500000 0.500000
Si Si6 0.519055 0.715471 0.455457
Si Si7 0.631652 0.000000 0.000000
O O1 0.763927 0.161145 0.414463
O O2 0.823140 0.384887 0.591284
O O3 0.634656 0.249943 0.618381
O O4 0.815359 0.098512 0.688869
O O5 0.901263 0.828661 0.792249
O O6 0.706654 0.935327 0.866742
O O7 0.967671 0.607297 0.611798
O O8 0.455228 0.582281 0.367236
O O9 0.548513 0.343588 0.375712
O O10 0.446530 0.863274 0.454468
#
# Coordination Sequence:
#
# PCOD9311064 Si02
#       7
#     4   4   2   2   2   4   2
#     4  10  21  39  63  86 120 167 205 235 306 391
#     4  10  23  40  60  89 122 160 205 257 310 361
#     4  10  24  44  64  90 124 158 210 268 308 356
#     4  10  22  36  56  82 124 168 198 240 302 346
#     4  10  22  42  68  92 116 162 212 256 308 366
#     4  11  22  39  60  89 127 164 202 251 299 370
#     4  12  24  36  62  98 126 158 208 258 304 352
#
# _framework density 20.652000000000001
#
# number of rings (size 3 to 8) (size 9 to 14) (size 15 to 20)
#    0.000    1.600    0.000    4.800    0.000    9.600 
#    0.000    4.000    0.000    0.000    0.000    0.000 
#    0.000    0.000    0.000    0.000    0.000    0.000 
#
# Total GULP energy -111405.375306 kJ/mol
# GULP energy per Si atom -5570.268765 kJ/mol
# Density = 2.060499 g / cm^3
# Si number density = 20.652000 Si / 1000 Ang^3
#
#
#
# Elastic Constant Matrix: (Units=GPa)
#
#
# Indices 1 2 3 4 5 6 
#
# 1 129.4137 90.2062 41.8456 0.0000 0.0000 0.0000
# 2 90.2062 156.5464 44.4037 0.0000 0.0000 0.0000
# 3 41.8456 44.4037 76.6851 0.0000 0.0000 0.0000
# 4 0.0000 0.0000 0.0000 35.9252 0.0000 0.0000
# 5 0.0000 0.0000 0.0000 0.0000 6.6518 0.0000
# 6 0.0000 0.0000 0.0000 0.0000 0.0000 83.8488
#
#
#
# Elastic Compliance Matrix: (Units=1/GPa)
#
#
# Indices 1 2 3 4 5 6 
#
# 1 0.013641 -0.006879 -0.003461 0.000000 0.000000 0.000000
# 2 -0.006879 0.011112 -0.002681 0.000000 0.000000 0.000000
# 3 -0.003461 -0.002681 0.016481 0.000000 0.000000 0.000000
# 4 0.000000 0.000000 0.000000 0.027836 0.000000 0.000000
# 5 0.000000 0.000000 0.000000 0.000000 0.150334 0.000000
# 6 0.000000 0.000000 0.000000 0.000000 0.000000 0.011926
#
#
# Mechanical properties :
#
#
# Convention : Reuss Voigt Hill
#
# Bulk Modulus (GPa) = 65.81580 79.50624 72.66102
# Shear Modulus (GPa) = 19.05242 37.69782 28.37512
#
# Velocity S-wave (km/s) = 3.04064 4.27709 3.71072
# Velocity P-wave (km/s) = 6.65323 7.93555 7.32251
#
# Compressibility (1/GPa) = 0.01519392
#
# Stress axis : x y z
#
# Youngs Moduli (GPa) = 73.30974 89.99367 60.67625
#
# Poissons Ratio (x) = 0.61903 0.20997
# Poissons Ratio (y) = 0.50427 0.16265
# Poissons Ratio (z) = 0.25369 0.24125
#
# Static dielectric constant tensor:
#      x y z
#    x 1.718690 0.000000 0.000000 
#    y 0.000000 1.736750 0.000000 
#    z 0.000000 0.000000 1.803080 
# 
# From -- ./inp_files/4099.got.cif
#   From: 2010.05.17/outbox.cif.g08.bks.cpg/sg17_3_cif.got.tgz:4099.got - 2010.06.03 22:34:06.
