data_PCOD9311389
_publ_section_title
;
Structure prediction by ZEFSAII (Michael W. Deem and Ramdas Pophale) SiO2 
 PCOD9311389
Probable space group: P 2 2 21
;
_chemical_formula_sum "Si O2"
_cell_formula_units_Z 24
_cell_length_a 8.781847
_cell_length_b 7.726077
_cell_length_c 14.575990
_cell_angle_alpha 90.000000
_cell_angle_beta 90.000000
_cell_angle_gamma 90.000000
_cell_volume 988.969641
_symmetry_space_group_name_H-M "P 2 2 21"
_symmetry_group_IT_number 17
_symmetry_cell_setting 'orthorhombic'
loop_
_space_group_symop_operation_xyz
x,y,z
-x,-y,1/2+z
x,-y,-z
-x,y,1/2-z
loop_
_atom_site_type_symbol
_atom_site_label
_atom_site_fract_x
_atom_site_fract_y
_atom_site_fract_z
Si Si1 0.823727 0.823517 0.045992
Si Si2 0.113492 0.316394 0.037206
Si Si3 0.393520 0.663009 0.086921
Si Si4 0.644293 0.358959 0.106745
Si Si5 0.161620 0.509535 0.778512
Si Si6 0.411669 0.961640 0.344518
O O1 0.754218 0.863355 0.146412
O O2 0.738953 0.677766 0.986387
O O3 0.000289 0.808809 0.017729
O O4 0.768366 0.000000 0.000000
O O5 0.120410 0.336580 0.147313
O O6 0.054334 0.500000 0.000000
O O7 0.285203 0.311379 0.000997
O O8 0.511779 0.502123 0.096725
O O9 0.272097 0.619901 0.167050
O O10 0.486398 0.839711 0.091077
O O11 0.754766 0.422162 0.188194
O O12 0.589316 0.166720 0.136599
O O13 0.000000 0.430918 0.750000
O O14 0.500000 0.937340 0.250000
#
# Coordination Sequence:
#
# PCOD9311389 Si02
#       6
#     4   4   4   4   4   4
#     4  10  24  45  70 102 142 191 235 294 365 418
#     4  10  24  44  69 108 136 189 239 289 362 426
#     4  11  26  44  71 107 140 184 239 295 360 419
#     4  11  24  48  74 101 146 188 236 299 360 427
#     4  11  22  43  75 103 138 191 246 284 356 435
#     4  11  25  45  69 109 140 188 242 290 356 423
#
# _framework density 24.267679000000001
#
# number of rings (size 3 to 8) (size 9 to 14) (size 15 to 20)
#    0.000    1.333    1.667    2.500    9.333    2.667 
#   12.000    0.000    0.000    2.000    0.000    0.000 
#    0.000    0.000    0.000    0.000    0.000    0.000 
#
# Total GULP energy -133885.423215 kJ/mol
# GULP energy per Si atom -5578.559301 kJ/mol
# Density = 2.421244 g / cm^3
# Si number density = 24.267679 Si / 1000 Ang^3
#
#
#
# Elastic Constant Matrix: (Units=GPa)
#
#
# Indices 1 2 3 4 5 6 
#
# 1 164.5576 52.7033 48.5024 0.0000 0.0000 0.0000
# 2 52.7033 112.7570 10.6574 0.0000 0.0000 0.0000
# 3 48.5024 10.6574 92.9537 0.0000 0.0000 0.0000
# 4 0.0000 0.0000 0.0000 25.4176 0.0000 0.0000
# 5 0.0000 0.0000 0.0000 0.0000 47.4478 0.0000
# 6 0.0000 0.0000 0.0000 0.0000 0.0000 15.4862
#
#
#
# Elastic Compliance Matrix: (Units=1/GPa)
#
#
# Indices 1 2 3 4 5 6 
#
# 1 0.008381 -0.003542 -0.003967 0.000000 0.000000 0.000000
# 2 -0.003542 0.010463 0.000649 0.000000 0.000000 0.000000
# 3 -0.003967 0.000649 0.012753 0.000000 0.000000 0.000000
# 4 0.000000 0.000000 0.000000 0.039343 0.000000 0.000000
# 5 0.000000 0.000000 0.000000 0.000000 0.021076 0.000000
# 6 0.000000 0.000000 0.000000 0.000000 0.000000 0.064574
#
#
# Mechanical properties :
#
#
# Convention : Reuss Voigt Hill
#
# Bulk Modulus (GPa) = 55.93957 65.99939 60.96948
# Shear Modulus (GPa) = 28.36579 34.89732 31.63156
#
# Velocity S-wave (km/s) = 3.42258 3.79623 3.61424
# Velocity P-wave (km/s) = 6.22253 6.81694 6.52650
#
# Compressibility (1/GPa) = 0.01787643
#
# Stress axis : x y z
#
# Youngs Moduli (GPa) = 119.32384 95.57517 78.40987
#
# Poissons Ratio (x) = 0.33855 0.31103
# Poissons Ratio (y) = 0.42267 -0.05086
# Poissons Ratio (z) = 0.47333 -0.06200
#
# Static dielectric constant tensor:
#      x y z
#    x 1.994210 0.000000 0.000000 
#    y 0.000000 1.956470 0.000000 
#    z 0.000000 0.000000 2.103570 
# 
# From -- ./inp_files/8096.got.cif
#   From: 2010.05.17/outbox.cif.g08.bks.cpg/sg17_5_cif.got.tgz:8096.got - 2010.06.03 22:34:06.
