data_PCOD9311768
_publ_section_title
;
Structure prediction by ZEFSAII (Michael W. Deem and Ramdas Pophale) SiO2 
 PCOD9311768
Probable space group: P 21 21 2
;
_chemical_formula_sum "Si O2"
_cell_formula_units_Z 32
_cell_length_a 15.106316
_cell_length_b 13.656832
_cell_length_c 5.562991
_cell_angle_alpha 90.000000
_cell_angle_beta 90.000000
_cell_angle_gamma 90.000000
_cell_volume 1147.669630
_symmetry_space_group_name_H-M "P 21 21 2"
_symmetry_group_IT_number 18
_symmetry_cell_setting 'orthorhombic'
loop_
_space_group_symop_operation_xyz
x,y,z
-x,-y,z
1/2+x,1/2-y,-z
1/2-x,1/2+y,-z
loop_
_atom_site_type_symbol
_atom_site_label
_atom_site_fract_x
_atom_site_fract_y
_atom_site_fract_z
Si Si1 0.299348 0.148066 0.500000
Si Si2 0.241206 0.477234 0.000000
Si Si3 0.501642 0.133349 0.500000
Si Si4 0.660723 0.818279 0.000000
Si Si5 0.987330 0.130471 0.500000
Si Si6 0.585222 0.385325 0.000000
Si Si7 0.286897 0.443090 0.500000
Si Si8 0.455474 0.829619 0.000000
O O1 0.398856 0.101780 0.500000
O O2 0.296105 0.207855 0.746214
O O3 0.227437 0.062372 0.500000
O O4 0.296105 0.207855 0.253786
O O5 0.168477 0.562803 1.000000
O O6 0.242896 0.417480 0.245506
O O7 0.332464 0.541110 0.000000
O O8 0.242896 0.417480 0.754495
O O9 0.495141 0.251878 0.500000
O O10 0.547864 0.110442 0.752189
O O11 0.547864 0.110442 0.247811
O O12 0.558210 0.789484 0.000000
O O13 0.032880 0.099215 0.249734
O O14 0.886700 0.094303 0.500000
O O15 0.032880 0.099215 0.750266
O O16 0.604044 0.267792 1.000000
#
# Coordination Sequence:
#
# PCOD9311768 Si02
#       8
#     4   4   4   4   4   4   4   4
#     4   8  14  25  39  52  66  88 123 157 188 220
#     4  10  19  28  38  53  74 101 132 160 185 217
#     4   8  14  25  39  52  66  88 123 157 188 220
#     4   8  14  25  39  52  66  88 123 157 188 220
#     4  10  19  28  38  53  74 101 132 160 185 217
#     4  10  19  28  38  53  74 101 132 160 185 217
#     4  10  19  28  38  53  74 101 132 160 185 217
#     4   8  14  25  39  52  66  88 123 157 188 220
#
# _framework density 27.882587000000001
#
# number of rings (size 3 to 8) (size 9 to 14) (size 15 to 20)
#    0.000    3.000    0.000    1.500    0.000    3.000 
#    0.000    0.000    0.000    0.000    0.000    0.000 
#    0.000    0.000    0.000    0.000    0.000 1920.000 
#
# Total GULP energy -179123.732319 kJ/mol
# GULP energy per Si atom -5597.616635 kJ/mol
# Density = 2.781913 g / cm^3
# Si number density = 27.882587 Si / 1000 Ang^3
#
#
#
# Elastic Constant Matrix: (Units=GPa)
#
#
# Indices 1 2 3 4 5 6 
#
# 1 142.5446 39.7256 47.3376 0.0000 0.0000 0.0000
# 2 39.7256 115.3167 26.9738 0.0000 0.0000 0.0000
# 3 47.3376 26.9738 332.1510 0.0000 0.0000 0.0000
# 4 0.0000 0.0000 0.0000 -25.2146 0.0000 0.0000
# 5 0.0000 0.0000 0.0000 0.0000 70.1421 0.0000
# 6 0.0000 0.0000 0.0000 0.0000 0.0000 39.1351
#
#
#
# Elastic Compliance Matrix: (Units=1/GPa)
#
#
# Indices 1 2 3 4 5 6 
#
# 1 0.008037 -0.002549 -0.000938 0.000000 0.000000 0.000000
# 2 -0.002549 0.009648 -0.000420 0.000000 0.000000 0.000000
# 3 -0.000938 -0.000420 0.003179 0.000000 0.000000 0.000000
# 4 0.000000 0.000000 0.000000 -0.039660 0.000000 0.000000
# 5 0.000000 0.000000 0.000000 0.000000 0.014257 0.000000
# 6 0.000000 0.000000 0.000000 0.000000 0.000000 0.025553
#
#
# Mechanical properties :
#
#
# Convention : Reuss Voigt Hill
#
# Bulk Modulus (GPa) = 76.63818 90.89849 83.76833
# Shear Modulus (GPa) = 150.69571 48.54422 99.61996
#
# Velocity S-wave (km/s) = 7.35961 4.17708 5.98381
# Velocity P-wave (km/s) = 9.98820 7.47899 8.82325
#
# Compressibility (1/GPa) = 0.01304833
#
# Stress axis : x y z
#
# Youngs Moduli (GPa) = 124.41736 103.64545 314.60878
#
# Poissons Ratio (x) = 0.26423 0.29525
# Poissons Ratio (y) = 0.31718 0.13220
# Poissons Ratio (z) = 0.11676 0.04355
#
# Static dielectric constant tensor:
#      x y z
#    x 2.089410 0.000000 0.000000 
#    y 0.000000 2.093360 0.000000 
#    z 0.000000 0.000000 2.259140 
# 
# From -- ./inp_files/1911.got.cif
#   From: 2010.05.17/outbox.cif.g08.bks.cpg/sg18_1_cif.got.tgz:1911.got - 2010.06.03 22:40:56.
