data_PCOD9311246
_publ_section_title
;
Structure prediction by ZEFSAII (Michael W. Deem and Ramdas Pophale) SiO2 
 PCOD9311246
Probable space group: P 2 2 21
;
_chemical_formula_sum "Si O2"
_cell_formula_units_Z 20
_cell_length_a 5.696243
_cell_length_b 4.752311
_cell_length_c 28.698042
_cell_angle_alpha 90.000000
_cell_angle_beta 90.000000
_cell_angle_gamma 90.000000
_cell_volume 776.865131
_symmetry_space_group_name_H-M "P 2 2 21"
_symmetry_group_IT_number 17
_symmetry_cell_setting 'orthorhombic'
loop_
_space_group_symop_operation_xyz
x,y,z
-x,-y,1/2+z
x,-y,-z
-x,y,1/2-z
loop_
_atom_site_type_symbol
_atom_site_label
_atom_site_fract_x
_atom_site_fract_y
_atom_site_fract_z
Si Si1 0.500000 0.231661 0.250000
Si Si2 0.623104 0.500000 0.500000
Si Si3 0.002235 0.095766 0.047319
Si Si4 0.780913 0.733939 0.277370
Si Si5 0.388750 0.540194 0.593255
Si Si6 0.677226 0.927187 0.376651
O O1 0.700083 0.993918 0.243424
O O2 0.606918 0.466355 0.284436
O O3 0.459942 0.419794 0.542724
O O4 0.792232 0.730841 0.522040
O O5 0.846394 0.288870 0.081597
O O6 0.133699 0.875264 0.081606
O O7 0.866178 0.000000 0.000000
O O8 0.000000 0.609819 0.250000
O O9 0.803275 0.875434 0.327686
O O10 0.441916 0.265890 0.623600
O O11 0.576422 0.764780 0.612925
#
# Coordination Sequence:
#
# PCOD9311246 Si02
#       6
#     2   2   4   4   4   4
#     4  10  24  44  74 112 134 182 234 284 366 444
#     4  10  22  42  62  98 142 184 254 284 338 420
#     4  11  24  42  71  99 145 203 241 286 362 419
#     4  11  24  47  78 104 144 185 234 303 370 431
#     4  11  25  40  69  98 144 191 235 296 351 411
#     4  11  26  45  65 108 143 179 243 303 347 435
#
# _framework density 25.744499000000001
#
# number of rings (size 3 to 8) (size 9 to 14) (size 15 to 20)
#    0.000    1.200    2.000    2.400    5.600    4.800 
#    0.000    2.000    0.000    0.000    0.000    0.000 
#    0.000    0.000    0.000    0.000    0.000    0.000 
#
# Total GULP energy -111387.149409 kJ/mol
# GULP energy per Si atom -5569.357470 kJ/mol
# Density = 2.568590 g / cm^3
# Si number density = 25.744499 Si / 1000 Ang^3
#
#
#
# Elastic Constant Matrix: (Units=GPa)
#
#
# Indices 1 2 3 4 5 6 
#
# 1 53.1165 19.7248 28.3948 0.0000 0.0000 0.0000
# 2 19.7248 116.6101 35.6011 0.0000 0.0000 0.0000
# 3 28.3948 35.6011 65.0628 0.0000 0.0000 0.0000
# 4 0.0000 0.0000 0.0000 28.1329 0.0000 0.0000
# 5 0.0000 0.0000 0.0000 0.0000 8.4536 0.0000
# 6 0.0000 0.0000 0.0000 0.0000 0.0000 12.4422
#
#
#
# Elastic Compliance Matrix: (Units=1/GPa)
#
#
# Indices 1 2 3 4 5 6 
#
# 1 0.024665 -0.001063 -0.010182 0.000000 0.000000 0.000000
# 2 -0.001063 0.010341 -0.005194 0.000000 0.000000 0.000000
# 3 -0.010182 -0.005194 0.022656 0.000000 0.000000 0.000000
# 4 0.000000 0.000000 0.000000 0.035546 0.000000 0.000000
# 5 0.000000 0.000000 0.000000 0.000000 0.118293 0.000000
# 6 0.000000 0.000000 0.000000 0.000000 0.000000 0.080372
#
#
# Mechanical properties :
#
#
# Convention : Reuss Voigt Hill
#
# Bulk Modulus (GPa) = 40.35276 44.69230 42.52253
# Shear Modulus (GPa) = 15.01443 19.87698 17.44571
#
# Velocity S-wave (km/s) = 2.41759 2.78166 2.60599
# Velocity P-wave (km/s) = 4.84782 5.26445 5.06043
#
# Compressibility (1/GPa) = 0.02478145
#
# Stress axis : x y z
#
# Youngs Moduli (GPa) = 40.54386 96.69927 44.13867
#
# Poissons Ratio (x) = 0.10283 0.44943
# Poissons Ratio (y) = 0.04311 0.22928
# Poissons Ratio (z) = 0.41283 0.50230
#
# Static dielectric constant tensor:
#      x y z
#    x 2.114390 0.000000 0.000000 
#    y 0.000000 2.043740 0.000000 
#    z 0.000000 0.000000 2.136810 
# 
# From -- ./inp_files/11050.got.cif
#   From: 2010.05.17/outbox.cif.g08.bks.cpg/sg17_6_cif.got.tgz:11050.got - 2010.06.03 22:34:06.
