data_PCOD9311866
_publ_section_title
;
Structure prediction by ZEFSAII (Michael W. Deem and Ramdas Pophale) SiO2 
 PCOD9311866
Probable space group: P 21 21 2
;
_chemical_formula_sum "Si O2"
_cell_formula_units_Z 16
_cell_length_a 20.337751
_cell_length_b 5.508203
_cell_length_c 4.781745
_cell_angle_alpha 90.000000
_cell_angle_beta 90.000000
_cell_angle_gamma 90.000000
_cell_volume 535.672407
_symmetry_space_group_name_H-M "P 21 21 2"
_symmetry_group_IT_number 18
_symmetry_cell_setting 'orthorhombic'
loop_
_space_group_symop_operation_xyz
x,y,z
-x,-y,z
1/2+x,1/2-y,-z
1/2-x,1/2+y,-z
loop_
_atom_site_type_symbol
_atom_site_label
_atom_site_fract_x
_atom_site_fract_y
_atom_site_fract_z
Si Si1 0.479169 0.250000 0.133629
Si Si2 0.733812 0.249999 0.168567
Si Si3 0.137792 0.750001 0.451493
Si Si4 0.102738 0.250001 0.467643
O O1 0.500000 0.500000 0.988962
O O2 0.406177 0.250001 0.265879
O O3 0.531550 0.250000 0.393244
O O4 0.500000 0.000000 0.988962
O O5 0.784153 0.249999 0.433139
O O6 0.660289 0.249999 0.292960
O O7 0.750000 0.500000 0.000000
O O8 0.116549 0.499354 0.310392
O O9 0.116549 0.000648 0.310393
#
# Coordination Sequence:
#
# PCOD9311866 Si02
#       4
#     4   4   4   4
#     4   8  16  30  56  80 100 132 188 238 258 300
#     4  12  24  36  54  86 124 148 172 228 298 342
#     4  10  19  36  60  82 106 148 198 230 263 327
#     4  10  19  36  60  82 106 148 198 230 263 327
#
# _framework density 29.869001000000001
#
# number of rings (size 3 to 8) (size 9 to 14) (size 15 to 20)
#    0.000    2.000    0.000    4.500    0.000    0.000 
#    0.000    0.000    0.000   81.000    0.000    0.000 
#    0.000    0.000    0.000    0.000    0.000    0.000 
#
# Total GULP energy -89621.796758 kJ/mol
# GULP energy per Si atom -5601.362297 kJ/mol
# Density = 2.980102 g / cm^3
# Si number density = 29.869001 Si / 1000 Ang^3
#
#
#
# Elastic Constant Matrix: (Units=GPa)
#
#
# Indices 1 2 3 4 5 6 
#
# 1 201.7755 38.5322 99.2819 0.0000 0.0000 0.0000
# 2 38.5322 320.0516 41.4394 0.0000 0.0000 0.0000
# 3 99.2819 41.4394 118.1073 0.0000 0.0000 0.0000
# 4 0.0000 0.0000 0.0000 -26.4689 0.0000 0.0000
# 5 0.0000 0.0000 0.0000 0.0000 84.8680 0.0000
# 6 0.0000 0.0000 0.0000 0.0000 0.0000 51.6963
#
#
#
# Elastic Compliance Matrix: (Units=1/GPa)
#
#
# Indices 1 2 3 4 5 6 
#
# 1 0.008455 -0.000102 -0.007071 0.000000 0.000000 0.000000
# 2 -0.000102 0.003274 -0.001063 0.000000 0.000000 0.000000
# 3 -0.007071 -0.001063 0.014784 0.000000 0.000000 0.000000
# 4 0.000000 0.000000 0.000000 -0.037780 0.000000 0.000000
# 5 0.000000 0.000000 0.000000 0.000000 0.011783 0.000000
# 6 0.000000 0.000000 0.000000 0.000000 0.000000 0.019344
#
#
# Mechanical properties :
#
#
# Convention : Reuss Voigt Hill
#
# Bulk Modulus (GPa) = 99.59876 110.93793 105.26835
# Shear Modulus (GPa) = 126.00801 52.73113 89.36957
#
# Velocity S-wave (km/s) = 6.50219 4.20624 5.47590
# Velocity P-wave (km/s) = 9.47570 7.79821 8.67758
#
# Compressibility (1/GPa) = 0.01004029
#
# Stress axis : x y z
#
# Youngs Moduli (GPa) = 118.27363 305.39652 67.64037
#
# Poissons Ratio (x) = 0.03125 0.47831
# Poissons Ratio (y) = 0.01210 0.07189
# Poissons Ratio (z) = 0.83636 0.32459
#
# Static dielectric constant tensor:
#      x y z
#    x 2.233140 0.000000 0.000000 
#    y 0.000000 2.459730 0.000000 
#    z 0.000000 0.000000 2.165730 
# 
# From -- ./inp_files/144.got.cif
#   From: 2010.05.17/outbox.cif.g08.bks.cpg/sg18_1_cif.got.tgz:144.got - 2010.06.03 22:40:56.
