data_PCOD9311914
_publ_section_title
;
Structure prediction by ZEFSAII (Michael W. Deem and Ramdas Pophale) SiO2 
 PCOD9311914
Probable space group: P 21 21 2
;
_chemical_formula_sum "Si O2"
_cell_formula_units_Z 22
_cell_length_a 6.997983
_cell_length_b 14.205906
_cell_length_c 8.252219
_cell_angle_alpha 90.000000
_cell_angle_beta 90.000000
_cell_angle_gamma 90.000000
_cell_volume 820.375278
_symmetry_space_group_name_H-M "P 21 21 2"
_symmetry_group_IT_number 18
_symmetry_cell_setting 'orthorhombic'
loop_
_space_group_symop_operation_xyz
x,y,z
-x,-y,z
1/2+x,1/2-y,-z
1/2-x,1/2+y,-z
loop_
_atom_site_type_symbol
_atom_site_label
_atom_site_fract_x
_atom_site_fract_y
_atom_site_fract_z
Si Si1 0.650067 0.364858 0.424215
Si Si2 0.500000 0.500000 0.976502
Si Si3 0.790645 0.569982 0.420494
Si Si4 0.204458 0.353810 0.090275
Si Si5 0.354795 0.658067 0.788015
Si Si6 0.185782 0.330553 0.745649
O O1 0.770797 0.458886 0.392631
O O2 0.428846 0.394717 0.433905
O O3 0.712617 0.332347 0.604046
O O4 0.653838 0.277231 0.304251
O O5 0.344955 0.554657 0.866162
O O6 0.389983 0.421650 0.079919
O O7 0.883720 0.617772 0.262731
O O8 0.868786 0.603936 0.593924
O O9 0.232463 0.242039 0.107952
O O10 0.100855 0.363897 0.917434
O O11 0.585823 0.667357 0.778804
#
# Coordination Sequence:
#
# PCOD9311914 Si02
#       6
#     4   2   4   4   4   4
#     4  10  19  38  65  86 124 158 209 256 317 373
#     4  10  22  40  66  96 126 176 212 256 324 376
#     4  10  21  38  60  90 114 169 207 249 313 385
#     4  11  22  37  64  92 127 163 219 256 307 382
#     4  10  21  40  65  97 125 163 215 263 315 379
#     4  10  22  37  59  94 125 156 203 267 310 368
#
# _framework density 26.816994000000001
#
# number of rings (size 3 to 8) (size 9 to 14) (size 15 to 20)
#    0.000    1.818    1.818    4.364    7.636    0.000 
#    0.000    0.909    0.000    0.000    0.000    0.000 
#    0.000    0.000    0.000    0.000    0.000    0.000 
#
# Total GULP energy -123168.385888 kJ/mol
# GULP energy per Si atom -5598.562995 kJ/mol
# Density = 2.675596 g / cm^3
# Si number density = 26.816994 Si / 1000 Ang^3
#
#
#
# Elastic Constant Matrix: (Units=GPa)
#
#
# Indices 1 2 3 4 5 6 
#
# 1 88.3663 38.6713 11.5100 0.0000 0.0000 0.0000
# 2 38.6713 160.4567 64.4795 0.0000 0.0000 0.0000
# 3 11.5100 64.4795 230.6951 0.0000 0.0000 0.0000
# 4 0.0000 0.0000 0.0000 51.8651 0.0000 0.0000
# 5 0.0000 0.0000 0.0000 0.0000 2.7360 0.0000
# 6 0.0000 0.0000 0.0000 0.0000 0.0000 48.6954
#
#
#
# Elastic Compliance Matrix: (Units=1/GPa)
#
#
# Indices 1 2 3 4 5 6 
#
# 1 0.012664 -0.003152 0.000249 0.000000 0.000000 0.000000
# 2 -0.003152 0.007805 -0.002024 0.000000 0.000000 0.000000
# 3 0.000249 -0.002024 0.004888 0.000000 0.000000 0.000000
# 4 0.000000 0.000000 0.000000 0.019281 0.000000 0.000000
# 5 0.000000 0.000000 0.000000 0.000000 0.365497 0.000000
# 6 0.000000 0.000000 0.000000 0.000000 0.000000 0.020536
#
#
# Mechanical properties :
#
#
# Convention : Reuss Voigt Hill
#
# Bulk Modulus (GPa) = 64.50596 78.75998 71.63297
# Shear Modulus (GPa) = 11.21850 44.98312 28.10081
#
# Velocity S-wave (km/s) = 2.04754 4.10006 3.24060
# Velocity P-wave (km/s) = 5.44943 7.20050 6.38528
#
# Compressibility (1/GPa) = 0.01550244
#
# Stress axis : x y z
#
# Youngs Moduli (GPa) = 78.96691 128.11671 204.57862
#
# Poissons Ratio (x) = 0.40384 -0.05098
# Poissons Ratio (y) = 0.24892 0.41414
# Poissons Ratio (z) = -0.01968 0.25935
#
# Static dielectric constant tensor:
#      x y z
#    x 2.149200 0.000000 0.000000 
#    y 0.000000 2.043000 0.000000 
#    z 0.000000 0.000000 2.155500 
# 
# From -- ./inp_files/3098.got.cif
#   From: 2010.05.17/outbox.cif.g08.bks.cpg/sg18_2_cif.got.tgz:3098.got - 2010.06.03 22:40:56.
