data_PCOD9311484
_publ_section_title
;
Structure prediction by ZEFSAII (Michael W. Deem and Ramdas Pophale) SiO2 
 PCOD9311484
Probable space group: P 2 2 21
;
_chemical_formula_sum "Si O2"
_cell_formula_units_Z 32
_cell_length_a 11.775089
_cell_length_b 8.204374
_cell_length_c 16.367047
_cell_angle_alpha 90.000000
_cell_angle_beta 90.000000
_cell_angle_gamma 90.000000
_cell_volume 1581.175140
_symmetry_space_group_name_H-M "P 2 2 21"
_symmetry_group_IT_number 17
_symmetry_cell_setting 'orthorhombic'
loop_
_space_group_symop_operation_xyz
x,y,z
-x,-y,1/2+z
x,-y,-z
-x,y,1/2-z
loop_
_atom_site_type_symbol
_atom_site_label
_atom_site_fract_x
_atom_site_fract_y
_atom_site_fract_z
Si Si1 0.135273 0.946860 0.756731
Si Si2 0.548674 0.329026 0.330709
Si Si3 0.546367 0.323051 0.838502
Si Si4 0.578233 0.820551 0.492188
Si Si5 0.804111 0.717160 0.170397
Si Si6 0.169951 0.895011 0.070432
Si Si7 0.973621 0.427735 0.589943
Si Si8 0.193272 0.590180 0.788750
O O1 0.173129 0.760349 0.740476
O O2 0.000000 0.946470 0.750000
O O3 0.170560 0.099645 0.700510
O O4 0.179778 0.995645 0.847900
O O5 0.500000 0.233895 0.250000
O O6 0.464861 0.482813 0.332821
O O7 0.550440 0.253153 0.420150
O O8 0.679155 0.387385 0.321915
O O9 0.500000 0.260064 0.750000
O O10 0.470456 0.269228 0.913913
O O11 0.674904 0.278175 0.858714
O O12 0.711792 0.840315 0.471183
O O13 0.528373 0.000000 0.500000
O O14 0.804181 0.580901 0.241539
O O15 0.902851 0.641223 0.114332
O O16 0.104612 0.732259 0.093184
O O17 0.108612 0.000000 0.000000
O O18 0.976330 0.500000 0.500000
O O19 0.911239 0.561533 0.647986
#
# Coordination Sequence:
#
# PCOD9311484 Si02
#       8
#     4   4   4   4   4   4   4   4
#     4  12  23  42  70 101 140 182 225 291 349 423
#     4  11  23  44  69 101 136 178 236 295 349 413
#     4  11  23  45  70  95 137 189 228 289 357 411
#     4  11  24  41  68 103 136 178 237 294 347 420
#     4  12  24  46  68 100 142 184 233 285 356 427
#     4  11  22  41  66 103 141 175 232 295 352 409
#     4  12  24  41  67 103 142 182 234 290 352 430
#     4  12  23  44  73 102 135 185 238 285 352 422
#
# _framework density 20.238111
#
# number of rings (size 3 to 8) (size 9 to 14) (size 15 to 20)
#    0.000    0.500    5.000    6.000    0.000    2.500 
#    0.000    0.625    0.000    0.000    0.000    0.000 
#    0.000    0.000    0.000    0.000    0.000    0.000 
#
# Total GULP energy -178475.172727 kJ/mol
# GULP energy per Si atom -5577.349148 kJ/mol
# Density = 2.019205 g / cm^3
# Si number density = 20.238111 Si / 1000 Ang^3
#
#
#
# Elastic Constant Matrix: (Units=GPa)
#
#
# Indices 1 2 3 4 5 6 
#
# 1 85.2990 15.1976 5.8983 0.0000 0.0000 0.0000
# 2 15.1976 87.0098 4.5062 0.0000 0.0000 0.0000
# 3 5.8983 4.5062 81.5379 0.0000 0.0000 0.0000
# 4 0.0000 0.0000 0.0000 33.6186 0.0000 0.0000
# 5 0.0000 0.0000 0.0000 0.0000 30.9736 0.0000
# 6 0.0000 0.0000 0.0000 0.0000 0.0000 30.8187
#
#
#
# Elastic Compliance Matrix: (Units=1/GPa)
#
#
# Indices 1 2 3 4 5 6 
#
# 1 0.012147 -0.002082 -0.000764 0.000000 0.000000 0.000000
# 2 -0.002082 0.011883 -0.000506 0.000000 0.000000 0.000000
# 3 -0.000764 -0.000506 0.012347 0.000000 0.000000 0.000000
# 4 0.000000 0.000000 0.000000 0.029745 0.000000 0.000000
# 5 0.000000 0.000000 0.000000 0.000000 0.032286 0.000000
# 6 0.000000 0.000000 0.000000 0.000000 0.000000 0.032448
#
#
# Mechanical properties :
#
#
# Convention : Reuss Voigt Hill
#
# Bulk Modulus (GPa) = 33.69981 33.89456 33.79719
# Shear Modulus (GPa) = 33.90948 34.29849 34.10399
#
# Velocity S-wave (km/s) = 4.09776 4.12120 4.10950
# Velocity P-wave (km/s) = 6.25113 6.27933 6.26525
#
# Compressibility (1/GPa) = 0.02967376
#
# Stress axis : x y z
#
# Youngs Moduli (GPa) = 82.32319 84.15493 80.98840
#
# Poissons Ratio (x) = 0.17522 0.06185
# Poissons Ratio (y) = 0.17141 0.04099
# Poissons Ratio (z) = 0.06287 0.04259
#
# Static dielectric constant tensor:
#      x y z
#    x 1.750910 0.000000 0.000000 
#    y 0.000000 1.713540 0.000000 
#    z 0.000000 0.000000 1.855190 
# 
# From -- ./inp_files/8572.got.cif
#   From: 2010.05.17/outbox.cif.g08.bks.cpg/sg17_5_cif.got.tgz:8572.got - 2010.06.03 22:34:06.
