data_PCOD9311503
_publ_section_title
;
Structure prediction by ZEFSAII (Michael W. Deem and Ramdas Pophale) SiO2 
 PCOD9311503
Probable space group: P 2 2 21
;
_chemical_formula_sum "Si O2"
_cell_formula_units_Z 18
_cell_length_a 11.519608
_cell_length_b 6.635006
_cell_length_c 11.039770
_cell_angle_alpha 90.000000
_cell_angle_beta 90.000000
_cell_angle_gamma 90.000000
_cell_volume 843.799077
_symmetry_space_group_name_H-M "P 2 2 21"
_symmetry_group_IT_number 17
_symmetry_cell_setting 'orthorhombic'
loop_
_space_group_symop_operation_xyz
x,y,z
-x,-y,1/2+z
x,-y,-z
-x,y,1/2-z
loop_
_atom_site_type_symbol
_atom_site_label
_atom_site_fract_x
_atom_site_fract_y
_atom_site_fract_z
Si Si1 0.915828 0.853101 0.157211
Si Si2 0.704564 0.169104 0.182688
Si Si3 0.684718 0.273328 0.464579
Si Si4 0.895323 0.000000 0.500000
Si Si5 0.517954 0.000000 0.000000
Si Si6 0.803681 0.500000 0.000000
O O1 0.873553 0.680376 0.065477
O O2 0.000000 0.736582 0.250000
O O3 0.806353 0.997525 0.185592
O O4 0.014515 0.007155 0.108790
O O5 0.677794 0.228645 0.320921
O O6 0.598909 0.065720 0.110700
O O7 0.736039 0.370107 0.103848
O O8 0.684392 0.500000 0.500000
O O9 0.806587 0.182501 0.509431
O O10 0.573458 0.175367 0.529134
#
# Coordination Sequence:
#
# PCOD9311503 Si02
#       6
#     4   4   4   2   2   2
#     4  12  25  44  73 103 147 192 232 304 364 438
#     4  12  25  49  73 106 147 189 243 309 369 437
#     4  11  28  46  73 107 143 195 248 301 368 442
#     4  11  23  44  66 104 153 181 240 294 364 421
#     4  11  25  52  72 100 141 193 244 306 370 419
#     4  12  26  40  74 112 138 194 246 290 374 454
#
# _framework density 21.332093
#
# number of rings (size 3 to 8) (size 9 to 14) (size 15 to 20)
#    0.000    0.444    6.667    0.667    6.222    0.889 
#    4.000    0.000    0.000    0.000    0.000    0.000 
#    0.000    0.000    0.000    0.000    0.000    0.000 
#
# Total GULP energy -100351.669252 kJ/mol
# GULP energy per Si atom -5575.092736 kJ/mol
# Density = 2.128354 g / cm^3
# Si number density = 21.332093 Si / 1000 Ang^3
#
#
#
# Elastic Constant Matrix: (Units=GPa)
#
#
# Indices 1 2 3 4 5 6 
#
# 1 151.6151 68.8322 41.1580 0.0000 0.0000 0.0000
# 2 68.8322 158.8822 30.7052 0.0000 0.0000 0.0000
# 3 41.1580 30.7052 73.3239 0.0000 0.0000 0.0000
# 4 0.0000 0.0000 0.0000 37.2336 0.0000 0.0000
# 5 0.0000 0.0000 0.0000 0.0000 11.4281 0.0000
# 6 0.0000 0.0000 0.0000 0.0000 0.0000 -53.5573
#
#
#
# Elastic Compliance Matrix: (Units=1/GPa)
#
#
# Indices 1 2 3 4 5 6 
#
# 1 0.009068 -0.003204 -0.003748 0.000000 0.000000 0.000000
# 2 -0.003204 0.007980 -0.001543 0.000000 0.000000 0.000000
# 3 -0.003748 -0.001543 0.016388 0.000000 0.000000 0.000000
# 4 0.000000 0.000000 0.000000 0.026857 0.000000 0.000000
# 5 0.000000 0.000000 0.000000 0.000000 0.087504 0.000000
# 6 0.000000 0.000000 0.000000 0.000000 0.000000 -0.018672
#
#
# Mechanical properties :
#
#
# Convention : Reuss Voigt Hill
#
# Bulk Modulus (GPa) = 60.80778 73.91244 67.36011
# Shear Modulus (GPa) = 32.98181 15.22927 24.10554
#
# Velocity S-wave (km/s) = 3.93633 2.67481 3.36521
# Velocity P-wave (km/s) = 7.01618 6.65306 6.83703
#
# Compressibility (1/GPa) = 0.01644526
#
# Stress axis : x y z
#
# Youngs Moduli (GPa) = 110.28090 125.30829 61.01907
#
# Poissons Ratio (x) = 0.40149 0.22871
# Poissons Ratio (y) = 0.35334 0.09417
# Poissons Ratio (z) = 0.41335 0.19340
#
# Static dielectric constant tensor:
#      x y z
#    x 1.757840 0.000000 0.000000 
#    y 0.000000 1.843230 0.000000 
#    z 0.000000 0.000000 1.996000 
# 
# From -- ./inp_files/5851.got.cif
#   From: 2010.05.17/outbox.cif.g08.bks.cpg/sg17_3_cif.got.tgz:5851.got - 2010.06.03 22:34:06.
