data_PCOD9311521
_publ_section_title
;
Structure prediction by ZEFSAII (Michael W. Deem and Ramdas Pophale) SiO2 
 PCOD9311521
Probable space group: P 2 2 21
;
_chemical_formula_sum "Si O2"
_cell_formula_units_Z 16
_cell_length_a 7.868665
_cell_length_b 8.261539
_cell_length_c 11.824057
_cell_angle_alpha 90.000000
_cell_angle_beta 90.000000
_cell_angle_gamma 90.000000
_cell_volume 768.649817
_symmetry_space_group_name_H-M "P 2 2 21"
_symmetry_group_IT_number 17
_symmetry_cell_setting 'orthorhombic'
loop_
_space_group_symop_operation_xyz
x,y,z
-x,-y,1/2+z
x,-y,-z
-x,y,1/2-z
loop_
_atom_site_type_symbol
_atom_site_label
_atom_site_fract_x
_atom_site_fract_y
_atom_site_fract_z
Si Si1 0.195872 0.749181 0.434717
Si Si2 0.668335 0.141028 0.308877
Si Si3 0.517994 0.000000 0.000000
Si Si4 0.828938 0.589302 0.823627
Si Si5 0.000000 0.935289 0.250000
O O1 0.235742 0.581804 0.370328
O O2 0.145603 0.700876 0.563641
O O3 0.048596 0.830773 0.360039
O O4 0.350508 0.875827 0.440244
O O5 0.500000 0.069889 0.250000
O O6 0.610617 0.121203 0.436398
O O7 0.699458 0.317216 0.257617
O O8 0.837585 0.043543 0.280405
O O9 0.000000 0.569114 0.750000
#
# Coordination Sequence:
#
# PCOD9311521 Si02
#       5
#     4   4   2   4   2
#     4  11  24  46  73 105 153 189 251 309 370 443
#     4  12  25  45  73 104 149 190 246 307 372 437
#     4  12  26  48  74 114 144 202 250 314 370 442
#     4  11  24  46  71 105 151 196 240 311 374 444
#     4  12  24  44  74 108 142 194 248 310 362 444
#
# _framework density 20.815719999999999
#
# number of rings (size 3 to 8) (size 9 to 14) (size 15 to 20)
#    0.000    0.500    7.500    0.000    3.500    0.000 
#    4.500    0.000    0.000    0.000    0.000    0.000 
#    0.000    0.000    0.000    0.000    0.000    0.000 
#
# Total GULP energy -89260.953212 kJ/mol
# GULP energy per Si atom -5578.809576 kJ/mol
# Density = 2.076834 g / cm^3
# Si number density = 20.815720 Si / 1000 Ang^3
#
#
#
# Elastic Constant Matrix: (Units=GPa)
#
#
# Indices 1 2 3 4 5 6 
#
# 1 134.0762 66.8539 50.3132 0.0000 0.0000 0.0000
# 2 66.8539 133.8169 63.7490 0.0000 0.0000 0.0000
# 3 50.3132 63.7490 91.4166 0.0000 0.0000 0.0000
# 4 0.0000 0.0000 0.0000 34.4161 0.0000 0.0000
# 5 0.0000 0.0000 0.0000 0.0000 42.7612 0.0000
# 6 0.0000 0.0000 0.0000 0.0000 0.0000 8.5853
#
#
#
# Elastic Compliance Matrix: (Units=1/GPa)
#
#
# Indices 1 2 3 4 5 6 
#
# 1 0.010516 -0.003739 -0.003181 0.000000 0.000000 0.000000
# 2 -0.003739 0.012520 -0.006673 0.000000 0.000000 0.000000
# 3 -0.003181 -0.006673 0.017343 0.000000 0.000000 0.000000
# 4 0.000000 0.000000 0.000000 0.029056 0.000000 0.000000
# 5 0.000000 0.000000 0.000000 0.000000 0.023386 0.000000
# 6 0.000000 0.000000 0.000000 0.000000 0.000000 0.116479
#
#
# Mechanical properties :
#
#
# Convention : Reuss Voigt Hill
#
# Bulk Modulus (GPa) = 75.79070 80.12687 77.95879
# Shear Modulus (GPa) = 20.75711 29.04542 24.90126
#
# Velocity S-wave (km/s) = 3.16125 3.73950 3.46247
# Velocity P-wave (km/s) = 7.05790 7.56454 7.31561
#
# Compressibility (1/GPa) = 0.01319423
#
# Stress axis : x y z
#
# Youngs Moduli (GPa) = 95.09149 79.87533 57.66065
#
# Poissons Ratio (x) = 0.29861 0.18341
# Poissons Ratio (y) = 0.35550 0.38476
# Poissons Ratio (z) = 0.30247 0.53300
#
# Static dielectric constant tensor:
#      x y z
#    x 1.713530 0.000000 0.000000 
#    y 0.000000 1.754040 0.000000 
#    z 0.000000 0.000000 1.944740 
# 
# From -- ./inp_files/6253.got.cif
#   From: 2010.05.17/outbox.cif.g08.bks.cpg/sg17_4_cif.got.tgz:6253.got - 2010.06.03 22:34:06.
