data_PCOD9311531
_publ_section_title
;
Structure prediction by ZEFSAII (Michael W. Deem and Ramdas Pophale) SiO2 
 PCOD9311531
Probable space group: P 2 2 21
;
_chemical_formula_sum "Si O2"
_cell_formula_units_Z 18
_cell_length_a 5.036175
_cell_length_b 31.049093
_cell_length_c 5.072346
_cell_angle_alpha 90.000000
_cell_angle_beta 90.000000
_cell_angle_gamma 90.000000
_cell_volume 793.155977
_symmetry_space_group_name_H-M "P 2 2 21"
_symmetry_group_IT_number 17
_symmetry_cell_setting 'orthorhombic'
loop_
_space_group_symop_operation_xyz
x,y,z
-x,-y,1/2+z
x,-y,-z
-x,y,1/2-z
loop_
_atom_site_type_symbol
_atom_site_label
_atom_site_fract_x
_atom_site_fract_y
_atom_site_fract_z
Si Si1 0.500000 0.029815 0.250000
Si Si2 0.000000 0.910016 0.750000
Si Si3 0.000000 0.149516 0.750000
Si Si4 0.000000 0.471793 0.250000
Si Si5 0.500000 0.584686 0.750000
Si Si6 0.256956 0.662436 0.068512
Si Si7 0.500000 0.268611 0.250000
Si Si8 0.500000 0.790637 0.250000
O O1 0.750005 0.059900 0.313703
O O2 0.436666 0.000000 0.500000
O O3 0.064207 0.880264 0.499895
O O4 0.249614 0.179570 0.815666
O O5 0.744921 0.444333 0.151759
O O6 0.910435 0.500000 0.500000
O O7 0.652175 0.616717 0.549942
O O8 0.500000 0.676119 0.250000
O O9 0.000000 0.659524 0.250000
O O10 0.268231 0.698565 0.842445
O O11 0.431681 0.238341 0.496212
#
# Coordination Sequence:
#
# PCOD9311531 Si02
#       8
#     2   2   2   2   2   4   2   2
#     4  12  24  42  70 105 136 178 224 293 366 422
#     4  12  24  45  68  97 144 178 238 287 346 437
#     4  12  26  45  68  99 132 198 234 289 348 415
#     4  12  28  48  74 106 144 188 236 292 352 418
#     4  11  26  46  74 108 144 188 238 292 352 444
#     4  11  25  45  75 105 144 185 235 288 374 424
#     4  11  26  47  70 106 142 186 232 312 354 425
#     4  12  26  45  70  99 142 182 250 291 352 417
#
# _framework density 22.69415
#
# number of rings (size 3 to 8) (size 9 to 14) (size 15 to 20)
#    0.000    0.444    1.111    6.667    6.222    4.444 
#    0.000    0.000    0.000    0.000    0.000    0.000 
#    0.000    0.000    0.000    0.000    0.000    0.000 
#
# Total GULP energy -100782.833231 kJ/mol
# GULP energy per Si atom -5599.046291 kJ/mol
# Density = 2.264250 g / cm^3
# Si number density = 22.694150 Si / 1000 Ang^3
#
#
#
# Elastic Constant Matrix: (Units=GPa)
#
#
# Indices 1 2 3 4 5 6 
#
# 1 152.6270 37.7665 7.6787 0.0000 0.0000 0.0000
# 2 37.7665 113.2560 40.0470 0.0000 0.0000 0.0000
# 3 7.6787 40.0470 119.7891 0.0000 0.0000 0.0000
# 4 0.0000 0.0000 0.0000 11.2902 0.0000 0.0000
# 5 0.0000 0.0000 0.0000 0.0000 43.0042 0.0000
# 6 0.0000 0.0000 0.0000 0.0000 0.0000 22.9326
#
#
#
# Elastic Compliance Matrix: (Units=1/GPa)
#
#
# Indices 1 2 3 4 5 6 
#
# 1 0.007157 -0.002522 0.000385 0.000000 0.000000 0.000000
# 2 -0.002522 0.010902 -0.003483 0.000000 0.000000 0.000000
# 3 0.000385 -0.003483 0.009488 0.000000 0.000000 0.000000
# 4 0.000000 0.000000 0.000000 0.088572 0.000000 0.000000
# 5 0.000000 0.000000 0.000000 0.000000 0.023254 0.000000
# 6 0.000000 0.000000 0.000000 0.000000 0.000000 0.043606
#
#
# Mechanical properties :
#
#
# Convention : Reuss Voigt Hill
#
# Bulk Modulus (GPa) = 61.33163 61.85074 61.59118
# Shear Modulus (GPa) = 25.04315 35.45740 30.25027
#
# Velocity S-wave (km/s) = 3.32551 3.95701 3.65493
# Velocity P-wave (km/s) = 6.46756 6.94194 6.70894
#
# Compressibility (1/GPa) = 0.01630480
#
# Stress axis : x y z
#
# Youngs Moduli (GPa) = 139.72835 91.72369 105.39857
#
# Poissons Ratio (x) = 0.23137 -0.04053
# Poissons Ratio (y) = 0.35246 0.36711
# Poissons Ratio (z) = -0.05373 0.31948
#
# Static dielectric constant tensor:
#      x y z
#    x 1.910870 0.000000 0.000000 
#    y 0.000000 1.848510 0.000000 
#    z 0.000000 0.000000 1.827000 
# 
# From -- ./inp_files/382.got.cif
#   From: 2010.05.17/outbox.cif.g08.bks.cpg/sg17_1_cif.got.tgz:382.got - 2010.06.03 22:34:06.
