data_PCOD9311885
_publ_section_title
;
Structure prediction by ZEFSAII (Michael W. Deem and Ramdas Pophale) SiO2 
 PCOD9311885
Probable space group: P 21 21 2
;
_chemical_formula_sum "Si O2"
_cell_formula_units_Z 26
_cell_length_a 13.543338
_cell_length_b 9.583559
_cell_length_c 8.222103
_cell_angle_alpha 90.000000
_cell_angle_beta 90.000000
_cell_angle_gamma 90.000000
_cell_volume 1067.174529
_symmetry_space_group_name_H-M "P 21 21 2"
_symmetry_group_IT_number 18
_symmetry_cell_setting 'orthorhombic'
loop_
_space_group_symop_operation_xyz
x,y,z
-x,-y,z
1/2+x,1/2-y,-z
1/2-x,1/2+y,-z
loop_
_atom_site_type_symbol
_atom_site_label
_atom_site_fract_x
_atom_site_fract_y
_atom_site_fract_z
Si Si1 0.361713 0.567205 0.535464
Si Si2 0.119813 0.809899 0.265822
Si Si3 0.000000 0.000000 0.029127
Si Si4 0.631148 0.936460 0.531731
Si Si5 0.538647 0.188160 0.364745
Si Si6 0.181660 0.409239 0.898349
Si Si7 0.178987 0.155004 0.097823
O O1 0.396205 0.410399 0.577460
O O2 0.248129 0.564567 0.481715
O O3 0.423915 0.658279 0.409261
O O4 0.358988 0.632320 0.718205
O O5 0.103363 0.650404 0.308669
O O6 0.232168 0.839815 0.214011
O O7 0.051089 0.873490 0.128234
O O8 0.100245 0.079545 0.974007
O O9 0.576289 0.847080 0.388835
O O10 0.590316 0.090244 0.503510
O O11 0.582115 0.125902 0.198196
O O12 0.219454 0.567012 0.918909
O O13 0.185845 0.316785 0.059303
#
# Coordination Sequence:
#
# PCOD9311885 Si02
#       7
#     4   4   2   4   4   4   4
#     4  10  19  39  60  84 113 159 187 243 285 353
#     4  10  19  37  62  82 117 153 194 230 296 348
#     4   8  18  38  58  84 110 158 196 244 272 364
#     4  11  19  35  59  88 119 149 182 246 292 339
#     4  11  22  36  59  89 119 145 194 239 297 337
#     4  10  21  41  56  83 116 159 187 246 281 348
#     4  10  21  40  61  81 118 154 202 232 298 337
#
# _framework density 24.363399999999999
#
# number of rings (size 3 to 8) (size 9 to 14) (size 15 to 20)
#    0.000    2.154    4.615    1.846    0.000    1.231 
#    8.308    0.000    0.000    1.846    0.000    0.000 
#    0.000    0.000    0.000    0.000    0.000    0.000 
#
# Total GULP energy -144996.922912 kJ/mol
# GULP energy per Si atom -5576.804727 kJ/mol
# Density = 2.430795 g / cm^3
# Si number density = 24.363400 Si / 1000 Ang^3
#
#
#
# Elastic Constant Matrix: (Units=GPa)
#
#
# Indices 1 2 3 4 5 6 
#
# 1 62.5184 -21.6466 -14.0680 0.0000 0.0000 0.0000
# 2 -21.6466 51.0580 12.6827 0.0000 0.0000 0.0000
# 3 -14.0680 12.6827 34.6721 0.0000 0.0000 0.0000
# 4 0.0000 0.0000 0.0000 27.3056 0.0000 0.0000
# 5 0.0000 0.0000 0.0000 0.0000 6.7806 0.0000
# 6 0.0000 0.0000 0.0000 0.0000 0.0000 23.4014
#
#
#
# Elastic Compliance Matrix: (Units=1/GPa)
#
#
# Indices 1 2 3 4 5 6 
#
# 1 0.019629 0.006978 0.005412 0.000000 0.000000 0.000000
# 2 0.006978 0.024023 -0.005956 0.000000 0.000000 0.000000
# 3 0.005412 -0.005956 0.033216 0.000000 0.000000 0.000000
# 4 0.000000 0.000000 0.000000 0.036623 0.000000 0.000000
# 5 0.000000 0.000000 0.000000 0.000000 0.147479 0.000000
# 6 0.000000 0.000000 0.000000 0.000000 0.000000 0.042732
#
#
# Mechanical properties :
#
#
# Convention : Reuss Voigt Hill
#
# Bulk Modulus (GPa) = 11.14390 11.35387 11.24888
# Shear Modulus (GPa) = 15.58855 22.91622 19.25238
#
# Velocity S-wave (km/s) = 2.53224 3.07025 2.81413
# Velocity P-wave (km/s) = 3.62403 4.15197 3.89695
#
# Compressibility (1/GPa) = 0.08973522
#
# Stress axis : x y z
#
# Youngs Moduli (GPa) = 50.94489 41.62615 30.10570
#
# Poissons Ratio (x) = -0.29045 -0.16293
# Poissons Ratio (y) = -0.35547 0.17932
# Poissons Ratio (z) = -0.27572 0.24794
#
# Static dielectric constant tensor:
#      x y z
#    x 2.019260 0.000000 0.000000 
#    y 0.000000 1.962530 0.000000 
#    z 0.000000 0.000000 1.992010 
# 
# From -- ./inp_files/4228.got.cif
#   From: 2010.05.17/outbox.cif.g08.bks.cpg/sg18_3_cif.got.tgz:4228.got - 2010.06.03 22:40:56.
