data_PCOD9311368
_publ_section_title
;
Structure prediction by ZEFSAII (Michael W. Deem and Ramdas Pophale) SiO2 
 PCOD9311368
Probable space group: P 2 2 21
;
_chemical_formula_sum "Si O2"
_cell_formula_units_Z 22
_cell_length_a 5.118925
_cell_length_b 6.163458
_cell_length_c 28.400896
_cell_angle_alpha 90.000000
_cell_angle_beta 90.000000
_cell_angle_gamma 90.000000
_cell_volume 896.056200
_symmetry_space_group_name_H-M "P 2 2 21"
_symmetry_group_IT_number 17
_symmetry_cell_setting 'orthorhombic'
loop_
_space_group_symop_operation_xyz
x,y,z
-x,-y,1/2+z
x,-y,-z
-x,y,1/2-z
loop_
_atom_site_type_symbol
_atom_site_label
_atom_site_fract_x
_atom_site_fract_y
_atom_site_fract_z
Si Si1 0.606060 0.976082 0.555341
Si Si2 0.103711 0.793300 0.399185
Si Si3 0.670445 0.019126 0.184259
Si Si4 0.000000 0.690140 0.750000
Si Si5 0.575012 0.400512 0.111222
Si Si6 0.656998 0.369888 0.700025
O O1 0.336939 0.091418 0.571372
O O2 0.838686 0.102018 0.582010
O O3 0.643922 0.000000 0.500000
O O4 0.580557 0.722189 0.570059
O O5 0.138364 0.852355 0.343449
O O6 0.173304 0.538829 0.404701
O O7 0.410459 0.884991 0.196182
O O8 0.633793 0.202292 0.145699
O O9 0.792781 0.147146 0.227283
O O10 0.903253 0.522544 0.710311
O O11 0.423676 0.555252 0.147572
O O12 0.500000 0.421182 0.750000
#
# Coordination Sequence:
#
# PCOD9311368 Si02
#       6
#     4   4   4   2   4   4
#     4  11  24  46  78 113 147 193 252 319 388 463
#     4  10  24  46  73 106 148 195 249 308 382 467
#     4  10  24  44  68 100 144 196 248 310 372 446
#     4  12  24  44  74  96 142 202 242 318 376 430
#     4  10  23  47  69 102 154 194 250 315 381 453
#     4  11  24  43  65 104 139 190 258 299 371 455
#
# _framework density 24.552029999999998
#
# number of rings (size 3 to 8) (size 9 to 14) (size 15 to 20)
#    0.000    1.455    1.818    1.636    2.545    8.727 
#    3.273    1.818    0.000    0.000    0.000    0.000 
#    0.000    0.000    0.000    0.000    0.000    0.000 
#
# Total GULP energy -122791.629792 kJ/mol
# GULP energy per Si atom -5581.437718 kJ/mol
# Density = 2.449615 g / cm^3
# Si number density = 24.552030 Si / 1000 Ang^3
#
#
#
# Elastic Constant Matrix: (Units=GPa)
#
#
# Indices 1 2 3 4 5 6 
#
# 1 110.5739 59.0910 32.2671 0.0000 0.0000 0.0000
# 2 59.0910 187.7950 54.0865 0.0000 0.0000 0.0000
# 3 32.2671 54.0865 102.7393 0.0000 0.0000 0.0000
# 4 0.0000 0.0000 0.0000 30.2493 0.0000 0.0000
# 5 0.0000 0.0000 0.0000 0.0000 35.8647 0.0000
# 6 0.0000 0.0000 0.0000 0.0000 0.0000 47.7207
#
#
#
# Elastic Compliance Matrix: (Units=1/GPa)
#
#
# Indices 1 2 3 4 5 6 
#
# 1 0.011197 -0.002959 -0.001959 0.000000 0.000000 0.000000
# 2 -0.002959 0.007059 -0.002787 0.000000 0.000000 0.000000
# 3 -0.001959 -0.002787 0.011816 0.000000 0.000000 0.000000
# 4 0.000000 0.000000 0.000000 0.033059 0.000000 0.000000
# 5 0.000000 0.000000 0.000000 0.000000 0.027883 0.000000
# 6 0.000000 0.000000 0.000000 0.000000 0.000000 0.020955
#
#
# Mechanical properties :
#
#
# Convention : Reuss Voigt Hill
#
# Bulk Modulus (GPa) = 68.20334 76.88860 72.54597
# Shear Modulus (GPa) = 37.80340 39.81118 38.80729
#
# Velocity S-wave (km/s) = 3.92819 4.03116 3.98001
# Velocity P-wave (km/s) = 6.95799 7.28365 7.12268
#
# Compressibility (1/GPa) = 0.01466204
#
# Stress axis : x y z
#
# Youngs Moduli (GPa) = 89.31287 141.67151 84.63407
#
# Poissons Ratio (x) = 0.41920 0.16578
# Poissons Ratio (y) = 0.26427 0.23584
# Poissons Ratio (z) = 0.17494 0.39479
#
# Static dielectric constant tensor:
#      x y z
#    x 2.072560 0.000000 0.000000 
#    y 0.000000 2.062650 0.000000 
#    z 0.000000 0.000000 1.989640 
# 
# From -- ./inp_files/11093.got.cif
#   From: 2010.05.17/outbox.cif.g08.bks.cpg/sg17_6_cif.got.tgz:11093.got - 2010.06.03 22:34:06.
