data_PCOD9311776
_publ_section_title
;
Structure prediction by ZEFSAII (Michael W. Deem and Ramdas Pophale) SiO2 
 PCOD9311776
Probable space group: P 21 21 2
;
_chemical_formula_sum "Si O2"
_cell_formula_units_Z 28
_cell_length_a 18.287875
_cell_length_b 5.687496
_cell_length_c 12.045845
_cell_angle_alpha 90.000000
_cell_angle_beta 90.000000
_cell_angle_gamma 90.000000
_cell_volume 1252.915031
_symmetry_space_group_name_H-M "P 21 21 2"
_symmetry_group_IT_number 18
_symmetry_cell_setting 'orthorhombic'
loop_
_space_group_symop_operation_xyz
x,y,z
-x,-y,z
1/2+x,1/2-y,-z
1/2-x,1/2+y,-z
loop_
_atom_site_type_symbol
_atom_site_label
_atom_site_fract_x
_atom_site_fract_y
_atom_site_fract_z
Si Si1 0.324268 0.949675 0.442501
Si Si2 0.671587 0.777252 0.900837
Si Si3 0.309456 0.714219 0.946480
Si Si4 0.469558 0.746451 0.394823
Si Si5 0.314272 0.289746 0.237880
Si Si6 0.290369 0.164255 0.662129
Si Si7 0.975175 0.246487 0.858677
O O1 0.384273 0.755378 0.417735
O O2 0.242599 0.868955 0.413468
O O3 0.335361 0.149351 0.349689
O O4 0.330131 0.007469 0.571484
O O5 0.648048 0.039271 0.937347
O O6 0.645327 0.526113 0.945891
O O7 0.664045 0.764434 0.768636
O O8 0.756266 0.780001 0.946470
O O9 0.252305 0.698301 0.841383
O O10 0.500000 0.500000 0.439668
O O11 0.485185 0.746421 0.262847
O O12 0.500000 0.000000 0.436752
O O13 0.278397 0.529452 0.282055
O O14 0.388537 0.274604 0.167267
O O15 0.000000 0.500000 0.907672
O O16 0.000000 0.000000 0.912604
#
# Coordination Sequence:
#
# PCOD9311776 Si02
#       7
#     4   4   4   4   4   4   4
#     4  12  21  32  50  76 109 144 173 217 274 324
#     4   9  18  33  48  71 102 137 174 201 248 311
#     4   9  18  31  52  71  97 137 171 210 249 306
#     4  10  20  34  49  67  98 136 177 215 250 312
#     4  11  20  33  49  74 107 137 173 217 271 323
#     4  11  22  32  49  75 114 142 172 215 267 330
#     4  10  19  31  48  68  96 130 167 214 257 311
#
# _framework density 22.347885000000002
#
# number of rings (size 3 to 8) (size 9 to 14) (size 15 to 20)
#    0.000    1.714    5.714    1.714    0.000    0.000 
#    0.000    0.000    0.000    0.000    0.000    1.000 
#    0.000    4.571    0.000    0.000    0.000    0.000 
#
# Total GULP energy -156012.781103 kJ/mol
# GULP energy per Si atom -5571.885039 kJ/mol
# Density = 2.229702 g / cm^3
# Si number density = 22.347885 Si / 1000 Ang^3
#
#
#
# Elastic Constant Matrix: (Units=GPa)
#
#
# Indices 1 2 3 4 5 6 
#
# 1 48.5156 17.7880 20.6287 0.0000 0.0000 0.0000
# 2 17.7880 168.6363 13.6653 0.0000 0.0000 0.0000
# 3 20.6287 13.6653 100.7436 0.0000 0.0000 0.0000
# 4 0.0000 0.0000 0.0000 9.4671 0.0000 0.0000
# 5 0.0000 0.0000 0.0000 0.0000 11.6000 0.0000
# 6 0.0000 0.0000 0.0000 0.0000 0.0000 15.4547
#
#
#
# Elastic Compliance Matrix: (Units=1/GPa)
#
#
# Indices 1 2 3 4 5 6 
#
# 1 0.023286 -0.002093 -0.004484 0.000000 0.000000 0.000000
# 2 -0.002093 0.006184 -0.000410 0.000000 0.000000 0.000000
# 3 -0.004484 -0.000410 0.010900 0.000000 0.000000 0.000000
# 4 0.000000 0.000000 0.000000 0.105629 0.000000 0.000000
# 5 0.000000 0.000000 0.000000 0.000000 0.086207 0.000000
# 6 0.000000 0.000000 0.000000 0.000000 0.000000 0.064705
#
#
# Mechanical properties :
#
#
# Convention : Reuss Voigt Hill
#
# Bulk Modulus (GPa) = 37.88571 46.89548 42.39060
# Shear Modulus (GPa) = 15.64042 25.02525 20.33284
#
# Velocity S-wave (km/s) = 2.64836 3.34998 3.01962
# Velocity P-wave (km/s) = 5.13237 5.99942 5.58275
#
# Compressibility (1/GPa) = 0.02639518
#
# Stress axis : x y z
#
# Youngs Moduli (GPa) = 42.94435 161.70960 91.74263
#
# Poissons Ratio (x) = 0.33844 0.41140
# Poissons Ratio (y) = 0.08988 0.03764
# Poissons Ratio (z) = 0.19257 0.06634
#
# Static dielectric constant tensor:
#      x y z
#    x 1.839860 0.000000 0.000000 
#    y 0.000000 2.024600 0.000000 
#    z 0.000000 0.000000 1.884930 
# 
# From -- ./inp_files/5216.got.cif
#   From: 2010.05.17/outbox.cif.g08.bks.cpg/sg18_3_cif.got.tgz:5216.got - 2010.06.03 22:40:56.
