data_PCOD9311189
_publ_section_title
;
Structure prediction by ZEFSAII (Michael W. Deem and Ramdas Pophale) SiO2 
 PCOD9311189
Probable space group: P 2 2 21
;
_chemical_formula_sum "Si O2"
_cell_formula_units_Z 20
_cell_length_a 5.337388
_cell_length_b 5.215982
_cell_length_c 30.130040
_cell_angle_alpha 90.000000
_cell_angle_beta 90.000000
_cell_angle_gamma 90.000000
_cell_volume 838.811869
_symmetry_space_group_name_H-M "P 2 2 21"
_symmetry_group_IT_number 17
_symmetry_cell_setting 'orthorhombic'
loop_
_space_group_symop_operation_xyz
x,y,z
-x,-y,1/2+z
x,-y,-z
-x,y,1/2-z
loop_
_atom_site_type_symbol
_atom_site_label
_atom_site_fract_x
_atom_site_fract_y
_atom_site_fract_z
Si Si1 0.931030 0.992651 0.200902
Si Si2 0.328432 0.718587 0.628142
Si Si3 0.439901 0.793835 0.163437
Si Si4 0.601565 0.757523 0.469789
Si Si5 0.099157 0.414879 0.550908
O O1 0.000000 0.081367 0.250000
O O2 0.877658 0.219703 0.165931
O O3 0.163869 0.826835 0.182875
O O4 0.665266 0.842558 0.199327
O O5 0.495770 0.477643 0.642379
O O6 0.189578 0.639545 0.583097
O O7 0.502940 0.969109 0.629985
O O8 0.574446 0.500000 0.500000
O O9 0.326055 0.785840 0.449664
O O10 0.831852 0.703695 0.436909
O O11 0.664389 0.000000 0.500000
O O12 0.066402 0.500000 0.500000
#
# Coordination Sequence:
#
# PCOD9311189 Si02
#       5
#     4   4   4   4   4
#     4  10  24  47  70 103 138 184 226 293 350 424
#     4  10  26  43  69 102 137 182 227 292 340 420
#     4  10  25  42  68  99 140 172 231 276 349 413
#     4  10  22  39  60  89 122 168 217 267 320 391
#     4  10  23  42  66  95 134 175 225 275 340 402
#
# _framework density 23.843252
#
# number of rings (size 3 to 8) (size 9 to 14) (size 15 to 20)
#    1.200    0.800    0.000    1.200    5.600    7.200 
#    7.200    0.000    0.000    0.000    0.000    0.000 
#    0.000    0.000    0.000    0.000    0.000    0.000 
#
# Total GULP energy -111688.417408 kJ/mol
# GULP energy per Si atom -5584.420870 kJ/mol
# Density = 2.378898 g / cm^3
# Si number density = 23.843252 Si / 1000 Ang^3
#
#
#
# Elastic Constant Matrix: (Units=GPa)
#
#
# Indices 1 2 3 4 5 6 
#
# 1 180.5405 32.1229 17.9926 0.0000 0.0000 0.0000
# 2 32.1229 127.4494 37.9592 0.0000 0.0000 0.0000
# 3 17.9926 37.9592 109.5030 0.0000 0.0000 0.0000
# 4 0.0000 0.0000 0.0000 12.3254 0.0000 0.0000
# 5 0.0000 0.0000 0.0000 0.0000 27.6751 0.0000
# 6 0.0000 0.0000 0.0000 0.0000 0.0000 24.6054
#
#
#
# Elastic Compliance Matrix: (Units=1/GPa)
#
#
# Indices 1 2 3 4 5 6 
#
# 1 0.005823 -0.001319 -0.000500 0.000000 0.000000 0.000000
# 2 -0.001319 0.009048 -0.002920 0.000000 0.000000 0.000000
# 3 -0.000500 -0.002920 0.010226 0.000000 0.000000 0.000000
# 4 0.000000 0.000000 0.000000 0.081133 0.000000 0.000000
# 5 0.000000 0.000000 0.000000 0.000000 0.036134 0.000000
# 6 0.000000 0.000000 0.000000 0.000000 0.000000 0.040641
#
#
# Mechanical properties :
#
#
# Convention : Reuss Voigt Hill
#
# Bulk Modulus (GPa) = 64.01542 65.96025 64.98784
# Shear Modulus (GPa) = 25.29210 34.88240 30.08725
#
# Velocity S-wave (km/s) = 3.26047 3.82905 3.55614
# Velocity P-wave (km/s) = 6.40944 6.87554 6.64658
#
# Compressibility (1/GPa) = 0.01562124
#
# Stress axis : x y z
#
# Youngs Moduli (GPa) = 171.72120 110.51754 97.78570
#
# Poissons Ratio (x) = 0.14577 0.04886
# Poissons Ratio (y) = 0.22649 0.28552
# Poissons Ratio (z) = 0.08580 0.32270
#
# Static dielectric constant tensor:
#      x y z
#    x 1.961170 0.000000 0.000000 
#    y 0.000000 1.783120 0.000000 
#    z 0.000000 0.000000 1.853600 
# 
# From -- ./inp_files/11068.got.cif
#   From: 2010.05.17/outbox.cif.g08.bks.cpg/sg17_6_cif.got.tgz:11068.got - 2010.06.03 22:34:06.
