data_PCOD9311326
_publ_section_title
;
Structure prediction by ZEFSAII (Michael W. Deem and Ramdas Pophale) SiO2 
 PCOD9311326
Probable space group: P 2 2 21
;
_chemical_formula_sum "Si O2"
_cell_formula_units_Z 32
_cell_length_a 8.931741
_cell_length_b 12.174896
_cell_length_c 14.405661
_cell_angle_alpha 90.000000
_cell_angle_beta 90.000000
_cell_angle_gamma 90.000000
_cell_volume 1566.515050
_symmetry_space_group_name_H-M "P 2 2 21"
_symmetry_group_IT_number 17
_symmetry_cell_setting 'orthorhombic'
loop_
_space_group_symop_operation_xyz
x,y,z
-x,-y,1/2+z
x,-y,-z
-x,y,1/2-z
loop_
_atom_site_type_symbol
_atom_site_label
_atom_site_fract_x
_atom_site_fract_y
_atom_site_fract_z
Si Si1 0.920046 0.806909 0.654332
Si Si2 0.282025 0.392884 0.163321
Si Si3 0.373805 0.562090 0.630204
Si Si4 0.651463 0.677394 0.059678
Si Si5 0.946474 0.216537 0.955528
Si Si6 0.612318 0.231622 0.663704
Si Si7 0.820687 0.039349 0.604597
Si Si8 0.891537 0.391432 0.660964
O O1 0.783826 0.723673 0.634286
O O2 0.000000 0.774302 0.750000
O O3 0.028829 0.801547 0.565008
O O4 0.858488 0.930584 0.661525
O O5 0.446163 0.424294 0.126703
O O6 0.306107 0.395021 0.274446
O O7 0.163326 0.486813 0.137979
O O8 0.337352 0.433144 0.621088
O O9 0.318330 0.631100 0.542960
O O10 0.776540 0.768916 0.076610
O O11 0.488171 0.727171 0.077438
O O12 0.033871 0.117805 0.905091
O O13 0.025887 0.329068 0.922617
O O14 0.500000 0.228432 0.750000
O O15 0.690480 0.115743 0.644386
O O16 0.743358 0.319571 0.680968
O O17 0.783362 0.000000 0.500000
O O18 0.000000 0.391945 0.750000
#
# Coordination Sequence:
#
# PCOD9311326 Si02
#       8
#     4   4   4   4   4   4   4   4
#     4  11  24  42  66  87 131 174 218 264 323 383
#     4  11  22  39  61  93 133 173 204 253 318 394
#     4  10  23  37  59  95 141 166 201 256 324 391
#     4  11  22  39  64  94 131 169 207 263 324 384
#     4  10  23  41  66  96 126 164 220 272 324 378
#     4  11  22  40  66  94 124 163 215 273 328 382
#     4   9  23  45  63  87 125 165 218 280 319 379
#     4  11  22  37  66  97 131 165 212 266 320 384
#
# _framework density 20.427510000000002
#
# number of rings (size 3 to 8) (size 9 to 14) (size 15 to 20)
#    0.000    1.500    1.250    3.375    5.250    5.500 
#    2.250    3.125    0.000    0.000    0.000    0.000 
#    0.000    0.000    0.000    0.000    0.000    0.000 
#
# Total GULP energy -178907.417491 kJ/mol
# GULP energy per Si atom -5590.856797 kJ/mol
# Density = 2.038102 g / cm^3
# Si number density = 20.427510 Si / 1000 Ang^3
#
#
#
# Elastic Constant Matrix: (Units=GPa)
#
#
# Indices 1 2 3 4 5 6 
#
# 1 84.7059 38.2492 1.8799 0.0000 0.0000 0.0000
# 2 38.2492 108.8598 3.4567 0.0000 0.0000 0.0000
# 3 1.8799 3.4567 21.4224 0.0000 0.0000 0.0000
# 4 0.0000 0.0000 0.0000 19.8521 0.0000 0.0000
# 5 0.0000 0.0000 0.0000 0.0000 18.8966 0.0000
# 6 0.0000 0.0000 0.0000 0.0000 0.0000 27.5958
#
#
#
# Elastic Compliance Matrix: (Units=1/GPa)
#
#
# Indices 1 2 3 4 5 6 
#
# 1 0.014036 -0.004918 -0.000438 0.000000 0.000000 0.000000
# 2 -0.004918 0.010956 -0.001336 0.000000 0.000000 0.000000
# 3 -0.000438 -0.001336 0.046934 0.000000 0.000000 0.000000
# 4 0.000000 0.000000 0.000000 0.050372 0.000000 0.000000
# 5 0.000000 0.000000 0.000000 0.000000 0.052919 0.000000
# 6 0.000000 0.000000 0.000000 0.000000 0.000000 0.036237
#
#
# Mechanical properties :
#
#
# Convention : Reuss Voigt Hill
#
# Bulk Modulus (GPa) = 17.08176 33.57330 25.32753
# Shear Modulus (GPa) = 20.46206 24.69572 22.57889
#
# Velocity S-wave (km/s) = 3.16838 3.48076 3.32824
# Velocity P-wave (km/s) = 4.66532 5.71185 5.21490
#
# Compressibility (1/GPa) = 0.05854198
#
# Stress axis : x y z
#
# Youngs Moduli (GPa) = 71.24579 91.27020 21.30638
#
# Poissons Ratio (x) = 0.44885 0.00934
# Poissons Ratio (y) = 0.35037 0.02847
# Poissons Ratio (z) = 0.03122 0.12197
#
# Static dielectric constant tensor:
#      x y z
#    x 1.734330 0.000000 0.000000 
#    y 0.000000 1.699540 0.000000 
#    z 0.000000 0.000000 1.755410 
# 
# From -- ./inp_files/8307.got.cif
#   From: 2010.05.17/outbox.cif.g08.bks.cpg/sg17_5_cif.got.tgz:8307.got - 2010.06.03 22:34:06.
