data_PCOD9311457
_publ_section_title
;
Structure prediction by ZEFSAII (Michael W. Deem and Ramdas Pophale) SiO2 
 PCOD9311457
Probable space group: P 2 2 21
;
_chemical_formula_sum "Si O2"
_cell_formula_units_Z 16
_cell_length_a 7.631230
_cell_length_b 19.490895
_cell_length_c 5.081136
_cell_angle_alpha 90.000000
_cell_angle_beta 90.000000
_cell_angle_gamma 90.000000
_cell_volume 755.765642
_symmetry_space_group_name_H-M "P 2 2 21"
_symmetry_group_IT_number 17
_symmetry_cell_setting 'orthorhombic'
loop_
_space_group_symop_operation_xyz
x,y,z
-x,-y,1/2+z
x,-y,-z
-x,y,1/2-z
loop_
_atom_site_type_symbol
_atom_site_label
_atom_site_fract_x
_atom_site_fract_y
_atom_site_fract_z
Si Si1 0.129146 0.074554 0.996291
Si Si2 0.804372 0.781503 0.359343
Si Si3 0.300088 0.700170 0.650494
Si Si4 0.713909 0.456483 0.245084
O O1 0.249578 0.140225 0.928731
O O2 0.000000 0.067075 0.750000
O O3 0.000000 0.086855 0.250000
O O4 0.220865 0.000000 0.000000
O O5 0.803355 0.744130 0.637091
O O6 0.000000 0.786754 0.250000
O O7 0.709140 0.735119 0.137348
O O8 0.500000 0.701503 0.750000
O O9 0.235663 0.622017 0.687293
O O10 0.768891 0.500000 0.500000
O O11 0.500000 0.455768 0.250000
O O12 0.774985 0.500000 0.000000
#
# Coordination Sequence:
#
# PCOD9311457 Si02
#       4
#     4   4   4   4
#     4   9  17  31  53  81 108 139 186 233 266 311
#     4  11  21  36  57  83 113 145 181 226 278 329
#     4  11  22  36  57  84 113 144 182 229 278 329
#     4   9  17  31  52  76 101 136 185 230 262 307
#
# _framework density 21.170583000000001
#
# number of rings (size 3 to 8) (size 9 to 14) (size 15 to 20)
#    0.000    2.000    0.000    6.000    0.000    4.000 
#    0.000    0.000    0.000   18.000    0.000    1.750 
#    0.000    0.000    0.000    0.000    0.000    0.000 
#
# Total GULP energy -89154.030046 kJ/mol
# GULP energy per Si atom -5572.126878 kJ/mol
# Density = 2.112240 g / cm^3
# Si number density = 21.170583 Si / 1000 Ang^3
#
#
#
# Elastic Constant Matrix: (Units=GPa)
#
#
# Indices 1 2 3 4 5 6 
#
# 1 26.4289 11.2336 0.3542 0.0000 0.0000 0.0000
# 2 11.2336 243.1995 68.0569 0.0000 0.0000 0.0000
# 3 0.3542 68.0569 157.7512 0.0000 0.0000 0.0000
# 4 0.0000 0.0000 0.0000 39.4264 0.0000 0.0000
# 5 0.0000 0.0000 0.0000 0.0000 3.0062 0.0000
# 6 0.0000 0.0000 0.0000 0.0000 0.0000 17.5711
#
#
#
# Elastic Compliance Matrix: (Units=1/GPa)
#
#
# Indices 1 2 3 4 5 6 
#
# 1 0.038679 -0.002004 0.000778 0.000000 0.000000 0.000000
# 2 -0.002004 0.004780 -0.002058 0.000000 0.000000 0.000000
# 3 0.000778 -0.002058 0.007225 0.000000 0.000000 0.000000
# 4 0.000000 0.000000 0.000000 0.025364 0.000000 0.000000
# 5 0.000000 0.000000 0.000000 0.000000 0.332649 0.000000
# 6 0.000000 0.000000 0.000000 0.000000 0.000000 0.056912
#
#
# Mechanical properties :
#
#
# Convention : Reuss Voigt Hill
#
# Bulk Modulus (GPa) = 22.66763 65.18545 43.92654
# Shear Modulus (GPa) = 10.26942 35.18306 22.72624
#
# Velocity S-wave (km/s) = 2.20484 4.08104 3.27996
# Velocity P-wave (km/s) = 4.14875 7.28450 5.92774
#
# Compressibility (1/GPa) = 0.04411577
#
# Stress axis : x y z
#
# Youngs Moduli (GPa) = 25.85393 209.19251 138.40588
#
# Poissons Ratio (x) = 0.41928 -0.10766
# Poissons Ratio (y) = 0.05182 0.28481
# Poissons Ratio (z) = -0.02011 0.43048
#
# Static dielectric constant tensor:
#      x y z
#    x 1.820260 0.000000 0.000000 
#    y 0.000000 2.161800 0.000000 
#    z 0.000000 0.000000 1.691930 
# 
# From -- ./inp_files/751.got.cif
#   From: 2010.05.17/outbox.cif.g08.bks.cpg/sg17_1_cif.got.tgz:751.got - 2010.06.03 22:34:06.
