data_PCOD9311423
_publ_section_title
;
Structure prediction by ZEFSAII (Michael W. Deem and Ramdas Pophale) SiO2 
 PCOD9311423
Probable space group: P 2 2 21
;
_chemical_formula_sum "Si O2"
_cell_formula_units_Z 30
_cell_length_a 5.715612
_cell_length_b 8.358365
_cell_length_c 28.013280
_cell_angle_alpha 90.000000
_cell_angle_beta 90.000000
_cell_angle_gamma 90.000000
_cell_volume 1338.283224
_symmetry_space_group_name_H-M "P 2 2 21"
_symmetry_group_IT_number 17
_symmetry_cell_setting 'orthorhombic'
loop_
_space_group_symop_operation_xyz
x,y,z
-x,-y,1/2+z
x,-y,-z
-x,y,1/2-z
loop_
_atom_site_type_symbol
_atom_site_label
_atom_site_fract_x
_atom_site_fract_y
_atom_site_fract_z
Si Si1 0.528393 0.169147 0.471968
Si Si2 0.767277 0.874381 0.623462
Si Si3 0.932555 0.368627 0.699492
Si Si4 0.079448 0.715661 0.695331
Si Si5 0.066167 0.167282 0.608227
Si Si6 0.966323 0.688091 0.005974
Si Si7 0.500000 0.296836 0.750000
Si Si8 0.598149 0.024917 0.823289
O O1 0.571883 0.169862 0.414789
O O2 0.273017 0.247846 0.481045
O O3 0.776679 0.246288 0.490096
O O4 0.516070 0.000000 0.500000
O O5 0.907101 0.735844 0.649656
O O6 0.664011 0.968983 0.668837
O O7 0.929669 0.003210 0.597540
O O8 0.102733 0.522456 0.695038
O O9 0.662174 0.402367 0.714351
O O10 0.000000 0.288050 0.750000
O O11 0.952521 0.264030 0.652323
O O12 0.000000 0.745024 0.750000
O O13 0.263268 0.860102 0.686952
O O14 0.069535 0.269374 0.561243
O O15 0.313341 0.106779 0.627971
O O16 0.974152 0.500000 0.000000
O O17 0.614388 0.165910 0.785737
#
# Coordination Sequence:
#
# PCOD9311423 Si02
#       8
#     4   4   4   4   4   4   2   4
#     4  12  26  49  78 109 148 195 252 315 375 446
#     4  11  24  43  71 105 135 188 247 303 365 453
#     4  11  24  43  64 102 142 185 231 297 365 431
#     4  10  25  42  66 101 146 181 236 299 364 433
#     4  11  24  44  71 100 137 190 239 297 365 451
#     4  12  29  50  76 110 153 195 246 317 386 450
#     4  12  22  40  72 100 140 194 236 290 350 448
#     4  11  23  40  70  97 135 185 243 286 359 433
#
# _framework density 22.416778000000001
#
# number of rings (size 3 to 8) (size 9 to 14) (size 15 to 20)
#    0.000    0.800    4.000    2.400    7.467    2.133 
#    2.400    0.000    0.000    0.000    0.000    0.000 
#    0.000    0.000    0.000    0.000    0.000    0.000 
#
# Total GULP energy -167062.283266 kJ/mol
# GULP energy per Si atom -5568.742776 kJ/mol
# Density = 2.236576 g / cm^3
# Si number density = 22.416778 Si / 1000 Ang^3
#
#
#
# Elastic Constant Matrix: (Units=GPa)
#
#
# Indices 1 2 3 4 5 6 
#
# 1 72.9369 29.7434 6.8588 0.0000 0.0000 0.0000
# 2 29.7434 75.2271 17.4168 0.0000 0.0000 0.0000
# 3 6.8588 17.4168 106.4148 0.0000 0.0000 0.0000
# 4 0.0000 0.0000 0.0000 37.5373 0.0000 0.0000
# 5 0.0000 0.0000 0.0000 0.0000 30.9203 0.0000
# 6 0.0000 0.0000 0.0000 0.0000 0.0000 27.9726
#
#
#
# Elastic Compliance Matrix: (Units=1/GPa)
#
#
# Indices 1 2 3 4 5 6 
#
# 1 0.016346 -0.006464 0.000004 0.000000 0.000000 0.000000
# 2 -0.006464 0.016373 -0.002263 0.000000 0.000000 0.000000
# 3 0.000004 -0.002263 0.009767 0.000000 0.000000 0.000000
# 4 0.000000 0.000000 0.000000 0.026640 0.000000 0.000000
# 5 0.000000 0.000000 0.000000 0.000000 0.032341 0.000000
# 6 0.000000 0.000000 0.000000 0.000000 0.000000 0.035749
#
#
# Mechanical properties :
#
#
# Convention : Reuss Voigt Hill
#
# Bulk Modulus (GPa) = 39.93479 40.29077 40.11278
# Shear Modulus (GPa) = 30.67316 32.65669 31.66492
#
# Velocity S-wave (km/s) = 3.70308 3.82094 3.76247
# Velocity P-wave (km/s) = 6.01142 6.12198 6.06695
#
# Compressibility (1/GPa) = 0.02504082
#
# Stress axis : x y z
#
# Youngs Moduli (GPa) = 61.17687 61.07707 102.38242
#
# Poissons Ratio (x) = 0.39480 -0.00045
# Poissons Ratio (y) = 0.39544 0.23170
# Poissons Ratio (z) = -0.00027 0.13822
#
# Static dielectric constant tensor:
#      x y z
#    x 2.057930 0.000000 0.000000 
#    y 0.000000 1.805760 0.000000 
#    z 0.000000 0.000000 1.957260 
# 
# From -- ./inp_files/11140.got.cif
#   From: 2010.05.17/outbox.cif.g08.bks.cpg/sg17_6_cif.got.tgz:11140.got - 2010.06.03 22:34:06.
