data_PCOD9311458
_publ_section_title
;
Structure prediction by ZEFSAII (Michael W. Deem and Ramdas Pophale) SiO2 
 PCOD9311458
Probable space group: P 2 2 21
;
_chemical_formula_sum "Si O2"
_cell_formula_units_Z 24
_cell_length_a 15.738464
_cell_length_b 9.426928
_cell_length_c 7.416860
_cell_angle_alpha 90.000000
_cell_angle_beta 90.000000
_cell_angle_gamma 90.000000
_cell_volume 1100.405156
_symmetry_space_group_name_H-M "P 2 2 21"
_symmetry_group_IT_number 17
_symmetry_cell_setting 'orthorhombic'
loop_
_space_group_symop_operation_xyz
x,y,z
-x,-y,1/2+z
x,-y,-z
-x,y,1/2-z
loop_
_atom_site_type_symbol
_atom_site_label
_atom_site_fract_x
_atom_site_fract_y
_atom_site_fract_z
Si Si1 0.756689 0.688207 0.704878
Si Si2 0.593684 0.146916 0.287321
Si Si3 0.750085 0.363215 0.728422
Si Si4 0.405850 0.175508 0.781712
Si Si5 0.078779 0.868376 0.876902
Si Si6 0.924376 0.623100 0.363499
O O1 0.675577 0.770426 0.780486
O O2 0.752442 0.528646 0.780482
O O3 0.744868 0.662141 0.489151
O O4 0.841985 0.784899 0.717987
O O5 0.500000 0.207350 0.250000
O O6 0.602636 0.153574 0.503549
O O7 0.595410 0.986423 0.213109
O O8 0.670245 0.272077 0.793075
O O9 0.847803 0.319365 0.760653
O O10 0.500000 0.236611 0.750000
O O11 0.000000 0.910568 0.750000
O O12 0.043365 0.751969 0.016774
O O13 0.110071 0.000000 0.000000
O O14 0.894211 0.500000 0.500000
O O15 0.000000 0.558997 0.250000
#
# Coordination Sequence:
#
# PCOD9311458 Si02
#       6
#     4   4   4   4   4   4
#     4   9  18  32  55  79 107 144 184 227 268 340
#     4   9  18  32  53  77 103 140 184 223 273 328
#     4   9  17  33  53  82 105 142 189 220 272 338
#     4   9  18  32  54  77 104 140 181 227 271 328
#     4  11  23  39  59  86 117 149 194 240 288 345
#     4  11  21  37  61  86 115 155 192 237 285 342
#
# _framework density 21.810147000000001
#
# number of rings (size 3 to 8) (size 9 to 14) (size 15 to 20)
#    0.000    2.333    3.333    1.000    7.000    0.667 
#    0.000    1.667    3.667    0.000    0.000    0.000 
#    0.000    0.000    0.000    0.000    0.000    0.000 
#
# Total GULP energy -133669.780643 kJ/mol
# GULP energy per Si atom -5569.574193 kJ/mol
# Density = 2.176051 g / cm^3
# Si number density = 21.810147 Si / 1000 Ang^3
#
#
#
# Elastic Constant Matrix: (Units=GPa)
#
#
# Indices 1 2 3 4 5 6 
#
# 1 186.2355 54.1166 28.3892 0.0000 0.0000 0.0000
# 2 54.1166 78.2498 17.9622 0.0000 0.0000 0.0000
# 3 28.3892 17.9622 41.8484 0.0000 0.0000 0.0000
# 4 0.0000 0.0000 0.0000 5.1223 0.0000 0.0000
# 5 0.0000 0.0000 0.0000 0.0000 19.6903 0.0000
# 6 0.0000 0.0000 0.0000 0.0000 0.0000 33.3163
#
#
#
# Elastic Compliance Matrix: (Units=1/GPa)
#
#
# Indices 1 2 3 4 5 6 
#
# 1 0.007040 -0.004185 -0.002979 0.000000 0.000000 0.000000
# 2 -0.004185 0.016664 -0.004314 0.000000 0.000000 0.000000
# 3 -0.002979 -0.004314 0.027768 0.000000 0.000000 0.000000
# 4 0.000000 0.000000 0.000000 0.195224 0.000000 0.000000
# 5 0.000000 0.000000 0.000000 0.000000 0.050786 0.000000
# 6 0.000000 0.000000 0.000000 0.000000 0.000000 0.030015
#
#
# Mechanical properties :
#
#
# Convention : Reuss Voigt Hill
#
# Bulk Modulus (GPa) = 35.06747 56.36330 45.71539
# Shear Modulus (GPa) = 13.89049 25.35018 19.62033
#
# Velocity S-wave (km/s) = 2.52639 3.41297 3.00258
# Velocity P-wave (km/s) = 4.96222 6.43661 5.74689
#
# Compressibility (1/GPa) = 0.02851645
#
# Stress axis : x y z
#
# Youngs Moduli (GPa) = 142.05139 60.01025 36.01203
#
# Poissons Ratio (x) = 0.25112 0.10730
# Poissons Ratio (y) = 0.59443 0.15534
# Poissons Ratio (z) = 0.42324 0.25886
#
# Static dielectric constant tensor:
#      x y z
#    x 1.817530 0.000000 0.000000 
#    y 0.000000 1.817930 0.000000 
#    z 0.000000 0.000000 1.856060 
# 
# From -- ./inp_files/5141.got.cif
#   From: 2010.05.17/outbox.cif.g08.bks.cpg/sg17_3_cif.got.tgz:5141.got - 2010.06.03 22:34:06.
