data_PCOD9311070
_publ_section_title
;
Structure prediction by ZEFSAII (Michael W. Deem and Ramdas Pophale) SiO2 
 PCOD9311070
Probable space group: P 2 2 21
;
_chemical_formula_sum "Si O2"
_cell_formula_units_Z 20
_cell_length_a 15.939350
_cell_length_b 12.881364
_cell_length_c 5.065144
_cell_angle_alpha 90.000000
_cell_angle_beta 90.000000
_cell_angle_gamma 90.000000
_cell_volume 1039.978250
_symmetry_space_group_name_H-M "P 2 2 21"
_symmetry_group_IT_number 17
_symmetry_cell_setting 'orthorhombic'
loop_
_space_group_symop_operation_xyz
x,y,z
-x,-y,1/2+z
x,-y,-z
-x,y,1/2-z
loop_
_atom_site_type_symbol
_atom_site_label
_atom_site_fract_x
_atom_site_fract_y
_atom_site_fract_z
Si Si1 0.748583 0.783245 0.861105
Si Si2 0.500000 0.157719 0.750000
Si Si3 0.321131 0.107537 0.884480
Si Si4 0.500000 0.305445 0.250000
Si Si5 0.903955 0.075402 0.249414
Si Si6 0.671172 0.571221 0.748240
O O1 0.682247 0.820972 0.641086
O O2 0.836887 0.832106 0.768182
O O3 0.737483 0.659926 0.839643
O O4 0.726265 0.835614 0.143239
O O5 0.416339 0.091971 0.793266
O O6 0.483933 0.232589 0.501808
O O7 0.286096 0.000000 0.000000
O O8 0.418464 0.375023 0.189769
O O9 0.000000 0.114620 0.250000
O O10 0.895587 0.000000 0.500000
O O11 0.891279 0.000000 0.000000
O O12 0.697073 0.500000 0.500000
O O13 0.657267 0.500000 0.000000
#
# Coordination Sequence:
#
# PCOD9311070 Si02
#       6
#     4   2   4   2   4   4
#     4  12  23  41  61  88 123 154 201 255 301 360
#     4  12  22  40  56  82 122 162 202 252 298 366
#     4  12  24  38  59  84 121 164 200 239 302 365
#     4  12  22  42  60  80 116 160 212 272 310 342
#     4  10  21  39  65  96 124 154 192 235 297 372
#     4  12  24  40  62  86 114 160 209 264 313 355
#
# _framework density 19.231169000000001
#
# number of rings (size 3 to 8) (size 9 to 14) (size 15 to 20)
#    0.000    0.400    4.000    6.600    0.000    2.400 
#    0.000    0.000    0.000    1.200    0.000    0.000 
#    0.000    0.000    0.000    0.000    0.000    0.000 
#
# Total GULP energy -111765.726534 kJ/mol
# GULP energy per Si atom -5588.286327 kJ/mol
# Density = 1.918740 g / cm^3
# Si number density = 19.231169 Si / 1000 Ang^3
#
#
#
# Elastic Constant Matrix: (Units=GPa)
#
#
# Indices 1 2 3 4 5 6 
#
# 1 106.4493 48.6125 5.0801 0.0000 0.0000 0.0000
# 2 48.6125 105.1347 43.2552 0.0000 0.0000 0.0000
# 3 5.0801 43.2552 147.7282 0.0000 0.0000 0.0000
# 4 0.0000 0.0000 0.0000 34.9620 0.0000 0.0000
# 5 0.0000 0.0000 0.0000 0.0000 12.7707 0.0000
# 6 0.0000 0.0000 0.0000 0.0000 0.0000 146.9696
#
#
#
# Elastic Compliance Matrix: (Units=1/GPa)
#
#
# Indices 1 2 3 4 5 6 
#
# 1 0.012157 -0.006195 0.001396 0.000000 0.000000 0.000000
# 2 -0.006195 0.013972 -0.003878 0.000000 0.000000 0.000000
# 3 0.001396 -0.003878 0.007857 0.000000 0.000000 0.000000
# 4 0.000000 0.000000 0.000000 0.028602 0.000000 0.000000
# 5 0.000000 0.000000 0.000000 0.000000 0.078304 0.000000
# 6 0.000000 0.000000 0.000000 0.000000 0.000000 0.006804
#
#
# Mechanical properties :
#
#
# Convention : Reuss Voigt Hill
#
# Bulk Modulus (GPa) = 60.13060 61.46753 60.79907
# Shear Modulus (GPa) = 29.30926 56.43142 42.87034
#
# Velocity S-wave (km/s) = 3.90814 5.42286 4.72657
# Velocity P-wave (km/s) = 7.19027 8.44048 7.84033
#
# Compressibility (1/GPa) = 0.01663047
#
# Stress axis : x y z
#
# Youngs Moduli (GPa) = 82.25840 71.57296 127.28073
#
# Poissons Ratio (x) = 0.44343 -0.17768
# Poissons Ratio (y) = 0.50963 0.49358
# Poissons Ratio (z) = -0.11483 0.27755
#
# Static dielectric constant tensor:
#      x y z
#    x 1.705240 0.000000 0.000000 
#    y 0.000000 1.780450 0.000000 
#    z 0.000000 0.000000 1.294780 
# 
# From -- ./inp_files/2084.got.cif
#   From: 2010.05.17/outbox.cif.g08.bks.cpg/sg17_2_cif.got.tgz:2084.got - 2010.06.03 22:34:06.
