data_PCOD9311772
_publ_section_title
;
Structure prediction by ZEFSAII (Michael W. Deem and Ramdas Pophale) SiO2 
 PCOD9311772
Probable space group: P 21 21 2
;
_chemical_formula_sum "Si O2"
_cell_formula_units_Z 30
_cell_length_a 7.860078
_cell_length_b 16.079428
_cell_length_c 11.991922
_cell_angle_alpha 90.000000
_cell_angle_beta 90.000000
_cell_angle_gamma 90.000000
_cell_volume 1515.605757
_symmetry_space_group_name_H-M "P 21 21 2"
_symmetry_group_IT_number 18
_symmetry_cell_setting 'orthorhombic'
loop_
_space_group_symop_operation_xyz
x,y,z
-x,-y,z
1/2+x,1/2-y,-z
1/2-x,1/2+y,-z
loop_
_atom_site_type_symbol
_atom_site_label
_atom_site_fract_x
_atom_site_fract_y
_atom_site_fract_z
Si Si1 0.618511 0.680337 0.618139
Si Si2 0.185579 0.672136 0.932896
Si Si3 0.000000 0.000000 0.341722
Si Si4 0.180364 0.774068 0.136439
Si Si5 0.460871 0.406357 0.002020
Si Si6 0.485892 0.215779 0.414043
Si Si7 0.958068 0.192178 0.796009
Si Si8 0.856674 0.433514 0.728921
O O1 0.549345 0.586925 0.597287
O O2 0.588468 0.704815 0.747669
O O3 0.545302 0.751560 0.537717
O O4 0.821829 0.683584 0.599645
O O5 0.373330 0.643627 0.962539
O O6 0.107270 0.602181 0.852830
O O7 0.186569 0.751660 0.852276
O O8 0.106985 0.705320 0.049329
O O9 0.829261 0.974794 0.275264
O O10 0.365939 0.739093 0.169387
O O11 0.187018 0.859903 0.066073
O O12 0.500000 0.500000 0.975228
O O13 0.447414 0.392499 0.135246
O O14 0.454159 0.296877 0.335440
O O15 0.370614 0.142529 0.360326
O O16 0.000000 0.500000 0.699679
#
# Coordination Sequence:
#
# PCOD9311772 Si02
#       8
#     4   4   2   4   4   4   4   4
#     4  11  22  37  63  91 125 167 221 263 327 380
#     4   9  19  33  54  81 116 153 187 242 308 365
#     4  12  24  38  62 102 126 162 210 276 318 368
#     4   9  19  35  54  82 116 156 198 243 302 382
#     4  10  19  30  53  83 112 147 194 248 300 363
#     4  10  21  41  62  87 123 169 211 263 317 388
#     4   8  18  37  53  75 113 156 194 239 304 369
#     4  11  22  39  64  94 128 157 211 266 315 375
#
# _framework density 19.794066000000001
#
# number of rings (size 3 to 8) (size 9 to 14) (size 15 to 20)
#    0.000    2.133    1.333    1.600    3.733    1.067 
#    1.200    0.000    0.000    0.800    0.000    0.000 
#    0.000    0.000    0.000    0.000    0.000    0.000 
#
# Total GULP energy -167060.910258 kJ/mol
# GULP energy per Si atom -5568.697009 kJ/mol
# Density = 1.974901 g / cm^3
# Si number density = 19.794066 Si / 1000 Ang^3
#
#
#
# Elastic Constant Matrix: (Units=GPa)
#
#
# Indices 1 2 3 4 5 6 
#
# 1 42.2306 30.5867 39.0989 0.0000 0.0000 0.0000
# 2 30.5867 85.5325 46.8284 0.0000 0.0000 0.0000
# 3 39.0989 46.8284 77.2912 0.0000 0.0000 0.0000
# 4 0.0000 0.0000 0.0000 20.9927 0.0000 0.0000
# 5 0.0000 0.0000 0.0000 0.0000 17.5419 0.0000
# 6 0.0000 0.0000 0.0000 0.0000 0.0000 24.1549
#
#
#
# Elastic Compliance Matrix: (Units=1/GPa)
#
#
# Indices 1 2 3 4 5 6 
#
# 1 0.046255 -0.005582 -0.020017 0.000000 0.000000 0.000000
# 2 -0.005582 0.018168 -0.008184 0.000000 0.000000 0.000000
# 3 -0.020017 -0.008184 0.028022 0.000000 0.000000 0.000000
# 4 0.000000 0.000000 0.000000 0.047636 0.000000 0.000000
# 5 0.000000 0.000000 0.000000 0.000000 0.057006 0.000000
# 6 0.000000 0.000000 0.000000 0.000000 0.000000 0.041399
#
#
# Mechanical properties :
#
#
# Convention : Reuss Voigt Hill
#
# Bulk Modulus (GPa) = 40.19270 48.67581 44.43426
# Shear Modulus (GPa) = 15.90611 18.44059 17.17335
#
# Velocity S-wave (km/s) = 2.83782 3.05556 2.94870
# Velocity P-wave (km/s) = 5.57559 6.09041 5.83868
#
# Compressibility (1/GPa) = 0.02488014
#
# Stress axis : x y z
#
# Youngs Moduli (GPa) = 21.61947 55.04134 35.68594
#
# Poissons Ratio (x) = 0.30723 0.71432
# Poissons Ratio (y) = 0.12068 0.29205
# Poissons Ratio (z) = 0.43275 0.45045
#
# Static dielectric constant tensor:
#      x y z
#    x 1.756070 0.000000 0.000000 
#    y 0.000000 1.720240 0.000000 
#    z 0.000000 0.000000 1.733490 
# 
# From -- ./inp_files/5626.got.cif
#   From: 2010.05.17/outbox.cif.g08.bks.cpg/sg18_3_cif.got.tgz:5626.got - 2010.06.03 22:40:56.
