data_PCOD9311994
_publ_section_title
;
Structure prediction by ZEFSAII (Michael W. Deem and Ramdas Pophale) SiO2 
 PCOD9311994
Probable space group: P 21 21 2
;
_chemical_formula_sum "Si O2"
_cell_formula_units_Z 28
_cell_length_a 20.555701
_cell_length_b 5.256234
_cell_length_c 12.509280
_cell_angle_alpha 90.000000
_cell_angle_beta 90.000000
_cell_angle_gamma 90.000000
_cell_volume 1351.572344
_symmetry_space_group_name_H-M "P 21 21 2"
_symmetry_group_IT_number 18
_symmetry_cell_setting 'orthorhombic'
loop_
_space_group_symop_operation_xyz
x,y,z
-x,-y,z
1/2+x,1/2-y,-z
1/2-x,1/2+y,-z
loop_
_atom_site_type_symbol
_atom_site_label
_atom_site_fract_x
_atom_site_fract_y
_atom_site_fract_z
Si Si1 0.937573 0.176955 0.319746
Si Si2 0.655734 0.974541 0.793500
Si Si3 0.208619 0.305017 0.999493
Si Si4 0.650891 0.443701 0.409937
Si Si5 0.568985 0.938647 0.452812
Si Si6 0.717578 0.164270 0.225763
Si Si7 0.305061 0.635140 0.629348
O O1 0.915536 0.359871 0.223245
O O2 0.946262 0.337849 0.427833
O O3 0.871513 0.016222 0.340485
O O4 0.000000 0.000000 0.302232
O O5 0.711873 0.767147 0.811044
O O6 0.676395 0.092555 0.678360
O O7 0.664931 0.161181 0.894307
O O8 0.179828 0.386927 0.884003
O O9 0.233275 0.014711 0.989297
O O10 0.610902 0.704998 0.406330
O O11 0.680539 0.367835 0.297187
O O12 0.704102 0.436963 0.505428
O O13 0.606750 0.204511 0.447946
O O14 0.500000 0.000000 0.398673
O O15 0.740492 0.942958 0.305565
#
# Coordination Sequence:
#
# PCOD9311994 Si02
#       7
#     4   4   4   4   4   4   4
#     4  10  21  35  57  88 122 160 205 257 314 366
#     4  10  20  36  56  87 123 160 204 258 307 367
#     4  10  20  37  59  83 119 163 205 245 297 369
#     4  11  24  35  59  89 123 162 204 250 316 372
#     4  11  22  40  58  86 121 160 206 254 306 376
#     4  10  23  35  57  88 126 165 204 246 311 380
#     4  10  20  35  53  85 125 162 194 250 306 370
#
# _framework density 20.716612000000001
#
# number of rings (size 3 to 8) (size 9 to 14) (size 15 to 20)
#    0.000    1.714    2.857    2.143    4.000    0.000 
#    0.000    0.000    0.000    0.000    3.714    1.000 
#    0.000    0.000    0.000    0.000    0.000    0.000 
#
# Total GULP energy -156032.251768 kJ/mol
# GULP energy per Si atom -5572.580420 kJ/mol
# Density = 2.066946 g / cm^3
# Si number density = 20.716612 Si / 1000 Ang^3
#
#
#
# Elastic Constant Matrix: (Units=GPa)
#
#
# Indices 1 2 3 4 5 6 
#
# 1 67.0925 36.0054 27.3283 0.0000 0.0000 0.0000
# 2 36.0054 82.7135 -8.5583 0.0000 0.0000 0.0000
# 3 27.3283 -8.5583 97.8574 0.0000 0.0000 0.0000
# 4 0.0000 0.0000 0.0000 30.6229 0.0000 0.0000
# 5 0.0000 0.0000 0.0000 0.0000 9.9230 0.0000
# 6 0.0000 0.0000 0.0000 0.0000 0.0000 46.5779
#
#
#
# Elastic Compliance Matrix: (Units=1/GPa)
#
#
# Indices 1 2 3 4 5 6 
#
# 1 0.024111 -0.011295 -0.007721 0.000000 0.000000 0.000000
# 2 -0.011295 0.017491 0.004684 0.000000 0.000000 0.000000
# 3 -0.007721 0.004684 0.012785 0.000000 0.000000 0.000000
# 4 0.000000 0.000000 0.000000 0.032655 0.000000 0.000000
# 5 0.000000 0.000000 0.000000 0.000000 0.100775 0.000000
# 6 0.000000 0.000000 0.000000 0.000000 0.000000 0.021469
#
#
# Mechanical properties :
#
#
# Convention : Reuss Voigt Hill
#
# Bulk Modulus (GPa) = 38.87511 39.69046 39.28279
# Shear Modulus (GPa) = 20.28189 30.28396 25.28293
#
# Velocity S-wave (km/s) = 3.13232 3.82752 3.49724
# Velocity P-wave (km/s) = 5.64693 6.22363 5.94228
#
# Compressibility (1/GPa) = 0.02572340
#
# Stress axis : x y z
#
# Youngs Moduli (GPa) = 41.47478 57.17192 78.21750
#
# Poissons Ratio (x) = 0.64573 0.60393
# Poissons Ratio (y) = 0.46844 -0.36636
# Poissons Ratio (z) = 0.32023 -0.26779
#
# Static dielectric constant tensor:
#      x y z
#    x 1.767460 0.000000 0.000000 
#    y 0.000000 1.887730 0.000000 
#    z 0.000000 0.000000 1.849910 
# 
# From -- ./inp_files/5209.got.cif
#   From: 2010.05.17/outbox.cif.g08.bks.cpg/sg18_3_cif.got.tgz:5209.got - 2010.06.03 22:40:56.
