data_PCOD9311031
_publ_section_title
;
Structure prediction by ZEFSAII (Michael W. Deem and Ramdas Pophale) SiO2 
 PCOD9311031
Probable space group: P 2 2 21
;
_chemical_formula_sum "Si O2"
_cell_formula_units_Z 16
_cell_length_a 8.100273
_cell_length_b 19.125099
_cell_length_c 5.064226
_cell_angle_alpha 90.000000
_cell_angle_beta 90.000000
_cell_angle_gamma 90.000000
_cell_volume 784.542412
_symmetry_space_group_name_H-M "P 2 2 21"
_symmetry_group_IT_number 17
_symmetry_cell_setting 'orthorhombic'
loop_
_space_group_symop_operation_xyz
x,y,z
-x,-y,1/2+z
x,-y,-z
-x,y,1/2-z
loop_
_atom_site_type_symbol
_atom_site_label
_atom_site_fract_x
_atom_site_fract_y
_atom_site_fract_z
Si Si1 0.378382 0.575818 0.503269
Si Si2 0.315002 0.275798 0.362616
Si Si3 0.302959 0.951541 0.246907
Si Si4 0.181647 0.797183 0.151139
O O1 0.291076 0.500000 0.500000
O O2 0.500000 0.568371 0.750000
O O3 0.269551 0.643836 0.568725
O O4 0.500000 0.587976 0.250000
O O5 0.500000 0.277200 0.250000
O O6 0.306281 0.237146 0.640601
O O7 0.212916 0.233256 0.141093
O O8 0.500000 0.935302 0.250000
O O9 0.207837 0.879731 0.194400
O O10 0.264224 0.000000 0.500000
O O11 0.269872 0.000000 0.000000
O O12 0.000000 0.777774 0.250000
#
# Coordination Sequence:
#
# PCOD9311031 Si02
#       4
#     4   4   4   4
#     4   9  17  31  55  89 119 145 192 254 300 337
#     4  11  21  38  62  87 116 156 201 243 291 350
#     4  10  21  38  60  84 111 148 195 243 290 346
#     4  12  25  39  58  88 125 157 192 242 297 353
#
# _framework density 20.394051999999999
#
# number of rings (size 3 to 8) (size 9 to 14) (size 15 to 20)
#    0.000    1.500    0.000    7.500    0.000    3.000 
#    0.000    0.000    0.000    3.000    0.000    1.750 
#    0.000    0.000    0.000    0.000    0.000    0.000 
#
# Total GULP energy -89239.545956 kJ/mol
# GULP energy per Si atom -5577.471622 kJ/mol
# Density = 2.034763 g / cm^3
# Si number density = 20.394052 Si / 1000 Ang^3
#
#
#
# Elastic Constant Matrix: (Units=GPa)
#
#
# Indices 1 2 3 4 5 6 
#
# 1 32.7361 17.9855 4.4557 0.0000 0.0000 0.0000
# 2 17.9855 145.3045 32.6832 0.0000 0.0000 0.0000
# 3 4.4557 32.6832 138.3646 0.0000 0.0000 0.0000
# 4 0.0000 0.0000 0.0000 50.8556 0.0000 0.0000
# 5 0.0000 0.0000 0.0000 0.0000 16.9832 0.0000
# 6 0.0000 0.0000 0.0000 0.0000 0.0000 -23.1817
#
#
#
# Elastic Compliance Matrix: (Units=1/GPa)
#
#
# Indices 1 2 3 4 5 6 
#
# 1 0.032778 -0.004034 -0.000103 0.000000 0.000000 0.000000
# 2 -0.004034 0.007765 -0.001704 0.000000 0.000000 0.000000
# 3 -0.000103 -0.001704 0.007633 0.000000 0.000000 0.000000
# 4 0.000000 0.000000 0.000000 0.019664 0.000000 0.000000
# 5 0.000000 0.000000 0.000000 0.000000 0.058882 0.000000
# 6 0.000000 0.000000 0.000000 0.000000 0.000000 -0.043138
#
#
# Mechanical properties :
#
#
# Convention : Reuss Voigt Hill
#
# Bulk Modulus (GPa) = 27.40197 47.40599 37.40398
# Shear Modulus (GPa) = 46.54213 26.35015 36.44614
#
# Velocity S-wave (km/s) = 4.78236 3.59841 4.23199
# Velocity P-wave (km/s) = 6.63024 6.36869 6.50078
#
# Compressibility (1/GPa) = 0.03649373
#
# Stress axis : x y z
#
# Youngs Moduli (GPa) = 30.50858 128.78712 131.00770
#
# Poissons Ratio (x) = 0.51953 0.01345
# Poissons Ratio (y) = 0.12307 0.22326
# Poissons Ratio (z) = 0.00313 0.21948
#
# Static dielectric constant tensor:
#      x y z
#    x 1.687630 0.000000 0.000000 
#    y 0.000000 1.727270 0.000000 
#    z 0.000000 0.000000 1.705000 
# 
# From -- ./inp_files/746.got.cif
#   From: 2010.05.17/outbox.cif.g08.bks.cpg/sg17_1_cif.got.tgz:746.got - 2010.06.03 22:34:06.
