data_PCOD9311092
_publ_section_title
;
Structure prediction by ZEFSAII (Michael W. Deem and Ramdas Pophale) SiO2 
 PCOD9311092
Probable space group: P 2 2 21
;
_chemical_formula_sum "Si O2"
_cell_formula_units_Z 30
_cell_length_a 6.552545
_cell_length_b 10.688996
_cell_length_c 18.343839
_cell_angle_alpha 90.000000
_cell_angle_beta 90.000000
_cell_angle_gamma 90.000000
_cell_volume 1284.804819
_symmetry_space_group_name_H-M "P 2 2 21"
_symmetry_group_IT_number 17
_symmetry_cell_setting 'orthorhombic'
loop_
_space_group_symop_operation_xyz
x,y,z
-x,-y,1/2+z
x,-y,-z
-x,y,1/2-z
loop_
_atom_site_type_symbol
_atom_site_label
_atom_site_fract_x
_atom_site_fract_y
_atom_site_fract_z
Si Si1 0.013716 0.044528 0.663392
Si Si2 0.718874 0.485820 0.124703
Si Si3 0.085701 0.626393 0.974943
Si Si4 0.664819 0.303340 0.344775
Si Si5 0.417725 0.982440 0.829546
Si Si6 0.778927 0.744334 0.071023
Si Si7 0.000000 0.448254 0.250000
Si Si8 0.751481 0.089538 0.059714
O O1 0.162875 0.153688 0.633070
O O2 0.000000 0.034665 0.750000
O O3 0.092651 0.913094 0.627453
O O4 0.777653 0.059668 0.644684
O O5 0.882042 0.418989 0.070199
O O6 0.538322 0.390484 0.147584
O O7 0.654125 0.621039 0.093710
O O8 0.860639 0.521898 0.193483
O O9 0.232052 0.703642 0.923946
O O10 0.194339 0.500000 0.000000
O O11 0.000804 0.697046 0.044373
O O12 0.627893 0.164524 0.316486
O O13 0.835110 0.367650 0.294461
O O14 0.500000 0.028226 0.750000
O O15 0.560457 0.971572 0.900430
O O16 0.692072 0.800279 0.994763
O O17 0.856723 0.000000 0.000000
#
# Coordination Sequence:
#
# PCOD9311092 Si02
#       8
#     4   4   4   4   4   4   2   4
#     4  11  24  44  70  97 140 186 237 293 356 418
#     4  10  21  40  65  96 135 179 231 291 352 428
#     4   9  20  38  59  92 130 170 222 285 343 416
#     4  11  23  37  65  96 133 179 232 281 354 414
#     4  12  24  39  67  97 134 181 233 291 346 414
#     4  10  22  42  70  96 138 187 227 296 356 413
#     4  10  22  40  60  96 136 176 226 288 350 424
#     4  10  23  43  64  97 134 176 235 292 347 416
#
# _framework density 23.349851999999998
#
# number of rings (size 3 to 8) (size 9 to 14) (size 15 to 20)
#    0.000    1.600    1.333    2.800    1.867    7.467 
#    0.000    8.000    5.867    0.000    0.000    0.000 
#    0.000    0.000    0.000    0.000    0.000    0.000 
#
# Total GULP energy -167152.535388 kJ/mol
# GULP energy per Si atom -5571.751180 kJ/mol
# Density = 2.329671 g / cm^3
# Si number density = 23.349852 Si / 1000 Ang^3
#
#
#
# Elastic Constant Matrix: (Units=GPa)
#
#
# Indices 1 2 3 4 5 6 
#
# 1 70.3702 15.2850 7.9344 0.0000 0.0000 0.0000
# 2 15.2850 56.0946 18.3635 0.0000 0.0000 0.0000
# 3 7.9344 18.3635 99.4032 0.0000 0.0000 0.0000
# 4 0.0000 0.0000 0.0000 18.6106 0.0000 0.0000
# 5 0.0000 0.0000 0.0000 0.0000 37.6873 0.0000
# 6 0.0000 0.0000 0.0000 0.0000 0.0000 18.4590
#
#
#
# Elastic Compliance Matrix: (Units=1/GPa)
#
#
# Indices 1 2 3 4 5 6 
#
# 1 0.015126 -0.003966 -0.000475 0.000000 0.000000 0.000000
# 2 -0.003966 0.020015 -0.003381 0.000000 0.000000 0.000000
# 3 -0.000475 -0.003381 0.010722 0.000000 0.000000 0.000000
# 4 0.000000 0.000000 0.000000 0.053733 0.000000 0.000000
# 5 0.000000 0.000000 0.000000 0.000000 0.026534 0.000000
# 6 0.000000 0.000000 0.000000 0.000000 0.000000 0.054174
#
#
# Mechanical properties :
#
#
# Convention : Reuss Voigt Hill
#
# Bulk Modulus (GPa) = 33.09139 34.33709 33.71424
# Shear Modulus (GPa) = 24.26949 27.23705 25.75327
#
# Velocity S-wave (km/s) = 3.22745 3.41908 3.32464
# Velocity P-wave (km/s) = 5.30012 5.50674 5.40442
#
# Compressibility (1/GPa) = 0.03021934
#
# Stress axis : x y z
#
# Youngs Moduli (GPa) = 66.11334 49.96375 93.26188
#
# Poissons Ratio (x) = 0.19816 0.04426
# Poissons Ratio (y) = 0.26221 0.31530
# Poissons Ratio (z) = 0.03138 0.16892
#
# Static dielectric constant tensor:
#      x y z
#    x 1.925770 0.000000 0.000000 
#    y 0.000000 2.029210 0.000000 
#    z 0.000000 0.000000 1.940990 
# 
# From -- ./inp_files/9957.got.cif
#   From: 2010.05.17/outbox.cif.g08.bks.cpg/sg17_5_cif.got.tgz:9957.got - 2010.06.03 22:34:06.
