data_PCOD9311418
_publ_section_title
;
Structure prediction by ZEFSAII (Michael W. Deem and Ramdas Pophale) SiO2 
 PCOD9311418
Probable space group: P 2 2 21
;
_chemical_formula_sum "Si O2"
_cell_formula_units_Z 14
_cell_length_a 10.510349
_cell_length_b 5.424177
_cell_length_c 10.516645
_cell_angle_alpha 90.000000
_cell_angle_beta 90.000000
_cell_angle_gamma 90.000000
_cell_volume 599.553861
_symmetry_space_group_name_H-M "P 2 2 21"
_symmetry_group_IT_number 17
_symmetry_cell_setting 'orthorhombic'
loop_
_space_group_symop_operation_xyz
x,y,z
-x,-y,1/2+z
x,-y,-z
-x,y,1/2-z
loop_
_atom_site_type_symbol
_atom_site_label
_atom_site_fract_x
_atom_site_fract_y
_atom_site_fract_z
Si Si1 0.273530 0.892817 0.829770
Si Si2 0.500000 0.247617 0.750000
Si Si3 0.055504 0.000000 0.000000
Si Si4 0.806796 0.251647 0.063534
Si Si5 0.421044 0.500000 0.000000
O O1 0.224587 0.736205 0.711195
O O2 0.379022 0.074334 0.773796
O O3 0.151218 0.037321 0.883284
O O4 0.335108 0.719232 0.938818
O O5 0.498820 0.407113 0.621122
O O6 0.957765 0.784750 0.962874
O O7 0.763559 0.500000 0.000000
O O8 0.751511 0.000000 0.000000
#
# Coordination Sequence:
#
# PCOD9311418 Si02
#       5
#     4   2   2   4   2
#     4  12  26  52  77 113 159 201 268 331 399 483
#     4  12  28  52  76 116 154 206 272 332 408 478
#     4  10  24  50  76 114 154 210 250 332 388 480
#     4  10  27  48  78 119 159 208 262 324 398 478
#     4  12  28  48  86 108 156 214 262 334 416 470
#
# _framework density 23.350694000000001
#
# number of rings (size 3 to 8) (size 9 to 14) (size 15 to 20)
#    0.857    0.000    2.857    1.714    6.000    4.571 
#    7.714    0.000    0.000    0.000    0.000    0.000 
#    0.000    0.000    0.000    0.000    0.000    0.000 
#
# Total GULP energy -78258.622175 kJ/mol
# GULP energy per Si atom -5589.901584 kJ/mol
# Density = 2.329755 g / cm^3
# Si number density = 23.350694 Si / 1000 Ang^3
#
#
#
# Elastic Constant Matrix: (Units=GPa)
#
#
# Indices 1 2 3 4 5 6 
#
# 1 114.3785 52.7931 68.5994 0.0000 0.0000 0.0000
# 2 52.7931 106.3883 65.0474 0.0000 0.0000 0.0000
# 3 68.5994 65.0474 208.9557 0.0000 0.0000 0.0000
# 4 0.0000 0.0000 0.0000 53.5521 0.0000 0.0000
# 5 0.0000 0.0000 0.0000 0.0000 52.7720 0.0000
# 6 0.0000 0.0000 0.0000 0.0000 0.0000 -8.4037
#
#
#
# Elastic Compliance Matrix: (Units=1/GPa)
#
#
# Indices 1 2 3 4 5 6 
#
# 1 0.012440 -0.004540 -0.002671 0.000000 0.000000 0.000000
# 2 -0.004540 0.013266 -0.002639 0.000000 0.000000 0.000000
# 3 -0.002671 -0.002639 0.006484 0.000000 0.000000 0.000000
# 4 0.000000 0.000000 0.000000 0.018673 0.000000 0.000000
# 5 0.000000 0.000000 0.000000 0.000000 0.018949 0.000000
# 6 0.000000 0.000000 0.000000 0.000000 0.000000 -0.118995
#
#
# Mechanical properties :
#
#
# Convention : Reuss Voigt Hill
#
# Bulk Modulus (GPa) = 80.06310 89.17802 84.62056
# Shear Modulus (GPa) = -197.48740 35.80291 -80.84224
#
# Velocity S-wave (km/s) = -9.20642 3.91995 -5.89034
# Velocity P-wave (km/s) = 8.86844 7.66561 3.15337
#
# Compressibility (1/GPa) = 0.01249015
#
# Stress axis : x y z
#
# Youngs Moduli (GPa) = 80.38345 75.37942 154.22451
#
# Poissons Ratio (x) = 0.34225 0.41189
# Poissons Ratio (y) = 0.36497 0.40702
# Poissons Ratio (z) = 0.21468 0.19894
#
# Static dielectric constant tensor:
#      x y z
#    x 1.897830 0.000000 0.000000 
#    y 0.000000 1.889110 0.000000 
#    z 0.000000 0.000000 1.893190 
# 
# From -- ./inp_files/4455.got.cif
#   From: 2010.05.17/outbox.cif.g08.bks.cpg/sg17_3_cif.got.tgz:4455.got - 2010.06.03 22:34:06.
