data_PCOD9311656
_publ_section_title
;
Structure prediction by ZEFSAII (Michael W. Deem and Ramdas Pophale) SiO2 
 PCOD9311656
Probable space group: P 21 21 2
;
_chemical_formula_sum "Si O2"
_cell_formula_units_Z 20
_cell_length_a 17.134620
_cell_length_b 4.998814
_cell_length_c 12.752171
_cell_angle_alpha 90.000000
_cell_angle_beta 90.000000
_cell_angle_gamma 90.000000
_cell_volume 1092.258876
_symmetry_space_group_name_H-M "P 21 21 2"
_symmetry_group_IT_number 18
_symmetry_cell_setting 'orthorhombic'
loop_
_space_group_symop_operation_xyz
x,y,z
-x,-y,z
1/2+x,1/2-y,-z
1/2-x,1/2+y,-z
loop_
_atom_site_type_symbol
_atom_site_label
_atom_site_fract_x
_atom_site_fract_y
_atom_site_fract_z
Si Si1 0.700877 0.266104 0.533735
Si Si2 0.052795 0.242454 0.607388
Si Si3 0.662673 0.423526 0.206489
Si Si4 0.729277 0.422635 0.764590
Si Si5 0.197612 0.195237 0.014097
O O1 0.741363 0.514222 0.474083
O O2 0.621565 0.194961 0.474463
O O3 0.691125 0.356623 0.653667
O O4 0.094029 0.142689 0.713977
O O5 0.000000 0.500000 0.626055
O O6 0.000000 0.000000 0.566522
O O7 0.697356 0.718928 0.222282
O O8 0.642942 0.372161 0.084171
O O9 0.733674 0.217355 0.231693
O O10 0.675699 0.370328 0.866517
O O11 0.227810 0.498570 0.005824
#
# Coordination Sequence:
#
# PCOD9311656 Si02
#       5
#     4   4   4   4   4
#     4  12  21  36  57  79 107 145 188 227 267 324
#     4  12  24  36  52  78 114 147 180 223 282 332
#     4  10  18  33  52  76 107 133 173 220 273 317
#     4  10  17  32  54  80 101 133 175 231 262 304
#     4   8  16  27  49  77 101 124 162 215 266 305
#
# _framework density 18.310677999999999
#
# number of rings (size 3 to 8) (size 9 to 14) (size 15 to 20)
#    0.000    1.600    4.000    2.400    0.000    0.000 
#    0.000    0.000    0.000    2.400    0.000    0.000 
#    0.000    0.000    0.000    0.000    0.000    0.000 
#
# Total GULP energy -111588.442020 kJ/mol
# GULP energy per Si atom -5579.422101 kJ/mol
# Density = 1.826900 g / cm^3
# Si number density = 18.310678 Si / 1000 Ang^3
#
#
#
# Elastic Constant Matrix: (Units=GPa)
#
#
# Indices 1 2 3 4 5 6 
#
# 1 31.5891 -11.8541 17.0908 0.0000 0.0000 0.0000
# 2 -11.8541 59.5418 -22.7664 0.0000 0.0000 0.0000
# 3 17.0908 -22.7664 123.0587 0.0000 0.0000 0.0000
# 4 0.0000 0.0000 0.0000 30.9409 0.0000 0.0000
# 5 0.0000 0.0000 0.0000 0.0000 -2.1947 0.0000
# 6 0.0000 0.0000 0.0000 0.0000 0.0000 14.4178
#
#
#
# Elastic Compliance Matrix: (Units=1/GPa)
#
#
# Indices 1 2 3 4 5 6 
#
# 1 0.035907 0.005641 -0.003943 0.000000 0.000000 0.000000
# 2 0.005641 0.018960 0.002724 0.000000 0.000000 0.000000
# 3 -0.003943 0.002724 0.009178 0.000000 0.000000 0.000000
# 4 0.000000 0.000000 0.000000 0.032320 0.000000 0.000000
# 5 0.000000 0.000000 0.000000 0.000000 -0.455637 0.000000
# 6 0.000000 0.000000 0.000000 0.000000 0.000000 0.069359
#
#
# Mechanical properties :
#
#
# Convention : Reuss Voigt Hill
#
# Bulk Modulus (GPa) = 13.71970 19.90333 16.81152
# Shear Modulus (GPa) = -18.21746 24.08076 2.93165
#
# Velocity S-wave (km/s) = -3.15764 3.63039 1.26670
# Velocity P-wave (km/s) = 2.40526 5.33539 3.36758
#
# Compressibility (1/GPa) = 0.07288788
#
# Stress axis : x y z
#
# Youngs Moduli (GPa) = 27.84996 52.74371 108.95816
#
# Poissons Ratio (x) = -0.29752 0.42965
# Poissons Ratio (y) = -0.15710 -0.29682
# Poissons Ratio (z) = 0.10982 -0.14368
#
# Static dielectric constant tensor:
#      x y z
#    x 1.553680 0.000000 0.000000 
#    y 0.000000 1.630950 0.000000 
#    z 0.000000 0.000000 1.699780 
# 
# From -- ./inp_files/5038.got.cif
#   From: 2010.05.17/outbox.cif.g08.bks.cpg/sg18_3_cif.got.tgz:5038.got - 2010.06.03 22:40:56.
