data_PCOD9311255
_publ_section_title
;
Structure prediction by ZEFSAII (Michael W. Deem and Ramdas Pophale) SiO2 
 PCOD9311255
Probable space group: P 2 2 21
;
_chemical_formula_sum "Si O2"
_cell_formula_units_Z 18
_cell_length_a 20.773070
_cell_length_b 7.741405
_cell_length_c 5.561418
_cell_angle_alpha 90.000000
_cell_angle_beta 90.000000
_cell_angle_gamma 90.000000
_cell_volume 894.346911
_symmetry_space_group_name_H-M "P 2 2 21"
_symmetry_group_IT_number 17
_symmetry_cell_setting 'orthorhombic'
loop_
_space_group_symop_operation_xyz
x,y,z
-x,-y,1/2+z
x,-y,-z
-x,y,1/2-z
loop_
_atom_site_type_symbol
_atom_site_label
_atom_site_fract_x
_atom_site_fract_y
_atom_site_fract_z
Si Si1 0.500000 0.804251 0.250000
Si Si2 0.611035 0.000000 0.500000
Si Si3 0.436575 0.500000 0.500000
Si Si4 0.072650 0.107234 0.249290
Si Si5 0.676297 0.655188 0.680944
Si Si6 0.819119 0.603888 0.756682
O O1 0.561508 0.921582 0.304009
O O2 0.481534 0.664771 0.451752
O O3 0.654248 0.839769 0.581319
O O4 0.385876 0.422978 0.312039
O O5 0.129388 0.244573 0.239744
O O6 0.000000 0.183302 0.250000
O O7 0.078825 0.000000 0.500000
O O8 0.076966 0.000000 0.000000
O O9 0.689707 0.500000 0.500000
O O10 0.745891 0.673035 0.804251
O O11 0.822412 0.500000 0.500000
O O12 0.835219 0.500000 0.000000
#
# Coordination Sequence:
#
# PCOD9311255 Si02
#       6
#     2   2   2   4   4   4
#     4  12  24  40  68  94 120 166 222 268 344 414
#     4  12  24  42  64  98 118 168 228 270 336 422
#     4  12  22  46  64  86 134 166 202 288 344 390
#     4  10  22  42  68 103 143 180 222 276 332 388
#     4  11  24  45  64  92 134 169 218 279 340 393
#     4  11  24  43  68  98 135 181 228 273 335 400
#
# _framework density 20.126415999999999
#
# number of rings (size 3 to 8) (size 9 to 14) (size 15 to 20)
#    0.000    0.889    3.333    4.000    1.556    0.889 
#    4.000    0.000    0.000    0.000    0.000    0.000 
#    0.000    0.000    0.000    0.000    0.000    0.000 
#
# Total GULP energy -100288.837175 kJ/mol
# GULP energy per Si atom -5571.602065 kJ/mol
# Density = 2.008061 g / cm^3
# Si number density = 20.126416 Si / 1000 Ang^3
#
#
#
# Elastic Constant Matrix: (Units=GPa)
#
#
# Indices 1 2 3 4 5 6 
#
# 1 121.0401 47.8689 25.6602 0.0000 0.0000 0.0000
# 2 47.8689 118.3528 28.1688 0.0000 0.0000 0.0000
# 3 25.6602 28.1688 87.8784 0.0000 0.0000 0.0000
# 4 0.0000 0.0000 0.0000 33.3047 0.0000 0.0000
# 5 0.0000 0.0000 0.0000 0.0000 25.9131 0.0000
# 6 0.0000 0.0000 0.0000 0.0000 0.0000 62.5951
#
#
#
# Elastic Compliance Matrix: (Units=1/GPa)
#
#
# Indices 1 2 3 4 5 6 
#
# 1 0.010084 -0.003657 -0.001772 0.000000 0.000000 0.000000
# 2 -0.003657 0.010473 -0.002289 0.000000 0.000000 0.000000
# 3 -0.001772 -0.002289 0.012631 0.000000 0.000000 0.000000
# 4 0.000000 0.000000 0.000000 0.030026 0.000000 0.000000
# 5 0.000000 0.000000 0.000000 0.000000 0.038590 0.000000
# 6 0.000000 0.000000 0.000000 0.000000 0.000000 0.015976
#
#
# Mechanical properties :
#
#
# Convention : Reuss Voigt Hill
#
# Bulk Modulus (GPa) = 56.33507 58.96301 57.64904
# Shear Modulus (GPa) = 35.93689 39.40082 37.66886
#
# Velocity S-wave (km/s) = 4.23017 4.42935 4.33091
# Velocity P-wave (km/s) = 7.20489 7.45110 7.32903
#
# Compressibility (1/GPa) = 0.01775093
#
# Stress axis : x y z
#
# Youngs Moduli (GPa) = 99.17152 95.48236 79.17213
#
# Poissons Ratio (x) = 0.34914 0.14031
# Poissons Ratio (y) = 0.36263 0.18126
# Poissons Ratio (z) = 0.17576 0.21860
#
# Static dielectric constant tensor:
#      x y z
#    x 1.766400 0.000000 0.000000 
#    y 0.000000 1.717060 0.000000 
#    z 0.000000 0.000000 1.810650 
# 
# From -- ./inp_files/3040.got.cif
#   From: 2010.05.17/outbox.cif.g08.bks.cpg/sg17_2_cif.got.tgz:3040.got - 2010.06.03 22:34:06.
