data_PCOD9311609
_publ_section_title
;
Structure prediction by ZEFSAII (Michael W. Deem and Ramdas Pophale) SiO2 
 PCOD9311609
Probable space group: P 2 2 21
;
_chemical_formula_sum "Si O2"
_cell_formula_units_Z 30
_cell_length_a 21.000000
_cell_length_b 6.000000
_cell_length_c 12.000000
_cell_angle_alpha 90.000000
_cell_angle_beta 90.000000
_cell_angle_gamma 90.000000
_cell_volume 1512.000000
_symmetry_space_group_name_H-M "P 2 2 21"
_symmetry_group_IT_number 17
_symmetry_cell_setting 'orthorhombic'
loop_
_space_group_symop_operation_xyz
x,y,z
-x,-y,1/2+z
x,-y,-z
-x,y,1/2-z
loop_
_atom_site_type_symbol
_atom_site_label
_atom_site_fract_x
_atom_site_fract_y
_atom_site_fract_z
Si Si1 0.693900 0.036521 0.126518
Si Si2 0.151449 0.880799 0.881333
Si Si3 0.922014 0.000000 0.000000
Si Si4 0.751233 0.416537 0.261246
Si Si5 0.574017 0.017720 0.288025
Si Si6 0.827800 0.199368 0.823660
Si Si7 0.380819 0.525409 0.130963
Si Si8 0.014065 0.651879 0.883564
O O1 0.720584 0.278437 0.160014
O O2 0.630388 0.997080 0.197165
O O3 0.756392 0.887291 0.149413
O O4 0.676646 0.000000 0.000000
O O5 0.215857 0.744784 0.852308
O O6 0.087281 0.734299 0.882311
O O7 0.146510 0.061247 0.781975
O O8 0.157400 0.000000 0.000000
O O9 0.875463 0.157121 0.925845
O O10 0.966219 0.855131 0.916397
O O11 0.811547 0.552613 0.214671
O O12 0.690227 0.539084 0.314804
O O13 0.500000 0.020932 0.250000
O O14 0.588476 0.277709 0.333534
O O15 0.584168 0.769341 0.348442
O O16 0.373430 0.500000 0.000000
O O17 0.000000 0.579715 0.750000
O O18 0.008179 0.500000 0.000000
#
# Coordination Sequence:
#
# PCOD9311609 Si02
#       8
#     4   4   2   4   4   4   4   4
#     4  10  22  43  65 100 137 181 236 294 354 434
#     4  11  26  43  68 100 142 179 239 300 374 449
#     4  12  26  46  74  96 142 182 240 312 364 440
#     4  10  25  41  69 104 135 182 236 299 368 431
#     4  11  24  46  68 104 149 192 239 301 363 442
#     4  11  23  44  69 100 137 179 236 302 369 426
#     4  11  24  43  71 104 143 188 242 300 363 438
#     4  12  29  48  69 105 141 193 244 303 383 462
#
# _framework density 19.841270000000002
#
# number of rings (size 3 to 8) (size 9 to 14) (size 15 to 20)
#    0.000    1.067    4.000    0.800    5.600    2.133 
#    0.000    0.000    0.000    0.000    0.000    0.000 
#    0.000    0.000    0.000    0.000    0.000    0.000 
#
# Total GULP energy -167052.895723 kJ/mol
# GULP energy per Si atom -5568.429857 kJ/mol
# Density = 1.979611 g / cm^3
# Si number density = 19.841270 Si / 1000 Ang^3
#
#
#
# Elastic Constant Matrix: (Units=GPa)
#
#
# Indices 1 2 3 4 5 6 
#
# 1 109.2242 27.4908 23.8879 0.0000 0.0000 0.0000
# 2 27.4908 86.5808 35.5300 0.0000 0.0000 0.0000
# 3 23.8879 35.5300 111.6970 0.0000 0.0000 0.0000
# 4 0.0000 0.0000 0.0000 26.3683 0.0000 0.0000
# 5 0.0000 0.0000 0.0000 0.0000 24.8976 0.0000
# 6 0.0000 0.0000 0.0000 0.0000 0.0000 27.5671
#
#
#
# Elastic Compliance Matrix: (Units=1/GPa)
#
#
# Indices 1 2 3 4 5 6 
#
# 1 0.010115 -0.002673 -0.001313 0.000000 0.000000 0.000000
# 2 -0.002673 0.013990 -0.003879 0.000000 0.000000 0.000000
# 3 -0.001313 -0.003879 0.010467 0.000000 0.000000 0.000000
# 4 0.000000 0.000000 0.000000 0.037924 0.000000 0.000000
# 5 0.000000 0.000000 0.000000 0.000000 0.040165 0.000000
# 6 0.000000 0.000000 0.000000 0.000000 0.000000 0.036275
#
#
# Mechanical properties :
#
#
# Convention : Reuss Voigt Hill
#
# Bulk Modulus (GPa) = 53.06770 53.47992 53.27381
# Shear Modulus (GPa) = 29.24876 30.47282 29.86079
#
# Velocity S-wave (km/s) = 3.84362 3.92322 3.88362
# Velocity P-wave (km/s) = 6.81924 6.89453 6.85699
#
# Compressibility (1/GPa) = 0.01884386
#
# Stress axis : x y z
#
# Youngs Moduli (GPa) = 98.85902 71.47837 95.53518
#
# Poissons Ratio (x) = 0.19106 0.12544
# Poissons Ratio (y) = 0.26425 0.37054
# Poissons Ratio (z) = 0.12981 0.27723
#
# Static dielectric constant tensor:
#      x y z
#    x 1.653550 0.000000 0.000000 
#    y 0.000000 1.812420 0.000000 
#    z 0.000000 0.000000 1.705300 
# 
# From -- ./inp_files/7413.got.cif
#   From: 2010.05.17/outbox.ucp.g08.bks.cvg/sg17_4_cif.got.tgz:7413.got - 2010.06.11 13:12:59.
