data_PCOD9311570
_publ_section_title
;
Structure prediction by ZEFSAII (Michael W. Deem and Ramdas Pophale) SiO2 
 PCOD9311570
Probable space group: P 2 2 21
;
_chemical_formula_sum "Si O2"
_cell_formula_units_Z 20
_cell_length_a 7.771722
_cell_length_b 16.998354
_cell_length_c 7.103913
_cell_angle_alpha 90.000000
_cell_angle_beta 90.000000
_cell_angle_gamma 90.000000
_cell_volume 938.472953
_symmetry_space_group_name_H-M "P 2 2 21"
_symmetry_group_IT_number 17
_symmetry_cell_setting 'orthorhombic'
loop_
_space_group_symop_operation_xyz
x,y,z
-x,-y,1/2+z
x,-y,-z
-x,y,1/2-z
loop_
_atom_site_type_symbol
_atom_site_label
_atom_site_fract_x
_atom_site_fract_y
_atom_site_fract_z
Si Si1 0.580094 0.500000 0.500000
Si Si2 0.224678 0.277685 0.511918
Si Si3 0.500000 0.644844 0.250000
Si Si4 0.821333 0.556228 0.832051
Si Si5 0.349053 0.086706 0.910602
Si Si6 0.000000 0.164153 0.750000
Si Si7 0.500000 0.809171 0.750000
O O1 0.513844 0.584114 0.421198
O O2 0.686381 0.536592 0.672808
O O3 0.336120 0.302081 0.697709
O O4 0.157672 0.356513 0.412087
O O5 0.356724 0.240039 0.363025
O O6 0.076432 0.219441 0.583587
O O7 0.000000 0.527912 0.750000
O O8 0.772157 0.500000 0.000000
O O9 0.500000 0.088953 0.750000
O O10 0.165663 0.114697 0.823612
O O11 0.407418 0.140890 0.085839
O O12 0.334056 0.000000 0.000000
#
# Coordination Sequence:
#
# PCOD9311570 Si02
#       7
#     2   4   2   4   4   2   2
#     4  12  24  44  68  96 134 196 280 322 376 460
#     4  12  27  45  74 109 156 202 254 325 391 455
#     4  12  24  45  71  98 146 198 264 328 392 449
#     4  12  26  44  65  99 143 199 264 327 382 444
#     4  12  27  55  86 121 160 200 251 308 378 474
#     4  12  30  48  80 126 160 196 258 316 388 470
#     4  12  26  51  83 110 158 208 248 310 398 465
#
# _framework density 21.311215000000001
#
# number of rings (size 3 to 8) (size 9 to 14) (size 15 to 20)
#    0.000    0.000    6.000    3.600    7.000    2.400 
#    0.000    0.000    0.000    0.000    0.000    0.000 
#    0.000    0.000    0.000    0.000    0.000    0.000 
#
# Total GULP energy -111735.616571 kJ/mol
# GULP energy per Si atom -5586.780829 kJ/mol
# Density = 2.126271 g / cm^3
# Si number density = 21.311215 Si / 1000 Ang^3
#
#
#
# Elastic Constant Matrix: (Units=GPa)
#
#
# Indices 1 2 3 4 5 6 
#
# 1 112.2627 40.7798 58.2538 0.0000 0.0000 0.0000
# 2 40.7798 103.7452 58.3620 0.0000 0.0000 0.0000
# 3 58.2538 58.3620 129.3843 0.0000 0.0000 0.0000
# 4 0.0000 0.0000 0.0000 62.2118 0.0000 0.0000
# 5 0.0000 0.0000 0.0000 0.0000 38.3341 0.0000
# 6 0.0000 0.0000 0.0000 0.0000 0.0000 24.2588
#
#
#
# Elastic Compliance Matrix: (Units=1/GPa)
#
#
# Indices 1 2 3 4 5 6 
#
# 1 0.012002 -0.002248 -0.004390 0.000000 0.000000 0.000000
# 2 -0.002248 0.013338 -0.005004 0.000000 0.000000 0.000000
# 3 -0.004390 -0.005004 0.011963 0.000000 0.000000 0.000000
# 4 0.000000 0.000000 0.000000 0.016074 0.000000 0.000000
# 5 0.000000 0.000000 0.000000 0.000000 0.026086 0.000000
# 6 0.000000 0.000000 0.000000 0.000000 0.000000 0.041222
#
#
# Mechanical properties :
#
#
# Convention : Reuss Voigt Hill
#
# Bulk Modulus (GPa) = 71.33503 73.35372 72.34438
# Shear Modulus (GPa) = 33.63780 37.49403 35.56591
#
# Velocity S-wave (km/s) = 3.97723 4.19902 4.08963
# Velocity P-wave (km/s) = 7.39167 7.61603 7.50469
#
# Compressibility (1/GPa) = 0.01401836
#
# Stress axis : x y z
#
# Youngs Moduli (GPa) = 83.31779 74.97470 83.59437
#
# Poissons Ratio (x) = 0.16857 0.36695
# Poissons Ratio (y) = 0.18733 0.41831
# Poissons Ratio (z) = 0.36574 0.37518
#
# Static dielectric constant tensor:
#      x y z
#    x 1.800120 0.000000 0.000000 
#    y 0.000000 1.771020 0.000000 
#    z 0.000000 0.000000 1.749990 
# 
# From -- ./inp_files/937.got.cif
#   From: 2010.05.17/outbox.cif.g08.bks.cpg/sg17_1_cif.got.tgz:937.got - 2010.06.03 22:34:06.
