data_PCOD9311605
_publ_section_title
;
Structure prediction by ZEFSAII (Michael W. Deem and Ramdas Pophale) SiO2 
 PCOD9311605
Probable space group: P 2 2 21
;
_chemical_formula_sum "Si O2"
_cell_formula_units_Z 32
_cell_length_a 15.000000
_cell_length_b 9.000000
_cell_length_c 12.000000
_cell_angle_alpha 90.000000
_cell_angle_beta 90.000000
_cell_angle_gamma 90.000000
_cell_volume 1620.000000
_symmetry_space_group_name_H-M "P 2 2 21"
_symmetry_group_IT_number 17
_symmetry_cell_setting 'orthorhombic'
loop_
_space_group_symop_operation_xyz
x,y,z
-x,-y,1/2+z
x,-y,-z
-x,y,1/2-z
loop_
_atom_site_type_symbol
_atom_site_label
_atom_site_fract_x
_atom_site_fract_y
_atom_site_fract_z
Si Si1 0.722776 0.145266 0.420416
Si Si2 0.719282 0.241046 0.184339
Si Si3 0.409320 0.344848 0.936780
Si Si4 0.898324 0.063059 0.126779
Si Si5 0.094111 0.760619 0.213888
Si Si6 0.720545 0.597341 0.230703
Si Si7 0.390365 0.676745 0.474606
Si Si8 0.079570 0.168225 0.041006
O O1 0.689187 0.146073 0.292966
O O2 0.657204 0.249405 0.488400
O O3 0.824694 0.204750 0.406164
O O4 0.726808 0.000000 0.500000
O O5 0.813176 0.167113 0.148680
O O6 0.728969 0.418153 0.213738
O O7 0.647261 0.240318 0.083776
O O8 0.356812 0.373206 0.821983
O O9 0.510106 0.279825 0.933680
O O10 0.417722 0.500000 0.000000
O O11 0.990625 0.160905 0.117125
O O12 0.901322 0.923559 0.217863
O O13 0.889474 0.000000 0.000000
O O14 0.184708 0.671680 0.238659
O O15 0.000000 0.692055 0.250000
O O16 0.080440 0.757103 0.080122
O O17 0.684143 0.680709 0.121052
O O18 0.395155 0.500000 0.500000
O O19 0.085852 0.000000 0.000000
#
# Coordination Sequence:
#
# PCOD9311605 Si02
#       8
#     4   4   4   4   4   4   4   4
#     4  11  23  40  66  96 130 173 219 275 326 389
#     4  11  24  42  65 100 134 171 218 283 335 393
#     4  11  21  42  70  97 124 172 226 270 332 400
#     4  11  22  38  65  90 126 176 227 257 323 403
#     4  12  22  39  63  96 125 176 222 266 323 400
#     4  11  23  43  66  97 137 167 221 280 341 388
#     4   9  22  41  68  95 127 172 221 271 335 409
#     4  10  20  36  60  86 122 166 224 258 307 391
#
# _framework density 19.753086
#
# number of rings (size 3 to 8) (size 9 to 14) (size 15 to 20)
#    0.000    1.250    5.000    2.625    0.000    0.500 
#    2.250    1.875    2.750    0.000    0.000    0.000 
#    0.000    0.000    0.000    0.000    0.000    0.000 
#
# Total GULP energy -178236.314492 kJ/mol
# GULP energy per Si atom -5569.884828 kJ/mol
# Density = 1.970813 g / cm^3
# Si number density = 19.753086 Si / 1000 Ang^3
#
#
#
# Elastic Constant Matrix: (Units=GPa)
#
#
# Indices 1 2 3 4 5 6 
#
# 1 132.9382 43.8745 34.9676 0.0000 0.0000 0.0000
# 2 43.8745 38.3424 26.7751 0.0000 0.0000 0.0000
# 3 34.9676 26.7751 131.3083 0.0000 0.0000 0.0000
# 4 0.0000 0.0000 0.0000 30.6367 0.0000 0.0000
# 5 0.0000 0.0000 0.0000 0.0000 45.9291 0.0000
# 6 0.0000 0.0000 0.0000 0.0000 0.0000 28.2105
#
#
#
# Elastic Compliance Matrix: (Units=1/GPa)
#
#
# Indices 1 2 3 4 5 6 
#
# 1 0.012111 -0.013534 -0.000466 0.000000 0.000000 0.000000
# 2 -0.013534 0.045534 -0.005681 0.000000 0.000000 0.000000
# 3 -0.000466 -0.005681 0.008898 0.000000 0.000000 0.000000
# 4 0.000000 0.000000 0.000000 0.032641 0.000000 0.000000
# 5 0.000000 0.000000 0.000000 0.000000 0.021773 0.000000
# 6 0.000000 0.000000 0.000000 0.000000 0.000000 0.035448
#
#
# Mechanical properties :
#
#
# Convention : Reuss Voigt Hill
#
# Bulk Modulus (GPa) = 36.78731 57.09148 46.93939
# Shear Modulus (GPa) = 24.41094 34.08669 29.24881
#
# Velocity S-wave (km/s) = 3.51921 4.15859 3.85219
# Velocity P-wave (km/s) = 5.93103 7.21275 6.60306
#
# Compressibility (1/GPa) = 0.02718329
#
# Stress axis : x y z
#
# Youngs Moduli (GPa) = 82.56689 21.96151 112.38425
#
# Poissons Ratio (x) = 0.29722 0.05233
# Poissons Ratio (y) = 1.11744 0.63844
# Poissons Ratio (z) = 0.03844 0.12476
#
# Static dielectric constant tensor:
#      x y z
#    x 1.722300 0.000000 0.000000 
#    y 0.000000 1.582930 0.000000 
#    z 0.000000 0.000000 1.753710 
# 
# From -- ./inp_files/7319.got.cif
#   From: 2010.05.17/outbox.ucp.g08.bks.cvg/sg17_4_cif.got.tgz:7319.got - 2010.06.11 13:12:59.
