data_PCOD9311684
_publ_section_title
;
Structure prediction by ZEFSAII (Michael W. Deem and Ramdas Pophale) SiO2 
 PCOD9311684
Probable space group: P 21 21 2
;
_chemical_formula_sum "Si O2"
_cell_formula_units_Z 26
_cell_length_a 16.950935
_cell_length_b 11.973125
_cell_length_c 5.437252
_cell_angle_alpha 90.000000
_cell_angle_beta 90.000000
_cell_angle_gamma 90.000000
_cell_volume 1103.521088
_symmetry_space_group_name_H-M "P 21 21 2"
_symmetry_group_IT_number 18
_symmetry_cell_setting 'orthorhombic'
loop_
_space_group_symop_operation_xyz
x,y,z
-x,-y,z
1/2+x,1/2-y,-z
1/2-x,1/2+y,-z
loop_
_atom_site_type_symbol
_atom_site_label
_atom_site_fract_x
_atom_site_fract_y
_atom_site_fract_z
Si Si1 0.573571 0.602622 0.253290
Si Si2 0.099142 0.184629 0.758949
Si Si3 0.778858 0.337862 0.247065
Si Si4 0.364477 0.135784 0.254842
Si Si5 0.043857 0.279113 0.259776
Si Si6 0.500000 0.000000 0.009956
Si Si7 0.118010 0.870715 0.247898
O O1 0.478933 0.607146 0.252306
O O2 0.603157 0.735200 0.252629
O O3 0.608793 0.558747 0.506769
O O4 0.609749 0.559636 0.999737
O O5 0.187189 0.145348 0.714762
O O6 0.079746 0.267928 0.530740
O O7 0.096384 0.230795 0.037229
O O8 0.826650 0.386753 0.479814
O O9 0.805204 0.206720 0.251160
O O10 0.805734 0.376549 0.977018
O O11 0.435180 0.054793 0.185462
O O12 0.028780 0.403256 0.170736
O O13 0.960373 0.210408 0.251307
#
# Coordination Sequence:
#
# PCOD9311684 Si02
#       7
#     4   4   4   4   4   2   4
#     4   8  14  27  39  59  84 111 160 180 234 269
#     4  10  18  31  44  63  93 128 171 201 244 283
#     4  10  18  31  44  63  93 128 171 201 244 283
#     4  10  20  30  46  70  91 135 165 199 239 284
#     4  10  20  30  46  70  91 135 165 199 239 284
#     4  12  20  34  52  70 112 126 190 188 224 330
#     4   8  14  27  39  59  84 111 160 180 234 269
#
# _framework density 23.560946000000001
#
# number of rings (size 3 to 8) (size 9 to 14) (size 15 to 20)
#    0.000    2.462    4.615    0.923    0.000    2.462 
#    0.000    0.000    0.000    0.000    0.000    0.000 
#    0.000    0.000    0.000  186.923    1.846    0.000 
#
# Total GULP energy -145334.791744 kJ/mol
# GULP energy per Si atom -5589.799682 kJ/mol
# Density = 2.350732 g / cm^3
# Si number density = 23.560946 Si / 1000 Ang^3
#
#
#
# Elastic Constant Matrix: (Units=GPa)
#
#
# Indices 1 2 3 4 5 6 
#
# 1 115.7780 34.0697 46.2821 0.0000 0.0000 0.0000
# 2 34.0697 58.4605 23.0442 0.0000 0.0000 0.0000
# 3 46.2821 23.0442 200.9565 0.0000 0.0000 0.0000
# 4 0.0000 0.0000 0.0000 19.4906 0.0000 0.0000
# 5 0.0000 0.0000 0.0000 0.0000 23.3716 0.0000
# 6 0.0000 0.0000 0.0000 0.0000 0.0000 20.9464
#
#
#
# Elastic Compliance Matrix: (Units=1/GPa)
#
#
# Indices 1 2 3 4 5 6 
#
# 1 0.011074 -0.005707 -0.001896 0.000000 0.000000 0.000000
# 2 -0.005707 0.020856 -0.001077 0.000000 0.000000 0.000000
# 3 -0.001896 -0.001077 0.005536 0.000000 0.000000 0.000000
# 4 0.000000 0.000000 0.000000 0.051307 0.000000 0.000000
# 5 0.000000 0.000000 0.000000 0.000000 0.042787 0.000000
# 6 0.000000 0.000000 0.000000 0.000000 0.000000 0.047741
#
#
# Mechanical properties :
#
#
# Convention : Reuss Voigt Hill
#
# Bulk Modulus (GPa) = 49.73460 64.66521 57.19991
# Shear Modulus (GPa) = 24.58647 30.88165 27.73406
#
# Velocity S-wave (km/s) = 3.23387 3.62431 3.43464
# Velocity P-wave (km/s) = 5.92441 6.70967 6.32923
#
# Compressibility (1/GPa) = 0.02010673
#
# Stress axis : x y z
#
# Youngs Moduli (GPa) = 90.29783 47.94805 180.62132
#
# Poissons Ratio (x) = 0.27362 0.34249
# Poissons Ratio (y) = 0.51529 0.19459
# Poissons Ratio (z) = 0.17122 0.05166
#
# Static dielectric constant tensor:
#      x y z
#    x 1.845260 0.000000 0.000000 
#    y 0.000000 1.982100 0.000000 
#    z 0.000000 0.000000 1.932580 
# 
# From -- ./inp_files/1579.got.cif
#   From: 2010.05.17/outbox.cif.g08.bks.cpg/sg18_1_cif.got.tgz:1579.got - 2010.06.03 22:40:56.
