data_PCOD9311306
_publ_section_title
;
Structure prediction by ZEFSAII (Michael W. Deem and Ramdas Pophale) SiO2 
 PCOD9311306
Probable space group: P 2 2 21
;
_chemical_formula_sum "Si O2"
_cell_formula_units_Z 18
_cell_length_a 5.140862
_cell_length_b 5.226738
_cell_length_c 24.729325
_cell_angle_alpha 90.000000
_cell_angle_beta 90.000000
_cell_angle_gamma 90.000000
_cell_volume 664.475449
_symmetry_space_group_name_H-M "P 2 2 21"
_symmetry_group_IT_number 17
_symmetry_cell_setting 'orthorhombic'
loop_
_space_group_symop_operation_xyz
x,y,z
-x,-y,1/2+z
x,-y,-z
-x,y,1/2-z
loop_
_atom_site_type_symbol
_atom_site_label
_atom_site_fract_x
_atom_site_fract_y
_atom_site_fract_z
Si Si1 0.500000 0.672400 0.750000
Si Si2 0.698368 0.319653 0.358049
Si Si3 0.341951 0.061606 0.589054
Si Si4 0.904971 0.065493 0.803870
Si Si5 0.142473 0.679149 0.051567
O O1 0.383671 0.541069 0.802779
O O2 0.723464 0.848841 0.776402
O O3 0.868847 0.495508 0.396076
O O4 0.458846 0.213903 0.394155
O O5 0.861071 0.074280 0.336329
O O6 0.271420 0.178709 0.648326
O O7 0.572929 0.196765 0.556579
O O8 0.077905 0.104979 0.556458
O O9 0.000000 0.213114 0.750000
O O10 0.111918 0.500000 0.000000
#
# Coordination Sequence:
#
# PCOD9311306 Si02
#       5
#     2   4   4   4   4
#     4   8  18  36  72 102 136 186 220 292 370 440
#     4  10  22  45  72  99 148 182 235 299 366 429
#     4  11  24  47  68 103 137 188 237 292 367 420
#     4   9  18  41  71 100 139 180 227 290 364 439
#     4  12  28  47  68 105 145 185 253 301 346 439
#
# _framework density 27.089036
#
# number of rings (size 3 to 8) (size 9 to 14) (size 15 to 20)
#    0.000    1.778    2.222    0.667    6.222    0.889 
#    8.000    0.000    0.000    0.000    0.000    0.000 
#    0.000    0.000    0.000    0.000    0.000    0.000 
#
# Total GULP energy -100708.081218 kJ/mol
# GULP energy per Si atom -5594.893401 kJ/mol
# Density = 2.702738 g / cm^3
# Si number density = 27.089036 Si / 1000 Ang^3
#
#
#
# Elastic Constant Matrix: (Units=GPa)
#
#
# Indices 1 2 3 4 5 6 
#
# 1 153.9987 29.9920 42.1562 0.0000 0.0000 0.0000
# 2 29.9920 63.1981 45.9792 0.0000 0.0000 0.0000
# 3 42.1562 45.9792 152.4183 0.0000 0.0000 0.0000
# 4 0.0000 0.0000 0.0000 40.2035 0.0000 0.0000
# 5 0.0000 0.0000 0.0000 0.0000 23.0987 0.0000
# 6 0.0000 0.0000 0.0000 0.0000 0.0000 5276.4019
#
#
#
# Elastic Compliance Matrix: (Units=1/GPa)
#
#
# Indices 1 2 3 4 5 6 
#
# 1 0.007337 -0.002570 -0.001254 0.000000 0.000000 0.000000
# 2 -0.002570 0.021172 -0.005676 0.000000 0.000000 0.000000
# 3 -0.001254 -0.005676 0.008620 0.000000 0.000000 0.000000
# 4 0.000000 0.000000 0.000000 0.024873 0.000000 0.000000
# 5 0.000000 0.000000 0.000000 0.000000 0.043292 0.000000
# 6 0.000000 0.000000 0.000000 0.000000 0.000000 0.000190
#
#
# Mechanical properties :
#
#
# Convention : Reuss Voigt Hill
#
# Bulk Modulus (GPa) = 55.15804 67.31886 61.23845
# Shear Modulus (GPa) = 38.30576 1084.70667 561.50622
#
# Velocity S-wave (km/s) = 3.76449 20.03228 14.41290
# Velocity P-wave (km/s) = 6.26906 23.66349 17.30985
#
# Compressibility (1/GPa) = 0.01812972
#
# Stress axis : x y z
#
# Youngs Moduli (GPa) = 136.28927 47.23126 116.00771
#
# Poissons Ratio (x) = 0.12136 0.14550
# Poissons Ratio (y) = 0.35021 0.65849
# Poissons Ratio (z) = 0.17094 0.26810
#
# Static dielectric constant tensor:
#      x y z
#    x 2.159070 0.000000 0.000000 
#    y 0.000000 2.164530 0.000000 
#    z 0.000000 0.000000 1.986820 
# 
# From -- ./inp_files/10342.got.cif
#   From: 2010.05.17/outbox.cif.g08.bks.cpg/sg17_6_cif.got.tgz:10342.got - 2010.06.03 22:34:06.
