data_PCOD9311870
_publ_section_title
;
Structure prediction by ZEFSAII (Michael W. Deem and Ramdas Pophale) SiO2 
 PCOD9311870
Probable space group: P 21 21 2
;
_chemical_formula_sum "Si O2"
_cell_formula_units_Z 28
_cell_length_a 13.001477
_cell_length_b 5.449567
_cell_length_c 19.425711
_cell_angle_alpha 90.000000
_cell_angle_beta 90.000000
_cell_angle_gamma 90.000000
_cell_volume 1376.358635
_symmetry_space_group_name_H-M "P 21 21 2"
_symmetry_group_IT_number 18
_symmetry_cell_setting 'orthorhombic'
loop_
_space_group_symop_operation_xyz
x,y,z
-x,-y,z
1/2+x,1/2-y,-z
1/2-x,1/2+y,-z
loop_
_atom_site_type_symbol
_atom_site_label
_atom_site_fract_x
_atom_site_fract_y
_atom_site_fract_z
Si Si1 0.092967 0.690443 0.228020
Si Si2 0.908701 0.307000 0.375750
Si Si3 0.728449 0.539858 0.155766
Si Si4 0.000000 0.000000 0.501221
Si Si5 0.000000 0.000000 0.106538
Si Si6 0.779834 0.878347 0.539887
Si Si7 0.113741 0.389055 0.034777
Si Si8 0.620525 0.043627 0.125552
O O1 0.097256 0.826511 0.301691
O O2 0.193984 0.526716 0.216993
O O3 0.000000 0.500000 0.225992
O O4 0.071522 0.857645 0.162003
O O5 0.946870 0.181017 0.445999
O O6 0.793571 0.395348 0.393527
O O7 0.000000 0.500000 0.365054
O O8 0.798424 0.528287 0.086673
O O9 0.650510 0.312212 0.152567
O O10 0.680355 0.810975 0.157401
O O11 0.096354 0.098954 0.545050
O O12 0.085303 0.111816 0.055034
O O13 0.758524 0.611695 0.505574
O O14 0.000000 0.500000 0.050278
O O15 0.140003 0.448541 0.956823
O O16 0.500000 0.000000 0.135095
#
# Coordination Sequence:
#
# PCOD9311870 Si02
#       8
#     4   4   4   2   2   4   4   4
#     4  11  23  37  63  93 132 166 206 265 320 402
#     4  10  20  37  57  97 126 174 214 259 315 385
#     4  12  22  43  60  91 116 167 201 257 326 381
#     4  10  19  36  62  92 133 170 204 270 312 374
#     4  12  19  38  60  92 137 160 198 262 346 384
#     4  10  20  35  59  92 130 167 207 256 312 363
#     4  11  23  36  60  92 123 149 195 266 327 397
#     4  11  27  41  63  84 118 160 216 263 314 381
#
# _framework density 20.343533999999998
#
# number of rings (size 3 to 8) (size 9 to 14) (size 15 to 20)
#    0.000    1.143    4.286    2.571    4.000    0.000 
#    0.000    0.000    3.143    0.000    0.000    0.000 
#    0.000    0.000    0.000    0.000    0.000    0.000 
#
# Total GULP energy -155948.846934 kJ/mol
# GULP energy per Si atom -5569.601676 kJ/mol
# Density = 2.029723 g / cm^3
# Si number density = 20.343534 Si / 1000 Ang^3
#
#
#
# Elastic Constant Matrix: (Units=GPa)
#
#
# Indices 1 2 3 4 5 6 
#
# 1 105.4463 15.0538 24.3592 0.0000 0.0000 0.0000
# 2 15.0538 64.6317 9.2944 0.0000 0.0000 0.0000
# 3 24.3592 9.2944 49.3884 0.0000 0.0000 0.0000
# 4 0.0000 0.0000 0.0000 27.3192 0.0000 0.0000
# 5 0.0000 0.0000 0.0000 0.0000 136.9565 0.0000
# 6 0.0000 0.0000 0.0000 0.0000 0.0000 42.8870
#
#
#
# Elastic Compliance Matrix: (Units=1/GPa)
#
#
# Indices 1 2 3 4 5 6 
#
# 1 0.010906 -0.001816 -0.005038 0.000000 0.000000 0.000000
# 2 -0.001816 0.016205 -0.002154 0.000000 0.000000 0.000000
# 3 -0.005038 -0.002154 0.023138 0.000000 0.000000 0.000000
# 4 0.000000 0.000000 0.000000 0.036604 0.000000 0.000000
# 5 0.000000 0.000000 0.000000 0.000000 0.007302 0.000000
# 6 0.000000 0.000000 0.000000 0.000000 0.000000 0.023317
#
#
# Mechanical properties :
#
#
# Convention : Reuss Voigt Hill
#
# Bulk Modulus (GPa) = 31.02285 35.20901 33.11593
# Shear Modulus (GPa) = 34.19234 52.81647 43.50440
#
# Velocity S-wave (km/s) = 4.10414 5.10085 4.62940
# Velocity P-wave (km/s) = 6.14339 7.21362 6.69991
#
# Compressibility (1/GPa) = 0.03223431
#
# Stress axis : x y z
#
# Youngs Moduli (GPa) = 91.68883 61.70935 43.21966
#
# Poissons Ratio (x) = 0.11206 0.21772
# Poissons Ratio (y) = 0.16650 0.09309
# Poissons Ratio (z) = 0.46188 0.13292
#
# Static dielectric constant tensor:
#      x y z
#    x 1.768950 0.000000 0.000000 
#    y 0.000000 1.879340 0.000000 
#    z 0.000000 0.000000 1.722970 
# 
# From -- ./inp_files/7564.got.cif
#   From: 2010.05.17/outbox.cif.g08.bks.cpg/sg18_4_cif.got.tgz:7564.got - 2010.06.03 22:40:56.
