data_PCOD9311034
_publ_section_title
;
Structure prediction by ZEFSAII (Michael W. Deem and Ramdas Pophale) SiO2 
 PCOD9311034
Probable space group: P 2 2 21
;
_chemical_formula_sum "Si O2"
_cell_formula_units_Z 24
_cell_length_a 5.307403
_cell_length_b 28.133940
_cell_length_c 7.495309
_cell_angle_alpha 90.000000
_cell_angle_beta 90.000000
_cell_angle_gamma 90.000000
_cell_volume 1119.185730
_symmetry_space_group_name_H-M "P 2 2 21"
_symmetry_group_IT_number 17
_symmetry_cell_setting 'orthorhombic'
loop_
_space_group_symop_operation_xyz
x,y,z
-x,-y,1/2+z
x,-y,-z
-x,y,1/2-z
loop_
_atom_site_type_symbol
_atom_site_label
_atom_site_fract_x
_atom_site_fract_y
_atom_site_fract_z
Si Si1 0.086382 0.445002 0.453604
Si Si2 0.758004 0.751388 0.956193
Si Si3 0.260944 0.289597 0.052509
Si Si4 0.249362 0.849430 0.372924
Si Si5 0.402846 0.608466 0.054542
Si Si6 0.749636 0.955639 0.130598
O O1 0.126666 0.500000 0.500000
O O2 0.351513 0.417717 0.475682
O O3 0.000000 0.440710 0.250000
O O4 0.846166 0.424580 0.563808
O O5 0.749795 0.733350 0.750912
O O6 0.498352 0.734289 0.039830
O O7 0.998729 0.724649 0.035026
O O8 0.771514 0.807553 0.983073
O O9 0.313758 0.345414 0.054972
O O10 0.500000 0.843819 0.250000
O O11 0.256694 0.902647 0.453226
O O12 0.000000 0.846056 0.250000
O O13 0.500000 0.623415 0.250000
O O14 0.500000 0.959170 0.250000
O O15 0.000000 0.957511 0.250000
O O16 0.753895 0.000000 0.000000
#
# Coordination Sequence:
#
# PCOD9311034 Si02
#       6
#     4   4   4   4   4   4
#     4  12  27  47  75 102 137 176 223 274 332 400
#     4  10  21  39  60  88 128 166 228 259 329 391
#     4  10  23  39  63  90 132 165 216 272 318 393
#     4  10  21  38  62  89 130 177 219 279 344 390
#     4  12  26  45  71 102 138 175 220 274 339 395
#     4  10  21  40  62  95 133 174 227 285 343 410
#
# _framework density 21.44416
#
# number of rings (size 3 to 8) (size 9 to 14) (size 15 to 20)
#    0.000    1.333    0.000    5.000    7.000    2.000 
#    6.000    0.000    0.000    0.000    0.000    0.000 
#    0.000    0.000    0.000    0.000    0.000    0.000 
#
# Total GULP energy -134087.175589 kJ/mol
# GULP energy per Si atom -5586.965650 kJ/mol
# Density = 2.139535 g / cm^3
# Si number density = 21.444160 Si / 1000 Ang^3
#
#
#
# Elastic Constant Matrix: (Units=GPa)
#
#
# Indices 1 2 3 4 5 6 
#
# 1 213.7676 76.2931 25.2977 0.0000 0.0000 0.0000
# 2 76.2931 226.7864 58.1341 0.0000 0.0000 0.0000
# 3 25.2977 58.1341 77.2721 0.0000 0.0000 0.0000
# 4 0.0000 0.0000 0.0000 38.1643 0.0000 0.0000
# 5 0.0000 0.0000 0.0000 0.0000 8.1204 0.0000
# 6 0.0000 0.0000 0.0000 0.0000 0.0000 -27.0222
#
#
#
# Elastic Compliance Matrix: (Units=1/GPa)
#
#
# Indices 1 2 3 4 5 6 
#
# 1 0.005331 -0.001668 -0.000491 0.000000 0.000000 0.000000
# 2 -0.001668 0.005985 -0.003956 0.000000 0.000000 0.000000
# 3 -0.000491 -0.003956 0.016079 0.000000 0.000000 0.000000
# 4 0.000000 0.000000 0.000000 0.026202 0.000000 0.000000
# 5 0.000000 0.000000 0.000000 0.000000 0.123146 0.000000
# 6 0.000000 0.000000 0.000000 0.000000 0.000000 -0.037007
#
#
# Mechanical properties :
#
#
# Convention : Reuss Voigt Hill
#
# Bulk Modulus (GPa) = 65.94272 93.03066 79.48669
# Shear Modulus (GPa) = 31.84286 27.72592 29.78439
#
# Velocity S-wave (km/s) = 3.85765 3.59964 3.73088
# Velocity P-wave (km/s) = 7.11755 7.79445 7.46368
#
# Compressibility (1/GPa) = 0.01516468
#
# Stress axis : x y z
#
# Youngs Moduli (GPa) = 187.57346 167.09390 62.19482
#
# Poissons Ratio (x) = 0.27866 0.03052
# Poissons Ratio (y) = 0.31282 0.24607
# Poissons Ratio (z) = 0.09204 0.66110
#
# Static dielectric constant tensor:
#      x y z
#    x 1.782600 0.000000 0.000000 
#    y 0.000000 1.778600 0.000000 
#    z 0.000000 0.000000 1.780900 
# 
# From -- ./inp_files/3571.got.cif
#   From: 2010.05.17/outbox.cif.g08.bks.cpg/sg17_2_cif.got.tgz:3571.got - 2010.06.03 22:34:06.
