data_PCOD9311652
_publ_section_title
;
Structure prediction by ZEFSAII (Michael W. Deem and Ramdas Pophale) SiO2 
 PCOD9311652
Probable space group: P 21 21 2
;
_chemical_formula_sum "Si O2"
_cell_formula_units_Z 28
_cell_length_a 10.953870
_cell_length_b 12.788167
_cell_length_c 7.907678
_cell_angle_alpha 90.000000
_cell_angle_beta 90.000000
_cell_angle_gamma 90.000000
_cell_volume 1107.706893
_symmetry_space_group_name_H-M "P 21 21 2"
_symmetry_group_IT_number 18
_symmetry_cell_setting 'orthorhombic'
loop_
_space_group_symop_operation_xyz
x,y,z
-x,-y,z
1/2+x,1/2-y,-z
1/2-x,1/2+y,-z
loop_
_atom_site_type_symbol
_atom_site_label
_atom_site_fract_x
_atom_site_fract_y
_atom_site_fract_z
Si Si1 0.775842 0.705370 0.412668
Si Si2 0.358090 0.028307 0.590081
Si Si3 0.363431 0.717155 0.238737
Si Si4 0.087359 0.852276 0.878995
Si Si5 0.423636 0.106009 0.258279
Si Si6 0.082923 0.281634 0.095344
Si Si7 0.300945 0.004336 0.947647
O O1 0.790782 0.580665 0.448371
O O2 0.670559 0.703759 0.266672
O O3 0.787139 0.757694 0.595902
O O4 0.888877 0.740165 0.291062
O O5 0.500000 0.000000 0.616346
O O6 0.349660 0.106243 0.433273
O O7 0.306356 0.066369 0.770030
O O8 0.459956 0.621204 0.219395
O O9 0.468590 0.810016 0.249912
O O10 0.320961 0.738092 0.045966
O O11 0.038230 0.778585 0.033021
O O12 0.171884 0.943797 0.953942
O O13 0.500000 0.000000 0.275399
O O14 0.336643 0.076606 0.102572
O O15 0.101279 0.407280 0.073425
#
# Coordination Sequence:
#
# PCOD9311652 Si02
#       7
#     4   4   4   4   4   4   4
#     4  10  17  31  46  64 102 132 146 209 244 273
#     4   9  16  24  41  69  95 118 149 180 256 312
#     4  10  18  31  45  71 103 126 164 197 241 307
#     4   8  19  33  42  72 103 125 178 186 234 325
#     4  11  16  26  47  72  98 127 152 199 261 307
#     4   8  17  31  43  67  98 128 162 192 234 302
#     4  10  18  29  48  67 105 130 147 211 250 274
#
# _framework density 25.277445
#
# number of rings (size 3 to 8) (size 9 to 14) (size 15 to 20)
#    0.857    2.000    4.286    0.429    2.000    0.000 
#   10.286    0.000    0.000    0.000    0.000    4.000 
#    8.571    0.000    0.000    0.000    0.000    0.000 
#
# Total GULP energy -155907.638985 kJ/mol
# GULP energy per Si atom -5568.129964 kJ/mol
# Density = 2.521991 g / cm^3
# Si number density = 25.277445 Si / 1000 Ang^3
#
#
#
# Elastic Constant Matrix: (Units=GPa)
#
#
# Indices 1 2 3 4 5 6 
#
# 1 51.2827 18.4196 7.5290 0.0000 0.0000 0.0000
# 2 18.4196 54.1090 32.7100 0.0000 0.0000 0.0000
# 3 7.5290 32.7100 167.1143 0.0000 0.0000 0.0000
# 4 0.0000 0.0000 0.0000 47.5278 0.0000 0.0000
# 5 0.0000 0.0000 0.0000 0.0000 45.8312 0.0000
# 6 0.0000 0.0000 0.0000 0.0000 0.0000 36.4473
#
#
#
# Elastic Compliance Matrix: (Units=1/GPa)
#
#
# Indices 1 2 3 4 5 6 
#
# 1 0.022260 -0.007907 0.000545 0.000000 0.000000 0.000000
# 2 -0.007907 0.023770 -0.004296 0.000000 0.000000 0.000000
# 3 0.000545 -0.004296 0.006800 0.000000 0.000000 0.000000
# 4 0.000000 0.000000 0.000000 0.021040 0.000000 0.000000
# 5 0.000000 0.000000 0.000000 0.000000 0.021819 0.000000
# 6 0.000000 0.000000 0.000000 0.000000 0.000000 0.027437
#
#
# Mechanical properties :
#
#
# Convention : Reuss Voigt Hill
#
# Bulk Modulus (GPa) = 33.88320 43.31369 38.59844
# Shear Modulus (GPa) = 31.99360 40.21777 36.10568
#
# Velocity S-wave (km/s) = 3.56152 3.99313 3.78349
# Velocity P-wave (km/s) = 5.50874 6.19940 5.86425
#
# Compressibility (1/GPa) = 0.02951315
#
# Stress axis : x y z
#
# Youngs Moduli (GPa) = 44.92417 42.06964 147.05151
#
# Poissons Ratio (x) = 0.33264 -0.08011
# Poissons Ratio (y) = 0.35521 0.63179
# Poissons Ratio (z) = -0.02447 0.18075
#
# Static dielectric constant tensor:
#      x y z
#    x 2.183660 0.000000 0.000000 
#    y 0.000000 2.369710 0.000000 
#    z 0.000000 0.000000 2.059180 
# 
# From -- ./inp_files/3991.got.cif
#   From: 2010.05.17/outbox.cif.g08.bks.cpg/sg18_2_cif.got.tgz:3991.got - 2010.06.03 22:40:56.
