data_PCOD9311800
_publ_section_title
;
Structure prediction by ZEFSAII (Michael W. Deem and Ramdas Pophale) SiO2 
 PCOD9311800
Probable space group: P 21 21 2
;
_chemical_formula_sum "Si O2"
_cell_formula_units_Z 24
_cell_length_a 14.549884
_cell_length_b 5.003959
_cell_length_c 18.045777
_cell_angle_alpha 90.000000
_cell_angle_beta 90.000000
_cell_angle_gamma 90.000000
_cell_volume 1313.859301
_symmetry_space_group_name_H-M "P 21 21 2"
_symmetry_group_IT_number 18
_symmetry_cell_setting 'orthorhombic'
loop_
_space_group_symop_operation_xyz
x,y,z
-x,-y,z
1/2+x,1/2-y,-z
1/2-x,1/2+y,-z
loop_
_atom_site_type_symbol
_atom_site_label
_atom_site_fract_x
_atom_site_fract_y
_atom_site_fract_z
Si Si1 0.218303 0.437162 0.832368
Si Si2 0.103150 0.936832 0.878927
Si Si3 0.218303 0.062837 0.332368
Si Si4 0.304336 0.947852 0.477743
Si Si5 0.396850 0.063168 0.621073
Si Si6 0.195664 0.052148 0.022257
O O1 0.139014 0.644780 0.857633
O O2 0.250000 0.500000 0.750000
O O3 0.301246 0.482553 0.891268
O O4 0.175078 0.144972 0.842705
O O5 0.112873 0.980501 0.967798
O O6 0.000000 0.000000 0.855293
O O7 0.301246 0.017446 0.391268
O O8 0.175078 0.355028 0.342705
O O9 0.139014 0.855220 0.357633
O O10 0.223153 0.139976 0.510264
O O11 0.387127 0.019499 0.532202
O O12 0.500000 0.000000 0.644707
O O13 0.276847 0.860024 0.989736
#
# Coordination Sequence:
#
# PCOD9311800 Si02
#       6
#     4   4   4   4   4   4
#     4  10  19  33  53  74 100 134 165 199 249 305
#     4  10  19  33  51  73  99 130 168 210 245 284
#     4  10  19  33  53  74 100 134 165 199 249 305
#     4   8  16  30  49  69  92 126 162 189 233 297
#     4  10  19  33  51  73  99 130 168 210 245 284
#     4   8  16  30  49  69  92 126 162 189 233 297
#
# _framework density 18.266798000000001
#
# number of rings (size 3 to 8) (size 9 to 14) (size 15 to 20)
#    0.000    2.667    0.000    2.000    0.000    0.000 
#    0.000    3.333    0.000    0.000    0.000    0.000 
#    0.000    0.000    0.000    0.000    0.000    0.000 
#
# Total GULP energy -133648.408093 kJ/mol
# GULP energy per Si atom -5568.683671 kJ/mol
# Density = 1.822522 g / cm^3
# Si number density = 18.266798 Si / 1000 Ang^3
#
#
#
# Elastic Constant Matrix: (Units=GPa)
#
#
# Indices 1 2 3 4 5 6 
#
# 1 34.3475 -9.9649 9.2367 0.0000 0.0000 0.0000
# 2 -9.9649 63.4190 -13.6667 0.0000 0.0000 0.0000
# 3 9.2367 -13.6667 131.5339 0.0000 0.0000 0.0000
# 4 0.0000 0.0000 0.0000 20.0529 0.0000 0.0000
# 5 0.0000 0.0000 0.0000 0.0000 10.5206 0.0000
# 6 0.0000 0.0000 0.0000 0.0000 0.0000 13.7748
#
#
#
# Elastic Compliance Matrix: (Units=1/GPa)
#
#
# Indices 1 2 3 4 5 6 
#
# 1 0.030873 0.004484 -0.001702 0.000000 0.000000 0.000000
# 2 0.004484 0.016781 0.001429 0.000000 0.000000 0.000000
# 3 -0.001702 0.001429 0.007871 0.000000 0.000000 0.000000
# 4 0.000000 0.000000 0.000000 0.049868 0.000000 0.000000
# 5 0.000000 0.000000 0.000000 0.000000 0.095052 0.000000
# 6 0.000000 0.000000 0.000000 0.000000 0.000000 0.072596
#
#
# Mechanical properties :
#
#
# Convention : Reuss Voigt Hill
#
# Bulk Modulus (GPa) = 15.63830 22.27896 18.95863
# Shear Modulus (GPa) = 17.48656 25.11600 21.30128
#
# Velocity S-wave (km/s) = 3.09736 3.71206 3.41856
# Velocity P-wave (km/s) = 4.62290 5.53131 5.09738
#
# Compressibility (1/GPa) = 0.06394558
#
# Stress axis : x y z
#
# Youngs Moduli (GPa) = 32.39090 59.59261 127.05568
#
# Poissons Ratio (x) = -0.26722 0.21626
# Poissons Ratio (y) = -0.14525 -0.18152
# Poissons Ratio (z) = 0.05513 -0.08514
#
# Static dielectric constant tensor:
#      x y z
#    x 1.614930 0.000000 0.000000 
#    y 0.000000 1.620050 0.000000 
#    z 0.000000 0.000000 1.660500 
# 
# From -- ./inp_files/1102.got.cif
#   From: 2010.05.17/outbox.cif.g08.bks.cpg/sg18_1_cif.got.tgz:1102.got - 2010.06.03 22:40:56.
