data_PCOD9311422
_publ_section_title
;
Structure prediction by ZEFSAII (Michael W. Deem and Ramdas Pophale) SiO2 
 PCOD9311422
Probable space group: P 2 2 21
;
_chemical_formula_sum "Si O2"
_cell_formula_units_Z 12
_cell_length_a 5.361284
_cell_length_b 8.387190
_cell_length_c 9.313659
_cell_angle_alpha 90.000000
_cell_angle_beta 90.000000
_cell_angle_gamma 90.000000
_cell_volume 418.798992
_symmetry_space_group_name_H-M "P 2 2 21"
_symmetry_group_IT_number 17
_symmetry_cell_setting 'orthorhombic'
loop_
_space_group_symop_operation_xyz
x,y,z
-x,-y,1/2+z
x,-y,-z
-x,y,1/2-z
loop_
_atom_site_type_symbol
_atom_site_label
_atom_site_fract_x
_atom_site_fract_y
_atom_site_fract_z
Si Si1 0.685062 0.334702 0.906010
Si Si2 0.694978 0.206807 0.379861
Si Si3 0.000000 0.543826 0.750000
Si Si4 0.000000 0.077358 0.750000
O O1 0.762040 0.428458 0.759245
O O2 0.865843 0.183505 0.871190
O O3 0.699068 0.500000 0.000000
O O4 0.454968 0.241719 0.976305
O O5 0.500000 0.244647 0.250000
O O6 0.922983 0.332612 0.373529
O O7 0.807958 0.038556 0.333060
#
# Coordination Sequence:
#
# PCOD9311422 Si02
#       4
#     4   4   2   2
#     4  11  24  54  87 119 168 228 279 359 418 514
#     4  11  24  54  82 120 168 225 281 355 428 497
#     4  10  24  52  82 128 160 216 294 348 418 508
#     4  10  28  56  80 130 172 220 290 350 430 514
#
# _framework density 28.653361
#
# number of rings (size 3 to 8) (size 9 to 14) (size 15 to 20)
#    0.000    1.333    3.333    0.000    0.000    2.667 
#   24.000    0.000    0.000    0.000    0.000    0.000 
#    0.000    0.000    0.000    0.000    0.000    0.000 
#
# Total GULP energy -66885.689715 kJ/mol
# GULP energy per Si atom -5573.807476 kJ/mol
# Density = 2.858814 g / cm^3
# Si number density = 28.653361 Si / 1000 Ang^3
#
#
#
# Elastic Constant Matrix: (Units=GPa)
#
#
# Indices 1 2 3 4 5 6 
#
# 1 186.5993 126.4480 77.4150 0.0000 0.0000 0.0000
# 2 126.4480 259.8948 84.9735 0.0000 0.0000 0.0000
# 3 77.4150 84.9735 137.4781 0.0000 0.0000 0.0000
# 4 0.0000 0.0000 0.0000 -57.4626 0.0000 0.0000
# 5 0.0000 0.0000 0.0000 0.0000 74.4892 0.0000
# 6 0.0000 0.0000 0.0000 0.0000 0.0000 62.3879
#
#
#
# Elastic Compliance Matrix: (Units=1/GPa)
#
#
# Indices 1 2 3 4 5 6 
#
# 1 0.008833 -0.003348 -0.002905 0.000000 0.000000 0.000000
# 2 -0.003348 0.006091 -0.001880 0.000000 0.000000 0.000000
# 3 -0.002905 -0.001880 0.010071 0.000000 0.000000 0.000000
# 4 0.000000 0.000000 0.000000 -0.017403 0.000000 0.000000
# 5 0.000000 0.000000 0.000000 0.000000 0.013425 0.000000
# 6 0.000000 0.000000 0.000000 0.000000 0.000000 0.016029
#
#
# Mechanical properties :
#
#
# Convention : Reuss Voigt Hill
#
# Bulk Modulus (GPa) = 114.53347 129.07170 121.80259
# Shear Modulus (GPa) = 88.93594 35.55860 62.24727
#
# Velocity S-wave (km/s) = 5.57727 3.52659 4.66598
# Velocity P-wave (km/s) = 9.02959 7.85660 8.46344
#
# Compressibility (1/GPa) = 0.00873107
#
# Stress axis : x y z
#
# Youngs Moduli (GPa) = 113.21584 164.17443 99.29242
#
# Poissons Ratio (x) = 0.54962 0.28840
# Poissons Ratio (y) = 0.37902 0.18664
# Poissons Ratio (z) = 0.32884 0.30859
#
# Static dielectric constant tensor:
#      x y z
#    x 2.419010 0.000000 0.000000 
#    y 0.000000 2.093750 0.000000 
#    z 0.000000 0.000000 2.557650 
# 
# From -- ./inp_files/5647.got.cif
#   From: 2010.05.17/outbox.cif.g08.bks.cpg/sg17_3_cif.got.tgz:5647.got - 2010.06.03 22:34:06.
