data_PCOD9311700
_publ_section_title
;
Structure prediction by ZEFSAII (Michael W. Deem and Ramdas Pophale) SiO2 
 PCOD9311700
Probable space group: P 21 21 2
;
_chemical_formula_sum "Si O2"
_cell_formula_units_Z 24
_cell_length_a 27.603999
_cell_length_b 4.961692
_cell_length_c 10.188374
_cell_angle_alpha 90.000000
_cell_angle_beta 90.000000
_cell_angle_gamma 90.000000
_cell_volume 1395.425592
_symmetry_space_group_name_H-M "P 21 21 2"
_symmetry_group_IT_number 18
_symmetry_cell_setting 'orthorhombic'
loop_
_space_group_symop_operation_xyz
x,y,z
-x,-y,z
1/2+x,1/2-y,-z
1/2-x,1/2+y,-z
loop_
_atom_site_type_symbol
_atom_site_label
_atom_site_fract_x
_atom_site_fract_y
_atom_site_fract_z
Si Si1 0.383106 0.000453 0.191238
Si Si2 0.719549 0.706247 0.841858
Si Si3 0.184919 0.293632 0.016215
Si Si4 0.032353 0.741261 0.679392
Si Si5 0.630342 0.531318 0.363801
Si Si6 0.221596 0.998034 0.454268
O O1 0.378285 0.753061 0.292985
O O2 0.438087 0.110542 0.198276
O O3 0.353095 0.252503 0.252067
O O4 0.363321 0.895825 0.054206
O O5 0.686131 0.505658 0.927531
O O6 0.720130 0.611206 0.693143
O O7 0.700905 0.006363 0.867742
O O8 0.773177 0.685860 0.904881
O O9 0.078062 0.847651 0.594128
O O10 0.000000 0.500000 0.622666
O O11 0.000000 0.000000 0.711458
O O12 0.669409 0.509283 0.476755
O O13 0.243601 0.295389 0.465417
#
# Coordination Sequence:
#
# PCOD9311700 Si02
#       6
#     4   4   4   4   4   4
#     4  10  19  32  55  76 109 131 171 217 273 311
#     4  10  21  32  50  70 105 144 183 201 247 300
#     4  10  19  34  48  73 102 142 176 211 242 303
#     4  10  18  33  53  82 108 126 170 224 282 327
#     4  10  20  32  52  79 108 137 170 215 274 318
#     4  12  23  35  52  76 112 149 182 222 258 314
#
# _framework density 17.199055000000001
#
# number of rings (size 3 to 8) (size 9 to 14) (size 15 to 20)
#    1.000    0.667    1.667    5.000    0.000    2.667 
#    0.000    0.000    0.000    0.000    0.000    4.667 
#    0.000    0.000    0.000    0.000    0.000    0.000 
#
# Total GULP energy -133721.026100 kJ/mol
# GULP energy per Si atom -5571.709421 kJ/mol
# Density = 1.715991 g / cm^3
# Si number density = 17.199055 Si / 1000 Ang^3
#
#
#
# Elastic Constant Matrix: (Units=GPa)
#
#
# Indices 1 2 3 4 5 6 
#
# 1 80.8919 17.7246 15.8330 0.0000 0.0000 0.0000
# 2 17.7246 82.0701 -4.3513 0.0000 0.0000 0.0000
# 3 15.8330 -4.3513 52.8735 0.0000 0.0000 0.0000
# 4 0.0000 0.0000 0.0000 13.2029 0.0000 0.0000
# 5 0.0000 0.0000 0.0000 0.0000 12.3861 0.0000
# 6 0.0000 0.0000 0.0000 0.0000 0.0000 11.0118
#
#
#
# Elastic Compliance Matrix: (Units=1/GPa)
#
#
# Indices 1 2 3 4 5 6 
#
# 1 0.013943 -0.003247 -0.004442 0.000000 0.000000 0.000000
# 2 -0.003247 0.012994 0.002042 0.000000 0.000000 0.000000
# 3 -0.004442 0.002042 0.020411 0.000000 0.000000 0.000000
# 4 0.000000 0.000000 0.000000 0.075741 0.000000 0.000000
# 5 0.000000 0.000000 0.000000 0.000000 0.080736 0.000000
# 6 0.000000 0.000000 0.000000 0.000000 0.000000 0.090812
#
#
# Mechanical properties :
#
#
# Convention : Reuss Voigt Hill
#
# Bulk Modulus (GPa) = 27.73668 30.47201 29.10434
# Shear Modulus (GPa) = 15.72573 19.76211 17.74392
#
# Velocity S-wave (km/s) = 3.02708 3.39340 3.21546
# Velocity P-wave (km/s) = 5.32724 5.75407 5.54476
#
# Compressibility (1/GPa) = 0.03605335
#
# Stress axis : x y z
#
# Youngs Moduli (GPa) = 71.71997 76.95767 48.99228
#
# Poissons Ratio (x) = 0.24987 0.21765
# Poissons Ratio (y) = 0.23286 -0.10002
# Poissons Ratio (z) = 0.31861 -0.15712
#
# Static dielectric constant tensor:
#      x y z
#    x 1.612300 0.000000 0.000000 
#    y 0.000000 1.612170 0.000000 
#    z 0.000000 0.000000 1.563040 
# 
# From -- ./inp_files/4724.got.cif
#   From: 2010.05.17/outbox.cif.g08.bks.cpg/sg18_3_cif.got.tgz:4724.got - 2010.06.03 22:40:56.
