data_PCOD9311702
_publ_section_title
;
Structure prediction by ZEFSAII (Michael W. Deem and Ramdas Pophale) SiO2 
 PCOD9311702
Probable space group: P 21 21 2
;
_chemical_formula_sum "Si O2"
_cell_formula_units_Z 30
_cell_length_a 8.303187
_cell_length_b 16.077829
_cell_length_c 10.945089
_cell_angle_alpha 90.000000
_cell_angle_beta 90.000000
_cell_angle_gamma 90.000000
_cell_volume 1461.138962
_symmetry_space_group_name_H-M "P 21 21 2"
_symmetry_group_IT_number 18
_symmetry_cell_setting 'orthorhombic'
loop_
_space_group_symop_operation_xyz
x,y,z
-x,-y,z
1/2+x,1/2-y,-z
1/2-x,1/2+y,-z
loop_
_atom_site_type_symbol
_atom_site_label
_atom_site_fract_x
_atom_site_fract_y
_atom_site_fract_z
Si Si1 0.000000 0.000000 0.334972
Si Si2 0.871546 0.735788 0.837323
Si Si3 0.781100 0.118819 0.503698
Si Si4 0.883232 0.268743 0.369367
Si Si5 0.835132 0.846983 0.264113
Si Si6 0.505243 0.902222 0.321728
Si Si7 0.907399 0.586389 0.266699
Si Si8 0.715147 0.708666 0.090667
O O1 0.105584 0.942445 0.425228
O O2 0.904254 0.938413 0.246962
O O3 0.772112 0.766703 0.719665
O O4 0.942894 0.647312 0.795503
O O5 0.024523 0.792921 0.875851
O O6 0.749693 0.718294 0.947814
O O7 0.838429 0.215371 0.491873
O O8 0.614545 0.117196 0.430406
O O9 0.741889 0.083647 0.637058
O O10 0.026125 0.209161 0.320533
O O11 0.961086 0.358055 0.341074
O O12 0.681982 0.867109 0.349070
O O13 0.775852 0.795233 0.149492
O O14 0.500000 0.000000 0.301280
O O15 0.827762 0.637114 0.152770
O O16 0.000000 0.500000 0.238235
#
# Coordination Sequence:
#
# PCOD9311702 Si02
#       8
#     2   4   4   4   4   4   4   4
#     4  10  18  34  56  86 122 148 208 248 300 348
#     4  10  21  40  66  85 114 162 206 258 304 377
#     4  10  21  37  59  91 120 166 202 253 303 365
#     4   9  21  40  62  86 121 161 213 251 305 369
#     4   9  18  32  58  85 118 152 191 255 290 361
#     4  10  18  33  58  93 120 152 203 251 308 355
#     4  11  24  41  59  89 130 168 198 260 322 380
#     4  10  21  40  62  85 118 158 207 245 317 372
#
# _framework density 20.531929000000002
#
# number of rings (size 3 to 8) (size 9 to 14) (size 15 to 20)
#    0.000    2.133    1.333    2.000    0.000    4.800 
#    4.800    0.000    0.000    0.000    0.000    0.000 
#    0.000    0.000    0.000    0.000    0.000    0.000 
#
# Total GULP energy -167020.110131 kJ/mol
# GULP energy per Si atom -5567.337004 kJ/mol
# Density = 2.048520 g / cm^3
# Si number density = 20.531929 Si / 1000 Ang^3
#
#
#
# Elastic Constant Matrix: (Units=GPa)
#
#
# Indices 1 2 3 4 5 6 
#
# 1 89.5937 26.4846 2.2951 0.0000 0.0000 0.0000
# 2 26.4846 108.3325 5.1088 0.0000 0.0000 0.0000
# 3 2.2951 5.1088 29.4739 0.0000 0.0000 0.0000
# 4 0.0000 0.0000 0.0000 8.7523 0.0000 0.0000
# 5 0.0000 0.0000 0.0000 0.0000 17.4897 0.0000
# 6 0.0000 0.0000 0.0000 0.0000 0.0000 32.5108
#
#
#
# Elastic Compliance Matrix: (Units=1/GPa)
#
#
# Indices 1 2 3 4 5 6 
#
# 1 0.012036 -0.002922 -0.000431 0.000000 0.000000 0.000000
# 2 -0.002922 0.010016 -0.001509 0.000000 0.000000 0.000000
# 3 -0.000431 -0.001509 0.034223 0.000000 0.000000 0.000000
# 4 0.000000 0.000000 0.000000 0.114256 0.000000 0.000000
# 5 0.000000 0.000000 0.000000 0.000000 0.057176 0.000000
# 6 0.000000 0.000000 0.000000 0.000000 0.000000 0.030759
#
#
# Mechanical properties :
#
#
# Convention : Reuss Voigt Hill
#
# Bulk Modulus (GPa) = 21.48094 32.79747 27.13921
# Shear Modulus (GPa) = 17.62372 24.65133 21.13753
#
# Velocity S-wave (km/s) = 2.93295 3.46878 3.21206
# Velocity P-wave (km/s) = 4.68557 5.66143 5.19646
#
# Compressibility (1/GPa) = 0.04655289
#
# Stress axis : x y z
#
# Youngs Moduli (GPa) = 83.08145 99.83616 29.21977
#
# Poissons Ratio (x) = 0.29175 0.01259
# Poissons Ratio (y) = 0.24279 0.04408
# Poissons Ratio (z) = 0.03579 0.15062
#
# Static dielectric constant tensor:
#      x y z
#    x 1.897220 0.000000 0.000000 
#    y 0.000000 1.795220 0.000000 
#    z 0.000000 0.000000 1.778490 
# 
# From -- ./inp_files/5624.got.cif
#   From: 2010.05.17/outbox.cif.g08.bks.cpg/sg18_3_cif.got.tgz:5624.got - 2010.06.03 22:40:56.
