data_PCOD9311174
_publ_section_title
;
Structure prediction by ZEFSAII (Michael W. Deem and Ramdas Pophale) SiO2 
 PCOD9311174
Probable space group: P 2 2 21
;
_chemical_formula_sum "Si O2"
_cell_formula_units_Z 18
_cell_length_a 7.229431
_cell_length_b 9.944651
_cell_length_c 11.249061
_cell_angle_alpha 90.000000
_cell_angle_beta 90.000000
_cell_angle_gamma 90.000000
_cell_volume 808.741884
_symmetry_space_group_name_H-M "P 2 2 21"
_symmetry_group_IT_number 17
_symmetry_cell_setting 'orthorhombic'
loop_
_space_group_symop_operation_xyz
x,y,z
-x,-y,1/2+z
x,-y,-z
-x,y,1/2-z
loop_
_atom_site_type_symbol
_atom_site_label
_atom_site_fract_x
_atom_site_fract_y
_atom_site_fract_z
Si Si1 0.860485 0.700123 0.092346
Si Si2 0.159231 0.588950 0.660993
Si Si3 0.216159 0.137191 0.927812
Si Si4 0.500000 0.018070 0.750000
Si Si5 0.447092 0.217091 0.430484
O O1 0.815463 0.571683 0.173905
O O2 0.033012 0.792473 0.118459
O O3 0.918637 0.630268 0.967435
O O4 0.680071 0.780680 0.048977
O O5 0.356662 0.665249 0.650787
O O6 0.000000 0.635763 0.750000
O O7 0.340371 0.101144 0.814006
O O8 0.344477 0.223181 0.019652
O O9 0.172529 0.000000 0.000000
O O10 0.572430 0.917516 0.853588
#
# Coordination Sequence:
#
# PCOD9311174 Si02
#       5
#     4   4   4   2   4
#     4   9  21  42  60  90 125 160 204 264 307 362
#     4   9  20  40  63  88 118 159 208 248 312 367
#     4  10  22  39  62  90 126 165 202 258 310 369
#     4  10  22  38  62  96 124 168 212 244 320 382
#     4   9  21  41  59  88 124 159 206 256 305 371
#
# _framework density 22.256792000000001
#
# number of rings (size 3 to 8) (size 9 to 14) (size 15 to 20)
#    1.333    1.333    0.000    0.000    6.222    4.444 
#    8.000    4.444    0.000    0.000    0.000    0.000 
#    0.000    0.000    0.000    0.000    0.000    0.000 
#
# Total GULP energy -100219.502854 kJ/mol
# GULP energy per Si atom -5567.750159 kJ/mol
# Density = 2.220613 g / cm^3
# Si number density = 22.256792 Si / 1000 Ang^3
#
#
#
# Elastic Constant Matrix: (Units=GPa)
#
#
# Indices 1 2 3 4 5 6 
#
# 1 118.7610 67.4348 6.1689 0.0000 0.0000 0.0000
# 2 67.4348 81.1569 3.2080 0.0000 0.0000 0.0000
# 3 6.1689 3.2080 45.6590 0.0000 0.0000 0.0000
# 4 0.0000 0.0000 0.0000 23.5914 0.0000 0.0000
# 5 0.0000 0.0000 0.0000 0.0000 26.3756 0.0000
# 6 0.0000 0.0000 0.0000 0.0000 0.0000 -119.0645
#
#
#
# Elastic Compliance Matrix: (Units=1/GPa)
#
#
# Indices 1 2 3 4 5 6 
#
# 1 0.016011 -0.013255 -0.001232 0.000000 0.000000 0.000000
# 2 -0.013255 0.023329 0.000152 0.000000 0.000000 0.000000
# 3 -0.001232 0.000152 0.022057 0.000000 0.000000 0.000000
# 4 0.000000 0.000000 0.000000 0.042388 0.000000 0.000000
# 5 0.000000 0.000000 0.000000 0.000000 0.037914 0.000000
# 6 0.000000 0.000000 0.000000 0.000000 0.000000 -0.008399
#
#
# Mechanical properties :
#
#
# Convention : Reuss Voigt Hill
#
# Bulk Modulus (GPa) = 30.55545 44.35559 37.45552
# Shear Modulus (GPa) = 28.92184 -2.56848 13.17668
#
# Velocity S-wave (km/s) = 3.60872 -1.07542 2.43581
# Velocity P-wave (km/s) = 5.57872 4.29305 4.97757
#
# Compressibility (1/GPa) = 0.03272739
#
# Stress axis : x y z
#
# Youngs Moduli (GPa) = 62.45871 42.86429 45.33650
#
# Poissons Ratio (x) = 0.56816 0.05585
# Poissons Ratio (y) = 0.82788 -0.00688
# Poissons Ratio (z) = 0.07694 -0.00650
#
# Static dielectric constant tensor:
#      x y z
#    x 1.796980 0.000000 0.000000 
#    y 0.000000 1.870960 0.000000 
#    z 0.000000 0.000000 2.389050 
# 
# From -- ./inp_files/6486.got.cif
#   From: 2010.05.17/outbox.cif.g08.bks.cpg/sg17_4_cif.got.tgz:6486.got - 2010.06.03 22:34:06.
