data_PCOD9311545
_publ_section_title
;
Structure prediction by ZEFSAII (Michael W. Deem and Ramdas Pophale) SiO2 
 PCOD9311545
Probable space group: P 2 2 21
;
_chemical_formula_sum "Si O2"
_cell_formula_units_Z 14
_cell_length_a 5.949173
_cell_length_b 12.288719
_cell_length_c 7.623888
_cell_angle_alpha 90.000000
_cell_angle_beta 90.000000
_cell_angle_gamma 90.000000
_cell_volume 557.365033
_symmetry_space_group_name_H-M "P 2 2 21"
_symmetry_group_IT_number 17
_symmetry_cell_setting 'orthorhombic'
loop_
_space_group_symop_operation_xyz
x,y,z
-x,-y,1/2+z
x,-y,-z
-x,y,1/2-z
loop_
_atom_site_type_symbol
_atom_site_label
_atom_site_fract_x
_atom_site_fract_y
_atom_site_fract_z
Si Si1 0.000000 0.458280 0.750000
Si Si2 0.291453 0.692883 0.038547
Si Si3 0.000000 0.163553 0.750000
Si Si4 0.637479 0.500000 0.000000
Si Si5 0.212875 0.000000 0.500000
Si Si6 0.500000 0.844454 0.750000
O O1 0.923724 0.385855 0.580534
O O2 0.784303 0.519368 0.823771
O O3 0.229480 0.772383 0.200938
O O4 0.494226 0.607515 0.039585
O O5 0.337763 0.767510 0.869260
O O6 0.945263 0.087092 0.909377
O O7 0.362243 0.926054 0.626887
#
# Coordination Sequence:
#
# PCOD9311545 Si02
#       6
#     2   4   2   2   2   2
#     4  11  28  48  77 116 172 209 262 320 401 468
#     4  11  28  49  76 120 162 211 262 326 401 482
#     4  11  26  52  81 118 160 213 272 330 403 474
#     4  12  28  50  80 118 172 208 262 332 390 498
#     4  12  26  52  80 116 158 206 278 338 394 470
#     4  12  28  46  84 114 162 210 266 336 410 456
#
# _framework density 25.118189000000001
#
# number of rings (size 3 to 8) (size 9 to 14) (size 15 to 20)
#    0.000    0.571    0.000    5.143   20.000    0.000 
#    0.000    0.000    0.000    0.000    0.000    0.000 
#    0.000    0.000    0.000    0.000    0.000    0.000 
#
# Total GULP energy -78201.588699 kJ/mol
# GULP energy per Si atom -5585.827764 kJ/mol
# Density = 2.506102 g / cm^3
# Si number density = 25.118189 Si / 1000 Ang^3
#
#
#
# Elastic Constant Matrix: (Units=GPa)
#
#
# Indices 1 2 3 4 5 6 
#
# 1 124.9595 72.0794 66.0979 0.0000 0.0000 0.0000
# 2 72.0794 147.6411 62.1426 0.0000 0.0000 0.0000
# 3 66.0979 62.1426 99.6732 0.0000 0.0000 0.0000
# 4 0.0000 0.0000 0.0000 58.2116 0.0000 0.0000
# 5 0.0000 0.0000 0.0000 0.0000 77.0899 0.0000
# 6 0.0000 0.0000 0.0000 0.0000 0.0000 25.2378
#
#
#
# Elastic Compliance Matrix: (Units=1/GPa)
#
#
# Indices 1 2 3 4 5 6 
#
# 1 0.013817 -0.003917 -0.006721 0.000000 0.000000 0.000000
# 2 -0.003917 0.010293 -0.003820 0.000000 0.000000 0.000000
# 3 -0.006721 -0.003820 0.016871 0.000000 0.000000 0.000000
# 4 0.000000 0.000000 0.000000 0.017179 0.000000 0.000000
# 5 0.000000 0.000000 0.000000 0.000000 0.012972 0.000000
# 6 0.000000 0.000000 0.000000 0.000000 0.000000 0.039623
#
#
# Mechanical properties :
#
#
# Convention : Reuss Voigt Hill
#
# Bulk Modulus (GPa) = 82.87489 85.87927 84.37708
# Shear Modulus (GPa) = 34.79672 43.57146 39.18409
#
# Velocity S-wave (km/s) = 3.72603 4.16944 3.95395
# Velocity P-wave (km/s) = 7.18169 7.57913 7.38309
#
# Compressibility (1/GPa) = 0.01206638
#
# Stress axis : x y z
#
# Youngs Moduli (GPa) = 72.37618 97.15114 59.27260
#
# Poissons Ratio (x) = 0.38051 0.39835
# Poissons Ratio (y) = 0.28348 0.22643
# Poissons Ratio (z) = 0.48641 0.37113
#
# Static dielectric constant tensor:
#      x y z
#    x 1.979550 0.000000 0.000000 
#    y 0.000000 2.023300 0.000000 
#    z 0.000000 0.000000 2.015010 
# 
# From -- ./inp_files/3371.got.cif
#   From: 2010.05.17/outbox.cif.g08.bks.cpg/sg17_2_cif.got.tgz:3371.got - 2010.06.03 22:34:06.
