data_PCOD9311468
_publ_section_title
;
Structure prediction by ZEFSAII (Michael W. Deem and Ramdas Pophale) SiO2 
 PCOD9311468
Probable space group: P 2 2 21
;
_chemical_formula_sum "Si O2"
_cell_formula_units_Z 26
_cell_length_a 8.589312
_cell_length_b 5.378707
_cell_length_c 25.447996
_cell_angle_alpha 90.000000
_cell_angle_beta 90.000000
_cell_angle_gamma 90.000000
_cell_volume 1175.681958
_symmetry_space_group_name_H-M "P 2 2 21"
_symmetry_group_IT_number 17
_symmetry_cell_setting 'orthorhombic'
loop_
_space_group_symop_operation_xyz
x,y,z
-x,-y,1/2+z
x,-y,-z
-x,y,1/2-z
loop_
_atom_site_type_symbol
_atom_site_label
_atom_site_fract_x
_atom_site_fract_y
_atom_site_fract_z
Si Si1 0.808989 0.406545 0.156053
Si Si2 0.130016 0.120135 0.139329
Si Si3 0.700882 0.348465 0.451699
Si Si4 0.438521 0.000000 0.500000
Si Si5 0.337390 0.718789 0.144239
Si Si6 0.336944 0.347554 0.231525
Si Si7 0.658996 0.087172 0.888688
O O1 0.766772 0.396926 0.217642
O O2 0.758741 0.680844 0.135102
O O3 0.980592 0.290547 0.148073
O O4 0.711449 0.187373 0.127962
O O5 0.185427 0.165159 0.079459
O O6 0.245083 0.199614 0.186809
O O7 0.160685 0.824745 0.144460
O O8 0.773747 0.500000 0.500000
O O9 0.553647 0.207584 0.476071
O O10 0.652590 0.527506 0.404089
O O11 0.340254 0.105041 0.548296
O O12 0.375413 0.598695 0.199989
O O13 0.480145 0.897423 0.130361
O O14 0.500000 0.231488 0.250000
#
# Coordination Sequence:
#
# PCOD9311468 Si02
#       7
#     4   4   4   2   4   4   4
#     4  12  29  49  72 110 162 197 249 314 394 457
#     4  11  26  46  69 109 150 206 244 319 391 464
#     4  11  21  41  75 103 145 189 258 314 380 440
#     4  12  24  44  78 110 148 196 260 332 378 442
#     4  11  23  42  77 108 143 194 264 307 376 457
#     4  11  24  44  75 107 145 199 254 315 369 456
#     4  12  26  48  75 110 149 198 256 319 373 461
#
# _framework density 22.114826000000001
#
# number of rings (size 3 to 8) (size 9 to 14) (size 15 to 20)
#    0.000    0.615    4.615    2.308    6.462    0.615 
#    2.769    0.000    0.000    0.000    0.000    0.000 
#    0.000    0.000    0.000    0.000    0.000    0.000 
#
# Total GULP energy -145057.915166 kJ/mol
# GULP energy per Si atom -5579.150583 kJ/mol
# Density = 2.206449 g / cm^3
# Si number density = 22.114826 Si / 1000 Ang^3
#
#
#
# Elastic Constant Matrix: (Units=GPa)
#
#
# Indices 1 2 3 4 5 6 
#
# 1 41.3701 10.6221 19.9390 0.0000 0.0000 0.0000
# 2 10.6221 51.2056 35.5210 0.0000 0.0000 0.0000
# 3 19.9390 35.5210 168.1679 0.0000 0.0000 0.0000
# 4 0.0000 0.0000 0.0000 24.9612 0.0000 0.0000
# 5 0.0000 0.0000 0.0000 0.0000 17.4016 0.0000
# 6 0.0000 0.0000 0.0000 0.0000 0.0000 29.8021
#
#
#
# Elastic Compliance Matrix: (Units=1/GPa)
#
#
# Indices 1 2 3 4 5 6 
#
# 1 0.026270 -0.003853 -0.002301 0.000000 0.000000 0.000000
# 2 -0.003853 0.023447 -0.004496 0.000000 0.000000 0.000000
# 3 -0.002301 -0.004496 0.007169 0.000000 0.000000 0.000000
# 4 0.000000 0.000000 0.000000 0.040062 0.000000 0.000000
# 5 0.000000 0.000000 0.000000 0.000000 0.057466 0.000000
# 6 0.000000 0.000000 0.000000 0.000000 0.000000 0.033555
#
#
# Mechanical properties :
#
#
# Convention : Reuss Voigt Hill
#
# Bulk Modulus (GPa) = 28.10065 43.65642 35.87853
# Shear Modulus (GPa) = 22.61099 27.41041 25.01070
#
# Velocity S-wave (km/s) = 3.20102 3.52441 3.36660
# Velocity P-wave (km/s) = 5.13774 6.02873 5.60098
#
# Compressibility (1/GPa) = 0.03558637
#
# Stress axis : x y z
#
# Youngs Moduli (GPa) = 38.06575 42.64916 139.49266
#
# Poissons Ratio (x) = 0.16435 0.32095
# Poissons Ratio (y) = 0.14668 0.62712
# Poissons Ratio (z) = 0.08758 0.19174
#
# Static dielectric constant tensor:
#      x y z
#    x 1.886250 0.000000 0.000000 
#    y 0.000000 1.993990 0.000000 
#    z 0.000000 0.000000 1.758280 
# 
# From -- ./inp_files/10574.got.cif
#   From: 2010.05.17/outbox.cif.g08.bks.cpg/sg17_6_cif.got.tgz:10574.got - 2010.06.03 22:34:06.
