data_PCOD9311366
_publ_section_title
;
Structure prediction by ZEFSAII (Michael W. Deem and Ramdas Pophale) SiO2 
 PCOD9311366
Probable space group: P 2 2 21
;
_chemical_formula_sum "Si O2"
_cell_formula_units_Z 20
_cell_length_a 8.076163
_cell_length_b 6.663834
_cell_length_c 15.794048
_cell_angle_alpha 90.000000
_cell_angle_beta 90.000000
_cell_angle_gamma 90.000000
_cell_volume 850.007386
_symmetry_space_group_name_H-M "P 2 2 21"
_symmetry_group_IT_number 17
_symmetry_cell_setting 'orthorhombic'
loop_
_space_group_symop_operation_xyz
x,y,z
-x,-y,1/2+z
x,-y,-z
-x,y,1/2-z
loop_
_atom_site_type_symbol
_atom_site_label
_atom_site_fract_x
_atom_site_fract_y
_atom_site_fract_z
Si Si1 0.500000 0.377465 0.250000
Si Si2 0.666196 0.352747 0.622136
Si Si3 0.989672 0.443500 0.094009
Si Si4 0.280798 0.141791 0.368019
Si Si5 0.157195 0.217033 0.711904
Si Si6 0.534548 0.000000 0.500000
O O1 0.476578 0.510131 0.164495
O O2 0.348692 0.236918 0.280167
O O3 0.731073 0.253802 0.708099
O O4 0.631476 0.170297 0.556574
O O5 0.813815 0.507986 0.595965
O O6 0.897621 0.234620 0.110117
O O7 0.914165 0.588350 0.165784
O O8 0.933699 0.500000 0.000000
O O9 0.420437 0.140844 0.439996
O O10 0.254560 0.907222 0.355804
O O11 0.000000 0.100107 0.750000
#
# Coordination Sequence:
#
# PCOD9311366 Si02
#       6
#     2   4   4   4   4   2
#     4  12  26  42  80 102 148 198 260 304 392 450
#     4  11  26  49  73 109 152 198 252 318 378 468
#     4  11  26  45  74 106 150 196 256 312 368 456
#     4  12  26  44  77 106 146 203 246 313 381 454
#     4  10  23  46  73 103 146 194 256 305 375 458
#     4  12  28  46  78 114 160 192 256 324 396 440
#
# _framework density 23.529207
#
# number of rings (size 3 to 8) (size 9 to 14) (size 15 to 20)
#    0.000    0.800    2.000    3.600    8.400    3.200 
#    0.000    0.000    0.000    0.000    0.000    0.000 
#    0.000    0.000    0.000    0.000    0.000    0.000 
#
# Total GULP energy -111496.210310 kJ/mol
# GULP energy per Si atom -5574.810516 kJ/mol
# Density = 2.347565 g / cm^3
# Si number density = 23.529207 Si / 1000 Ang^3
#
#
#
# Elastic Constant Matrix: (Units=GPa)
#
#
# Indices 1 2 3 4 5 6 
#
# 1 66.0113 32.2151 19.6582 0.0000 0.0000 0.0000
# 2 32.2151 57.7839 29.5693 0.0000 0.0000 0.0000
# 3 19.6582 29.5693 119.8395 0.0000 0.0000 0.0000
# 4 0.0000 0.0000 0.0000 44.0984 0.0000 0.0000
# 5 0.0000 0.0000 0.0000 0.0000 41.0343 0.0000
# 6 0.0000 0.0000 0.0000 0.0000 0.0000 44.7990
#
#
#
# Elastic Compliance Matrix: (Units=1/GPa)
#
#
# Indices 1 2 3 4 5 6 
#
# 1 0.020853 -0.011302 -0.000632 0.000000 0.000000 0.000000
# 2 -0.011302 0.025933 -0.004545 0.000000 0.000000 0.000000
# 3 -0.000632 -0.004545 0.009569 0.000000 0.000000 0.000000
# 4 0.000000 0.000000 0.000000 0.022677 0.000000 0.000000
# 5 0.000000 0.000000 0.000000 0.000000 0.024370 0.000000
# 6 0.000000 0.000000 0.000000 0.000000 0.000000 0.022322
#
#
# Mechanical properties :
#
#
# Convention : Reuss Voigt Hill
#
# Bulk Modulus (GPa) = 42.74005 45.16889 43.95447
# Shear Modulus (GPa) = 30.03360 36.79915 33.41637
#
# Velocity S-wave (km/s) = 3.57660 3.95901 3.77265
# Velocity P-wave (km/s) = 5.93803 6.33537 6.13992
#
# Compressibility (1/GPa) = 0.02339726
#
# Stress axis : x y z
#
# Youngs Moduli (GPa) = 47.95487 38.56151 104.49869
#
# Poissons Ratio (x) = 0.43584 0.06603
# Poissons Ratio (y) = 0.54200 0.47491
# Poissons Ratio (z) = 0.03030 0.17525
#
# Static dielectric constant tensor:
#      x y z
#    x 2.088610 0.000000 0.000000 
#    y 0.000000 1.940010 0.000000 
#    z 0.000000 0.000000 1.848570 
# 
# From -- ./inp_files/9271.got.cif
#   From: 2010.05.17/outbox.cif.g08.bks.cpg/sg17_5_cif.got.tgz:9271.got - 2010.06.03 22:34:06.
