data_PCOD9311917
_publ_section_title
;
Structure prediction by ZEFSAII (Michael W. Deem and Ramdas Pophale) SiO2 
 PCOD9311917
Probable space group: P 21 21 2
;
_chemical_formula_sum "Si O2"
_cell_formula_units_Z 24
_cell_length_a 15.273618
_cell_length_b 7.794534
_cell_length_c 9.001417
_cell_angle_alpha 90.000000
_cell_angle_beta 90.000000
_cell_angle_gamma 90.000000
_cell_volume 1071.625308
_symmetry_space_group_name_H-M "P 21 21 2"
_symmetry_group_IT_number 18
_symmetry_cell_setting 'orthorhombic'
loop_
_space_group_symop_operation_xyz
x,y,z
-x,-y,z
1/2+x,1/2-y,-z
1/2-x,1/2+y,-z
loop_
_atom_site_type_symbol
_atom_site_label
_atom_site_fract_x
_atom_site_fract_y
_atom_site_fract_z
Si Si1 0.184888 0.116890 0.047903
Si Si2 0.559347 0.768610 0.637321
Si Si3 0.313399 0.966104 0.293280
Si Si4 0.804103 0.517011 0.201594
Si Si5 0.220236 0.801623 0.520471
Si Si6 0.000000 0.000000 0.132868
Si Si7 0.500000 0.000000 0.373280
O O1 0.246608 0.014753 0.164901
O O2 0.173351 0.312748 0.104053
O O3 0.090219 0.024551 0.042202
O O4 0.241776 0.102959 0.898479
O O5 0.632493 0.643082 0.565383
O O6 0.505441 0.663169 0.757101
O O7 0.510169 0.845866 0.493944
O O8 0.613336 0.915398 0.728457
O O9 0.298165 0.115038 0.415454
O O10 0.291371 0.800289 0.390262
O O11 0.416348 0.975706 0.267894
O O12 0.749460 0.592203 0.338509
#
# Coordination Sequence:
#
# PCOD9311917 Si02
#       7
#     4   4   4   4   4   2   2
#     4  11  25  42  67  95 138 180 218 277 338 412
#     4  11  22  39  68  98 130 176 222 282 331 394
#     4  10  21  37  62  94 127 173 217 277 327 392
#     4  11  23  45  69  93 133 181 224 272 345 394
#     4  10  19  38  66  93 126 172 221 268 329 387
#     4  12  24  40  64 102 136 174 230 266 340 412
#     4  10  20  38  64  96 134 170 232 276 326 398
#
# _framework density 22.395887999999999
#
# number of rings (size 3 to 8) (size 9 to 14) (size 15 to 20)
#    0.000    1.333    5.000    2.000    2.333    0.000 
#    0.000    8.333    0.000    0.000    0.000    0.000 
#    0.000    0.000    0.000    0.000    0.000    0.000 
#
# Total GULP energy -133955.641222 kJ/mol
# GULP energy per Si atom -5581.485051 kJ/mol
# Density = 2.234491 g / cm^3
# Si number density = 22.395888 Si / 1000 Ang^3
#
#
#
# Elastic Constant Matrix: (Units=GPa)
#
#
# Indices 1 2 3 4 5 6 
#
# 1 112.7185 15.7238 13.3364 0.0000 0.0000 0.0000
# 2 15.7238 68.9390 11.7848 0.0000 0.0000 0.0000
# 3 13.3364 11.7848 71.3097 0.0000 0.0000 0.0000
# 4 0.0000 0.0000 0.0000 24.1124 0.0000 0.0000
# 5 0.0000 0.0000 0.0000 0.0000 18.1258 0.0000
# 6 0.0000 0.0000 0.0000 0.0000 0.0000 33.3432
#
#
#
# Elastic Compliance Matrix: (Units=1/GPa)
#
#
# Indices 1 2 3 4 5 6 
#
# 1 0.009303 -0.001877 -0.001430 0.000000 0.000000 0.000000
# 2 -0.001877 0.015306 -0.002178 0.000000 0.000000 0.000000
# 3 -0.001430 -0.002178 0.014651 0.000000 0.000000 0.000000
# 4 0.000000 0.000000 0.000000 0.041473 0.000000 0.000000
# 5 0.000000 0.000000 0.000000 0.000000 0.055170 0.000000
# 6 0.000000 0.000000 0.000000 0.000000 0.000000 0.029991
#
#
# Mechanical properties :
#
#
# Convention : Reuss Voigt Hill
#
# Bulk Modulus (GPa) = 35.34960 37.18410 36.26685
# Shear Modulus (GPa) = 26.83937 29.25775 28.04856
#
# Velocity S-wave (km/s) = 3.46556 3.61832 3.54276
# Velocity P-wave (km/s) = 5.64196 5.83913 5.74139
#
# Compressibility (1/GPa) = 0.02828887
#
# Stress axis : x y z
#
# Youngs Moduli (GPa) = 107.49584 65.33312 68.25613
#
# Poissons Ratio (x) = 0.12266 0.09757
# Poissons Ratio (y) = 0.20181 0.14869
# Poissons Ratio (z) = 0.15367 0.14232
#
# Static dielectric constant tensor:
#      x y z
#    x 1.909900 0.000000 0.000000 
#    y 0.000000 1.935200 0.000000 
#    z 0.000000 0.000000 1.810610 
# 
# From -- ./inp_files/4192.got.cif
#   From: 2010.05.17/outbox.cif.g08.bks.cpg/sg18_3_cif.got.tgz:4192.got - 2010.06.03 22:40:56.
