data_PCOD9311125
_publ_section_title
;
Structure prediction by ZEFSAII (Michael W. Deem and Ramdas Pophale) SiO2 
 PCOD9311125
Probable space group: P 2 2 21
;
_chemical_formula_sum "Si O2"
_cell_formula_units_Z 20
_cell_length_a 11.430597
_cell_length_b 5.291233
_cell_length_c 16.559318
_cell_angle_alpha 90.000000
_cell_angle_beta 90.000000
_cell_angle_gamma 90.000000
_cell_volume 1001.539877
_symmetry_space_group_name_H-M "P 2 2 21"
_symmetry_group_IT_number 17
_symmetry_cell_setting 'orthorhombic'
loop_
_space_group_symop_operation_xyz
x,y,z
-x,-y,1/2+z
x,-y,-z
-x,y,1/2-z
loop_
_atom_site_type_symbol
_atom_site_label
_atom_site_fract_x
_atom_site_fract_y
_atom_site_fract_z
Si Si1 0.133094 0.000000 0.000000
Si Si2 0.905513 0.246044 0.047707
Si Si3 0.700575 0.841472 0.848641
Si Si4 0.329239 0.695802 0.071850
Si Si5 0.634570 0.658617 0.245082
Si Si6 0.455528 0.000000 0.500000
O O1 0.044847 0.198252 0.042914
O O2 0.221608 0.888973 0.065219
O O3 0.834136 0.234342 0.129919
O O4 0.877457 0.500000 0.000000
O O5 0.860517 0.000000 0.000000
O O6 0.646805 0.602571 0.802654
O O7 0.696786 0.104404 0.799092
O O8 0.625121 0.873934 0.931281
O O9 0.329236 0.602454 0.162906
O O10 0.306847 0.500000 0.000000
O O11 0.454501 0.818105 0.048399
O O12 0.500000 0.739440 0.250000
#
# Coordination Sequence:
#
# PCOD9311125 Si02
#       6
#     2   4   4   4   4   2
#     4   9  23  42  76  90 133 179 242 282 332 405
#     4  10  21  42  71  96 129 173 233 284 328 397
#     4  12  25  42  70 103 139 182 219 287 341 405
#     4  11  24  43  70  98 134 190 230 275 343 423
#     4  12  26  43  65 105 150 170 224 285 345 404
#     4  11  23  40  68 100 135 187 230 258 346 423
#
# _framework density 19.969248
#
# number of rings (size 3 to 8) (size 9 to 14) (size 15 to 20)
#    0.600    0.400    3.000    3.600    5.600    0.000 
#    0.000    1.000    0.000    0.000    0.000    0.000 
#    0.000    0.000    0.000    0.000    0.000    0.000 
#
# Total GULP energy -111517.400362 kJ/mol
# GULP energy per Si atom -5575.870018 kJ/mol
# Density = 1.992380 g / cm^3
# Si number density = 19.969248 Si / 1000 Ang^3
#
#
#
# Elastic Constant Matrix: (Units=GPa)
#
#
# Indices 1 2 3 4 5 6 
#
# 1 86.5055 14.5715 39.6604 0.0000 0.0000 0.0000
# 2 14.5715 119.1392 57.8384 0.0000 0.0000 0.0000
# 3 39.6604 57.8384 143.9892 0.0000 0.0000 0.0000
# 4 0.0000 0.0000 0.0000 47.2733 0.0000 0.0000
# 5 0.0000 0.0000 0.0000 0.0000 1.0601 0.0000
# 6 0.0000 0.0000 0.0000 0.0000 0.0000 661.5941
#
#
#
# Elastic Compliance Matrix: (Units=1/GPa)
#
#
# Indices 1 2 3 4 5 6 
#
# 1 0.013234 0.000188 -0.003721 0.000000 0.000000 0.000000
# 2 0.000188 0.010429 -0.004241 0.000000 0.000000 0.000000
# 3 -0.003721 -0.004241 0.009673 0.000000 0.000000 0.000000
# 4 0.000000 0.000000 0.000000 0.021154 0.000000 0.000000
# 5 0.000000 0.000000 0.000000 0.000000 0.943344 0.000000
# 6 0.000000 0.000000 0.000000 0.000000 0.000000 0.001512
#
#
# Mechanical properties :
#
#
# Convention : Reuss Voigt Hill
#
# Bulk Modulus (GPa) = 56.21473 63.75270 59.98372
# Shear Modulus (GPa) = 4.89800 157.82306 81.36053
#
# Velocity S-wave (km/s) = 1.56783 8.89970 6.38994
# Velocity P-wave (km/s) = 5.61153 11.73034 9.19484
#
# Compressibility (1/GPa) = 0.01778893
#
# Stress axis : x y z
#
# Youngs Moduli (GPa) = 75.56214 95.88194 103.37707
#
# Poissons Ratio (x) = -0.01799 0.38462
# Poissons Ratio (y) = -0.01418 0.43843
# Poissons Ratio (z) = 0.28113 0.40664
#
# Static dielectric constant tensor:
#      x y z
#    x 1.714890 0.000000 0.000000 
#    y 0.000000 1.733520 0.000000 
#    z 0.000000 0.000000 1.616300 
# 
# From -- ./inp_files/8405.got.cif
#   From: 2010.05.17/outbox.cif.g08.bks.cpg/sg17_5_cif.got.tgz:8405.got - 2010.06.03 22:34:06.
