data_PCOD9311716
_publ_section_title
;
Structure prediction by ZEFSAII (Michael W. Deem and Ramdas Pophale) SiO2 
 PCOD9311716
Probable space group: P 21 21 2
;
_chemical_formula_sum "Si O2"
_cell_formula_units_Z 30
_cell_length_a 19.205511
_cell_length_b 8.110113
_cell_length_c 9.785507
_cell_angle_alpha 90.000000
_cell_angle_beta 90.000000
_cell_angle_gamma 90.000000
_cell_volume 1524.179458
_symmetry_space_group_name_H-M "P 21 21 2"
_symmetry_group_IT_number 18
_symmetry_cell_setting 'orthorhombic'
loop_
_space_group_symop_operation_xyz
x,y,z
-x,-y,z
1/2+x,1/2-y,-z
1/2-x,1/2+y,-z
loop_
_atom_site_type_symbol
_atom_site_label
_atom_site_fract_x
_atom_site_fract_y
_atom_site_fract_z
Si Si1 0.731843 0.370824 0.103508
Si Si2 0.930729 0.404229 0.762508
Si Si3 0.377352 0.433477 0.269592
Si Si4 0.748139 0.259254 0.581201
Si Si5 0.725953 0.996831 0.182818
Si Si6 0.544177 0.846419 0.560669
Si Si7 0.185756 0.554756 0.343062
Si Si8 0.500000 0.500000 0.469895
O O1 0.660047 0.445881 0.162846
O O2 0.789864 0.470267 0.189201
O O3 0.742650 0.184075 0.149478
O O4 0.745801 0.391847 0.944751
O O5 0.920325 0.213162 0.804453
O O6 0.857879 0.487168 0.802162
O O7 0.936425 0.390675 0.597183
O O8 0.000000 0.500000 0.809376
O O9 0.315726 0.341417 0.357845
O O10 0.431649 0.516216 0.373498
O O11 0.741578 0.415014 0.681988
O O12 0.761181 0.333790 0.432458
O O13 0.686700 0.125886 0.587409
O O14 0.614480 0.849354 0.645292
O O15 0.509181 0.667952 0.554337
O O16 0.500000 0.000000 0.612243
#
# Coordination Sequence:
#
# PCOD9311716 Si02
#       8
#     4   4   4   4   4   4   4   2
#     4  11  24  35  63  81 128 152 204 250 312 360
#     4   9  18  34  57  84 118 148 200 248 292 355
#     4   9  19  33  53  90 115 152 195 249 303 353
#     4  10  20  35  58  83 125 145 205 242 306 362
#     4  11  21  41  56  89 113 166 197 255 302 369
#     4  10  21  35  57  88 121 157 200 253 304 360
#     4  11  20  37  54  92 115 158 190 254 297 366
#     4  10  18  34  58  84 128 150 204 250 296 360
#
# _framework density 19.682721999999998
#
# number of rings (size 3 to 8) (size 9 to 14) (size 15 to 20)
#    0.000    1.867    4.000    3.200    5.600    1.067 
#    2.400    0.667    0.000    0.000    0.000    0.000 
#    0.000    0.000    0.000    0.000    0.000    0.000 
#
# Total GULP energy -167302.675387 kJ/mol
# GULP energy per Si atom -5576.755846 kJ/mol
# Density = 1.963792 g / cm^3
# Si number density = 19.682722 Si / 1000 Ang^3
#
#
#
# Elastic Constant Matrix: (Units=GPa)
#
#
# Indices 1 2 3 4 5 6 
#
# 1 39.8397 25.6579 -3.3214 0.0000 0.0000 0.0000
# 2 25.6579 91.0233 2.1293 0.0000 0.0000 0.0000
# 3 -3.3214 2.1293 46.8678 0.0000 0.0000 0.0000
# 4 0.0000 0.0000 0.0000 23.6171 0.0000 0.0000
# 5 0.0000 0.0000 0.0000 0.0000 12.2126 0.0000
# 6 0.0000 0.0000 0.0000 0.0000 0.0000 40.1708
#
#
#
# Elastic Compliance Matrix: (Units=1/GPa)
#
#
# Indices 1 2 3 4 5 6 
#
# 1 0.030980 -0.008793 0.002595 0.000000 0.000000 0.000000
# 2 -0.008793 0.013494 -0.001236 0.000000 0.000000 0.000000
# 3 0.002595 -0.001236 0.021577 0.000000 0.000000 0.000000
# 4 0.000000 0.000000 0.000000 0.042342 0.000000 0.000000
# 5 0.000000 0.000000 0.000000 0.000000 0.081883 0.000000
# 6 0.000000 0.000000 0.000000 0.000000 0.000000 0.024894
#
#
# Mechanical properties :
#
#
# Convention : Reuss Voigt Hill
#
# Bulk Modulus (GPa) = 19.53840 25.18472 22.36156
# Shear Modulus (GPa) = 20.23481 25.41777 22.82629
#
# Velocity S-wave (km/s) = 3.20980 3.59747 3.40915
# Velocity P-wave (km/s) = 4.86676 5.48442 5.18479
#
# Compressibility (1/GPa) = 0.05118127
#
# Stress axis : x y z
#
# Youngs Moduli (GPa) = 32.27873 74.10790 46.34631
#
# Poissons Ratio (x) = 0.65167 -0.12027
# Poissons Ratio (y) = 0.28384 0.05730
# Poissons Ratio (z) = -0.08376 0.09161
#
# Static dielectric constant tensor:
#      x y z
#    x 1.748240 0.000000 0.000000 
#    y 0.000000 1.749940 0.000000 
#    z 0.000000 0.000000 1.667510 
# 
# From -- ./inp_files/4700.got.cif
#   From: 2010.05.17/outbox.cif.g08.bks.cpg/sg18_3_cif.got.tgz:4700.got - 2010.06.03 22:40:56.
