data_PCOD9311063
_publ_section_title
;
Structure prediction by ZEFSAII (Michael W. Deem and Ramdas Pophale) SiO2 
 PCOD9311063
Probable space group: P 2 2 21
;
_chemical_formula_sum "Si O2"
_cell_formula_units_Z 24
_cell_length_a 5.279074
_cell_length_b 4.927024
_cell_length_c 30.992223
_cell_angle_alpha 90.000000
_cell_angle_beta 90.000000
_cell_angle_gamma 90.000000
_cell_volume 806.111572
_symmetry_space_group_name_H-M "P 2 2 21"
_symmetry_group_IT_number 17
_symmetry_cell_setting 'orthorhombic'
loop_
_space_group_symop_operation_xyz
x,y,z
-x,-y,1/2+z
x,-y,-z
-x,y,1/2-z
loop_
_atom_site_type_symbol
_atom_site_label
_atom_site_fract_x
_atom_site_fract_y
_atom_site_fract_z
Si Si1 0.000000 0.455409 0.250000
Si Si2 0.639233 0.502825 0.075436
Si Si3 0.684168 0.500000 0.000000
Si Si4 0.188645 0.535247 0.662689
Si Si5 0.161889 0.196806 0.040056
Si Si6 0.234682 0.870166 0.124624
Si Si7 0.588516 0.138546 0.708469
O O1 0.093555 0.305470 0.294082
O O2 0.205936 0.658151 0.228838
O O3 0.722576 0.321519 0.118088
O O4 0.449342 0.682488 0.104812
O O5 0.433876 0.364941 0.038319
O O6 0.682344 0.742544 0.037208
O O7 0.899575 0.628832 0.961420
O O8 0.383593 0.334130 0.686579
O O9 0.983924 0.333401 0.640341
O O10 0.163585 0.059396 0.085751
O O11 0.166391 0.000000 0.000000
O O12 0.316744 0.028024 0.167602
O O13 0.500000 0.972987 0.750000
#
# Coordination Sequence:
#
# PCOD9311063 Si02
#       7
#     2   4   2   4   4   4   4
#     4   8  14  28  54  92 126 156 198 240 286 348
#     4  11  23  41  61  86 118 154 198 248 299 357
#     4  12  26  42  60  82 116 154 196 250 302 358
#     4   9  17  33  59  90 121 156 198 242 292 351
#     4  12  25  41  60  85 117 154 197 249 303 359
#     4  10  21  39  62  88 119 155 198 245 295 353
#     4   8  15  29  56  91 123 158 197 238 289 348
#
# _framework density 29.772558
#
# number of rings (size 3 to 8) (size 9 to 14) (size 15 to 20)
#    0.000    2.000    0.000    4.500    0.000    4.667 
#    0.000    1.667    0.000   12.000    0.000   51.333 
#    0.000    0.000    0.000    0.000    0.000    0.000 
#
# Total GULP energy -133607.490666 kJ/mol
# GULP energy per Si atom -5566.978778 kJ/mol
# Density = 2.970479 g / cm^3
# Si number density = 29.772558 Si / 1000 Ang^3
#
#
#
# Elastic Constant Matrix: (Units=GPa)
#
#
# Indices 1 2 3 4 5 6 
#
# 1 80.1320 23.3817 89.2037 0.0000 0.0000 0.0000
# 2 23.3817 61.9615 60.1239 0.0000 0.0000 0.0000
# 3 89.2037 60.1239 401.9040 0.0000 0.0000 0.0000
# 4 0.0000 0.0000 0.0000 53.6041 0.0000 0.0000
# 5 0.0000 0.0000 0.0000 0.0000 75.4821 0.0000
# 6 0.0000 0.0000 0.0000 0.0000 0.0000 -44.8341
#
#
#
# Elastic Compliance Matrix: (Units=1/GPa)
#
#
# Indices 1 2 3 4 5 6 
#
# 1 0.017114 -0.003243 -0.003313 0.000000 0.000000 0.000000
# 2 -0.003243 0.019494 -0.002196 0.000000 0.000000 0.000000
# 3 -0.003313 -0.002196 0.003552 0.000000 0.000000 0.000000
# 4 0.000000 0.000000 0.000000 0.018655 0.000000 0.000000
# 5 0.000000 0.000000 0.000000 0.000000 0.013248 0.000000
# 6 0.000000 0.000000 0.000000 0.000000 0.000000 -0.022304
#
#
# Mechanical properties :
#
#
# Convention : Reuss Voigt Hill
#
# Bulk Modulus (GPa) = 44.14096 98.82402 71.48249
# Shear Modulus (GPa) = 66.82981 41.60298 54.21640
#
# Velocity S-wave (km/s) = 4.74294 3.74218 4.27197
# Velocity P-wave (km/s) = 6.69718 7.20673 6.95662
#
# Compressibility (1/GPa) = 0.02265469
#
# Stress axis : x y z
#
# Youngs Moduli (GPa) = 58.43106 51.29736 281.51875
#
# Poissons Ratio (x) = 0.16636 0.93278
# Poissons Ratio (y) = 0.18949 0.61835
# Poissons Ratio (z) = 0.19360 0.11267
#
# Static dielectric constant tensor:
#      x y z
#    x 2.948270 0.000000 0.000000 
#    y 0.000000 2.338990 0.000000 
#    z 0.000000 0.000000 2.598400 
# 
# From -- ./inp_files/10836.got.cif
#   From: 2010.05.17/outbox.cif.g08.bks.cpg/sg17_6_cif.got.tgz:10836.got - 2010.06.03 22:34:06.
