data_PCOD9311318
_publ_section_title
;
Structure prediction by ZEFSAII (Michael W. Deem and Ramdas Pophale) SiO2 
 PCOD9311318
Probable space group: P 2 2 21
;
_chemical_formula_sum "Si O2"
_cell_formula_units_Z 14
_cell_length_a 7.877162
_cell_length_b 14.093709
_cell_length_c 5.343688
_cell_angle_alpha 90.000000
_cell_angle_beta 90.000000
_cell_angle_gamma 90.000000
_cell_volume 593.247847
_symmetry_space_group_name_H-M "P 2 2 21"
_symmetry_group_IT_number 17
_symmetry_cell_setting 'orthorhombic'
loop_
_space_group_symop_operation_xyz
x,y,z
-x,-y,1/2+z
x,-y,-z
-x,y,1/2-z
loop_
_atom_site_type_symbol
_atom_site_label
_atom_site_fract_x
_atom_site_fract_y
_atom_site_fract_z
Si Si1 0.500000 0.171327 0.750000
Si Si2 0.179654 0.707946 0.092696
Si Si3 0.112961 0.500000 0.000000
Si Si4 0.867476 0.000000 0.500000
Si Si5 0.000000 0.829259 0.750000
Si Si6 0.354677 0.000000 0.500000
O O1 0.665741 0.235450 0.713384
O O2 0.459943 0.097091 0.526999
O O3 0.213079 0.596704 0.055587
O O4 0.000000 0.714672 0.250000
O O5 0.149154 0.757411 0.822047
O O6 0.000000 0.482212 0.250000
O O7 0.979134 0.095250 0.475062
O O8 0.753791 0.001048 0.253642
#
# Coordination Sequence:
#
# PCOD9311318 Si02
#       6
#     2   4   2   2   2   2
#     4  12  26  50  76 114 166 212 264 324 406 468
#     4  11  25  49  78 113 153 209 265 335 396 476
#     4  10  22  48  82 112 150 200 266 330 400 466
#     4  12  26  44  74 109 158 199 265 316 369 479
#     4  12  24  44  72 114 148 206 258 310 392 464
#     4  12  26  48  66 109 156 211 249 318 383 461
#
# _framework density 23.598903
#
# number of rings (size 3 to 8) (size 9 to 14) (size 15 to 20)
#    0.000    0.571    4.286    3.429    2.000    0.000 
#    5.143    5.714    0.000    0.000    0.000    0.000 
#    0.000    0.000    0.000    0.000    0.000    0.000 
#
# Total GULP energy -78153.533758 kJ/mol
# GULP energy per Si atom -5582.395268 kJ/mol
# Density = 2.354519 g / cm^3
# Si number density = 23.598903 Si / 1000 Ang^3
#
#
#
# Elastic Constant Matrix: (Units=GPa)
#
#
# Indices 1 2 3 4 5 6 
#
# 1 133.1734 86.2050 63.1656 0.0000 0.0000 0.0000
# 2 86.2050 256.5165 45.6429 0.0000 0.0000 0.0000
# 3 63.1656 45.6429 159.3130 0.0000 0.0000 0.0000
# 4 0.0000 0.0000 0.0000 26.7638 0.0000 0.0000
# 5 0.0000 0.0000 0.0000 0.0000 49.1980 0.0000
# 6 0.0000 0.0000 0.0000 0.0000 0.0000 54.4042
#
#
#
# Elastic Compliance Matrix: (Units=1/GPa)
#
#
# Indices 1 2 3 4 5 6 
#
# 1 0.011227 -0.003141 -0.003551 0.000000 0.000000 0.000000
# 2 -0.003141 0.004987 -0.000183 0.000000 0.000000 0.000000
# 3 -0.003551 -0.000183 0.007738 0.000000 0.000000 0.000000
# 4 0.000000 0.000000 0.000000 0.037364 0.000000 0.000000
# 5 0.000000 0.000000 0.000000 0.000000 0.020326 0.000000
# 6 0.000000 0.000000 0.000000 0.000000 0.000000 0.018381
#
#
# Mechanical properties :
#
#
# Convention : Reuss Voigt Hill
#
# Bulk Modulus (GPa) = 98.04345 104.33665 101.19005
# Shear Modulus (GPa) = 42.67211 49.67249 46.17230
#
# Velocity S-wave (km/s) = 4.25694 4.59286 4.42808
# Velocity P-wave (km/s) = 8.11159 8.51083 8.31361
#
# Compressibility (1/GPa) = 0.01019956
#
# Stress axis : x y z
#
# Youngs Moduli (GPa) = 89.07412 200.54007 129.24016
#
# Poissons Ratio (x) = 0.62988 0.45898
# Poissons Ratio (y) = 0.27977 0.02369
# Poissons Ratio (z) = 0.31633 0.03676
#
# Static dielectric constant tensor:
#      x y z
#    x 2.007040 0.000000 0.000000 
#    y 0.000000 1.904070 0.000000 
#    z 0.000000 0.000000 1.984890 
# 
# From -- ./inp_files/619.got.cif
#   From: 2010.05.17/outbox.cif.g08.bks.cpg/sg17_1_cif.got.tgz:619.got - 2010.06.03 22:34:06.
