data_PCOD9311027
_publ_section_title
;
Structure prediction by ZEFSAII (Michael W. Deem and Ramdas Pophale) SiO2 
 PCOD9311027
Probable space group: P 2 2 21
;
_chemical_formula_sum "Si O2"
_cell_formula_units_Z 32
_cell_length_a 11.302168
_cell_length_b 13.520443
_cell_length_c 9.319888
_cell_angle_alpha 90.000000
_cell_angle_beta 90.000000
_cell_angle_gamma 90.000000
_cell_volume 1424.175051
_symmetry_space_group_name_H-M "P 2 2 21"
_symmetry_group_IT_number 17
_symmetry_cell_setting 'orthorhombic'
loop_
_space_group_symop_operation_xyz
x,y,z
-x,-y,1/2+z
x,-y,-z
-x,y,1/2-z
loop_
_atom_site_type_symbol
_atom_site_label
_atom_site_fract_x
_atom_site_fract_y
_atom_site_fract_z
Si Si1 0.650680 0.399055 0.963329
Si Si2 0.286845 0.380038 0.993416
Si Si3 0.622205 0.239467 0.766841
Si Si4 0.023697 0.914052 0.911323
Si Si5 0.637277 0.740228 0.772856
Si Si6 0.086100 0.414789 0.613907
Si Si7 0.753098 0.113585 0.007637
Si Si8 0.954928 0.695078 0.590199
O O1 0.574108 0.324977 0.873398
O O2 0.771457 0.421284 0.874452
O O3 0.588596 0.500000 0.000000
O O4 0.671712 0.344344 0.111591
O O5 0.335536 0.316730 0.126399
O O6 0.146832 0.372930 0.025903
O O7 0.315899 0.500000 0.000000
O O8 0.317120 0.304614 0.859709
O O9 0.500000 0.178434 0.750000
O O10 0.711228 0.175476 0.866758
O O11 0.000000 0.948421 0.750000
O O12 0.087178 0.808388 0.904427
O O13 0.895038 0.893921 0.980346
O O14 0.085980 0.000000 0.000000
O O15 0.500000 0.766851 0.750000
O O16 0.704394 0.832655 0.847576
O O17 0.058599 0.500000 0.500000
O O18 0.000000 0.420783 0.750000
O O19 0.059611 0.315871 0.524672
O O20 0.709723 0.000000 0.000000
O O21 0.000000 0.669106 0.750000
#
# Coordination Sequence:
#
# PCOD9311027 Si02
#       8
#     4   4   4   4   4   4   4   4
#     4  10  21  38  59  85 123 172 222 273 330 398
#     4  12  25  40  63  98 134 173 223 273 324 390
#     4  11  24  42  64  95 132 170 222 280 331 392
#     4  10  22  41  68  97 128 169 214 266 331 397
#     4  11  23  41  65  92 128 174 221 276 339 392
#     4  11  22  36  57  85 120 167 215 265 330 397
#     4  10  23  46  71  96 132 174 218 274 334 396
#     4  11  22  38  58  86 129 167 208 265 318 386
#
# _framework density 22.469147
#
# number of rings (size 3 to 8) (size 9 to 14) (size 15 to 20)
#    0.000    1.250    0.000    7.500    0.000    9.000 
#    0.000    1.875    0.000    0.000    0.000    0.000 
#    0.000    0.000    0.000    0.000    0.000    0.000 
#
# Total GULP energy -178244.702730 kJ/mol
# GULP energy per Si atom -5570.146960 kJ/mol
# Density = 2.241801 g / cm^3
# Si number density = 22.469147 Si / 1000 Ang^3
#
#
#
# Elastic Constant Matrix: (Units=GPa)
#
#
# Indices 1 2 3 4 5 6 
#
# 1 90.0516 5.1848 15.8936 0.0000 0.0000 0.0000
# 2 5.1848 135.7255 53.3867 0.0000 0.0000 0.0000
# 3 15.8936 53.3867 144.8604 0.0000 0.0000 0.0000
# 4 0.0000 0.0000 0.0000 26.6765 0.0000 0.0000
# 5 0.0000 0.0000 0.0000 0.0000 35.4199 0.0000
# 6 0.0000 0.0000 0.0000 0.0000 0.0000 3.8019
#
#
#
# Elastic Compliance Matrix: (Units=1/GPa)
#
#
# Indices 1 2 3 4 5 6 
#
# 1 0.011325 0.000066 -0.001267 0.000000 0.000000 0.000000
# 2 0.000066 0.008617 -0.003183 0.000000 0.000000 0.000000
# 3 -0.001267 -0.003183 0.008215 0.000000 0.000000 0.000000
# 4 0.000000 0.000000 0.000000 0.037486 0.000000 0.000000
# 5 0.000000 0.000000 0.000000 0.000000 0.028233 0.000000
# 6 0.000000 0.000000 0.000000 0.000000 0.000000 0.263029
#
#
# Mechanical properties :
#
#
# Convention : Reuss Voigt Hill
#
# Bulk Modulus (GPa) = 51.57574 57.72974 54.65274
# Shear Modulus (GPa) = 13.43594 32.92447 23.18021
#
# Velocity S-wave (km/s) = 2.44800 3.83210 3.21541
# Velocity P-wave (km/s) = 5.56724 6.73266 6.17749
#
# Compressibility (1/GPa) = 0.01938896
#
# Stress axis : x y z
#
# Youngs Moduli (GPa) = 88.30395 116.04529 121.72492
#
# Poissons Ratio (x) = -0.00762 0.15419
# Poissons Ratio (y) = -0.00580 0.38745
# Poissons Ratio (z) = 0.11185 0.36937
#
# Static dielectric constant tensor:
#      x y z
#    x -0.540970 0.000000 0.000000 
#    y 0.000000 1.902270 0.000000 
#    z 0.000000 0.000000 1.922630 
# 
# From -- ./inp_files/4927.got.cif
#   From: 2010.05.17/outbox.cif.g08.bks.cpg/sg17_3_cif.got.tgz:4927.got - 2010.06.03 22:34:06.
