data_PCOD9311743
_publ_section_title
;
Structure prediction by ZEFSAII (Michael W. Deem and Ramdas Pophale) SiO2 
 PCOD9311743
Probable space group: P 21 21 2
;
_chemical_formula_sum "Si O2"
_cell_formula_units_Z 24
_cell_length_a 9.345914
_cell_length_b 14.065269
_cell_length_c 8.488673
_cell_angle_alpha 90.000000
_cell_angle_beta 90.000000
_cell_angle_gamma 90.000000
_cell_volume 1115.859787
_symmetry_space_group_name_H-M "P 21 21 2"
_symmetry_group_IT_number 18
_symmetry_cell_setting 'orthorhombic'
loop_
_space_group_symop_operation_xyz
x,y,z
-x,-y,z
1/2+x,1/2-y,-z
1/2-x,1/2+y,-z
loop_
_atom_site_type_symbol
_atom_site_label
_atom_site_fract_x
_atom_site_fract_y
_atom_site_fract_z
Si Si1 0.208577 0.063988 0.127006
Si Si2 0.598374 0.825639 0.355806
Si Si3 0.710585 0.272980 0.368216
Si Si4 0.258619 0.514353 0.231497
Si Si5 0.427313 0.382373 0.732562
Si Si6 0.500000 0.000000 0.572691
Si Si7 0.500000 0.500000 0.446253
O O1 0.331530 0.131303 0.197214
O O2 0.053835 0.116642 0.138743
O O3 0.180517 0.970382 0.234063
O O4 0.237857 0.024059 0.954164
O O5 0.449287 0.768107 0.344813
O O6 0.726024 0.774289 0.453385
O O7 0.556875 0.916743 0.462658
O O8 0.722296 0.378399 0.298027
O O9 0.829608 0.208857 0.279960
O O10 0.120862 0.466802 0.307067
O O11 0.384431 0.462636 0.322877
O O12 0.508181 0.411910 0.569861
#
# Coordination Sequence:
#
# PCOD9311743 Si02
#       7
#     4   4   4   4   4   2   2
#     4  10  22  39  59  84 121 156 189 233 301 360
#     4  11  21  39  59  86 116 155 200 245 288 349
#     4  11  22  36  60  87 115 149 200 250 289 336
#     4  11  23  38  58  88 118 150 189 244 298 346
#     4  10  20  39  63  85 113 158 200 238 284 351
#     4  10  22  38  60  82 112 154 204 234 278 352
#     4  10  18  38  62  80 110 156 196 226 282 356
#
# _framework density 21.508078000000001
#
# number of rings (size 3 to 8) (size 9 to 14) (size 15 to 20)
#    0.000    1.667    0.000    9.000    0.000    3.333 
#    0.000    5.000    0.000    0.000    0.000    0.000 
#    0.000    0.000    0.000    0.000    0.000    0.000 
#
# Total GULP energy -133790.933332 kJ/mol
# GULP energy per Si atom -5574.622222 kJ/mol
# Density = 2.145912 g / cm^3
# Si number density = 21.508078 Si / 1000 Ang^3
#
#
#
# Elastic Constant Matrix: (Units=GPa)
#
#
# Indices 1 2 3 4 5 6 
#
# 1 83.0603 -14.8212 6.8826 0.0000 0.0000 0.0000
# 2 -14.8212 35.0451 -5.6528 0.0000 0.0000 0.0000
# 3 6.8826 -5.6528 76.4683 0.0000 0.0000 0.0000
# 4 0.0000 0.0000 0.0000 12.9480 0.0000 0.0000
# 5 0.0000 0.0000 0.0000 0.0000 30.2173 0.0000
# 6 0.0000 0.0000 0.0000 0.0000 0.0000 32.8084
#
#
#
# Elastic Compliance Matrix: (Units=1/GPa)
#
#
# Indices 1 2 3 4 5 6 
#
# 1 0.013068 0.005401 -0.000777 0.000000 0.000000 0.000000
# 2 0.005401 0.031112 0.001814 0.000000 0.000000 0.000000
# 3 -0.000777 0.001814 0.013281 0.000000 0.000000 0.000000
# 4 0.000000 0.000000 0.000000 0.077232 0.000000 0.000000
# 5 0.000000 0.000000 0.000000 0.000000 0.033094 0.000000
# 6 0.000000 0.000000 0.000000 0.000000 0.000000 0.030480
#
#
# Mechanical properties :
#
#
# Convention : Reuss Voigt Hill
#
# Bulk Modulus (GPa) = 14.21735 18.59897 16.40816
# Shear Modulus (GPa) = 23.94229 29.07240 26.50735
#
# Velocity S-wave (km/s) = 3.34005 3.68053 3.51442
# Velocity P-wave (km/s) = 4.63672 5.16991 4.91056
#
# Compressibility (1/GPa) = 0.07033661
#
# Stress axis : x y z
#
# Youngs Moduli (GPa) = 76.52507 32.14244 75.29373
#
# Poissons Ratio (x) = -0.17361 0.05849
# Poissons Ratio (y) = -0.41333 -0.13656
# Poissons Ratio (z) = 0.05945 -0.05830
#
# Static dielectric constant tensor:
#      x y z
#    x 1.828780 0.000000 0.000000 
#    y 0.000000 1.813730 0.000000 
#    z 0.000000 0.000000 1.782890 
# 
# From -- ./inp_files/3197.got.cif
#   From: 2010.05.17/outbox.cif.g08.bks.cpg/sg18_2_cif.got.tgz:3197.got - 2010.06.03 22:40:56.
