data_PCOD9311355
_publ_section_title
;
Structure prediction by ZEFSAII (Michael W. Deem and Ramdas Pophale) SiO2 
 PCOD9311355
Probable space group: P 2 2 21
;
_chemical_formula_sum "Si O2"
_cell_formula_units_Z 24
_cell_length_a 8.159947
_cell_length_b 14.715043
_cell_length_c 8.476927
_cell_angle_alpha 90.000000
_cell_angle_beta 90.000000
_cell_angle_gamma 90.000000
_cell_volume 1017.858287
_symmetry_space_group_name_H-M "P 2 2 21"
_symmetry_group_IT_number 17
_symmetry_cell_setting 'orthorhombic'
loop_
_space_group_symop_operation_xyz
x,y,z
-x,-y,1/2+z
x,-y,-z
-x,y,1/2-z
loop_
_atom_site_type_symbol
_atom_site_label
_atom_site_fract_x
_atom_site_fract_y
_atom_site_fract_z
Si Si1 0.000000 0.784957 0.750000
Si Si2 0.287226 0.000000 0.000000
Si Si3 0.305821 0.834651 0.211788
Si Si4 0.318848 0.584614 0.721067
Si Si5 0.281774 0.221613 0.441943
Si Si6 0.000000 0.464133 0.750000
Si Si7 0.171733 0.672508 0.016205
Si Si8 0.500000 0.892463 0.750000
O O1 0.163008 0.828944 0.686275
O O2 0.951765 0.726046 0.598397
O O3 0.220426 0.088642 0.901141
O O4 0.386015 0.957572 0.853599
O O5 0.500000 0.850734 0.250000
O O6 0.233092 0.812819 0.385753
O O7 0.273595 0.740343 0.123103
O O8 0.500000 0.541899 0.750000
O O9 0.303190 0.671119 0.600292
O O10 0.159017 0.521895 0.694938
O O11 0.290375 0.625035 0.894221
O O12 0.449273 0.175942 0.389606
O O13 0.929996 0.399837 0.614278
#
# Coordination Sequence:
#
# PCOD9311355 Si02
#       8
#     2   2   4   4   4   2   4   2
#     4  10  23  44  72  97 138 204 254 299 376 460
#     4  12  22  40  70 120 142 184 242 320 378 448
#     4  12  24  42  73 114 146 188 249 315 388 465
#     4  11  23  45  72 104 154 210 266 323 379 459
#     4  11  22  41  70 105 148 199 246 302 382 453
#     4  12  27  48  76 113 160 206 274 337 386 454
#     4  11  25  47  70 103 150 201 258 313 398 460
#     4  12  20  40  70 102 146 180 240 302 364 458
#
# _framework density 23.578921000000001
#
# number of rings (size 3 to 8) (size 9 to 14) (size 15 to 20)
#    0.000    0.667    3.333    6.500    0.000    2.000 
#    0.000   11.667    0.000   24.000    0.000    0.000 
#    0.000    0.000    0.000    0.000    0.000    0.000 
#
# Total GULP energy -133718.181052 kJ/mol
# GULP energy per Si atom -5571.590877 kJ/mol
# Density = 2.352525 g / cm^3
# Si number density = 23.578921 Si / 1000 Ang^3
#
#
#
# Elastic Constant Matrix: (Units=GPa)
#
#
# Indices 1 2 3 4 5 6 
#
# 1 72.4410 34.3068 1.9867 0.0000 0.0000 0.0000
# 2 34.3068 111.8007 61.5594 0.0000 0.0000 0.0000
# 3 1.9867 61.5594 137.3945 0.0000 0.0000 0.0000
# 4 0.0000 0.0000 0.0000 207.2151 0.0000 0.0000
# 5 0.0000 0.0000 0.0000 0.0000 27.7510 0.0000
# 6 0.0000 0.0000 0.0000 0.0000 0.0000 15.8954
#
#
#
# Elastic Compliance Matrix: (Units=1/GPa)
#
#
# Indices 1 2 3 4 5 6 
#
# 1 0.016905 -0.006708 0.002761 0.000000 0.000000 0.000000
# 2 -0.006708 0.014535 -0.006416 0.000000 0.000000 0.000000
# 3 0.002761 -0.006416 0.010113 0.000000 0.000000 0.000000
# 4 0.000000 0.000000 0.000000 0.004826 0.000000 0.000000
# 5 0.000000 0.000000 0.000000 0.000000 0.036035 0.000000
# 6 0.000000 0.000000 0.000000 0.000000 0.000000 0.062911
#
#
# Mechanical properties :
#
#
# Convention : Reuss Voigt Hill
#
# Bulk Modulus (GPa) = 48.01042 57.48246 52.74644
# Shear Modulus (GPa) = 28.90294 65.09120 46.99707
#
# Velocity S-wave (km/s) = 3.50494 5.25981 4.46935
# Velocity P-wave (km/s) = 6.06508 7.83065 7.00373
#
# Compressibility (1/GPa) = 0.02082881
#
# Stress axis : x y z
#
# Youngs Moduli (GPa) = 59.15311 68.79798 98.88397
#
# Poissons Ratio (x) = 0.46148 -0.27301
# Poissons Ratio (y) = 0.39678 0.63439
# Poissons Ratio (z) = -0.16332 0.44138
#
# Static dielectric constant tensor:
#      x y z
#    x 2.314120 0.000000 0.000000 
#    y 0.000000 1.922910 0.000000 
#    z 0.000000 0.000000 1.866040 
# 
# From -- ./inp_files/4326.got.cif
#   From: 2010.05.17/outbox.cif.g08.bks.cpg/sg17_3_cif.got.tgz:4326.got - 2010.06.03 22:34:06.
