data_PCOD9312866
_publ_section_title
;
Structure prediction by ZEFSAII (Michael W. Deem and Ramdas Pophale) SiO2 
 PCOD9312866
Probable space group: P 21 21 2
;
_chemical_formula_sum "Si O2"
_cell_formula_units_Z 30
_cell_length_a 8.037530
_cell_length_b 28.832324
_cell_length_c 5.137829
_cell_angle_alpha 90.000000
_cell_angle_beta 90.000000
_cell_angle_gamma 90.000000
_cell_volume 1190.643930
_symmetry_space_group_name_H-M "P 21 21 2"
_symmetry_group_IT_number 18
_symmetry_cell_setting 'orthorhombic'
loop_
_space_group_symop_operation_xyz
x,y,z
-x,-y,z
1/2+x,1/2-y,-z
1/2-x,1/2+y,-z
loop_
_atom_site_type_symbol
_atom_site_label
_atom_site_fract_x
_atom_site_fract_y
_atom_site_fract_z
Si Si1 0.376621 0.196872 0.965337
Si Si2 0.457433 0.076699 0.741944
Si Si3 0.588808 0.578963 0.968815
Si Si4 0.259644 0.494585 0.319045
Si Si5 0.951790 0.781976 0.227056
Si Si6 0.500000 0.500000 0.789938
Si Si7 0.078308 0.376803 0.759458
Si Si8 0.947286 0.840466 0.743300
O O1 0.456093 0.233133 0.765385
O O2 0.523635 0.173216 0.130361
O O3 0.249827 0.161076 0.818955
O O4 0.244579 0.221621 0.159681
O O5 0.602110 0.038696 0.695077
O O6 0.476374 0.090720 0.040873
O O7 0.291981 0.047674 0.696714
O O8 0.515185 0.115223 0.532429
O O9 0.635187 0.525324 0.070085
O O10 0.434270 0.557488 0.823173
O O11 0.733101 0.606513 0.818838
O O12 0.534634 0.610671 0.209135
O O13 0.354431 0.484392 0.579300
O O14 0.972477 0.815491 0.471267
O O15 0.020918 0.807991 0.971537
#
# Coordination Sequence:
#
# PCOD9312866 Si02
#       8
#     4   4   4   4   4   2   4   4
#     4  10  27  44  76 104 137 182 222 288 348 421
#     4  10  24  44  67  97 133 184 232 283 336 404
#     4  11  26  45  64 104 136 186 234 288 345 409
#     4  10  24  41  66  92 138 182 234 282 341 396
#     4  10  26  47  71 104 139 177 227 281 356 417
#     4  12  24  42  66  96 140 184 232 284 344 402
#     4  11  25  43  72  98 138 175 236 281 345 409
#     4  10  27  44  73 100 140 179 226 287 340 421
#
# _framework density 25.196451
#
# number of rings (size 3 to 8) (size 9 to 14) (size 15 to 20)
#    0.800    0.800    1.333    0.400   11.200    2.133 
#    0.000    0.000    0.000    0.000    0.000    0.000 
#    0.000    0.000    0.000    0.000    0.000    0.000 
#
# Total GULP energy -167240.950499 kJ/mol
# GULP energy per Si atom -5574.698350 kJ/mol
# Density = 2.513910 g / cm^3
# Si number density = 25.196451 Si / 1000 Ang^3
#
#
#
# Elastic Constant Matrix: (Units=GPa)
#
#
# Indices 1 2 3 4 5 6 
#
# 1 81.7159 40.9002 24.5766 0.0000 0.0000 0.0000
# 2 40.9002 57.5367 -2.4541 0.0000 0.0000 0.0000
# 3 24.5766 -2.4541 101.3778 0.0000 0.0000 0.0000
# 4 0.0000 0.0000 0.0000 37.8175 0.0000 0.0000
# 5 0.0000 0.0000 0.0000 0.0000 32.1776 0.0000
# 6 0.0000 0.0000 0.0000 0.0000 0.0000 51.2869
#
#
#
# Elastic Compliance Matrix: (Units=1/GPa)
#
#
# Indices 1 2 3 4 5 6 
#
# 1 0.021834 -0.015763 -0.005675 0.000000 0.000000 0.000000
# 2 -0.015763 0.028778 0.004518 0.000000 0.000000 0.000000
# 3 -0.005675 0.004518 0.011349 0.000000 0.000000 0.000000
# 4 0.000000 0.000000 0.000000 0.026443 0.000000 0.000000
# 5 0.000000 0.000000 0.000000 0.000000 0.031077 0.000000
# 6 0.000000 0.000000 0.000000 0.000000 0.000000 0.019498
#
#
# Mechanical properties :
#
#
# Convention : Reuss Voigt Hill
#
# Bulk Modulus (GPa) = 35.55934 40.74175 38.15055
# Shear Modulus (GPa) = 27.44363 36.09691 31.77027
#
# Velocity S-wave (km/s) = 3.30386 3.78910 3.55477
# Velocity P-wave (km/s) = 5.35700 5.94540 5.65886
#
# Compressibility (1/GPa) = 0.02812200
#
# Stress axis : x y z
#
# Youngs Moduli (GPa) = 45.80089 34.74899 88.11246
#
# Poissons Ratio (x) = 0.54773 0.50000
# Poissons Ratio (y) = 0.72194 -0.39808
# Poissons Ratio (z) = 0.25990 -0.15699
#
# Static dielectric constant tensor:
#      x y z
#    x 2.064320 0.000000 0.000000 
#    y 0.000000 2.152770 0.000000 
#    z 0.000000 0.000000 1.970270 
# 
# From -- ./inp_files/769.got.cif
#   From: 2010.05.17/outbox.cif.g08.bks.cpg/sg18_1_cif.got.tgz:769.got - 2010.06.03 22:40:56.
