data_PCOD9312554
_publ_section_title
;
Structure prediction by ZEFSAII (Michael W. Deem and Ramdas Pophale) SiO2 
 PCOD9312554
Probable space group: P 21 21 2
;
_chemical_formula_sum "Si O2"
_cell_formula_units_Z 18
_cell_length_a 11.060099
_cell_length_b 9.408029
_cell_length_c 8.812939
_cell_angle_alpha 90.000000
_cell_angle_beta 90.000000
_cell_angle_gamma 90.000000
_cell_volume 917.019194
_symmetry_space_group_name_H-M "P 21 21 2"
_symmetry_group_IT_number 18
_symmetry_cell_setting 'orthorhombic'
loop_
_space_group_symop_operation_xyz
x,y,z
-x,-y,z
1/2+x,1/2-y,-z
1/2-x,1/2+y,-z
loop_
_atom_site_type_symbol
_atom_site_label
_atom_site_fract_x
_atom_site_fract_y
_atom_site_fract_z
Si Si1 0.193133 0.230186 0.183916
Si Si2 0.357256 0.027014 0.675643
Si Si3 0.781662 0.201381 0.134270
Si Si4 0.500000 0.500000 0.849143
Si Si5 0.642604 0.979585 0.330523
O O1 0.195836 0.377562 0.271030
O O2 0.314638 0.145322 0.220648
O O3 0.082270 0.124159 0.228864
O O4 0.193572 0.263963 0.005352
O O5 0.500000 0.000000 0.675417
O O6 0.328420 0.153640 0.790884
O O7 0.319291 0.056753 0.502509
O O8 0.710812 0.117027 0.265533
O O9 0.892392 0.097856 0.079361
O O10 0.500000 0.000000 0.326348
#
# Coordination Sequence:
#
# PCOD9312554 Si02
#       5
#     4   4   4   2   4
#     4  11  23  40  66  91 127 163 209 259 301 377
#     4  11  21  41  66  91 125 166 202 254 315 374
#     4  11  23  40  66  91 127 163 209 259 301 377
#     4  10  22  40  60  92 120 162 206 246 320 350
#     4  10  24  41  62  93 130 158 206 254 312 371
#
# _framework density 19.628816
#
# number of rings (size 3 to 8) (size 9 to 14) (size 15 to 20)
#    0.000    1.333    2.222    4.000    3.111    1.778 
#    0.000    0.000    0.000    0.000    0.000    0.000 
#    0.000    0.000    0.000    0.000    0.000    0.000 
#
# Total GULP energy -100323.710620 kJ/mol
# GULP energy per Si atom -5573.539479 kJ/mol
# Density = 1.958414 g / cm^3
# Si number density = 19.628816 Si / 1000 Ang^3
#
#
#
# Elastic Constant Matrix: (Units=GPa)
#
#
# Indices 1 2 3 4 5 6 
#
# 1 60.2781 14.9587 -4.1717 0.0000 0.0000 0.0000
# 2 14.9587 108.3062 -6.6455 0.0000 0.0000 0.0000
# 3 -4.1717 -6.6455 39.3544 0.0000 0.0000 0.0000
# 4 0.0000 0.0000 0.0000 25.3899 0.0000 0.0000
# 5 0.0000 0.0000 0.0000 0.0000 46.5944 0.0000
# 6 0.0000 0.0000 0.0000 0.0000 0.0000 24.1547
#
#
#
# Elastic Compliance Matrix: (Units=1/GPa)
#
#
# Indices 1 2 3 4 5 6 
#
# 1 0.017259 -0.002295 0.001442 0.000000 0.000000 0.000000
# 2 -0.002295 0.009635 0.001384 0.000000 0.000000 0.000000
# 3 0.001442 0.001384 0.025797 0.000000 0.000000 0.000000
# 4 0.000000 0.000000 0.000000 0.039386 0.000000 0.000000
# 5 0.000000 0.000000 0.000000 0.000000 0.021462 0.000000
# 6 0.000000 0.000000 0.000000 0.000000 0.000000 0.041400
#
#
# Mechanical properties :
#
#
# Convention : Reuss Voigt Hill
#
# Bulk Modulus (GPa) = 18.60414 24.02465 21.31440
# Shear Modulus (GPa) = 29.10450 32.81426 30.95938
#
# Velocity S-wave (km/s) = 3.85482 4.09313 3.97576
# Velocity P-wave (km/s) = 5.41400 5.88254 5.65313
#
# Compressibility (1/GPa) = 0.05375147
#
# Stress axis : x y z
#
# Youngs Moduli (GPa) = 57.94029 103.78835 38.76474
#
# Poissons Ratio (x) = 0.23822 -0.05590
# Poissons Ratio (y) = 0.13299 -0.05364
# Poissons Ratio (z) = -0.08355 -0.14361
#
# Static dielectric constant tensor:
#      x y z
#    x 1.693300 0.000000 0.000000 
#    y 0.000000 1.595340 0.000000 
#    z 0.000000 0.000000 1.669360 
# 
# From -- ./inp_files/2887.got.cif
#   From: 2010.05.17/outbox.cif.g08.bks.cpg/sg18_2_cif.got.tgz:2887.got - 2010.06.03 22:40:56.
