data_PCOD9312566
_publ_section_title
;
Structure prediction by ZEFSAII (Michael W. Deem and Ramdas Pophale) SiO2 
 PCOD9312566
Probable space group: P 21 21 2
;
_chemical_formula_sum "Si O2"
_cell_formula_units_Z 14
_cell_length_a 13.683395
_cell_length_b 5.450755
_cell_length_c 6.851033
_cell_angle_alpha 90.000000
_cell_angle_beta 90.000000
_cell_angle_gamma 90.000000
_cell_volume 510.983157
_symmetry_space_group_name_H-M "P 21 21 2"
_symmetry_group_IT_number 18
_symmetry_cell_setting 'orthorhombic'
loop_
_space_group_symop_operation_xyz
x,y,z
-x,-y,z
1/2+x,1/2-y,-z
1/2-x,1/2+y,-z
loop_
_atom_site_type_symbol
_atom_site_label
_atom_site_fract_x
_atom_site_fract_y
_atom_site_fract_z
Si Si1 0.500000 0.000000 0.596689
Si Si2 0.338511 0.755938 0.024834
Si Si3 0.884581 0.246987 0.066396
Si Si4 0.696792 0.220193 0.557083
O O1 0.449690 0.201527 0.743548
O O2 0.588434 0.135808 0.487809
O O3 0.395682 0.504894 0.049316
O O4 0.318017 0.761874 0.790919
O O5 0.391862 0.009479 0.063285
O O6 0.231730 0.756923 0.118980
O O7 0.732993 0.487760 0.488711
#
# Coordination Sequence:
#
# PCOD9312566 Si02
#       4
#     2   4   4   4
#     4  10  22  40  64  88 118 166 212 248 312 364
#     4   9  18  35  56  85 115 148 193 248 302 341
#     4   9  18  33  60  85 109 144 198 254 293 352
#     4  11  23  38  61  90 127 167 203 247 299 373
#
# _framework density 27.398167000000001
#
# number of rings (size 3 to 8) (size 9 to 14) (size 15 to 20)
#    0.000    2.286    0.000    3.429    0.000   10.286 
#    0.000    1.429    0.000   27.429    0.000    0.000 
#    0.000    0.000    0.000    0.000    0.000    0.000 
#
# Total GULP energy -78297.869245 kJ/mol
# GULP energy per Si atom -5592.704946 kJ/mol
# Density = 2.733581 g / cm^3
# Si number density = 27.398167 Si / 1000 Ang^3
#
#
#
# Elastic Constant Matrix: (Units=GPa)
#
#
# Indices 1 2 3 4 5 6 
#
# 1 201.7482 70.7144 2.8809 0.0000 0.0000 0.0000
# 2 70.7144 286.2233 19.8786 0.0000 0.0000 0.0000
# 3 2.8809 19.8786 101.0430 0.0000 0.0000 0.0000
# 4 0.0000 0.0000 0.0000 30.6576 0.0000 0.0000
# 5 0.0000 0.0000 0.0000 0.0000 33.3672 0.0000
# 6 0.0000 0.0000 0.0000 0.0000 0.0000 16.4924
#
#
#
# Elastic Compliance Matrix: (Units=1/GPa)
#
#
# Indices 1 2 3 4 5 6 
#
# 1 0.005428 -0.001349 0.000111 0.000000 0.000000 0.000000
# 2 -0.001349 0.003877 -0.000724 0.000000 0.000000 0.000000
# 3 0.000111 -0.000724 0.010036 0.000000 0.000000 0.000000
# 4 0.000000 0.000000 0.000000 0.032618 0.000000 0.000000
# 5 0.000000 0.000000 0.000000 0.000000 0.029970 0.000000
# 6 0.000000 0.000000 0.000000 0.000000 0.000000 0.060634
#
#
# Mechanical properties :
#
#
# Convention : Reuss Voigt Hill
#
# Bulk Modulus (GPa) = 64.86624 86.21806 75.54215
# Shear Modulus (GPa) = 32.97567 49.13947 41.05757
#
# Velocity S-wave (km/s) = 3.47302 4.23960 3.87531
# Velocity P-wave (km/s) = 6.30946 7.45000 6.90332
#
# Compressibility (1/GPa) = 0.01541634
#
# Stress axis : x y z
#
# Youngs Moduli (GPa) = 184.23610 257.91231 99.64001
#
# Poissons Ratio (x) = 0.34784 -0.01102
# Poissons Ratio (y) = 0.24848 0.07217
# Poissons Ratio (z) = -0.02037 0.18682
#
# Static dielectric constant tensor:
#      x y z
#    x 2.179720 0.000000 0.000000 
#    y 0.000000 2.234310 0.000000 
#    z 0.000000 0.000000 2.182560 
# 
# From -- ./inp_files/2384.got.cif
#   From: 2010.05.17/outbox.cif.g08.bks.cpg/sg18_2_cif.got.tgz:2384.got - 2010.06.03 22:40:56.
