data_PCOD9312675
_publ_section_title
;
Structure prediction by ZEFSAII (Michael W. Deem and Ramdas Pophale) SiO2 
 PCOD9312675
Probable space group: P 21 21 2
;
_chemical_formula_sum "Si O2"
_cell_formula_units_Z 28
_cell_length_a 8.579821
_cell_length_b 22.101115
_cell_length_c 6.834257
_cell_angle_alpha 90.000000
_cell_angle_beta 90.000000
_cell_angle_gamma 90.000000
_cell_volume 1295.936488
_symmetry_space_group_name_H-M "P 21 21 2"
_symmetry_group_IT_number 18
_symmetry_cell_setting 'orthorhombic'
loop_
_space_group_symop_operation_xyz
x,y,z
-x,-y,z
1/2+x,1/2-y,-z
1/2-x,1/2+y,-z
loop_
_atom_site_type_symbol
_atom_site_label
_atom_site_fract_x
_atom_site_fract_y
_atom_site_fract_z
Si Si1 0.183958 0.913034 0.818032
Si Si2 0.313159 0.503821 0.851843
Si Si3 0.676961 0.983088 0.565515
Si Si4 0.683118 0.391558 0.160207
Si Si5 0.617846 0.206914 0.764873
Si Si6 0.855095 0.756122 0.809687
Si Si7 0.869194 0.252652 0.511350
O O1 0.215398 0.966783 0.667652
O O2 0.284400 0.854694 0.766772
O O3 0.002238 0.898517 0.814232
O O4 0.225584 0.943176 0.026593
O O5 0.500000 0.500000 0.811542
O O6 0.212219 0.511440 0.660910
O O7 0.278778 0.562296 0.985755
O O8 0.500000 0.000000 0.613414
O O9 0.728250 0.918805 0.652911
O O10 0.712283 0.321206 0.126624
O O11 0.472407 0.201100 0.617674
O O12 0.725561 0.259468 0.663274
O O13 0.590598 0.223627 0.991866
O O14 0.998139 0.770170 0.662056
O O15 0.724553 0.721963 0.674469
#
# Coordination Sequence:
#
# PCOD9312675 Si02
#       7
#     4   4   4   4   4   4   4
#     4  10  22  43  67  90 127 171 218 269 314 390
#     4   9  20  40  67  95 117 169 223 259 330 388
#     4  11  24  42  63  97 131 159 209 277 336 388
#     4  10  22  43  67  90 127 171 218 269 314 390
#     4  11  23  44  66  98 139 174 220 273 323 391
#     4  11  23  44  66  98 139 174 220 273 323 391
#     4  10  24  40  64  96 130 176 220 256 326 388
#
# _framework density 21.605996000000001
#
# number of rings (size 3 to 8) (size 9 to 14) (size 15 to 20)
#    0.000    1.714    1.429    3.000    2.000    6.857 
#    5.143    0.000    0.000    0.000    0.000    0.000 
#    0.000    0.000    0.000    0.000    0.000    0.000 
#
# Total GULP energy -155934.458066 kJ/mol
# GULP energy per Si atom -5569.087788 kJ/mol
# Density = 2.155682 g / cm^3
# Si number density = 21.605996 Si / 1000 Ang^3
#
#
#
# Elastic Constant Matrix: (Units=GPa)
#
#
# Indices 1 2 3 4 5 6 
#
# 1 -19.9729 19.3968 0.5447 0.0000 0.0000 0.0000
# 2 19.3968 62.5414 28.7227 0.0000 0.0000 0.0000
# 3 0.5447 28.7227 95.9466 0.0000 0.0000 0.0000
# 4 0.0000 0.0000 0.0000 3.7508 0.0000 0.0000
# 5 0.0000 0.0000 0.0000 0.0000 8.1826 0.0000
# 6 0.0000 0.0000 0.0000 0.0000 0.0000 33.3630
#
#
#
# Elastic Compliance Matrix: (Units=1/GPa)
#
#
# Indices 1 2 3 4 5 6 
#
# 1 -0.037266 0.013288 -0.003766 0.000000 0.000000 0.000000
# 2 0.013288 0.013800 -0.004207 0.000000 0.000000 0.000000
# 3 -0.003766 -0.004207 0.011703 0.000000 0.000000 0.000000
# 4 0.000000 0.000000 0.000000 0.266609 0.000000 0.000000
# 5 0.000000 0.000000 0.000000 0.000000 0.122210 0.000000
# 6 0.000000 0.000000 0.000000 0.000000 0.000000 0.029973
#
#
# Mechanical properties :
#
#
# Convention : Reuss Voigt Hill
#
# Bulk Modulus (GPa) = -882.19923 26.20482 -427.99721
# Shear Modulus (GPa) = 12.62552 15.04933 13.83743
#
# Velocity S-wave (km/s) = 2.41996 2.64206 2.53344
# Velocity P-wave (km/s) = 20.03473 4.63272 13.78275
#
# Compressibility (1/GPa) = -0.00113353
#
# Stress axis : x y z
#
# Youngs Moduli (GPa) = -26.83392 72.46191 85.44689
#
# Poissons Ratio (x) = -0.96284 0.32181
# Poissons Ratio (y) = 0.35656 0.35945
# Poissons Ratio (z) = -0.10106 0.30483
#
# Static dielectric constant tensor:
#      x y z
#    x 2.011970 0.000000 0.000000 
#    y 0.000000 1.812280 0.000000 
#    z 0.000000 0.000000 1.787160 
# 
# From -- ./inp_files/704.got.cif
#   From: 2010.05.17/outbox.cif.g08.bks.cpg/sg18_1_cif.got.tgz:704.got - 2010.06.03 22:40:56.
