data_PCOD9312387
_publ_section_title
;
Structure prediction by ZEFSAII (Michael W. Deem and Ramdas Pophale) SiO2 
 PCOD9312387
Probable space group: P 21 21 2
;
_chemical_formula_sum "Si O2"
_cell_formula_units_Z 32
_cell_length_a 16.152641
_cell_length_b 16.628913
_cell_length_c 5.062669
_cell_angle_alpha 90.000000
_cell_angle_beta 90.000000
_cell_angle_gamma 90.000000
_cell_volume 1359.837257
_symmetry_space_group_name_H-M "P 21 21 2"
_symmetry_group_IT_number 18
_symmetry_cell_setting 'orthorhombic'
loop_
_space_group_symop_operation_xyz
x,y,z
-x,-y,z
1/2+x,1/2-y,-z
1/2-x,1/2+y,-z
loop_
_atom_site_type_symbol
_atom_site_label
_atom_site_fract_x
_atom_site_fract_y
_atom_site_fract_z
Si Si1 0.278355 0.436062 0.048550
Si Si2 0.842169 0.811390 0.553570
Si Si3 0.758966 0.462195 0.537989
Si Si4 0.421016 0.343022 0.725070
Si Si5 0.848090 0.672229 0.875186
Si Si6 0.577967 0.041825 0.492303
Si Si7 0.005395 0.095108 0.783220
Si Si8 0.525390 0.200177 0.764385
O O1 0.255408 0.503485 0.831984
O O2 0.344052 0.381460 0.883002
O O3 0.204379 0.372010 0.100118
O O4 0.291752 0.483428 0.322376
O O5 0.773040 0.871000 0.446445
O O6 0.802240 0.747964 0.755364
O O7 0.901105 0.753797 0.373857
O O8 0.907598 0.870316 0.691272
O O9 0.853872 0.474273 0.436619
O O10 0.437461 0.369494 0.423764
O O11 0.440140 0.247527 0.731402
O O12 0.492923 0.379836 0.913333
O O13 0.864982 0.600428 0.677181
O O14 0.940952 0.701586 0.938365
O O15 0.533682 0.106330 0.687424
O O16 0.500000 0.000000 0.351704
O O17 0.000000 0.000000 0.765081
#
# Coordination Sequence:
#
# PCOD9312387 Si02
#       8
#     4   4   4   4   4   4   4   4
#     4  11  23  41  62  91 130 171 212 266 325 381
#     4  10  22  37  63  89 128 165 210 253 329 387
#     4  11  24  42  64  96 131 168 216 266 321 394
#     4  11  22  36  60  90 122 165 213 252 315 387
#     4  10  21  42  63  88 128 171 205 269 329 371
#     4  10  23  44  68  92 127 171 222 271 324 378
#     4  11  21  35  56  89 124 161 201 258 305 373
#     4  10  21  41  62  91 127 169 207 273 323 377
#
# _framework density 23.532228
#
# number of rings (size 3 to 8) (size 9 to 14) (size 15 to 20)
#    0.000    1.500    2.500    2.625    1.750    2.500 
#    0.000    1.250    0.000    0.000    0.000    0.000 
#    0.000    0.000    0.000    0.000    0.000    0.000 
#
# Total GULP energy -178184.003497 kJ/mol
# GULP energy per Si atom -5568.250109 kJ/mol
# Density = 2.347867 g / cm^3
# Si number density = 23.532228 Si / 1000 Ang^3
#
#
#
# Elastic Constant Matrix: (Units=GPa)
#
#
# Indices 1 2 3 4 5 6 
#
# 1 52.8714 19.1803 -16.2157 0.0000 0.0000 0.0000
# 2 19.1803 66.4808 5.0326 0.0000 0.0000 0.0000
# 3 -16.2157 5.0326 63.9039 0.0000 0.0000 0.0000
# 4 0.0000 0.0000 0.0000 18.5485 0.0000 0.0000
# 5 0.0000 0.0000 0.0000 0.0000 19.0923 0.0000
# 6 0.0000 0.0000 0.0000 0.0000 0.0000 30.7014
#
#
#
# Elastic Compliance Matrix: (Units=1/GPa)
#
#
# Indices 1 2 3 4 5 6 
#
# 1 0.023572 -0.007297 0.006556 0.000000 0.000000 0.000000
# 2 -0.007297 0.017391 -0.003221 0.000000 0.000000 0.000000
# 3 0.006556 -0.003221 0.017566 0.000000 0.000000 0.000000
# 4 0.000000 0.000000 0.000000 0.053913 0.000000 0.000000
# 5 0.000000 0.000000 0.000000 0.000000 0.052377 0.000000
# 6 0.000000 0.000000 0.000000 0.000000 0.000000 0.032572
#
#
# Mechanical properties :
#
#
# Convention : Reuss Voigt Hill
#
# Bulk Modulus (GPa) = 19.76120 22.13894 20.95007
# Shear Modulus (GPa) = 22.50403 25.35237 23.92820
#
# Velocity S-wave (km/s) = 3.09578 3.28586 3.19223
# Velocity P-wave (km/s) = 4.60371 4.88100 4.74438
#
# Compressibility (1/GPa) = 0.05060422
#
# Stress axis : x y z
#
# Youngs Moduli (GPa) = 42.42378 57.50092 56.92888
#
# Poissons Ratio (x) = 0.41958 -0.37323
# Poissons Ratio (y) = 0.30956 0.18338
# Poissons Ratio (z) = -0.27813 0.18522
#
# Static dielectric constant tensor:
#      x y z
#    x 1.990390 0.000000 0.000000 
#    y 0.000000 1.927720 0.000000 
#    z 0.000000 0.000000 1.955830 
# 
# From -- ./inp_files/1865.got.cif
#   From: 2010.05.17/outbox.cif.g08.bks.cpg/sg18_1_cif.got.tgz:1865.got - 2010.06.03 22:40:56.
