data_PCOD9312896
_publ_section_title
;
Structure prediction by ZEFSAII (Michael W. Deem and Ramdas Pophale) SiO2 
 PCOD9312896
Probable space group: P 21 21 2
;
_chemical_formula_sum "Si O2"
_cell_formula_units_Z 20
_cell_length_a 18.535698
_cell_length_b 8.764601
_cell_length_c 4.964282
_cell_angle_alpha 90.000000
_cell_angle_beta 90.000000
_cell_angle_gamma 90.000000
_cell_volume 806.487311
_symmetry_space_group_name_H-M "P 21 21 2"
_symmetry_group_IT_number 18
_symmetry_cell_setting 'orthorhombic'
loop_
_space_group_symop_operation_xyz
x,y,z
-x,-y,z
1/2+x,1/2-y,-z
1/2-x,1/2+y,-z
loop_
_atom_site_type_symbol
_atom_site_label
_atom_site_fract_x
_atom_site_fract_y
_atom_site_fract_z
Si Si1 0.624392 0.303505 0.405156
Si Si2 0.724889 0.833770 0.772956
Si Si3 0.623076 0.562151 0.827197
Si Si4 0.350823 0.040164 0.272281
Si Si5 0.542961 0.702060 0.321145
O O1 0.690006 0.363831 0.218459
O O2 0.628701 0.397752 0.683973
O O3 0.642600 0.124389 0.404852
O O4 0.542361 0.308217 0.305945
O O5 0.696854 0.662006 0.833022
O O6 0.701329 0.863654 0.466929
O O7 0.681464 0.943494 0.974223
O O8 0.570700 0.650633 0.613383
O O9 0.583280 0.593959 0.107398
O O10 0.426800 0.128756 0.270307
#
# Coordination Sequence:
#
# PCOD9312896 Si02
#       5
#     4   4   4   4   4
#     4  12  24  42  75 102 131 187 242 282 346 422
#     4  10  24  44  66  97 141 180 228 291 353 411
#     4  10  24  44  64  96 139 175 219 285 347 408
#     4  10  24  45  67 101 140 182 232 292 348 416
#     4  10  24  45  66  96 139 178 223 284 348 409
#
# _framework density 24.798898999999999
#
# number of rings (size 3 to 8) (size 9 to 14) (size 15 to 20)
#    0.000    1.600    0.000    2.400    0.000   16.000 
#    0.000    8.000    0.000    0.000    0.000    0.000 
#    0.000    0.000    0.000    0.000    0.000    0.000 
#
# Total GULP energy -111965.174667 kJ/mol
# GULP energy per Si atom -5598.258733 kJ/mol
# Density = 2.474246 g / cm^3
# Si number density = 24.798899 Si / 1000 Ang^3
#
#
#
# Elastic Constant Matrix: (Units=GPa)
#
#
# Indices 1 2 3 4 5 6 
#
# 1 180.6630 19.1642 22.4754 0.0000 0.0000 0.0000
# 2 19.1642 122.9647 -6.1937 0.0000 0.0000 0.0000
# 3 22.4754 -6.1937 47.6678 0.0000 0.0000 0.0000
# 4 0.0000 0.0000 0.0000 24.2633 0.0000 0.0000
# 5 0.0000 0.0000 0.0000 0.0000 19.8723 0.0000
# 6 0.0000 0.0000 0.0000 0.0000 0.0000 36.9754
#
#
#
# Elastic Compliance Matrix: (Units=1/GPa)
#
#
# Indices 1 2 3 4 5 6 
#
# 1 0.006021 -0.001089 -0.002981 0.000000 0.000000 0.000000
# 2 -0.001089 0.008383 0.001602 0.000000 0.000000 0.000000
# 3 -0.002981 0.001602 0.022592 0.000000 0.000000 0.000000
# 4 0.000000 0.000000 0.000000 0.041215 0.000000 0.000000
# 5 0.000000 0.000000 0.000000 0.000000 0.050321 0.000000
# 6 0.000000 0.000000 0.000000 0.000000 0.000000 0.027045
#
#
# Mechanical properties :
#
#
# Convention : Reuss Voigt Hill
#
# Bulk Modulus (GPa) = 31.18861 46.90971 39.04916
# Shear Modulus (GPa) = 29.20593 37.27884 33.24238
#
# Velocity S-wave (km/s) = 3.43550 3.88138 3.66523
# Velocity P-wave (km/s) = 5.32361 6.24851 5.80451
#
# Compressibility (1/GPa) = 0.03206299
#
# Stress axis : x y z
#
# Youngs Moduli (GPa) = 166.07328 119.29210 44.26331
#
# Poissons Ratio (x) = 0.12986 0.13193
# Poissons Ratio (y) = 0.18078 -0.07093
# Poissons Ratio (z) = 0.49499 -0.19116
#
# Static dielectric constant tensor:
#      x y z
#    x 1.934190 0.000000 0.000000 
#    y 0.000000 2.035580 0.000000 
#    z 0.000000 0.000000 1.906780 
# 
# From -- ./inp_files/1745.got.cif
#   From: 2010.05.17/outbox.cif.g08.bks.cpg/sg18_1_cif.got.tgz:1745.got - 2010.06.03 22:40:56.
