data_PCOD9312819
_publ_section_title
;
Structure prediction by ZEFSAII (Michael W. Deem and Ramdas Pophale) SiO2 
 PCOD9312819
Probable space group: P 21 21 2
;
_chemical_formula_sum "Si O2"
_cell_formula_units_Z 16
_cell_length_a 9.415334
_cell_length_b 13.303666
_cell_length_c 5.222541
_cell_angle_alpha 90.000000
_cell_angle_beta 90.000000
_cell_angle_gamma 90.000000
_cell_volume 654.167437
_symmetry_space_group_name_H-M "P 21 21 2"
_symmetry_group_IT_number 18
_symmetry_cell_setting 'orthorhombic'
loop_
_space_group_symop_operation_xyz
x,y,z
-x,-y,z
1/2+x,1/2-y,-z
1/2-x,1/2+y,-z
loop_
_atom_site_type_symbol
_atom_site_label
_atom_site_fract_x
_atom_site_fract_y
_atom_site_fract_z
Si Si1 0.675277 0.655540 0.359463
Si Si2 0.351380 0.033721 0.575638
Si Si3 0.926506 0.901287 0.314724
Si Si4 0.618447 0.762079 0.854605
O O1 0.778223 0.563802 0.300232
O O2 0.517095 0.613408 0.421670
O O3 0.712576 0.706846 0.632825
O O4 0.667428 0.734484 0.134645
O O5 0.233794 0.072661 0.376537
O O6 0.383317 0.122696 0.775253
O O7 0.500000 0.000000 0.455490
O O8 0.968927 0.798303 0.175096
O O9 0.000000 0.000000 0.189135
#
# Coordination Sequence:
#
# PCOD9312819 Si02
#       4
#     4   4   4   4
#     4   9  23  45  69  99 139 195 231 282 361 424
#     4  11  24  43  73 112 144 180 249 300 354 432
#     4   8  20  42  67  95 134 190 226 286 346 427
#     4  10  23  44  74  97 143 189 230 292 357 419
#
# _framework density 24.458569000000001
#
# number of rings (size 3 to 8) (size 9 to 14) (size 15 to 20)
#    1.500    1.000    0.000    0.000    3.500    7.000 
#    0.000    2.500    0.000    0.000    0.000    0.000 
#    0.000    0.000    0.000    0.000    0.000    0.000 
#
# Total GULP energy -89341.639554 kJ/mol
# GULP energy per Si atom -5583.852472 kJ/mol
# Density = 2.440290 g / cm^3
# Si number density = 24.458569 Si / 1000 Ang^3
#
#
#
# Elastic Constant Matrix: (Units=GPa)
#
#
# Indices 1 2 3 4 5 6 
#
# 1 161.6093 56.2419 14.7690 0.0000 0.0000 0.0000
# 2 56.2419 105.9092 9.7451 0.0000 0.0000 0.0000
# 3 14.7690 9.7451 69.5262 0.0000 0.0000 0.0000
# 4 0.0000 0.0000 0.0000 16.1767 0.0000 0.0000
# 5 0.0000 0.0000 0.0000 0.0000 0.6099 0.0000
# 6 0.0000 0.0000 0.0000 0.0000 0.0000 47.1600
#
#
#
# Elastic Compliance Matrix: (Units=1/GPa)
#
#
# Indices 1 2 3 4 5 6 
#
# 1 0.007669 -0.003974 -0.001072 0.000000 0.000000 0.000000
# 2 -0.003974 0.011624 -0.000785 0.000000 0.000000 0.000000
# 3 -0.001072 -0.000785 0.014721 0.000000 0.000000 0.000000
# 4 0.000000 0.000000 0.000000 0.061817 0.000000 0.000000
# 5 0.000000 0.000000 0.000000 0.000000 1.639525 0.000000
# 6 0.000000 0.000000 0.000000 0.000000 0.000000 0.021204
#
#
# Mechanical properties :
#
#
# Convention : Reuss Voigt Hill
#
# Bulk Modulus (GPa) = 44.73863 55.39519 50.06691
# Shear Modulus (GPa) = 2.81583 29.87524 16.34554
#
# Velocity S-wave (km/s) = 1.07413 3.49874 2.58794
# Velocity P-wave (km/s) = 4.45754 6.24654 5.42628
#
# Compressibility (1/GPa) = 0.02235205
#
# Stress axis : x y z
#
# Youngs Moduli (GPa) = 130.40144 86.02527 67.93085
#
# Poissons Ratio (x) = 0.34184 0.07282
# Poissons Ratio (y) = 0.51818 0.05334
# Poissons Ratio (z) = 0.13979 0.06755
#
# Static dielectric constant tensor:
#      x y z
#    x 2.001590 0.000000 0.000000 
#    y 0.000000 1.968430 0.000000 
#    z 0.000000 0.000000 1.907890 
# 
# From -- ./inp_files/884.got.cif
#   From: 2010.05.17/outbox.cif.g08.bks.cpg/sg18_1_cif.got.tgz:884.got - 2010.06.03 22:40:56.
