data_PCOD9312451
_publ_section_title
;
Structure prediction by ZEFSAII (Michael W. Deem and Ramdas Pophale) SiO2 
 PCOD9312451
Probable space group: P 21 21 2
;
_chemical_formula_sum "Si O2"
_cell_formula_units_Z 32
_cell_length_a 8.203369
_cell_length_b 16.025297
_cell_length_c 11.383270
_cell_angle_alpha 90.000000
_cell_angle_beta 90.000000
_cell_angle_gamma 90.000000
_cell_volume 1496.460891
_symmetry_space_group_name_H-M "P 21 21 2"
_symmetry_group_IT_number 18
_symmetry_cell_setting 'orthorhombic'
loop_
_space_group_symop_operation_xyz
x,y,z
-x,-y,z
1/2+x,1/2-y,-z
1/2-x,1/2+y,-z
loop_
_atom_site_type_symbol
_atom_site_label
_atom_site_fract_x
_atom_site_fract_y
_atom_site_fract_z
Si Si1 0.924703 0.248484 0.572966
Si Si2 0.197751 0.497956 0.061568
Si Si3 0.165699 0.648418 0.215820
Si Si4 0.310433 0.478173 0.799779
Si Si5 0.772376 0.194039 0.337618
Si Si6 0.153245 0.561684 0.611823
Si Si7 0.712676 0.126194 0.732872
Si Si8 0.182754 0.021222 0.602870
O O1 0.901032 0.205316 0.445168
O O2 0.863732 0.343286 0.574333
O O3 0.831060 0.195434 0.675097
O O4 0.111674 0.267713 0.601866
O O5 0.230283 0.592523 0.107574
O O6 0.267119 0.430779 0.155913
O O7 0.000000 0.500000 0.064402
O O8 0.262214 0.471980 0.935473
O O9 0.208080 0.744578 0.226490
O O10 0.244052 0.598534 0.325926
O O11 0.970110 0.650650 0.232798
O O12 0.500000 0.500000 0.791245
O O13 0.268355 0.397612 0.718821
O O14 0.200348 0.552298 0.746733
O O15 0.306107 0.532629 0.534772
O O16 0.000000 0.500000 0.588752
O O17 0.702424 0.056868 0.631551
O O18 0.000000 0.000000 0.639977
#
# Coordination Sequence:
#
# PCOD9312451 Si02
#       8
#     4   4   4   4   4   4   4   4
#     4  12  26  42  69 101 145 175 235 287 354 426
#     4   9  22  48  72  96 131 183 237 281 349 418
#     4  10  21  43  69  97 136 174 232 287 338 412
#     4  12  28  45  69 100 142 181 235 290 350 423
#     4  12  26  45  66 109 140 185 230 293 354 426
#     4  12  24  44  64  93 135 185 222 281 355 422
#     4  10  22  41  71  98 128 180 226 291 341 412
#     4  11  21  37  64  98 131 173 224 278 345 407
#
# _framework density 21.383787000000002
#
# number of rings (size 3 to 8) (size 9 to 14) (size 15 to 20)
#    0.000    1.000    2.500    4.875    3.500    3.000 
#    2.250    0.000    0.000    0.000    0.000    0.000 
#    0.000    0.000    0.000    0.000    0.000    0.000 
#
# Total GULP energy -178440.073343 kJ/mol
# GULP energy per Si atom -5576.252292 kJ/mol
# Density = 2.133512 g / cm^3
# Si number density = 21.383787 Si / 1000 Ang^3
#
#
#
# Elastic Constant Matrix: (Units=GPa)
#
#
# Indices 1 2 3 4 5 6 
#
# 1 56.1489 6.4332 14.1011 0.0000 0.0000 0.0000
# 2 6.4332 92.4163 31.4771 0.0000 0.0000 0.0000
# 3 14.1011 31.4771 105.0853 0.0000 0.0000 0.0000
# 4 0.0000 0.0000 0.0000 18.5788 0.0000 0.0000
# 5 0.0000 0.0000 0.0000 0.0000 26.8176 0.0000
# 6 0.0000 0.0000 0.0000 0.0000 0.0000 26.5856
#
#
#
# Elastic Compliance Matrix: (Units=1/GPa)
#
#
# Indices 1 2 3 4 5 6 
#
# 1 0.018451 -0.000491 -0.002329 0.000000 0.000000 0.000000
# 2 -0.000491 0.012063 -0.003547 0.000000 0.000000 0.000000
# 3 -0.002329 -0.003547 0.010891 0.000000 0.000000 0.000000
# 4 0.000000 0.000000 0.000000 0.053825 0.000000 0.000000
# 5 0.000000 0.000000 0.000000 0.000000 0.037289 0.000000
# 6 0.000000 0.000000 0.000000 0.000000 0.000000 0.037614
#
#
# Mechanical properties :
#
#
# Convention : Reuss Voigt Hill
#
# Bulk Modulus (GPa) = 34.87925 39.74148 37.31037
# Shear Modulus (GPa) = 25.98416 27.83899 26.91157
#
# Velocity S-wave (km/s) = 3.48966 3.61206 3.55139
# Velocity P-wave (km/s) = 5.70819 6.00177 5.85682
#
# Compressibility (1/GPa) = 0.02867034
#
# Stress axis : x y z
#
# Youngs Moduli (GPa) = 54.19785 82.89770 91.81762
#
# Poissons Ratio (x) = 0.04072 0.21382
# Poissons Ratio (y) = 0.02662 0.32572
# Poissons Ratio (z) = 0.12621 0.29407
#
# Static dielectric constant tensor:
#      x y z
#    x 1.913130 0.000000 0.000000 
#    y 0.000000 1.843110 0.000000 
#    z 0.000000 0.000000 1.752290 
# 
# From -- ./inp_files/5702.got.cif
#   From: 2010.05.17/outbox.cif.g08.bks.cpg/sg18_3_cif.got.tgz:5702.got - 2010.06.03 22:40:56.
