data_PCOD9312968
_publ_section_title
;
Structure prediction by ZEFSAII (Michael W. Deem and Ramdas Pophale) SiO2 
 PCOD9312968
Probable space group: P 21 21 2
;
_chemical_formula_sum "Si O2"
_cell_formula_units_Z 22
_cell_length_a 14.635630
_cell_length_b 6.013338
_cell_length_c 11.357984
_cell_angle_alpha 90.000000
_cell_angle_beta 90.000000
_cell_angle_gamma 90.000000
_cell_volume 999.604701
_symmetry_space_group_name_H-M "P 21 21 2"
_symmetry_group_IT_number 18
_symmetry_cell_setting 'orthorhombic'
loop_
_space_group_symop_operation_xyz
x,y,z
-x,-y,z
1/2+x,1/2-y,-z
1/2-x,1/2+y,-z
loop_
_atom_site_type_symbol
_atom_site_label
_atom_site_fract_x
_atom_site_fract_y
_atom_site_fract_z
Si Si1 0.341893 0.624341 0.736152
Si Si2 0.745339 0.473766 0.312833
Si Si3 0.646767 0.097295 0.222977
Si Si4 0.000000 0.500000 0.576209
Si Si5 0.500000 0.500000 0.909377
Si Si6 0.633975 0.661440 0.522797
Si Si7 0.000000 0.500000 0.970716
O O1 0.328056 0.887421 0.741903
O O2 0.239360 0.540071 0.761126
O O3 0.410959 0.519908 0.827435
O O4 0.373540 0.553746 0.605439
O O5 0.683927 0.348919 0.217535
O O6 0.677581 0.610187 0.396782
O O7 0.793405 0.305918 0.403565
O O8 0.581438 0.082559 0.337823
O O9 0.588580 0.018142 0.113243
O O10 0.956491 0.303781 0.499247
O O11 0.495360 0.250426 0.970001
#
# Coordination Sequence:
#
# PCOD9312968 Si02
#       7
#     4   4   4   2   2   4   2
#     4  11  26  45  70 107 150 201 242 311 375 466
#     4  11  21  42  69 104 151 199 240 295 376 455
#     4  10  25  46  75 103 145 189 254 321 376 453
#     4  11  22  39  64 112 146 197 246 297 368 452
#     4  12  32  50  78 108 150 194 264 326 394 446
#     4  11  22  37  65 105 154 193 242 288 363 466
#     4  11  30  55  78 112 136 193 264 335 398 450
#
# _framework density 22.008699
#
# number of rings (size 3 to 8) (size 9 to 14) (size 15 to 20)
#    0.000    1.091    3.636    1.091   10.182    2.182 
#    0.000    0.000    0.000    0.000    0.000    0.000 
#    0.000    0.000    0.000    0.000    0.000    0.000 
#
# Total GULP energy -122786.133154 kJ/mol
# GULP energy per Si atom -5581.187871 kJ/mol
# Density = 2.195861 g / cm^3
# Si number density = 22.008699 Si / 1000 Ang^3
#
#
#
# Elastic Constant Matrix: (Units=GPa)
#
#
# Indices 1 2 3 4 5 6 
#
# 1 125.6394 41.3970 46.1459 0.0000 0.0000 0.0000
# 2 41.3970 105.2846 38.5823 0.0000 0.0000 0.0000
# 3 46.1459 38.5823 69.6419 0.0000 0.0000 0.0000
# 4 0.0000 0.0000 0.0000 18.5889 0.0000 0.0000
# 5 0.0000 0.0000 0.0000 0.0000 113.8742 0.0000
# 6 0.0000 0.0000 0.0000 0.0000 0.0000 47.6418
#
#
#
# Elastic Compliance Matrix: (Units=1/GPa)
#
#
# Indices 1 2 3 4 5 6 
#
# 1 0.010861 -0.002049 -0.006061 0.000000 0.000000 0.000000
# 2 -0.002049 0.012304 -0.005459 0.000000 0.000000 0.000000
# 3 -0.006061 -0.005459 0.021400 0.000000 0.000000 0.000000
# 4 0.000000 0.000000 0.000000 0.053796 0.000000 0.000000
# 5 0.000000 0.000000 0.000000 0.000000 0.008782 0.000000
# 6 0.000000 0.000000 0.000000 0.000000 0.000000 0.020990
#
#
# Mechanical properties :
#
#
# Convention : Reuss Voigt Hill
#
# Bulk Modulus (GPa) = 57.38503 61.42403 59.40453
# Shear Modulus (GPa) = 31.04069 47.65038 39.34553
#
# Velocity S-wave (km/s) = 3.75958 4.65808 4.23274
# Velocity P-wave (km/s) = 6.70644 7.54320 7.13709
#
# Compressibility (1/GPa) = 0.01742615
#
# Stress axis : x y z
#
# Youngs Moduli (GPa) = 92.07530 81.27305 46.72962
#
# Poissons Ratio (x) = 0.16654 0.28324
# Poissons Ratio (y) = 0.18868 0.25509
# Poissons Ratio (z) = 0.55809 0.44366
#
# Static dielectric constant tensor:
#      x y z
#    x 1.791670 0.000000 0.000000 
#    y 0.000000 1.595260 0.000000 
#    z 0.000000 0.000000 1.767770 
# 
# From -- ./inp_files/5113.got.cif
#   From: 2010.05.17/outbox.cif.g08.bks.cpg/sg18_3_cif.got.tgz:5113.got - 2010.06.03 22:40:56.
