data_PCOD9312162
_publ_section_title
;
Structure prediction by ZEFSAII (Michael W. Deem and Ramdas Pophale) SiO2 
 PCOD9312162
Probable space group: P 21 21 2
;
_chemical_formula_sum "Si O2"
_cell_formula_units_Z 32
_cell_length_a 22.575563
_cell_length_b 11.637844
_cell_length_c 5.189979
_cell_angle_alpha 90.000000
_cell_angle_beta 90.000000
_cell_angle_gamma 90.000000
_cell_volume 1363.567752
_symmetry_space_group_name_H-M "P 21 21 2"
_symmetry_group_IT_number 18
_symmetry_cell_setting 'orthorhombic'
loop_
_space_group_symop_operation_xyz
x,y,z
-x,-y,z
1/2+x,1/2-y,-z
1/2-x,1/2+y,-z
loop_
_atom_site_type_symbol
_atom_site_label
_atom_site_fract_x
_atom_site_fract_y
_atom_site_fract_z
Si Si1 0.766537 0.841264 0.891354
Si Si2 0.459755 0.212561 0.554230
Si Si3 0.078416 0.845553 0.955592
Si Si4 0.103104 0.099196 0.834685
Si Si5 0.587677 0.251425 0.668887
Si Si6 0.301242 0.876498 0.462563
Si Si7 0.800425 0.200603 0.742039
Si Si8 0.345237 0.102032 0.573446
O O1 0.826139 0.913856 0.882629
O O2 0.784745 0.722847 0.740446
O O3 0.706170 0.898889 0.787727
O O4 0.747989 0.793757 0.167661
O O5 0.449785 0.264003 0.266418
O O6 0.528329 0.184030 0.596107
O O7 0.415081 0.107939 0.625150
O O8 0.446131 0.311288 0.767188
O O9 0.150251 0.827918 0.951436
O O10 0.071371 0.978286 0.879640
O O11 0.093782 0.148862 0.548978
O O12 0.084067 0.191581 0.050280
O O13 0.645774 0.172916 0.639335
O O14 0.239354 0.895088 0.611236
O O15 0.327280 0.999414 0.380394
O O16 0.837335 0.269926 0.534310
#
# Coordination Sequence:
#
# PCOD9312162 Si02
#       8
#     4   4   4   4   4   4   4   4
#     4  10  20  40  60  92 125 155 200 257 310 370
#     4  11  24  42  61  89 126 163 213 259 297 363
#     4  11  23  40  65  92 122 163 205 255 317 366
#     4  11  23  40  65  92 122 163 205 255 317 366
#     4  11  24  42  61  89 126 163 213 259 297 363
#     4  10  22  39  62  89 124 165 202 251 313 368
#     4  10  20  40  60  92 125 155 200 257 310 370
#     4  10  22  39  62  89 124 165 202 251 313 368
#
# _framework density 23.467846999999999
#
# number of rings (size 3 to 8) (size 9 to 14) (size 15 to 20)
#    0.000    1.500    2.500    2.250    0.000    5.500 
#    0.000    0.000    0.000    3.000    0.000    0.000 
#    0.000    0.000    0.000    0.000    0.000    0.000 
#
# Total GULP energy -178502.692333 kJ/mol
# GULP energy per Si atom -5578.209135 kJ/mol
# Density = 2.341443 g / cm^3
# Si number density = 23.467847 Si / 1000 Ang^3
#
#
#
# Elastic Constant Matrix: (Units=GPa)
#
#
# Indices 1 2 3 4 5 6 
#
# 1 119.1945 7.9156 0.5867 0.0000 0.0000 0.0000
# 2 7.9156 49.0955 -2.7390 0.0000 0.0000 0.0000
# 3 0.5867 -2.7390 64.3722 0.0000 0.0000 0.0000
# 4 0.0000 0.0000 0.0000 12.5627 0.0000 0.0000
# 5 0.0000 0.0000 0.0000 0.0000 32.4802 0.0000
# 6 0.0000 0.0000 0.0000 0.0000 0.0000 10.1910
#
#
#
# Elastic Compliance Matrix: (Units=1/GPa)
#
#
# Indices 1 2 3 4 5 6 
#
# 1 0.008482 -0.001375 -0.000136 0.000000 0.000000 0.000000
# 2 -0.001375 0.020640 0.000891 0.000000 0.000000 0.000000
# 3 -0.000136 0.000891 0.015574 0.000000 0.000000 0.000000
# 4 0.000000 0.000000 0.000000 0.079601 0.000000 0.000000
# 5 0.000000 0.000000 0.000000 0.000000 0.030788 0.000000
# 6 0.000000 0.000000 0.000000 0.000000 0.000000 0.098126
#
#
# Mechanical properties :
#
#
# Convention : Reuss Voigt Hill
#
# Bulk Modulus (GPa) = 23.01229 27.13209 25.07219
# Shear Modulus (GPa) = 18.59187 26.17339 22.38263
#
# Velocity S-wave (km/s) = 2.81771 3.34321 3.09165
# Velocity P-wave (km/s) = 4.51809 5.14677 4.84264
#
# Compressibility (1/GPa) = 0.04345504
#
# Stress axis : x y z
#
# Youngs Moduli (GPa) = 117.90185 48.44998 64.21039
#
# Poissons Ratio (x) = 0.06662 0.00872
# Poissons Ratio (y) = 0.16212 -0.05720
# Poissons Ratio (z) = 0.01601 -0.04316
#
# Static dielectric constant tensor:
#      x y z
#    x 1.981450 0.000000 0.000000 
#    y 0.000000 1.919000 0.000000 
#    z 0.000000 0.000000 1.881520 
# 
# From -- ./inp_files/2131.got.cif
#   From: 2010.05.17/outbox.cif.g08.bks.cpg/sg18_2_cif.got.tgz:2131.got - 2010.06.03 22:40:56.
