data_PCOD9312739
_publ_section_title
;
Structure prediction by ZEFSAII (Michael W. Deem and Ramdas Pophale) SiO2 
 PCOD9312739
Probable space group: P 21 21 2
;
_chemical_formula_sum "Si O2"
_cell_formula_units_Z 20
_cell_length_a 5.202015
_cell_length_b 13.431139
_cell_length_c 12.993102
_cell_angle_alpha 90.000000
_cell_angle_beta 90.000000
_cell_angle_gamma 90.000000
_cell_volume 907.814869
_symmetry_space_group_name_H-M "P 21 21 2"
_symmetry_group_IT_number 18
_symmetry_cell_setting 'orthorhombic'
loop_
_space_group_symop_operation_xyz
x,y,z
-x,-y,z
1/2+x,1/2-y,-z
1/2-x,1/2+y,-z
loop_
_atom_site_type_symbol
_atom_site_label
_atom_site_fract_x
_atom_site_fract_y
_atom_site_fract_z
Si Si1 0.500000 0.000000 0.403025
Si Si2 0.809893 0.905872 0.236049
Si Si3 0.000000 0.000000 0.535960
Si Si4 0.116029 0.752642 0.150237
Si Si5 0.770303 0.936838 0.735665
Si Si6 0.518283 0.108008 0.032460
O O1 0.404191 0.084183 0.323467
O O2 0.247526 0.969543 0.468314
O O3 0.696798 0.906585 0.120467
O O4 0.936226 0.798012 0.237849
O O5 0.000000 0.000000 0.250057
O O6 0.870853 0.923979 0.618043
O O7 0.273304 0.667376 0.206534
O O8 0.251022 0.849757 0.102004
O O9 0.002405 0.692503 0.053675
O O10 0.500000 0.000000 0.735406
O O11 0.000000 0.000000 0.786796
O O12 0.500000 0.000000 0.979577
#
# Coordination Sequence:
#
# PCOD9312739 Si02
#       6
#     2   4   2   4   4   4
#     4  12  22  46  82 104 146 200 246 318 378 446
#     4  12  24  43  73 103 147 196 248 301 370 446
#     4  10  22  46  82 106 142 196 246 316 392 428
#     4  12  26  43  74 108 155 200 251 306 370 461
#     4  10  24  47  76 109 148 194 254 312 378 443
#     4  12  25  43  67 108 148 199 248 298 371 443
#
# _framework density 22.030923000000001
#
# number of rings (size 3 to 8) (size 9 to 14) (size 15 to 20)
#    0.600    0.000    7.000    0.600    2.800    2.400 
#    0.000    0.000   13.200    0.000    0.000    0.000 
#    0.000    0.000    0.000    0.000    0.000    0.000 
#
# Total GULP energy -111349.474268 kJ/mol
# GULP energy per Si atom -5567.473713 kJ/mol
# Density = 2.198078 g / cm^3
# Si number density = 22.030923 Si / 1000 Ang^3
#
#
#
# Elastic Constant Matrix: (Units=GPa)
#
#
# Indices 1 2 3 4 5 6 
#
# 1 114.7236 24.6631 29.7096 0.0000 0.0000 0.0000
# 2 24.6631 81.4216 4.0250 0.0000 0.0000 0.0000
# 3 29.7096 4.0250 88.5418 0.0000 0.0000 0.0000
# 4 0.0000 0.0000 0.0000 -92.1331 0.0000 0.0000
# 5 0.0000 0.0000 0.0000 0.0000 36.5627 0.0000
# 6 0.0000 0.0000 0.0000 0.0000 0.0000 38.3550
#
#
#
# Elastic Compliance Matrix: (Units=1/GPa)
#
#
# Indices 1 2 3 4 5 6 
#
# 1 0.010197 -0.002926 -0.003289 0.000000 0.000000 0.000000
# 2 -0.002926 0.013149 0.000384 0.000000 0.000000 0.000000
# 3 -0.003289 0.000384 0.012380 0.000000 0.000000 0.000000
# 4 0.000000 0.000000 0.000000 -0.010854 0.000000 0.000000
# 5 0.000000 0.000000 0.000000 0.000000 0.027350 0.000000
# 6 0.000000 0.000000 0.000000 0.000000 0.000000 0.026072
#
#
# Mechanical properties :
#
#
# Convention : Reuss Voigt Hill
#
# Bulk Modulus (GPa) = 41.55393 44.60915 43.08154
# Shear Modulus (GPa) = 51.03166 11.64288 31.33727
#
# Velocity S-wave (km/s) = 4.81808 2.30136 3.77559
# Velocity P-wave (km/s) = 7.06077 5.23011 6.21323
#
# Compressibility (1/GPa) = 0.02406511
#
# Stress axis : x y z
#
# Youngs Moduli (GPa) = 98.06492 76.05054 80.77472
#
# Poissons Ratio (x) = 0.22254 0.26564
# Poissons Ratio (y) = 0.28696 -0.03103
# Poissons Ratio (z) = 0.32250 -0.02921
#
# Static dielectric constant tensor:
#      x y z
#    x 2.030050 0.000000 0.000000 
#    y 0.000000 1.980750 0.000000 
#    z 0.000000 0.000000 1.846920 
# 
# From -- ./inp_files/6409.got.cif
#   From: 2010.05.17/outbox.cif.g08.bks.cpg/sg18_4_cif.got.tgz:6409.got - 2010.06.03 22:40:56.
