data_PCOD9312868
_publ_section_title
;
Structure prediction by ZEFSAII (Michael W. Deem and Ramdas Pophale) SiO2 
 PCOD9312868
Probable space group: P 21 21 2
;
_chemical_formula_sum "Si O2"
_cell_formula_units_Z 14
_cell_length_a 10.849496
_cell_length_b 7.552762
_cell_length_c 8.990084
_cell_angle_alpha 90.000000
_cell_angle_beta 90.000000
_cell_angle_gamma 90.000000
_cell_volume 736.680397
_symmetry_space_group_name_H-M "P 21 21 2"
_symmetry_group_IT_number 18
_symmetry_cell_setting 'orthorhombic'
loop_
_space_group_symop_operation_xyz
x,y,z
-x,-y,z
1/2+x,1/2-y,-z
1/2-x,1/2+y,-z
loop_
_atom_site_type_symbol
_atom_site_label
_atom_site_fract_x
_atom_site_fract_y
_atom_site_fract_z
Si Si1 0.099596 0.152041 0.959490
Si Si2 0.000000 0.500000 0.427504
Si Si3 0.037821 0.796150 0.669741
Si Si4 0.290695 0.905691 0.797833
O O1 0.039170 0.251974 0.818373
O O2 0.220500 0.052146 0.897387
O O3 0.133121 0.278026 0.094068
O O4 0.000000 0.000000 0.000583
O O5 0.991982 0.330570 0.534550
O O6 0.880923 0.510424 0.322637
O O7 0.181182 0.799960 0.714707
O O8 0.000000 0.000000 0.637215
#
# Coordination Sequence:
#
# PCOD9312868 Si02
#       4
#     4   2   4   4
#     4   9  22  44  64  93 127 164 215 270 308 374
#     4  12  26  38  72  96 124 176 204 254 342 376
#     4   9  24  46  60  96 135 159 212 267 314 379
#     4  10  24  41  67  95 122 170 214 259 323 376
#
# _framework density 19.004170999999999
#
# number of rings (size 3 to 8) (size 9 to 14) (size 15 to 20)
#    0.000    2.857    0.000    0.000   20.000    1.143 
#    0.000    0.000    0.000    0.000    0.000    0.000 
#    0.000    0.000    0.000    0.000    0.000    0.000 
#
# Total GULP energy -78176.295576 kJ/mol
# GULP energy per Si atom -5584.021113 kJ/mol
# Density = 1.896092 g / cm^3
# Si number density = 19.004171 Si / 1000 Ang^3
#
#
#
# Elastic Constant Matrix: (Units=GPa)
#
#
# Indices 1 2 3 4 5 6 
#
# 1 104.0563 37.3245 62.4768 0.0000 0.0000 0.0000
# 2 37.3245 61.3417 66.5049 0.0000 0.0000 0.0000
# 3 62.4768 66.5049 100.9934 0.0000 0.0000 0.0000
# 4 0.0000 0.0000 0.0000 31.7158 0.0000 0.0000
# 5 0.0000 0.0000 0.0000 0.0000 13.4950 0.0000
# 6 0.0000 0.0000 0.0000 0.0000 0.0000 7.8487
#
#
#
# Elastic Compliance Matrix: (Units=1/GPa)
#
#
# Indices 1 2 3 4 5 6 
#
# 1 0.015486 0.003368 -0.011798 0.000000 0.000000 0.000000
# 2 0.003368 0.057720 -0.040093 0.000000 0.000000 0.000000
# 3 -0.011798 -0.040093 0.043602 0.000000 0.000000 0.000000
# 4 0.000000 0.000000 0.000000 0.031530 0.000000 0.000000
# 5 0.000000 0.000000 0.000000 0.000000 0.074102 0.000000
# 6 0.000000 0.000000 0.000000 0.000000 0.000000 0.127410
#
#
# Mechanical properties :
#
#
# Convention : Reuss Voigt Hill
#
# Bulk Modulus (GPa) = 50.60085 66.55600 58.57843
# Shear Modulus (GPa) = 11.02583 17.28424 14.15504
#
# Velocity S-wave (km/s) = 2.41130 3.01906 2.73213
# Velocity P-wave (km/s) = 5.86826 6.87392 6.39090
#
# Compressibility (1/GPa) = 0.01976251
#
# Stress axis : x y z
#
# Youngs Moduli (GPa) = 64.57642 17.32497 22.93497
#
# Poissons Ratio (x) = -0.05836 0.27058
# Poissons Ratio (y) = -0.21752 0.91953
# Poissons Ratio (z) = 0.76186 0.69461
#
# Static dielectric constant tensor:
#      x y z
#    x 1.661010 0.000000 0.000000 
#    y 0.000000 1.649600 0.000000 
#    z 0.000000 0.000000 1.627310 
# 
# From -- ./inp_files/2707.got.cif
#   From: 2010.05.17/outbox.cif.g08.bks.cpg/sg18_2_cif.got.tgz:2707.got - 2010.06.03 22:40:56.
