data_PCOD9312161
_publ_section_title
;
Structure prediction by ZEFSAII (Michael W. Deem and Ramdas Pophale) SiO2 
 PCOD9312161
Probable space group: P 21 21 2
;
_chemical_formula_sum "Si O2"
_cell_formula_units_Z 24
_cell_length_a 8.989403
_cell_length_b 16.017870
_cell_length_c 8.239454
_cell_angle_alpha 90.000000
_cell_angle_beta 90.000000
_cell_angle_gamma 90.000000
_cell_volume 1186.407951
_symmetry_space_group_name_H-M "P 21 21 2"
_symmetry_group_IT_number 18
_symmetry_cell_setting 'orthorhombic'
loop_
_space_group_symop_operation_xyz
x,y,z
-x,-y,z
1/2+x,1/2-y,-z
1/2-x,1/2+y,-z
loop_
_atom_site_type_symbol
_atom_site_label
_atom_site_fract_x
_atom_site_fract_y
_atom_site_fract_z
Si Si1 0.194156 0.257932 0.360168
Si Si2 0.375866 0.840384 0.309282
Si Si3 0.500000 0.000000 0.467910
Si Si4 0.984567 0.183996 0.795750
Si Si5 0.729912 0.404227 0.431706
Si Si6 0.952113 0.164488 0.169241
Si Si7 0.000000 0.000000 0.374980
O O1 0.115757 0.300511 0.512127
O O2 0.329895 0.316345 0.303624
O O3 0.250059 0.170027 0.436456
O O4 0.071673 0.233891 0.226034
O O5 0.482083 0.783589 0.199199
O O6 0.213623 0.820591 0.235757
O O7 0.416300 0.935843 0.344760
O O8 0.391028 0.053966 0.583891
O O9 0.122337 0.136081 0.707180
O O10 0.959590 0.153394 0.977240
O O11 0.636415 0.480240 0.507955
O O12 0.991368 0.079910 0.262094
#
# Coordination Sequence:
#
# PCOD9312161 Si02
#       7
#     4   4   2   4   4   4   2
#     4  10  21  41  64  94 125 175 231 275 323 418
#     4  11  22  41  67  96 129 179 234 275 337 413
#     4  12  22  40  68 100 132 174 234 288 322 400
#     4  11  23  40  64  98 131 175 223 288 339 400
#     4  10  22  38  67  92 126 173 228 275 331 404
#     4  11  23  39  65  94 138 173 222 284 348 392
#     4  10  20  40  60  92 122 178 222 274 330 404
#
# _framework density 20.229130000000001
#
# number of rings (size 3 to 8) (size 9 to 14) (size 15 to 20)
#    0.000    1.333    3.333    4.000    2.333    0.667 
#    0.000    0.000    0.000    8.000    0.000    0.000 
#    0.000    0.000    0.000    0.000    0.000    0.000 
#
# Total GULP energy -133751.534357 kJ/mol
# GULP energy per Si atom -5572.980598 kJ/mol
# Density = 2.018309 g / cm^3
# Si number density = 20.229130 Si / 1000 Ang^3
#
#
#
# Elastic Constant Matrix: (Units=GPa)
#
#
# Indices 1 2 3 4 5 6 
#
# 1 83.8692 32.6879 26.0837 0.0000 0.0000 0.0000
# 2 32.6879 71.8995 16.5313 0.0000 0.0000 0.0000
# 3 26.0837 16.5313 85.1826 0.0000 0.0000 0.0000
# 4 0.0000 0.0000 0.0000 19.1435 0.0000 0.0000
# 5 0.0000 0.0000 0.0000 0.0000 14.2234 0.0000
# 6 0.0000 0.0000 0.0000 0.0000 0.0000 44.2866
#
#
#
# Elastic Compliance Matrix: (Units=1/GPa)
#
#
# Indices 1 2 3 4 5 6 
#
# 1 0.015439 -0.006209 -0.003523 0.000000 0.000000 0.000000
# 2 -0.006209 0.017055 -0.001409 0.000000 0.000000 0.000000
# 3 -0.003523 -0.001409 0.013091 0.000000 0.000000 0.000000
# 4 0.000000 0.000000 0.000000 0.052237 0.000000 0.000000
# 5 0.000000 0.000000 0.000000 0.000000 0.070307 0.000000
# 6 0.000000 0.000000 0.000000 0.000000 0.000000 0.022580
#
#
# Mechanical properties :
#
#
# Convention : Reuss Voigt Hill
#
# Bulk Modulus (GPa) = 42.90933 43.50635 43.20784
# Shear Modulus (GPa) = 22.64925 26.57393 24.61159
#
# Velocity S-wave (km/s) = 3.34973 3.62836 3.49182
# Velocity P-wave (km/s) = 6.01819 6.25354 6.13699
#
# Compressibility (1/GPa) = 0.02330496
#
# Stress axis : x y z
#
# Youngs Moduli (GPa) = 64.77174 58.63375 76.38556
#
# Poissons Ratio (x) = 0.36406 0.26907
# Poissons Ratio (y) = 0.40217 0.10759
# Poissons Ratio (z) = 0.22816 0.08259
#
# Static dielectric constant tensor:
#      x y z
#    x 1.824720 0.000000 0.000000 
#    y 0.000000 1.808200 0.000000 
#    z 0.000000 0.000000 1.664040 
# 
# From -- ./inp_files/3326.got.cif
#   From: 2010.05.17/outbox.cif.g08.bks.cpg/sg18_2_cif.got.tgz:3326.got - 2010.06.03 22:40:56.
