data_PCOD9312066
_publ_section_title
;
Structure prediction by ZEFSAII (Michael W. Deem and Ramdas Pophale) SiO2 
 PCOD9312066
Probable space group: P 21 21 2
;
_chemical_formula_sum "Si O2"
_cell_formula_units_Z 26
_cell_length_a 7.846117
_cell_length_b 15.307413
_cell_length_c 10.528839
_cell_angle_alpha 90.000000
_cell_angle_beta 90.000000
_cell_angle_gamma 90.000000
_cell_volume 1264.553082
_symmetry_space_group_name_H-M "P 21 21 2"
_symmetry_group_IT_number 18
_symmetry_cell_setting 'orthorhombic'
loop_
_space_group_symop_operation_xyz
x,y,z
-x,-y,z
1/2+x,1/2-y,-z
1/2-x,1/2+y,-z
loop_
_atom_site_type_symbol
_atom_site_label
_atom_site_fract_x
_atom_site_fract_y
_atom_site_fract_z
Si Si1 0.176320 0.965738 0.583796
Si Si2 0.847641 0.215927 0.650703
Si Si3 0.259682 0.661704 0.415654
Si Si4 0.500000 0.000000 0.184621
Si Si5 0.332353 0.253211 0.829610
Si Si6 0.144138 0.934501 0.291774
Si Si7 0.050856 0.691332 0.898538
O O1 0.245007 0.879121 0.652430
O O2 0.133304 0.929331 0.443548
O O3 0.269836 0.058165 0.563675
O O4 0.000000 0.000000 0.647238
O O5 0.789321 0.281256 0.538866
O O6 0.837124 0.265121 0.785722
O O7 0.044386 0.189142 0.617669
O O8 0.159209 0.687935 0.288672
O O9 0.665136 0.032649 0.262142
O O10 0.443082 0.086359 0.109205
O O11 0.398622 0.343987 0.774187
O O12 0.136858 0.275368 0.863158
O O13 0.411265 0.221664 0.959998
O O14 0.000000 0.000000 0.246740
#
# Coordination Sequence:
#
# PCOD9312066 Si02
#       7
#     4   4   4   2   4   4   4
#     4   9  18  35  60  88 119 151 202 258 311 375
#     4  10  20  38  60  89 117 157 200 258 310 373
#     4  10  20  37  62  88 121 157 201 258 313 367
#     4  10  22  40  60  90 126 160 214 262 300 376
#     4  10  22  40  60  89 124 164 205 256 314 380
#     4  10  20  37  65  93 120 166 211 254 318 381
#     4  10  23  40  61  86 125 162 205 258 316 367
#
# _framework density 20.560625000000002
#
# number of rings (size 3 to 8) (size 9 to 14) (size 15 to 20)
#    0.000    2.154    1.538    0.923    2.154    1.231 
#    5.538    0.769    0.000    0.000    0.000    0.000 
#    0.000    0.000    0.000    0.000    0.000    0.000 
#
# Total GULP energy -144998.230679 kJ/mol
# GULP energy per Si atom -5576.855026 kJ/mol
# Density = 2.051383 g / cm^3
# Si number density = 20.560625 Si / 1000 Ang^3
#
#
#
# Elastic Constant Matrix: (Units=GPa)
#
#
# Indices 1 2 3 4 5 6 
#
# 1 29.1527 19.4946 6.8028 0.0000 0.0000 0.0000
# 2 19.4946 198.7575 87.1955 0.0000 0.0000 0.0000
# 3 6.8028 87.1955 124.8787 0.0000 0.0000 0.0000
# 4 0.0000 0.0000 0.0000 45.7562 0.0000 0.0000
# 5 0.0000 0.0000 0.0000 0.0000 -2.6542 0.0000
# 6 0.0000 0.0000 0.0000 0.0000 0.0000 25.0204
#
#
#
# Elastic Compliance Matrix: (Units=1/GPa)
#
#
# Indices 1 2 3 4 5 6 
#
# 1 0.036758 -0.003931 0.000742 0.000000 0.000000 0.000000
# 2 -0.003931 0.007673 -0.005144 0.000000 0.000000 0.000000
# 3 0.000742 -0.005144 0.011559 0.000000 0.000000 0.000000
# 4 0.000000 0.000000 0.000000 0.021855 0.000000 0.000000
# 5 0.000000 0.000000 0.000000 0.000000 -0.376766 0.000000
# 6 0.000000 0.000000 0.000000 0.000000 0.000000 0.039967
#
#
# Mechanical properties :
#
#
# Convention : Reuss Voigt Hill
#
# Bulk Modulus (GPa) = 25.42895 64.41941 44.92418
# Shear Modulus (GPa) = -21.81683 29.57755 3.88036
#
# Velocity S-wave (km/s) = -3.26098 3.79694 1.37527
# Velocity P-wave (km/s) = 1.33568 7.11490 4.94155
#
# Compressibility (1/GPa) = 0.03932525
#
# Stress axis : x y z
#
# Youngs Moduli (GPa) = 27.20525 130.32055 86.51345
#
# Poissons Ratio (x) = 0.51228 -0.06423
# Poissons Ratio (y) = 0.10694 0.44500
# Poissons Ratio (z) = -0.02020 0.67033
#
# Static dielectric constant tensor:
#      x y z
#    x 1.818200 0.000000 0.000000 
#    y 0.000000 1.911720 0.000000 
#    z 0.000000 0.000000 1.701280 
# 
# From -- ./inp_files/3393.got.cif
#   From: 2010.05.17/outbox.cif.g08.bks.cpg/sg18_2_cif.got.tgz:3393.got - 2010.06.03 22:40:56.
