data_PCOD9312433
_publ_section_title
;
Structure prediction by ZEFSAII (Michael W. Deem and Ramdas Pophale) SiO2 
 PCOD9312433
Probable space group: P 21 21 2
;
_chemical_formula_sum "Si O2"
_cell_formula_units_Z 32
_cell_length_a 30.198483
_cell_length_b 5.036554
_cell_length_c 9.326112
_cell_angle_alpha 90.000000
_cell_angle_beta 90.000000
_cell_angle_gamma 90.000000
_cell_volume 1418.467039
_symmetry_space_group_name_H-M "P 21 21 2"
_symmetry_group_IT_number 18
_symmetry_cell_setting 'orthorhombic'
loop_
_space_group_symop_operation_xyz
x,y,z
-x,-y,z
1/2+x,1/2-y,-z
1/2-x,1/2+y,-z
loop_
_atom_site_type_symbol
_atom_site_label
_atom_site_fract_x
_atom_site_fract_y
_atom_site_fract_z
Si Si1 0.233480 0.265933 0.673612
Si Si2 0.875057 0.787715 0.189275
Si Si3 0.816187 0.981716 0.433731
Si Si4 0.646910 0.858656 0.308878
Si Si5 0.952149 0.974714 0.369370
Si Si6 0.261250 0.929392 0.923029
Si Si7 0.050500 0.523348 0.576722
Si Si8 0.855044 0.303714 0.027442
O O1 0.285047 0.347204 0.670250
O O2 0.190778 0.453225 0.702231
O O3 0.234175 0.021851 0.784790
O O4 0.221764 0.179065 0.514317
O O5 0.917361 0.946388 0.245642
O O6 0.887201 0.510547 0.112382
O O7 0.845651 0.786657 0.336160
O O8 0.854293 0.006108 0.084434
O O9 0.841836 0.150358 0.558877
O O10 0.598267 0.987073 0.342717
O O11 0.640778 0.772699 0.143394
O O12 0.949142 0.711343 0.463137
O O13 0.947052 0.208768 0.484027
O O14 0.000000 0.000000 0.302417
O O15 0.311006 0.032069 0.928923
O O16 0.241908 0.118512 0.048892
O O17 0.000000 0.500000 0.645882
#
# Coordination Sequence:
#
# PCOD9312433 Si02
#       8
#     4   4   4   4   4   4   4   4
#     4  12  26  38  66  95 130 175 234 285 338 395
#     4  12  26  46  67 102 134 180 230 289 338 420
#     4  12  26  40  68  96 133 174 235 290 343 392
#     4  12  26  46  65  99 138 185 225 288 347 414
#     4  10  21  42  73 104 134 170 222 286 350 406
#     4  12  25  45  64  90 134 185 233 274 335 416
#     4  10  22  42  73 107 133 172 226 285 347 408
#     4  12  28  43  68  96 141 187 229 274 353 413
#
# _framework density 22.559567000000001
#
# number of rings (size 3 to 8) (size 9 to 14) (size 15 to 20)
#    0.000    0.500    5.000    3.000    5.250    0.000 
#    0.000    1.250    0.000    0.000    0.000    0.000 
#    0.000    0.000    0.000    0.000    0.000    0.000 
#
# Total GULP energy -178421.806535 kJ/mol
# GULP energy per Si atom -5575.681454 kJ/mol
# Density = 2.250822 g / cm^3
# Si number density = 22.559567 Si / 1000 Ang^3
#
#
#
# Elastic Constant Matrix: (Units=GPa)
#
#
# Indices 1 2 3 4 5 6 
#
# 1 103.5854 -2.0682 15.0419 0.0000 0.0000 0.0000
# 2 -2.0682 99.5469 26.9885 0.0000 0.0000 0.0000
# 3 15.0419 26.9885 107.3922 0.0000 0.0000 0.0000
# 4 0.0000 0.0000 0.0000 29.1188 0.0000 0.0000
# 5 0.0000 0.0000 0.0000 0.0000 17.4802 0.0000
# 6 0.0000 0.0000 0.0000 0.0000 0.0000 24.5143
#
#
#
# Elastic Compliance Matrix: (Units=1/GPa)
#
#
# Indices 1 2 3 4 5 6 
#
# 1 0.009890 0.000624 -0.001542 0.000000 0.000000 0.000000
# 2 0.000624 0.010819 -0.002806 0.000000 0.000000 0.000000
# 3 -0.001542 -0.002806 0.010233 0.000000 0.000000 0.000000
# 4 0.000000 0.000000 0.000000 0.034342 0.000000 0.000000
# 5 0.000000 0.000000 0.000000 0.000000 0.057208 0.000000
# 6 0.000000 0.000000 0.000000 0.000000 0.000000 0.040793
#
#
# Mechanical properties :
#
#
# Convention : Reuss Voigt Hill
#
# Bulk Modulus (GPa) = 42.56603 43.38321 42.97462
# Shear Modulus (GPa) = 28.00098 32.26013 30.13056
#
# Velocity S-wave (km/s) = 3.52689 3.78563 3.65855
# Velocity P-wave (km/s) = 5.95773 6.19518 6.07762
#
# Compressibility (1/GPa) = 0.02349291
#
# Stress axis : x y z
#
# Youngs Moduli (GPa) = 101.10981 92.42743 97.72416
#
# Poissons Ratio (x) = -0.05763 0.15069
# Poissons Ratio (y) = -0.06304 0.27424
# Poissons Ratio (z) = 0.15591 0.25938
#
# Static dielectric constant tensor:
#      x y z
#    x 1.970940 0.000000 0.000000 
#    y 0.000000 1.956190 0.000000 
#    z 0.000000 0.000000 1.866340 
# 
# From -- ./inp_files/2677.got.cif
#   From: 2010.05.17/outbox.cif.g08.bks.cpg/sg18_2_cif.got.tgz:2677.got - 2010.06.03 22:40:56.
