data_PCOD9312341
_publ_section_title
;
Structure prediction by ZEFSAII (Michael W. Deem and Ramdas Pophale) SiO2 
 PCOD9312341
Probable space group: P 21 21 2
;
_chemical_formula_sum "Si O2"
_cell_formula_units_Z 24
_cell_length_a 22.176498
_cell_length_b 9.384387
_cell_length_c 5.603640
_cell_angle_alpha 90.000000
_cell_angle_beta 90.000000
_cell_angle_gamma 90.000000
_cell_volume 1166.189432
_symmetry_space_group_name_H-M "P 21 21 2"
_symmetry_group_IT_number 18
_symmetry_cell_setting 'orthorhombic'
loop_
_space_group_symop_operation_xyz
x,y,z
-x,-y,z
1/2+x,1/2-y,-z
1/2-x,1/2+y,-z
loop_
_atom_site_type_symbol
_atom_site_label
_atom_site_fract_x
_atom_site_fract_y
_atom_site_fract_z
Si Si1 0.558690 0.697659 0.397259
Si Si2 0.224814 0.571507 0.278251
Si Si3 0.805600 0.730418 0.438271
Si Si4 0.620898 0.752339 0.883888
Si Si5 0.663301 0.445869 0.954990
Si Si6 0.422893 0.634095 0.326271
O O1 0.581053 0.772471 0.641943
O O2 0.486708 0.707665 0.363185
O O3 0.572249 0.527652 0.423975
O O4 0.588638 0.743939 0.143553
O O5 0.247313 0.704183 0.433657
O O6 0.172447 0.628192 0.107976
O O7 0.699984 0.062560 0.578803
O O8 0.286620 0.521486 0.154606
O O9 0.809203 0.815434 0.190515
O O10 0.867589 0.778964 0.563084
O O11 0.651457 0.597826 0.839013
O O12 0.599026 0.392460 0.055631
#
# Coordination Sequence:
#
# PCOD9312341 Si02
#       6
#     4   4   4   4   4   4
#     4  10  22  40  69  94 133 167 227 269 317 388
#     4  11  25  38  64  98 131 175 213 277 332 395
#     4  11  22  41  65  91 135 167 224 267 334 392
#     4  11  23  41  65  99 129 170 215 274 328 382
#     4  10  21  39  64  94 128 168 223 269 327 392
#     4   9  21  38  64  98 121 177 217 275 317 389
#
# _framework density 20.579848999999999
#
# number of rings (size 3 to 8) (size 9 to 14) (size 15 to 20)
#    0.000    1.667    1.667    2.000    9.333    2.667 
#    0.000    0.833    0.000    0.000    0.000    0.000 
#    0.000    0.000    0.000    0.000    0.000    0.000 
#
# Total GULP energy -133819.389119 kJ/mol
# GULP energy per Si atom -5575.807880 kJ/mol
# Density = 2.053301 g / cm^3
# Si number density = 20.579849 Si / 1000 Ang^3
#
#
#
# Elastic Constant Matrix: (Units=GPa)
#
#
# Indices 1 2 3 4 5 6 
#
# 1 107.8390 49.7767 31.3168 0.0000 0.0000 0.0000
# 2 49.7767 68.4852 21.2579 0.0000 0.0000 0.0000
# 3 31.3168 21.2579 63.5354 0.0000 0.0000 0.0000
# 4 0.0000 0.0000 0.0000 21.4725 0.0000 0.0000
# 5 0.0000 0.0000 0.0000 0.0000 15.3840 0.0000
# 6 0.0000 0.0000 0.0000 0.0000 0.0000 22.5989
#
#
#
# Elastic Compliance Matrix: (Units=1/GPa)
#
#
# Indices 1 2 3 4 5 6 
#
# 1 0.014872 -0.009523 -0.004144 0.000000 0.000000 0.000000
# 2 -0.009523 0.022392 -0.002798 0.000000 0.000000 0.000000
# 3 -0.004144 -0.002798 0.018718 0.000000 0.000000 0.000000
# 4 0.000000 0.000000 0.000000 0.046571 0.000000 0.000000
# 5 0.000000 0.000000 0.000000 0.000000 0.065003 0.000000
# 6 0.000000 0.000000 0.000000 0.000000 0.000000 0.044250
#
#
# Mechanical properties :
#
#
# Convention : Reuss Voigt Hill
#
# Bulk Modulus (GPa) = 43.38118 49.39581 46.38849
# Shear Modulus (GPa) = 19.80819 21.05830 20.43324
#
# Velocity S-wave (km/s) = 3.10579 3.20230 3.15441
# Velocity P-wave (km/s) = 5.82979 6.14224 5.98805
#
# Compressibility (1/GPa) = 0.02305147
#
# Stress axis : x y z
#
# Youngs Moduli (GPa) = 67.23880 44.65905 53.42403
#
# Poissons Ratio (x) = 0.42530 0.22141
# Poissons Ratio (y) = 0.64033 0.14948
# Poissons Ratio (z) = 0.27866 0.12495
#
# Static dielectric constant tensor:
#      x y z
#    x 1.714420 0.000000 0.000000 
#    y 0.000000 1.701950 0.000000 
#    z 0.000000 0.000000 1.854820 
# 
# From -- ./inp_files/1882.got.cif
#   From: 2010.05.17/outbox.cif.g08.bks.cpg/sg18_1_cif.got.tgz:1882.got - 2010.06.03 22:40:56.
