data_PCOD9312862
_publ_section_title
;
Structure prediction by ZEFSAII (Michael W. Deem and Ramdas Pophale) SiO2 
 PCOD9312862
Probable space group: P 21 21 2
;
_chemical_formula_sum "Si O2"
_cell_formula_units_Z 20
_cell_length_a 9.236240
_cell_length_b 9.120956
_cell_length_c 11.053139
_cell_angle_alpha 90.000000
_cell_angle_beta 90.000000
_cell_angle_gamma 90.000000
_cell_volume 931.153332
_symmetry_space_group_name_H-M "P 21 21 2"
_symmetry_group_IT_number 18
_symmetry_cell_setting 'orthorhombic'
loop_
_space_group_symop_operation_xyz
x,y,z
-x,-y,z
1/2+x,1/2-y,-z
1/2-x,1/2+y,-z
loop_
_atom_site_type_symbol
_atom_site_label
_atom_site_fract_x
_atom_site_fract_y
_atom_site_fract_z
Si Si1 0.904360 0.246674 0.173700
Si Si2 0.904360 0.746674 0.826300
Si Si3 0.923021 0.841495 0.394296
Si Si4 0.076979 0.658505 0.605705
Si Si5 0.500000 0.000000 0.996223
Si Si6 0.000000 0.000000 0.996223
O O1 0.750000 0.244029 0.240108
O O2 0.035286 0.235769 0.267515
O O3 0.912589 0.107551 0.084556
O O4 0.914591 0.390041 0.090966
O O5 0.035286 0.735769 0.732485
O O6 0.912589 0.607551 0.915444
O O7 0.914591 0.890041 0.909034
O O8 1.000000 0.750000 0.500000
O O9 0.750000 0.852594 0.409295
O O10 0.000000 0.000000 0.390296
O O11 0.000000 0.500000 0.609705
#
# Coordination Sequence:
#
# PCOD9312862 Si02
#       6
#     4   4   4   4   2   2
#     4  11  23  43  69 101 139 181 230 280 338 405
#     4  11  23  43  69 101 139 181 230 280 338 405
#     4  12  27  48  73 101 136 179 230 285 344 407
#     4  12  27  48  73 101 136 179 230 285 344 407
#     4  10  24  40  68 102 142 180 230 274 346 398
#     4  10  24  40  68 102 142 180 230 274 346 398
#
# _framework density 21.478739999999998
#
# number of rings (size 3 to 8) (size 9 to 14) (size 15 to 20)
#    0.000    0.800    2.000    4.800    2.800    8.000 
#    0.000    0.000    0.000    0.000    0.000    0.000 
#    0.000    0.000    0.000    0.000    0.000    0.000 
#
# Total GULP energy -111807.521388 kJ/mol
# GULP energy per Si atom -5590.376069 kJ/mol
# Density = 2.142985 g / cm^3
# Si number density = 21.478740 Si / 1000 Ang^3
#
#
#
# Elastic Constant Matrix: (Units=GPa)
#
#
# Indices 1 2 3 4 5 6 
#
# 1 196.3711 33.5315 47.7783 0.0000 0.0000 0.0000
# 2 33.5315 100.0195 41.0232 0.0000 0.0000 0.0000
# 3 47.7783 41.0232 110.4435 0.0000 0.0000 0.0000
# 4 0.0000 0.0000 0.0000 32.3708 0.0000 0.0000
# 5 0.0000 0.0000 0.0000 0.0000 25.2606 0.0000
# 6 0.0000 0.0000 0.0000 0.0000 0.0000 3.7428
#
#
#
# Elastic Compliance Matrix: (Units=1/GPa)
#
#
# Indices 1 2 3 4 5 6 
#
# 1 0.005788 -0.001078 -0.002104 0.000000 0.000000 0.000000
# 2 -0.001078 0.011996 -0.003989 0.000000 0.000000 0.000000
# 3 -0.002104 -0.003989 0.011446 0.000000 0.000000 0.000000
# 4 0.000000 0.000000 0.000000 0.030892 0.000000 0.000000
# 5 0.000000 0.000000 0.000000 0.000000 0.039587 0.000000
# 6 0.000000 0.000000 0.000000 0.000000 0.000000 0.267179
#
#
# Mechanical properties :
#
#
# Convention : Reuss Voigt Hill
#
# Bulk Modulus (GPa) = 67.16593 72.38891 69.77742
# Shear Modulus (GPa) = 12.94690 31.24158 22.09424
#
# Velocity S-wave (km/s) = 2.45782 3.81797 3.21075
# Velocity P-wave (km/s) = 6.27640 7.29463 6.80459
#
# Compressibility (1/GPa) = 0.01488850
#
# Stress axis : x y z
#
# Youngs Moduli (GPa) = 172.76318 83.36375 87.36424
#
# Poissons Ratio (x) = 0.08984 0.18379
# Poissons Ratio (y) = 0.18618 0.34854
# Poissons Ratio (z) = 0.36345 0.33258
#
# Static dielectric constant tensor:
#      x y z
#    x 1.800970 0.000000 0.000000 
#    y 0.000000 1.758050 0.000000 
#    z 0.000000 0.000000 1.762190 
# 
# From -- ./inp_files/5460.got.cif
#   From: 2010.05.17/outbox.cif.g08.bks.cpg/sg18_3_cif.got.tgz:5460.got - 2010.06.03 22:40:56.
