data_PCOD9312584
_publ_section_title
;
Structure prediction by ZEFSAII (Michael W. Deem and Ramdas Pophale) SiO2 
 PCOD9312584
Probable space group: P 21 21 2
;
_chemical_formula_sum "Si O2"
_cell_formula_units_Z 24
_cell_length_a 8.951684
_cell_length_b 19.863244
_cell_length_c 5.043897
_cell_angle_alpha 90.000000
_cell_angle_beta 90.000000
_cell_angle_gamma 90.000000
_cell_volume 896.852720
_symmetry_space_group_name_H-M "P 21 21 2"
_symmetry_group_IT_number 18
_symmetry_cell_setting 'orthorhombic'
loop_
_space_group_symop_operation_xyz
x,y,z
-x,-y,z
1/2+x,1/2-y,-z
1/2-x,1/2+y,-z
loop_
_atom_site_type_symbol
_atom_site_label
_atom_site_fract_x
_atom_site_fract_y
_atom_site_fract_z
Si Si1 0.500000 0.500000 0.772889
Si Si2 0.980624 0.267148 0.272394
Si Si3 0.500000 0.000000 0.690662
Si Si4 0.246151 0.818987 0.983915
Si Si5 0.704573 0.893915 0.956266
Si Si6 0.979542 0.624201 0.659426
Si Si7 0.466692 0.412592 0.248285
O O1 0.500613 0.441727 0.541337
O O2 0.404949 0.462160 0.010286
O O3 0.873018 0.206883 0.197344
O O4 0.020313 0.298541 0.556700
O O5 0.884602 0.330951 0.164355
O O6 0.141757 0.262351 0.130818
O O7 0.567548 0.061439 0.519761
O O8 0.373415 0.038242 0.852955
O O9 0.361448 0.872523 0.104558
O O10 0.149385 0.851836 0.751418
O O11 0.651228 0.891584 0.260658
O O12 0.875054 0.891463 0.879012
#
# Coordination Sequence:
#
# PCOD9312584 Si02
#       7
#     2   4   2   4   4   4   4
#     4  10  28  44  66 108 148 186 248 302 374 434
#     4  10  24  46  69 104 142 184 247 308 370 451
#     4  10  22  40  70 100 146 182 246 306 366 452
#     4  11  25  45  72 103 145 191 250 303 382 447
#     4  10  23  43  67 102 139 191 241 302 372 439
#     4  10  24  42  70 107 135 191 243 307 374 447
#     4  11  26  46  72 104 146 197 243 313 370 443
#
# _framework density 26.760248000000001
#
# number of rings (size 3 to 8) (size 9 to 14) (size 15 to 20)
#    0.000    1.667    0.000    1.500    9.333   12.000 
#    0.000    0.000    0.000    0.000    0.000    0.000 
#    0.000    0.000    0.000    0.000    0.000    0.000 
#
# Total GULP energy -133798.646061 kJ/mol
# GULP energy per Si atom -5574.943586 kJ/mol
# Density = 2.669934 g / cm^3
# Si number density = 26.760248 Si / 1000 Ang^3
#
#
#
# Elastic Constant Matrix: (Units=GPa)
#
#
# Indices 1 2 3 4 5 6 
#
# 1 151.3378 29.1886 17.5331 0.0000 0.0000 0.0000
# 2 29.1886 63.1085 18.3329 0.0000 0.0000 0.0000
# 3 17.5331 18.3329 111.8258 0.0000 0.0000 0.0000
# 4 0.0000 0.0000 0.0000 26.0502 0.0000 0.0000
# 5 0.0000 0.0000 0.0000 0.0000 5.6856 0.0000
# 6 0.0000 0.0000 0.0000 0.0000 0.0000 40.3257
#
#
#
# Elastic Compliance Matrix: (Units=1/GPa)
#
#
# Indices 1 2 3 4 5 6 
#
# 1 0.007296 -0.003194 -0.000620 0.000000 0.000000 0.000000
# 2 -0.003194 0.018037 -0.002456 0.000000 0.000000 0.000000
# 3 -0.000620 -0.002456 0.009442 0.000000 0.000000 0.000000
# 4 0.000000 0.000000 0.000000 0.038387 0.000000 0.000000
# 5 0.000000 0.000000 0.000000 0.000000 0.175882 0.000000
# 6 0.000000 0.000000 0.000000 0.000000 0.000000 0.024798
#
#
# Mechanical properties :
#
#
# Convention : Reuss Voigt Hill
#
# Bulk Modulus (GPa) = 44.97707 50.70904 47.84305
# Shear Modulus (GPa) = 17.01871 31.82679 24.42275
#
# Velocity S-wave (km/s) = 2.52458 3.45241 3.02429
# Velocity P-wave (km/s) = 5.03408 5.90616 5.48747
#
# Compressibility (1/GPa) = 0.02223355
#
# Stress axis : x y z
#
# Youngs Moduli (GPa) = 137.06798 55.44293 105.90538
#
# Poissons Ratio (x) = 0.17709 0.06569
# Poissons Ratio (y) = 0.43782 0.26012
# Poissons Ratio (z) = 0.08501 0.13618
#
# Static dielectric constant tensor:
#      x y z
#    x 2.081540 0.000000 0.000000 
#    y 0.000000 2.226860 0.000000 
#    z 0.000000 0.000000 2.339040 
# 
# From -- ./inp_files/633.got.cif
#   From: 2010.05.17/outbox.cif.g08.bks.cpg/sg18_1_cif.got.tgz:633.got - 2010.06.03 22:40:56.
