data_PCOD9312068
_publ_section_title
;
Structure prediction by ZEFSAII (Michael W. Deem and Ramdas Pophale) SiO2 
 PCOD9312068
Probable space group: P 21 21 2
;
_chemical_formula_sum "Si O2"
_cell_formula_units_Z 32
_cell_length_a 11.145136
_cell_length_b 15.948858
_cell_length_c 8.803249
_cell_angle_alpha 90.000000
_cell_angle_beta 90.000000
_cell_angle_gamma 90.000000
_cell_volume 1564.796802
_symmetry_space_group_name_H-M "P 21 21 2"
_symmetry_group_IT_number 18
_symmetry_cell_setting 'orthorhombic'
loop_
_space_group_symop_operation_xyz
x,y,z
-x,-y,z
1/2+x,1/2-y,-z
1/2-x,1/2+y,-z
loop_
_atom_site_type_symbol
_atom_site_label
_atom_site_fract_x
_atom_site_fract_y
_atom_site_fract_z
Si Si1 0.750965 0.546050 0.670970
Si Si2 0.672991 0.291661 0.072737
Si Si3 0.563389 0.279638 0.537391
Si Si4 0.541470 0.156771 0.261659
Si Si5 0.097831 0.926411 0.605028
Si Si6 0.894766 0.204033 0.194406
Si Si7 0.521263 0.592973 0.079570
Si Si8 0.745806 0.856272 0.254891
O O1 0.885758 0.570577 0.717943
O O2 0.713782 0.549511 0.493415
O O3 0.670962 0.622062 0.736163
O O4 0.720353 0.454925 0.737725
O O5 0.593451 0.209883 0.118616
O O6 0.797841 0.273089 0.153899
O O7 0.604475 0.371573 0.142992
O O8 0.703766 0.312872 0.897933
O O9 0.578338 0.208277 0.413149
O O10 0.473652 0.346843 0.460681
O O11 0.491720 0.258621 0.691405
O O12 0.689680 0.315303 0.598444
O O13 0.398114 0.151099 0.256902
O O14 0.115998 0.911048 0.783928
O O15 0.000000 0.000000 0.592354
O O16 0.947686 0.162880 0.042611
O O17 0.500000 0.500000 0.017060
#
# Coordination Sequence:
#
# PCOD9312068 Si02
#       8
#     4   4   4   4   4   4   4   4
#     4  10  23  43  64  95 129 173 220 273 322 406
#     4  11  23  40  62  95 130 165 214 273 328 399
#     4  11  23  38  65  96 125 172 218 277 324 396
#     4  11  26  42  64  99 136 170 220 275 343 394
#     4  10  20  37  63  94 130 160 220 279 322 377
#     4  10  23  39  61  94 133 162 223 271 327 392
#     4  11  21  37  63  95 126 168 217 276 333 390
#     4  12  24  41  70  90 131 180 218 265 343 403
#
# _framework density 20.449940000000002
#
# number of rings (size 3 to 8) (size 9 to 14) (size 15 to 20)
#    0.000    1.250    3.750    1.875    5.250    0.000 
#    0.000    0.000    0.000    0.000    0.000    0.000 
#    0.000    0.000    0.000    0.000    0.000    0.000 
#
# Total GULP energy -178536.554699 kJ/mol
# GULP energy per Si atom -5579.267334 kJ/mol
# Density = 2.040340 g / cm^3
# Si number density = 20.449940 Si / 1000 Ang^3
#
#
#
# Elastic Constant Matrix: (Units=GPa)
#
#
# Indices 1 2 3 4 5 6 
#
# 1 89.6488 8.4709 25.4623 0.0000 0.0000 0.0000
# 2 8.4709 58.9921 29.6866 0.0000 0.0000 0.0000
# 3 25.4623 29.6866 94.7879 0.0000 0.0000 0.0000
# 4 0.0000 0.0000 0.0000 13.6754 0.0000 0.0000
# 5 0.0000 0.0000 0.0000 0.0000 8.8751 0.0000
# 6 0.0000 0.0000 0.0000 0.0000 0.0000 29.4080
#
#
#
# Elastic Compliance Matrix: (Units=1/GPa)
#
#
# Indices 1 2 3 4 5 6 
#
# 1 0.012077 -0.000121 -0.003206 0.000000 0.000000 0.000000
# 2 -0.000121 0.020124 -0.006270 0.000000 0.000000 0.000000
# 3 -0.003206 -0.006270 0.013375 0.000000 0.000000 0.000000
# 4 0.000000 0.000000 0.000000 0.073124 0.000000 0.000000
# 5 0.000000 0.000000 0.000000 0.000000 0.112675 0.000000
# 6 0.000000 0.000000 0.000000 0.000000 0.000000 0.034004
#
#
# Mechanical properties :
#
#
# Convention : Reuss Voigt Hill
#
# Bulk Modulus (GPa) = 37.90554 41.18537 39.54545
# Shear Modulus (GPa) = 17.04348 22.37896 19.71122
#
# Velocity S-wave (km/s) = 2.89004 3.31165 3.10800
# Velocity P-wave (km/s) = 5.45091 5.89967 5.67972
#
# Compressibility (1/GPa) = 0.02638137
#
# Stress axis : x y z
#
# Youngs Moduli (GPa) = 82.80403 49.69156 74.76663
#
# Poissons Ratio (x) = 0.00599 0.23973
# Poissons Ratio (y) = 0.00999 0.46881
# Poissons Ratio (z) = 0.26550 0.31158
#
# Static dielectric constant tensor:
#      x y z
#    x 1.789020 0.000000 0.000000 
#    y 0.000000 1.728610 0.000000 
#    z 0.000000 0.000000 1.782600 
# 
# From -- ./inp_files/3962.got.cif
#   From: 2010.05.17/outbox.cif.g08.bks.cpg/sg18_2_cif.got.tgz:3962.got - 2010.06.03 22:40:56.
