data_PCOD9312754
_publ_section_title
;
Structure prediction by ZEFSAII (Michael W. Deem and Ramdas Pophale) SiO2 
 PCOD9312754
Probable space group: P 21 21 2
;
_chemical_formula_sum "Si O2"
_cell_formula_units_Z 20
_cell_length_a 4.762509
_cell_length_b 31.369080
_cell_length_c 5.559284
_cell_angle_alpha 90.000000
_cell_angle_beta 90.000000
_cell_angle_gamma 90.000000
_cell_volume 830.532156
_symmetry_space_group_name_H-M "P 21 21 2"
_symmetry_group_IT_number 18
_symmetry_cell_setting 'orthorhombic'
loop_
_space_group_symop_operation_xyz
x,y,z
-x,-y,z
1/2+x,1/2-y,-z
1/2-x,1/2+y,-z
loop_
_atom_site_type_symbol
_atom_site_label
_atom_site_fract_x
_atom_site_fract_y
_atom_site_fract_z
Si Si1 0.808853 0.042260 0.249848
Si Si2 0.121176 0.279012 1.000000
Si Si3 0.617840 0.387278 0.500000
Si Si4 0.191147 0.957740 0.750152
Si Si5 0.883419 0.671772 0.500000
O O1 0.014964 0.082795 0.281159
O O2 0.640522 0.041337 0.500000
O O3 0.648312 0.045204 0.000000
O O4 0.000000 0.000000 0.246038
O O5 0.060615 0.303461 0.749683
O O6 0.943762 0.235448 1.000000
O O7 0.060614 0.303461 0.250317
O O8 0.514964 0.417205 0.281158
O O9 0.932167 0.371200 0.500000
O O10 0.436443 0.344123 0.500000
O O11 0.000000 0.000000 0.753962
#
# Coordination Sequence:
#
# PCOD9312754 Si02
#       5
#     4   4   4   4   4
#     4   8  16  32  56  82 122 170 206 243 293 347
#     4  12  26  48  68  92 123 158 199 244 310 388
#     4  10  23  39  60  96 129 156 209 254 302 347
#     4   8  16  32  56  82 122 170 206 243 293 347
#     4  12  26  39  71  94 123 158 199 254 311 357
#
# _framework density 24.080946000000001
#
# number of rings (size 3 to 8) (size 9 to 14) (size 15 to 20)
#    1.200    0.800    0.000    3.600    5.600    0.000 
#    0.000    4.000    0.000    4.800    0.000    0.000 
#    0.000    0.000    0.000    0.000    0.000    0.000 
#
# Total GULP energy -111597.706184 kJ/mol
# GULP energy per Si atom -5579.885309 kJ/mol
# Density = 2.402614 g / cm^3
# Si number density = 24.080946 Si / 1000 Ang^3
#
#
#
# Elastic Constant Matrix: (Units=GPa)
#
#
# Indices 1 2 3 4 5 6 
#
# 1 49.0489 4.8886 10.2012 0.0000 0.0000 0.0000
# 2 4.8886 103.6975 55.5265 0.0000 0.0000 0.0000
# 3 10.2012 55.5265 269.4697 0.0000 0.0000 0.0000
# 4 0.0000 0.0000 0.0000 105.8093 0.0000 0.0000
# 5 0.0000 0.0000 0.0000 0.0000 12.4507 0.0000
# 6 0.0000 0.0000 0.0000 0.0000 0.0000 55.7841
#
#
#
# Elastic Compliance Matrix: (Units=1/GPa)
#
#
# Indices 1 2 3 4 5 6 
#
# 1 0.020585 -0.000622 -0.000651 0.000000 0.000000 0.000000
# 2 -0.000622 0.010858 -0.002214 0.000000 0.000000 0.000000
# 3 -0.000651 -0.002214 0.004192 0.000000 0.000000 0.000000
# 4 0.000000 0.000000 0.000000 0.009451 0.000000 0.000000
# 5 0.000000 0.000000 0.000000 0.000000 0.080317 0.000000
# 6 0.000000 0.000000 0.000000 0.000000 0.000000 0.017926
#
#
# Mechanical properties :
#
#
# Convention : Reuss Voigt Hill
#
# Bulk Modulus (GPa) = 34.88987 62.60541 48.74764
# Shear Modulus (GPa) = 31.27795 58.24881 44.76338
#
# Velocity S-wave (km/s) = 3.60789 4.92354 4.31614
# Velocity P-wave (km/s) = 5.64587 7.64042 6.71758
#
# Compressibility (1/GPa) = 0.02866162
#
# Stress axis : x y z
#
# Youngs Moduli (GPa) = 48.57856 92.09627 238.55914
#
# Poissons Ratio (x) = 0.05726 0.15534
# Poissons Ratio (y) = 0.03020 0.52814
# Poissons Ratio (z) = 0.03163 0.20389
#
# Static dielectric constant tensor:
#      x y z
#    x 1.805720 0.000000 0.000000 
#    y 0.000000 1.908410 0.000000 
#    z 0.000000 0.000000 1.985160 
# 
# From -- ./inp_files/310.got.cif
#   From: 2010.05.17/outbox.cif.g08.bks.cpg/sg18_1_cif.got.tgz:310.got - 2010.06.03 22:40:56.
