data_PCOD9312926
_publ_section_title
;
Structure prediction by ZEFSAII (Michael W. Deem and Ramdas Pophale) SiO2 
 PCOD9312926
Probable space group: P 21 21 2
;
_chemical_formula_sum "Si O2"
_cell_formula_units_Z 24
_cell_length_a 11.622732
_cell_length_b 16.396352
_cell_length_c 4.805544
_cell_angle_alpha 90.000000
_cell_angle_beta 90.000000
_cell_angle_gamma 90.000000
_cell_volume 915.794467
_symmetry_space_group_name_H-M "P 21 21 2"
_symmetry_group_IT_number 18
_symmetry_cell_setting 'orthorhombic'
loop_
_space_group_symop_operation_xyz
x,y,z
-x,-y,z
1/2+x,1/2-y,-z
1/2-x,1/2+y,-z
loop_
_atom_site_type_symbol
_atom_site_label
_atom_site_fract_x
_atom_site_fract_y
_atom_site_fract_z
Si Si1 0.000000 0.000000 0.954063
Si Si2 0.757608 0.750736 0.509823
Si Si3 0.902616 0.913133 0.496222
Si Si4 0.574772 0.852308 0.216773
Si Si5 0.279451 0.016147 0.918632
Si Si6 0.679786 0.151677 0.993845
Si Si7 0.500000 0.000000 0.598758
O O1 0.078147 0.047739 0.189620
O O2 0.992082 0.072870 0.716066
O O3 0.852394 0.822677 0.475304
O O4 0.636181 0.783630 0.397373
O O5 0.795478 0.674855 0.323041
O O6 0.756040 0.721529 0.825088
O O7 0.806319 0.963087 0.671099
O O8 0.456245 0.833048 0.060051
O O9 0.536167 0.924550 0.419135
O O10 0.674866 0.899194 0.043769
O O11 0.256086 0.933060 0.088606
O O12 0.395260 0.977981 0.790646
#
# Coordination Sequence:
#
# PCOD9312926 Si02
#       7
#     2   4   4   4   4   4   2
#     4  10  24  46  76 102 136 202 264 284 346 460
#     4  12  28  47  75 110 162 196 238 310 406 442
#     4  11  24  48  76 105 148 200 252 302 367 453
#     4  12  25  47  79 113 149 205 252 319 379 449
#     4  12  24  44  84 114 141 190 267 324 363 439
#     4  12  27  47  73 120 153 192 245 318 384 458
#     4  12  20  42  84 114 142 178 270 322 374 418
#
# _framework density 26.206752000000002
#
# number of rings (size 3 to 8) (size 9 to 14) (size 15 to 20)
#    0.000    0.333    5.000    4.000    0.000    0.000 
#   12.000    0.000    3.667    0.000    0.000    0.000 
#    0.000    0.000    0.000    0.000    0.000    0.000 
#
# Total GULP energy -134032.452861 kJ/mol
# GULP energy per Si atom -5584.685536 kJ/mol
# Density = 2.614710 g / cm^3
# Si number density = 26.206752 Si / 1000 Ang^3
#
#
#
# Elastic Constant Matrix: (Units=GPa)
#
#
# Indices 1 2 3 4 5 6 
#
# 1 42.1855 11.9116 -16.3485 0.0000 0.0000 0.0000
# 2 11.9116 103.7300 10.6259 0.0000 0.0000 0.0000
# 3 -16.3485 10.6259 94.6335 0.0000 0.0000 0.0000
# 4 0.0000 0.0000 0.0000 40.8948 0.0000 0.0000
# 5 0.0000 0.0000 0.0000 0.0000 67.4916 0.0000
# 6 0.0000 0.0000 0.0000 0.0000 0.0000 34.2194
#
#
#
# Elastic Compliance Matrix: (Units=1/GPa)
#
#
# Indices 1 2 3 4 5 6 
#
# 1 0.026654 -0.003574 0.005006 0.000000 0.000000 0.000000
# 2 -0.003574 0.010232 -0.001766 0.000000 0.000000 0.000000
# 3 0.005006 -0.001766 0.011630 0.000000 0.000000 0.000000
# 4 0.000000 0.000000 0.000000 0.024453 0.000000 0.000000
# 5 0.000000 0.000000 0.000000 0.000000 0.014817 0.000000
# 6 0.000000 0.000000 0.000000 0.000000 0.000000 0.029223
#
#
# Mechanical properties :
#
#
# Convention : Reuss Voigt Hill
#
# Bulk Modulus (GPa) = 20.89956 28.10302 24.50129
# Shear Modulus (GPa) = 37.41796 44.14515 40.78155
#
# Velocity S-wave (km/s) = 3.78272 4.10871 3.94908
# Velocity P-wave (km/s) = 5.20296 5.76676 5.49210
#
# Compressibility (1/GPa) = 0.04784791
#
# Stress axis : x y z
#
# Youngs Moduli (GPa) = 37.51809 97.73550 85.98312
#
# Poissons Ratio (x) = 0.34926 -0.43042
# Poissons Ratio (y) = 0.13407 0.15186
# Poissons Ratio (z) = -0.18781 0.17262
#
# Static dielectric constant tensor:
#      x y z
#    x 2.598790 0.000000 0.000000 
#    y 0.000000 2.688570 0.000000 
#    z 0.000000 0.000000 2.047010 
# 
# From -- ./inp_files/1539.got.cif
#   From: 2010.05.17/outbox.cif.g08.bks.cpg/sg18_1_cif.got.tgz:1539.got - 2010.06.03 22:40:56.
