data_PCOD9312938
_publ_section_title
;
Structure prediction by ZEFSAII (Michael W. Deem and Ramdas Pophale) SiO2 
 PCOD9312938
Probable space group: P 21 21 2
;
_chemical_formula_sum "Si O2"
_cell_formula_units_Z 14
_cell_length_a 8.998289
_cell_length_b 8.310731
_cell_length_c 7.159108
_cell_angle_alpha 90.000000
_cell_angle_beta 90.000000
_cell_angle_gamma 90.000000
_cell_volume 535.374987
_symmetry_space_group_name_H-M "P 21 21 2"
_symmetry_group_IT_number 18
_symmetry_cell_setting 'orthorhombic'
loop_
_space_group_symop_operation_xyz
x,y,z
-x,-y,z
1/2+x,1/2-y,-z
1/2-x,1/2+y,-z
loop_
_atom_site_type_symbol
_atom_site_label
_atom_site_fract_x
_atom_site_fract_y
_atom_site_fract_z
Si Si1 0.389496 0.858164 0.832741
Si Si2 0.835764 0.135093 0.148369
Si Si3 0.000000 0.000000 0.457062
Si Si4 0.920041 0.669564 0.599630
O O1 0.503071 0.712131 0.880505
O O2 0.365187 0.865129 0.611246
O O3 0.500000 0.000000 0.884815
O O4 0.241561 0.885145 0.950477
O O5 0.707349 0.230193 0.259774
O O6 0.859980 0.001376 0.311811
O O7 0.986252 0.166683 0.567125
O O8 0.000000 0.500000 0.660335
#
# Coordination Sequence:
#
# PCOD9312938 Si02
#       4
#     4   4   2   4
#     4  10  25  44  71 105 145 196 244 302 375 438
#     4  11  25  46  72 107 148 193 247 309 367 444
#     4  10  26  42  76 110 138 202 244 298 382 430
#     4  10  24  48  73 107 148 188 245 307 365 440
#
# _framework density 26.149895000000001
#
# number of rings (size 3 to 8) (size 9 to 14) (size 15 to 20)
#    0.000    1.714    0.000    0.857   20.000    4.571 
#    0.000    1.429    0.000    0.000    0.000    0.000 
#    0.000    0.000    0.000    0.000    0.000    0.000 
#
# Total GULP energy -77973.214980 kJ/mol
# GULP energy per Si atom -5569.515356 kJ/mol
# Density = 2.609038 g / cm^3
# Si number density = 26.149895 Si / 1000 Ang^3
#
#
#
# Elastic Constant Matrix: (Units=GPa)
#
#
# Indices 1 2 3 4 5 6 
#
# 1 86.3785 13.0547 22.5017 0.0000 0.0000 0.0000
# 2 13.0547 132.5279 -0.9057 0.0000 0.0000 0.0000
# 3 22.5017 -0.9057 93.5022 0.0000 0.0000 0.0000
# 4 0.0000 0.0000 0.0000 -3.1541 0.0000 0.0000
# 5 0.0000 0.0000 0.0000 0.0000 54.1561 0.0000
# 6 0.0000 0.0000 0.0000 0.0000 0.0000 10.6474
#
#
#
# Elastic Compliance Matrix: (Units=1/GPa)
#
#
# Indices 1 2 3 4 5 6 
#
# 1 0.012557 -0.001258 -0.003034 0.000000 0.000000 0.000000
# 2 -0.001258 0.007672 0.000377 0.000000 0.000000 0.000000
# 3 -0.003034 0.000377 0.011429 0.000000 0.000000 0.000000
# 4 0.000000 0.000000 0.000000 -0.317049 0.000000 0.000000
# 5 0.000000 0.000000 0.000000 0.000000 0.018465 0.000000
# 6 0.000000 0.000000 0.000000 0.000000 0.000000 0.093920
#
#
# Mechanical properties :
#
#
# Convention : Reuss Voigt Hill
#
# Bulk Modulus (GPa) = 41.96664 42.41223 42.18943
# Shear Modulus (GPa) = -31.79991 30.84707 -0.47642
#
# Velocity S-wave (km/s) = -3.49099 3.43829 -0.42730
# Velocity P-wave (km/s) = 0.40748 5.65832 3.99065
#
# Compressibility (1/GPa) = 0.02382845
#
# Stress axis : x y z
#
# Youngs Moduli (GPa) = 79.63399 130.34329 87.49845
#
# Poissons Ratio (x) = 0.16393 0.26549
# Poissons Ratio (y) = 0.10016 -0.03299
# Poissons Ratio (z) = 0.24162 -0.04914
#
# Static dielectric constant tensor:
#      x y z
#    x 2.153420 0.000000 0.000000 
#    y 0.000000 3.878480 0.000000 
#    z 0.000000 0.000000 2.097860 
# 
# From -- ./inp_files/2712.got.cif
#   From: 2010.05.17/outbox.cif.g08.bks.cpg/sg18_2_cif.got.tgz:2712.got - 2010.06.03 22:40:56.
