data_PCOD9312496
_publ_section_title
;
Structure prediction by ZEFSAII (Michael W. Deem and Ramdas Pophale) SiO2 
 PCOD9312496
Probable space group: P 21 21 2
;
_chemical_formula_sum "Si O2"
_cell_formula_units_Z 20
_cell_length_a 24.402180
_cell_length_b 5.389992
_cell_length_c 7.356661
_cell_angle_alpha 90.000000
_cell_angle_beta 90.000000
_cell_angle_gamma 90.000000
_cell_volume 967.603634
_symmetry_space_group_name_H-M "P 21 21 2"
_symmetry_group_IT_number 18
_symmetry_cell_setting 'orthorhombic'
loop_
_space_group_symop_operation_xyz
x,y,z
-x,-y,z
1/2+x,1/2-y,-z
1/2-x,1/2+y,-z
loop_
_atom_site_type_symbol
_atom_site_label
_atom_site_fract_x
_atom_site_fract_y
_atom_site_fract_z
Si Si1 0.965575 0.751881 0.784215
Si Si2 0.876962 0.431341 0.658481
Si Si3 0.787964 0.804481 0.678045
Si Si4 0.330251 0.363472 0.647330
Si Si5 0.872852 0.029707 0.957282
O O1 0.919984 0.655428 0.640143
O O2 0.924636 0.845219 0.942250
O O3 0.000000 0.500000 0.820100
O O4 0.000000 0.000000 0.732999
O O5 0.815322 0.533329 0.679948
O O6 0.875137 0.270318 0.477997
O O7 0.889254 0.272833 0.839522
O O8 0.723068 0.802539 0.694956
O O9 0.820176 0.935237 0.842731
O O10 0.805836 0.927318 0.487367
O O11 0.356079 0.440003 0.836501
#
# Coordination Sequence:
#
# PCOD9312496 Si02
#       5
#     4   4   4   4   4
#     4  11  22  46  78  95 133 184 234 297 358 397
#     4  10  22  42  67  98 133 181 230 279 342 406
#     4  10  22  37  59  98 142 186 216 270 342 401
#     4  11  22  40  63 100 147 179 229 274 335 426
#     4  10  24  39  69  99 133 184 233 280 341 412
#
# _framework density 20.669622
#
# number of rings (size 3 to 8) (size 9 to 14) (size 15 to 20)
#    0.000    1.600    4.000    0.000    2.800    3.200 
#    0.000    0.000   17.600    0.000    0.000    0.000 
#    0.000    0.000    0.000    0.000    0.000    0.000 
#
# Total GULP energy -111450.448933 kJ/mol
# GULP energy per Si atom -5572.522447 kJ/mol
# Density = 2.062258 g / cm^3
# Si number density = 20.669622 Si / 1000 Ang^3
#
#
#
# Elastic Constant Matrix: (Units=GPa)
#
#
# Indices 1 2 3 4 5 6 
#
# 1 95.7232 33.2640 14.2300 0.0000 0.0000 0.0000
# 2 33.2640 85.5763 20.1720 0.0000 0.0000 0.0000
# 3 14.2300 20.1720 87.6812 0.0000 0.0000 0.0000
# 4 0.0000 0.0000 0.0000 -20.0452 0.0000 0.0000
# 5 0.0000 0.0000 0.0000 0.0000 9.5692 0.0000
# 6 0.0000 0.0000 0.0000 0.0000 0.0000 50.4716
#
#
#
# Elastic Compliance Matrix: (Units=1/GPa)
#
#
# Indices 1 2 3 4 5 6 
#
# 1 0.012151 -0.004502 -0.000936 0.000000 0.000000 0.000000
# 2 -0.004502 0.014024 -0.002496 0.000000 0.000000 0.000000
# 3 -0.000936 -0.002496 0.012131 0.000000 0.000000 0.000000
# 4 0.000000 0.000000 0.000000 -0.049887 0.000000 0.000000
# 5 0.000000 0.000000 0.000000 0.000000 0.104502 0.000000
# 6 0.000000 0.000000 0.000000 0.000000 0.000000 0.019813
#
#
# Mechanical properties :
#
#
# Convention : Reuss Voigt Hill
#
# Bulk Modulus (GPa) = 44.56882 44.92362 44.74622
# Shear Modulus (GPa) = 36.74301 21.42011 29.08156
#
# Velocity S-wave (km/s) = 4.22077 3.22267 3.75503
# Velocity P-wave (km/s) = 6.73517 5.96898 6.36362
#
# Compressibility (1/GPa) = 0.02243721
#
# Stress axis : x y z
#
# Youngs Moduli (GPa) = 82.30110 71.30725 82.43320
#
# Poissons Ratio (x) = 0.32105 0.07717
# Poissons Ratio (y) = 0.37054 0.20572
# Poissons Ratio (z) = 0.07704 0.17796
#
# Static dielectric constant tensor:
#      x y z
#    x 1.835550 0.000000 0.000000 
#    y 0.000000 1.873460 0.000000 
#    z 0.000000 0.000000 1.685320 
# 
# From -- ./inp_files/251.got.cif
#   From: 2010.05.17/outbox.cif.g08.bks.cpg/sg18_1_cif.got.tgz:251.got - 2010.06.03 22:40:56.
