data_PCOD9312766
_publ_section_title
;
Structure prediction by ZEFSAII (Michael W. Deem and Ramdas Pophale) SiO2 
 PCOD9312766
Probable space group: P 21 21 2
;
_chemical_formula_sum "Si O2"
_cell_formula_units_Z 18
_cell_length_a 7.767864
_cell_length_b 10.721169
_cell_length_c 9.585898
_cell_angle_alpha 90.000000
_cell_angle_beta 90.000000
_cell_angle_gamma 90.000000
_cell_volume 798.319171
_symmetry_space_group_name_H-M "P 21 21 2"
_symmetry_group_IT_number 18
_symmetry_cell_setting 'orthorhombic'
loop_
_space_group_symop_operation_xyz
x,y,z
-x,-y,z
1/2+x,1/2-y,-z
1/2-x,1/2+y,-z
loop_
_atom_site_type_symbol
_atom_site_label
_atom_site_fract_x
_atom_site_fract_y
_atom_site_fract_z
Si Si1 0.155756 0.102031 0.424407
Si Si2 0.971778 0.731564 0.910455
Si Si3 0.682731 0.430476 0.265543
Si Si4 0.000000 0.500000 0.720310
Si Si5 0.156642 0.316516 0.205009
O O1 0.190493 0.137587 0.585481
O O2 0.114049 0.223271 0.331243
O O3 0.335783 0.045841 0.367809
O O4 0.000000 0.000000 0.415495
O O5 0.837436 0.837767 0.863346
O O6 0.933234 0.608785 0.821684
O O7 0.157379 0.776742 0.857234
O O8 0.965365 0.704358 0.073442
O O9 0.500000 0.500000 0.271845
O O10 0.820063 0.540655 0.250731
#
# Coordination Sequence:
#
# PCOD9312766 Si02
#       5
#     4   4   4   2   4
#     4  10  23  43  68  95 132 179 220 274 341 392
#     4  10  23  41  63  95 136 169 224 280 328 405
#     4   9  21  43  66  92 134 173 224 281 332 399
#     4  10  24  42  64  98 134 168 228 274 322 406
#     4  10  23  41  67  98 130 179 222 274 347 394
#
# _framework density 22.547371999999999
#
# number of rings (size 3 to 8) (size 9 to 14) (size 15 to 20)
#    0.000    2.222    0.000    0.000   12.444    0.889 
#    4.000    0.000    0.000    0.000    0.000    0.000 
#    0.000    0.000    0.000    0.000    0.000    0.000 
#
# Total GULP energy -100617.899232 kJ/mol
# GULP energy per Si atom -5589.883291 kJ/mol
# Density = 2.249605 g / cm^3
# Si number density = 22.547372 Si / 1000 Ang^3
#
#
#
# Elastic Constant Matrix: (Units=GPa)
#
#
# Indices 1 2 3 4 5 6 
#
# 1 87.9422 34.6151 30.2516 0.0000 0.0000 0.0000
# 2 34.6151 59.8652 14.5762 0.0000 0.0000 0.0000
# 3 30.2516 14.5762 107.8011 0.0000 0.0000 0.0000
# 4 0.0000 0.0000 0.0000 32.0541 0.0000 0.0000
# 5 0.0000 0.0000 0.0000 0.0000 22.4234 0.0000
# 6 0.0000 0.0000 0.0000 0.0000 0.0000 22.4697
#
#
#
# Elastic Compliance Matrix: (Units=1/GPa)
#
#
# Indices 1 2 3 4 5 6 
#
# 1 0.015783 -0.008322 -0.003304 0.000000 0.000000 0.000000
# 2 -0.008322 0.021660 -0.000594 0.000000 0.000000 0.000000
# 3 -0.003304 -0.000594 0.010284 0.000000 0.000000 0.000000
# 4 0.000000 0.000000 0.000000 0.031197 0.000000 0.000000
# 5 0.000000 0.000000 0.000000 0.000000 0.044596 0.000000
# 6 0.000000 0.000000 0.000000 0.000000 0.000000 0.044504
#
#
# Mechanical properties :
#
#
# Convention : Reuss Voigt Hill
#
# Bulk Modulus (GPa) = 42.93848 46.05490 44.49669
# Shear Modulus (GPa) = 24.97171 27.13380 26.05275
#
# Velocity S-wave (km/s) = 3.33156 3.47279 3.40290
# Velocity P-wave (km/s) = 5.82100 6.04570 5.93441
#
# Compressibility (1/GPa) = 0.02328913
#
# Stress axis : x y z
#
# Youngs Moduli (GPa) = 63.35878 46.16716 97.24068
#
# Poissons Ratio (x) = 0.38419 0.32128
# Poissons Ratio (y) = 0.52725 0.05772
# Poissons Ratio (z) = 0.20933 0.02740
#
# Static dielectric constant tensor:
#      x y z
#    x 1.851430 0.000000 0.000000 
#    y 0.000000 1.822920 0.000000 
#    z 0.000000 0.000000 1.795260 
# 
# From -- ./inp_files/2881.got.cif
#   From: 2010.05.17/outbox.cif.g08.bks.cpg/sg18_2_cif.got.tgz:2881.got - 2010.06.03 22:40:56.
