data_PCOD9312334
_publ_section_title
;
Structure prediction by ZEFSAII (Michael W. Deem and Ramdas Pophale) SiO2 
 PCOD9312334
Probable space group: P 21 21 2
;
_chemical_formula_sum "Si O2"
_cell_formula_units_Z 26
_cell_length_a 9.586037
_cell_length_b 14.726342
_cell_length_c 9.587478
_cell_angle_alpha 90.000000
_cell_angle_beta 90.000000
_cell_angle_gamma 90.000000
_cell_volume 1353.437993
_symmetry_space_group_name_H-M "P 21 21 2"
_symmetry_group_IT_number 18
_symmetry_cell_setting 'orthorhombic'
loop_
_space_group_symop_operation_xyz
x,y,z
-x,-y,z
1/2+x,1/2-y,-z
1/2-x,1/2+y,-z
loop_
_atom_site_type_symbol
_atom_site_label
_atom_site_fract_x
_atom_site_fract_y
_atom_site_fract_z
Si Si1 0.079598 0.690700 0.916980
Si Si2 0.096538 0.166653 0.435714
Si Si3 0.791144 0.565861 0.252459
Si Si4 0.419490 0.189794 0.400646
Si Si5 0.500000 0.000000 0.973525
Si Si6 0.382254 0.732624 0.854898
Si Si7 0.000000 0.000000 0.628172
Si Si8 0.500000 0.000000 0.509735
O O1 0.054598 0.720382 0.757829
O O2 0.246098 0.694223 0.931708
O O3 0.021164 0.589802 0.937411
O O4 0.003192 0.748983 0.034647
O O5 0.258510 0.192853 0.444162
O O6 0.071539 0.165621 0.269220
O O7 0.005921 0.247617 0.497481
O O8 0.060897 0.078195 0.526096
O O9 0.864595 0.510989 0.126291
O O10 0.831868 0.670609 0.214715
O O11 0.628727 0.542515 0.281472
O O12 0.874961 0.533443 0.389744
O O13 0.459356 0.085276 0.417461
#
# Coordination Sequence:
#
# PCOD9312334 Si02
#       8
#     4   4   4   4   2   4   2   2
#     4  10  22  40  61  88 122 159 214 246 308 367
#     4  11  24  39  62  92 125 159 209 259 316 368
#     4  10  21  39  63  89 126 160 205 248 317 372
#     4  11  23  39  65  93 124 163 205 261 308 370
#     4   9  21  40  62  86 120 168 202 250 308 384
#     4  10  22  43  59  88 123 168 203 256 305 377
#     4  12  22  38  60  98 124 156 206 270 308 370
#     4  11  19  40  62  92 124 162 194 256 310 366
#
# _framework density 19.210338
#
# number of rings (size 3 to 8) (size 9 to 14) (size 15 to 20)
#    0.000    1.538    3.077    2.308    0.000    3.692 
#    0.000    3.077    0.000    0.923    0.000    0.000 
#    0.000    0.000    0.000    0.000    0.000    0.000 
#
# Total GULP energy -145084.909635 kJ/mol
# GULP energy per Si atom -5580.188832 kJ/mol
# Density = 1.916661 g / cm^3
# Si number density = 19.210338 Si / 1000 Ang^3
#
#
#
# Elastic Constant Matrix: (Units=GPa)
#
#
# Indices 1 2 3 4 5 6 
#
# 1 103.1059 31.8307 75.2281 0.0000 0.0000 0.0000
# 2 31.8307 44.4355 17.1387 0.0000 0.0000 0.0000
# 3 75.2281 17.1387 86.4980 0.0000 0.0000 0.0000
# 4 0.0000 0.0000 0.0000 -75.6486 0.0000 0.0000
# 5 0.0000 0.0000 0.0000 0.0000 37.7394 0.0000
# 6 0.0000 0.0000 0.0000 0.0000 0.0000 13.5680
#
#
#
# Elastic Compliance Matrix: (Units=1/GPa)
#
#
# Indices 1 2 3 4 5 6 
#
# 1 0.032574 -0.013434 -0.025668 0.000000 0.000000 0.000000
# 2 -0.013434 0.029907 0.005758 0.000000 0.000000 0.000000
# 3 -0.025668 0.005758 0.032744 0.000000 0.000000 0.000000
# 4 0.000000 0.000000 0.000000 -0.013219 0.000000 0.000000
# 5 0.000000 0.000000 0.000000 0.000000 0.026497 0.000000
# 6 0.000000 0.000000 0.000000 0.000000 0.000000 0.073703
#
#
# Mechanical properties :
#
#
# Convention : Reuss Voigt Hill
#
# Bulk Modulus (GPa) = 35.04285 53.60382 44.32334
# Shear Modulus (GPa) = 19.34931 2.45454 10.90193
#
# Velocity S-wave (km/s) = 3.17714 1.13159 2.38482
# Velocity P-wave (km/s) = 5.63385 5.44716 5.54129
#
# Compressibility (1/GPa) = 0.02853649
#
# Stress axis : x y z
#
# Youngs Moduli (GPa) = 30.69926 33.43708 30.53995
#
# Poissons Ratio (x) = 0.44919 0.78391
# Poissons Ratio (y) = 0.41241 -0.17584
# Poissons Ratio (z) = 0.78800 -0.19252
#
# Static dielectric constant tensor:
#      x y z
#    x 1.665900 0.000000 0.000000 
#    y 0.000000 1.671800 0.000000 
#    z 0.000000 0.000000 1.656650 
# 
# From -- ./inp_files/3355.got.cif
#   From: 2010.05.17/outbox.cif.g08.bks.cpg/sg18_2_cif.got.tgz:3355.got - 2010.06.03 22:40:56.
