data_PCOD9312129
_publ_section_title
;
Structure prediction by ZEFSAII (Michael W. Deem and Ramdas Pophale) SiO2 
 PCOD9312129
Probable space group: P 21 21 2
;
_chemical_formula_sum "Si O2"
_cell_formula_units_Z 22
_cell_length_a 12.660666
_cell_length_b 9.734654
_cell_length_c 7.702077
_cell_angle_alpha 90.000000
_cell_angle_beta 90.000000
_cell_angle_gamma 90.000000
_cell_volume 949.259447
_symmetry_space_group_name_H-M "P 21 21 2"
_symmetry_group_IT_number 18
_symmetry_cell_setting 'orthorhombic'
loop_
_space_group_symop_operation_xyz
x,y,z
-x,-y,z
1/2+x,1/2-y,-z
1/2-x,1/2+y,-z
loop_
_atom_site_type_symbol
_atom_site_label
_atom_site_fract_x
_atom_site_fract_y
_atom_site_fract_z
Si Si1 0.785974 0.979082 0.459302
Si Si2 0.000000 0.000000 0.232609
Si Si3 0.243263 0.298484 0.291748
Si Si4 0.326340 0.870534 0.172023
Si Si5 0.022499 0.298773 0.098456
Si Si6 0.801207 0.370295 0.039215
O O1 0.790190 0.059412 0.639906
O O2 0.693380 0.059916 0.354929
O O3 0.895278 0.001697 0.353144
O O4 0.760750 0.818562 0.441428
O O5 0.998439 0.863410 0.116850
O O6 0.123206 0.319189 0.223615
O O7 0.305971 0.224368 0.135368
O O8 0.272024 0.981598 0.038489
O O9 0.441448 0.848735 0.091942
O O10 0.276242 0.720327 0.154433
O O11 0.913289 0.374271 0.134693
#
# Coordination Sequence:
#
# PCOD9312129 Si02
#       6
#     4   2   4   4   4   4
#     4  10  20  42  61  88 129 161 201 257 315 366
#     4  10  20  40  66  90 126 166 200 270 310 368
#     4   9  22  39  63  88 127 164 200 258 313 367
#     4  10  21  36  64  87 124 160 201 261 302 361
#     4  10  20  39  63  89 124 161 213 248 317 360
#     4  10  20  39  60  90 123 160 209 257 301 369
#
# _framework density 23.175961000000001
#
# number of rings (size 3 to 8) (size 9 to 14) (size 15 to 20)
#    0.000    2.182    1.818    1.636    0.000    2.909 
#    9.818    0.000    0.000    0.000    0.000    0.000 
#    0.000    0.000    0.000    0.000    0.000    0.000 
#
# Total GULP energy -122762.530344 kJ/mol
# GULP energy per Si atom -5580.115016 kJ/mol
# Density = 2.312321 g / cm^3
# Si number density = 23.175961 Si / 1000 Ang^3
#
#
#
# Elastic Constant Matrix: (Units=GPa)
#
#
# Indices 1 2 3 4 5 6 
#
# 1 58.3623 16.0382 -16.6639 0.0000 0.0000 0.0000
# 2 16.0382 153.9243 27.7571 0.0000 0.0000 0.0000
# 3 -16.6639 27.7571 52.8122 0.0000 0.0000 0.0000
# 4 0.0000 0.0000 0.0000 51.4833 0.0000 0.0000
# 5 0.0000 0.0000 0.0000 0.0000 7.4914 0.0000
# 6 0.0000 0.0000 0.0000 0.0000 0.0000 28.6258
#
#
#
# Elastic Compliance Matrix: (Units=1/GPa)
#
#
# Indices 1 2 3 4 5 6 
#
# 1 0.020537 -0.003655 0.008401 0.000000 0.000000 0.000000
# 2 -0.003655 0.007827 -0.005267 0.000000 0.000000 0.000000
# 3 0.008401 -0.005267 0.024354 0.000000 0.000000 0.000000
# 4 0.000000 0.000000 0.000000 0.019424 0.000000 0.000000
# 5 0.000000 0.000000 0.000000 0.000000 0.133486 0.000000
# 6 0.000000 0.000000 0.000000 0.000000 0.000000 0.034934
#
#
# Mechanical properties :
#
#
# Convention : Reuss Voigt Hill
#
# Bulk Modulus (GPa) = 19.35089 35.48462 27.41776
# Shear Modulus (GPa) = 19.31771 33.38459 26.35115
#
# Velocity S-wave (km/s) = 2.89021 3.79949 3.37561
# Velocity P-wave (km/s) = 4.41650 5.88153 5.20086
#
# Compressibility (1/GPa) = 0.05167721
#
# Stress axis : x y z
#
# Youngs Moduli (GPa) = 48.69153 127.75728 41.06077
#
# Poissons Ratio (x) = 0.46694 -0.34496
# Poissons Ratio (y) = 0.17796 0.21627
# Poissons Ratio (z) = -0.40906 0.67291
#
# Static dielectric constant tensor:
#      x y z
#    x 1.874980 0.000000 0.000000 
#    y 0.000000 1.890470 0.000000 
#    z 0.000000 0.000000 1.935440 
# 
# From -- ./inp_files/3105.got.cif
#   From: 2010.05.17/outbox.cif.g08.bks.cpg/sg18_2_cif.got.tgz:3105.got - 2010.06.03 22:40:56.
