data_PCOD9312550
_publ_section_title
;
Structure prediction by ZEFSAII (Michael W. Deem and Ramdas Pophale) SiO2 
 PCOD9312550
Probable space group: P 21 21 2
;
_chemical_formula_sum "Si O2"
_cell_formula_units_Z 18
_cell_length_a 9.058472
_cell_length_b 8.905880
_cell_length_c 11.154905
_cell_angle_alpha 90.000000
_cell_angle_beta 90.000000
_cell_angle_gamma 90.000000
_cell_volume 899.907065
_symmetry_space_group_name_H-M "P 21 21 2"
_symmetry_group_IT_number 18
_symmetry_cell_setting 'orthorhombic'
loop_
_space_group_symop_operation_xyz
x,y,z
-x,-y,z
1/2+x,1/2-y,-z
1/2-x,1/2+y,-z
loop_
_atom_site_type_symbol
_atom_site_label
_atom_site_fract_x
_atom_site_fract_y
_atom_site_fract_z
Si Si1 0.767197 0.629023 0.744328
Si Si2 0.493782 0.180821 0.443555
Si Si3 0.500000 0.000000 0.075392
Si Si4 0.170328 0.173684 0.347042
Si Si5 0.991957 0.330442 0.158937
O O1 0.886841 0.710251 0.660764
O O2 0.861107 0.532181 0.840138
O O3 0.679835 0.505122 0.667234
O O4 0.654813 0.743226 0.803952
O O5 0.330515 0.221142 0.398119
O O6 0.548272 0.265471 0.561131
O O7 0.500000 0.000000 0.463241
O O8 0.491126 0.140456 0.983683
O O9 0.127564 0.241659 0.217744
O O10 0.000000 0.500000 0.209849
#
# Coordination Sequence:
#
# PCOD9312550 Si02
#       5
#     4   4   2   4   4
#     4  11  22  46  68  98 137 183 227 284 347 406
#     4  10  22  39  68  94 143 173 230 281 350 411
#     4  10  24  42  70  96 136 186 226 292 330 418
#     4  11  21  41  67 103 131 184 222 288 345 415
#     4  10  25  40  67  96 137 171 236 273 341 401
#
# _framework density 20.002063
#
# number of rings (size 3 to 8) (size 9 to 14) (size 15 to 20)
#    0.667    0.889    3.333    2.667    3.111    3.556 
#    0.000    5.556    0.000    0.000    0.000    0.000 
#    0.000    0.000    0.000    0.000    0.000    0.000 
#
# Total GULP energy -100460.334919 kJ/mol
# GULP energy per Si atom -5581.129718 kJ/mol
# Density = 1.995654 g / cm^3
# Si number density = 20.002063 Si / 1000 Ang^3
#
#
#
# Elastic Constant Matrix: (Units=GPa)
#
#
# Indices 1 2 3 4 5 6 
#
# 1 115.6010 48.8569 40.7003 0.0000 0.0000 0.0000
# 2 48.8569 51.7616 17.5787 0.0000 0.0000 0.0000
# 3 40.7003 17.5787 96.9338 0.0000 0.0000 0.0000
# 4 0.0000 0.0000 0.0000 35.5601 0.0000 0.0000
# 5 0.0000 0.0000 0.0000 0.0000 30.1453 0.0000
# 6 0.0000 0.0000 0.0000 0.0000 0.0000 41.7788
#
#
#
# Elastic Compliance Matrix: (Units=1/GPa)
#
#
# Indices 1 2 3 4 5 6 
#
# 1 0.015849 -0.013533 -0.004200 0.000000 0.000000 0.000000
# 2 -0.013533 0.032143 -0.000147 0.000000 0.000000 0.000000
# 3 -0.004200 -0.000147 0.012107 0.000000 0.000000 0.000000
# 4 0.000000 0.000000 0.000000 0.028121 0.000000 0.000000
# 5 0.000000 0.000000 0.000000 0.000000 0.033173 0.000000
# 6 0.000000 0.000000 0.000000 0.000000 0.000000 0.023936
#
#
# Mechanical properties :
#
#
# Convention : Reuss Voigt Hill
#
# Bulk Modulus (GPa) = 41.08836 53.17427 47.13131
# Shear Modulus (GPa) = 26.42700 31.97420 29.20060
#
# Velocity S-wave (km/s) = 3.63879 4.00252 3.82498
# Velocity P-wave (km/s) = 6.18394 6.92837 6.56671
#
# Compressibility (1/GPa) = 0.02433779
#
# Stress axis : x y z
#
# Youngs Moduli (GPa) = 63.09650 31.11131 82.59962
#
# Poissons Ratio (x) = 0.42103 0.34695
# Poissons Ratio (y) = 0.85388 0.01213
# Poissons Ratio (z) = 0.26503 0.00457
#
# Static dielectric constant tensor:
#      x y z
#    x 1.708550 0.000000 0.000000 
#    y 0.000000 1.700630 0.000000 
#    z 0.000000 0.000000 1.723570 
# 
# From -- ./inp_files/5371.got.cif
#   From: 2010.05.17/outbox.cif.g08.bks.cpg/sg18_3_cif.got.tgz:5371.got - 2010.06.03 22:40:56.
