data_PCOD9312298
_publ_section_title
;
Structure prediction by ZEFSAII (Michael W. Deem and Ramdas Pophale) SiO2 
 PCOD9312298
Probable space group: P 21 21 2
;
_chemical_formula_sum "Si O2"
_cell_formula_units_Z 28
_cell_length_a 13.496134
_cell_length_b 19.273491
_cell_length_c 5.488642
_cell_angle_alpha 90.000000
_cell_angle_beta 90.000000
_cell_angle_gamma 90.000000
_cell_volume 1427.692479
_symmetry_space_group_name_H-M "P 21 21 2"
_symmetry_group_IT_number 18
_symmetry_cell_setting 'orthorhombic'
loop_
_space_group_symop_operation_xyz
x,y,z
-x,-y,z
1/2+x,1/2-y,-z
1/2-x,1/2+y,-z
loop_
_atom_site_type_symbol
_atom_site_label
_atom_site_fract_x
_atom_site_fract_y
_atom_site_fract_z
Si Si1 0.596470 0.174363 0.124009
Si Si2 0.265096 0.610184 0.575154
Si Si3 0.886836 0.009259 0.168915
Si Si4 0.717458 0.992277 0.791581
Si Si5 0.240122 0.892050 0.419271
Si Si6 0.066168 0.559114 0.835089
Si Si7 0.837249 0.733953 0.383245
O O1 0.693312 0.127120 0.183843
O O2 0.504525 0.122894 0.098291
O O3 0.113143 0.283181 0.123696
O O4 0.593795 0.218438 0.377877
O O5 0.346672 0.558866 0.691458
O O6 0.159554 0.591000 0.694095
O O7 0.296252 0.688834 0.605133
O O8 0.250131 0.583891 0.300741
O O9 0.811233 0.017573 0.946566
O O10 0.864074 0.075838 0.339964
O O11 0.000000 0.000000 0.101648
O O12 0.617677 0.981621 0.941607
O O13 0.706972 0.046345 0.570576
O O14 0.248601 0.822340 0.576839
O O15 0.000000 0.500000 0.703680
#
# Coordination Sequence:
#
# PCOD9312298 Si02
#       7
#     4   4   4   4   4   4   4
#     4  10  23  41  66  94 132 171 210 264 326 401
#     4  10  24  42  64  92 135 176 214 282 326 401
#     4  10  21  39  61  89 125 168 228 269 327 382
#     4  10  21  37  65  92 129 172 218 278 335 381
#     4   9  20  39  62  90 127 171 212 274 329 389
#     4  11  22  37  66 102 132 168 224 277 341 397
#     4  10  23  43  66  89 137 171 219 257 334 388
#
# _framework density 19.612065999999999
#
# number of rings (size 3 to 8) (size 9 to 14) (size 15 to 20)
#    0.857    1.143    0.000    4.286    6.000    2.857 
#    2.571    2.857    0.000    0.000    0.000    0.000 
#    0.000    0.000    0.000    0.000    0.000    0.000 
#
# Total GULP energy -155960.421889 kJ/mol
# GULP energy per Si atom -5570.015067 kJ/mol
# Density = 1.956743 g / cm^3
# Si number density = 19.612066 Si / 1000 Ang^3
#
#
#
# Elastic Constant Matrix: (Units=GPa)
#
#
# Indices 1 2 3 4 5 6 
#
# 1 88.3640 28.4161 19.5647 0.0000 0.0000 0.0000
# 2 28.4161 111.4593 22.6066 0.0000 0.0000 0.0000
# 3 19.5647 22.6066 85.3157 0.0000 0.0000 0.0000
# 4 0.0000 0.0000 0.0000 24.7491 0.0000 0.0000
# 5 0.0000 0.0000 0.0000 0.0000 2.5443 0.0000
# 6 0.0000 0.0000 0.0000 0.0000 0.0000 26.9400
#
#
#
# Elastic Compliance Matrix: (Units=1/GPa)
#
#
# Indices 1 2 3 4 5 6 
#
# 1 0.012697 -0.002797 -0.002171 0.000000 0.000000 0.000000
# 2 -0.002797 0.010097 -0.002034 0.000000 0.000000 0.000000
# 3 -0.002171 -0.002034 0.012758 0.000000 0.000000 0.000000
# 4 0.000000 0.000000 0.000000 0.040405 0.000000 0.000000
# 5 0.000000 0.000000 0.000000 0.000000 0.393041 0.000000
# 6 0.000000 0.000000 0.000000 0.000000 0.000000 0.037119
#
#
# Mechanical properties :
#
#
# Convention : Reuss Voigt Hill
#
# Bulk Modulus (GPa) = 46.40561 47.36820 46.88691
# Shear Modulus (GPa) = 9.48218 25.15013 17.31616
#
# Velocity S-wave (km/s) = 2.20122 3.58492 2.97464
# Velocity P-wave (km/s) = 5.49305 6.42966 5.97972
#
# Compressibility (1/GPa) = 0.02154912
#
# Stress axis : x y z
#
# Youngs Moduli (GPa) = 78.76006 99.03443 78.38251
#
# Poissons Ratio (x) = 0.27697 0.17013
# Poissons Ratio (y) = 0.22027 0.15945
# Poissons Ratio (z) = 0.17095 0.20146
#
# Static dielectric constant tensor:
#      x y z
#    x 1.664050 0.000000 0.000000 
#    y 0.000000 1.681200 0.000000 
#    z 0.000000 0.000000 1.780460 
# 
# From -- ./inp_files/1225.got.cif
#   From: 2010.05.17/outbox.cif.g08.bks.cpg/sg18_1_cif.got.tgz:1225.got - 2010.06.03 22:40:56.
