data_PCOD9312227
_publ_section_title
;
Structure prediction by ZEFSAII (Michael W. Deem and Ramdas Pophale) SiO2 
 PCOD9312227
Probable space group: P 21 21 2
;
_chemical_formula_sum "Si O2"
_cell_formula_units_Z 20
_cell_length_a 9.736738
_cell_length_b 10.924721
_cell_length_c 7.579215
_cell_angle_alpha 90.000000
_cell_angle_beta 90.000000
_cell_angle_gamma 90.000000
_cell_volume 806.209786
_symmetry_space_group_name_H-M "P 21 21 2"
_symmetry_group_IT_number 18
_symmetry_cell_setting 'orthorhombic'
loop_
_space_group_symop_operation_xyz
x,y,z
-x,-y,z
1/2+x,1/2-y,-z
1/2-x,1/2+y,-z
loop_
_atom_site_type_symbol
_atom_site_label
_atom_site_fract_x
_atom_site_fract_y
_atom_site_fract_z
Si Si1 0.500000 0.000000 0.766730
Si Si2 0.244630 0.144515 0.908607
Si Si3 0.295627 0.143061 0.316480
Si Si4 0.500000 0.500000 0.045101
Si Si5 0.170493 0.886293 0.269251
Si Si6 0.957662 0.734832 0.481767
O O1 0.539304 0.116829 0.648538
O O2 0.371070 0.051664 0.876617
O O3 0.246830 0.173289 0.117525
O O4 0.103926 0.081737 0.848699
O O5 0.253622 0.266741 0.797977
O O6 0.195209 0.212252 0.453392
O O7 0.451373 0.184479 0.354133
O O8 0.265213 0.997535 0.334798
O O9 0.594737 0.573747 0.910282
O O10 0.052658 0.844436 0.403531
#
# Coordination Sequence:
#
# PCOD9312227 Si02
#       6
#     2   4   4   2   4   4
#     4  10  26  46  70 108 150 192 246 308 366 444
#     4  10  23  45  78 107 149 194 253 307 368 433
#     4  11  25  45  74 106 147 197 243 306 375 439
#     4  10  20  42  74 108 144 182 242 310 364 426
#     4  10  21  45  73 103 146 190 244 311 362 438
#     4  11  24  47  70 103 151 189 244 300 375 447
#
# _framework density 24.80744
#
# number of rings (size 3 to 8) (size 9 to 14) (size 15 to 20)
#    0.000    1.600    4.000    0.000    8.400    0.800 
#   10.800    0.000    0.000    0.000    0.000    0.000 
#    0.000    0.000    0.000    0.000    0.000    0.000 
#
# Total GULP energy -111891.014301 kJ/mol
# GULP energy per Si atom -5594.550715 kJ/mol
# Density = 2.475098 g / cm^3
# Si number density = 24.807440 Si / 1000 Ang^3
#
#
#
# Elastic Constant Matrix: (Units=GPa)
#
#
# Indices 1 2 3 4 5 6 
#
# 1 164.4700 66.5865 27.3899 0.0000 0.0000 0.0000
# 2 66.5865 129.9777 33.0690 0.0000 0.0000 0.0000
# 3 27.3899 33.0690 75.0090 0.0000 0.0000 0.0000
# 4 0.0000 0.0000 0.0000 42.9520 0.0000 0.0000
# 5 0.0000 0.0000 0.0000 0.0000 6.2515 0.0000
# 6 0.0000 0.0000 0.0000 0.0000 0.0000 40.6123
#
#
#
# Elastic Compliance Matrix: (Units=1/GPa)
#
#
# Indices 1 2 3 4 5 6 
#
# 1 0.007769 -0.003670 -0.001219 0.000000 0.000000 0.000000
# 2 -0.003670 0.010399 -0.003245 0.000000 0.000000 0.000000
# 3 -0.001219 -0.003245 0.015207 0.000000 0.000000 0.000000
# 4 0.000000 0.000000 0.000000 0.023282 0.000000 0.000000
# 5 0.000000 0.000000 0.000000 0.000000 0.159961 0.000000
# 6 0.000000 0.000000 0.000000 0.000000 0.000000 0.024623
#
#
# Mechanical properties :
#
#
# Convention : Reuss Voigt Hill
#
# Bulk Modulus (GPa) = 58.45015 69.28308 63.86661
# Shear Modulus (GPa) = 18.99617 34.12391 26.56004
#
# Velocity S-wave (km/s) = 2.77021 3.71287 3.27563
# Velocity P-wave (km/s) = 5.81763 6.80951 6.33302
#
# Compressibility (1/GPa) = 0.01710859
#
# Stress axis : x y z
#
# Youngs Moduli (GPa) = 128.71882 96.16190 65.75797
#
# Poissons Ratio (x) = 0.35290 0.08016
# Poissons Ratio (y) = 0.47237 0.21336
# Poissons Ratio (z) = 0.15690 0.31201
#
# Static dielectric constant tensor:
#      x y z
#    x 1.969980 0.000000 0.000000 
#    y 0.000000 2.002750 0.000000 
#    z 0.000000 0.000000 1.965670 
# 
# From -- ./inp_files/2988.got.cif
#   From: 2010.05.17/outbox.cif.g08.bks.cpg/sg18_2_cif.got.tgz:2988.got - 2010.06.03 22:40:56.
