data_PCOD9312309
_publ_section_title
;
Structure prediction by ZEFSAII (Michael W. Deem and Ramdas Pophale) SiO2 
 PCOD9312309
Probable space group: P 21 21 2
;
_chemical_formula_sum "Si O2"
_cell_formula_units_Z 32
_cell_length_a 5.108013
_cell_length_b 23.408879
_cell_length_c 11.702559
_cell_angle_alpha 90.000000
_cell_angle_beta 90.000000
_cell_angle_gamma 90.000000
_cell_volume 1399.308428
_symmetry_space_group_name_H-M "P 21 21 2"
_symmetry_group_IT_number 18
_symmetry_cell_setting 'orthorhombic'
loop_
_space_group_symop_operation_xyz
x,y,z
-x,-y,z
1/2+x,1/2-y,-z
1/2-x,1/2+y,-z
loop_
_atom_site_type_symbol
_atom_site_label
_atom_site_fract_x
_atom_site_fract_y
_atom_site_fract_z
Si Si1 0.122756 0.938074 0.347540
Si Si2 0.491967 0.715580 0.873015
Si Si3 0.321956 0.442828 0.401841
Si Si4 0.329594 0.119590 0.681429
Si Si5 0.884188 0.617716 0.863025
Si Si6 0.052877 0.288071 0.491784
Si Si7 0.764617 0.344234 0.683841
Si Si8 0.866835 0.341210 0.065419
O O1 0.282713 0.942625 0.466336
O O2 0.220628 0.922822 0.219849
O O3 0.932729 0.885485 0.378725
O O4 0.000000 0.000000 0.338086
O O5 0.764838 0.682114 0.855350
O O6 0.357508 0.709381 0.749062
O O7 0.492874 0.781111 0.907152
O O8 0.354944 0.679963 0.975754
O O9 0.500000 0.500000 0.385310
O O10 0.547459 0.396412 0.371403
O O11 0.058036 0.428766 0.331156
O O12 0.457281 0.173376 0.613862
O O13 0.281352 0.134036 0.814040
O O14 0.148415 0.617771 0.790860
O O15 0.954173 0.613546 0.995481
O O16 0.844178 0.236404 0.507088
O O17 0.000389 0.326299 0.604137
#
# Coordination Sequence:
#
# PCOD9312309 Si02
#       8
#     4   4   4   4   4   4   4   4
#     4  10  22  42  72  98 126 168 224 293 353 403
#     4  10  21  38  61  92 123 180 224 269 327 402
#     4  11  25  48  74 101 133 181 236 293 354 416
#     4  12  26  43  70 102 142 184 235 280 347 428
#     4  10  22  40  65  90 134 164 229 280 332 401
#     4  12  26  40  62 100 145 182 216 275 349 416
#     4  10  22  39  62  92 129 169 219 282 336 405
#     4  11  23  38  65  93 135 182 227 270 333 414
#
# _framework density 22.868438999999999
#
# number of rings (size 3 to 8) (size 9 to 14) (size 15 to 20)
#    0.000    1.250    2.500    2.625    7.000    0.500 
#    0.000    0.625    8.250    0.000    0.000    0.000 
#    0.000    0.000    0.000    0.000    0.000    0.000 
#
# Total GULP energy -178378.191298 kJ/mol
# GULP energy per Si atom -5574.318478 kJ/mol
# Density = 2.281639 g / cm^3
# Si number density = 22.868439 Si / 1000 Ang^3
#
#
#
# Elastic Constant Matrix: (Units=GPa)
#
#
# Indices 1 2 3 4 5 6 
#
# 1 58.2866 5.7042 14.5279 0.0000 0.0000 0.0000
# 2 5.7042 52.3104 40.6117 0.0000 0.0000 0.0000
# 3 14.5279 40.6117 149.9184 0.0000 0.0000 0.0000
# 4 0.0000 0.0000 0.0000 207.0123 0.0000 0.0000
# 5 0.0000 0.0000 0.0000 0.0000 28.0440 0.0000
# 6 0.0000 0.0000 0.0000 0.0000 0.0000 7.4230
#
#
#
# Elastic Compliance Matrix: (Units=1/GPa)
#
#
# Indices 1 2 3 4 5 6 
#
# 1 0.017605 -0.000754 -0.001502 0.000000 0.000000 0.000000
# 2 -0.000754 0.024240 -0.006493 0.000000 0.000000 0.000000
# 3 -0.001502 -0.006493 0.008575 0.000000 0.000000 0.000000
# 4 0.000000 0.000000 0.000000 0.004831 0.000000 0.000000
# 5 0.000000 0.000000 0.000000 0.000000 0.035658 0.000000
# 6 0.000000 0.000000 0.000000 0.000000 0.000000 0.134716
#
#
# Mechanical properties :
#
#
# Convention : Reuss Voigt Hill
#
# Bulk Modulus (GPa) = 30.37512 42.46699 36.42106
# Shear Modulus (GPa) = 19.67757 61.80729 40.74243
#
# Velocity S-wave (km/s) = 2.93656 5.20442 4.22548
# Velocity P-wave (km/s) = 4.98088 7.39764 6.30612
#
# Compressibility (1/GPa) = 0.03292168
#
# Stress axis : x y z
#
# Youngs Moduli (GPa) = 56.80308 41.25399 116.62027
#
# Poissons Ratio (x) = 0.03110 0.17514
# Poissons Ratio (y) = 0.04282 0.75726
# Poissons Ratio (z) = 0.08531 0.26788
#
# Static dielectric constant tensor:
#      x y z
#    x 1.603710 0.000000 0.000000 
#    y 0.000000 1.790990 0.000000 
#    z 0.000000 0.000000 1.900300 
# 
# From -- ./inp_files/5284.got.cif
#   From: 2010.05.17/outbox.cif.g08.bks.cpg/sg18_3_cif.got.tgz:5284.got - 2010.06.03 22:40:56.
