data_PCOD9312208
_publ_section_title
;
Structure prediction by ZEFSAII (Michael W. Deem and Ramdas Pophale) SiO2 
 PCOD9312208
Probable space group: P 21 21 2
;
_chemical_formula_sum "Si O2"
_cell_formula_units_Z 24
_cell_length_a 14.695463
_cell_length_b 8.040193
_cell_length_c 9.416187
_cell_angle_alpha 90.000000
_cell_angle_beta 90.000000
_cell_angle_gamma 90.000000
_cell_volume 1112.563537
_symmetry_space_group_name_H-M "P 21 21 2"
_symmetry_group_IT_number 18
_symmetry_cell_setting 'orthorhombic'
loop_
_space_group_symop_operation_xyz
x,y,z
-x,-y,z
1/2+x,1/2-y,-z
1/2-x,1/2+y,-z
loop_
_atom_site_type_symbol
_atom_site_label
_atom_site_fract_x
_atom_site_fract_y
_atom_site_fract_z
Si Si1 0.428492 0.140641 0.679693
Si Si2 0.222186 0.387772 0.423034
Si Si3 0.344844 0.654632 0.330714
Si Si4 0.285400 0.166416 0.191741
Si Si5 0.714096 0.701807 0.879323
Si Si6 0.969491 0.307633 0.624629
O O1 0.379991 0.251608 0.798774
O O2 0.465423 0.239605 0.543062
O O3 0.500000 0.000000 0.732267
O O4 0.348764 0.032970 0.606033
O O5 0.318654 0.482346 0.407722
O O6 0.198756 0.298052 0.568569
O O7 0.214605 0.254469 0.297574
O O8 0.289430 0.670582 0.184741
O O9 0.450154 0.695000 0.311661
O O10 0.379133 0.180906 0.280284
O O11 0.252245 0.981030 0.155709
O O12 0.294719 0.265924 0.045604
O O13 0.000000 0.500000 0.620878
#
# Coordination Sequence:
#
# PCOD9312208 Si02
#       6
#     4   4   4   4   4   4
#     4  10  20  41  69  99 130 173 219 271 336 400
#     4  11  22  39  69  92 131 171 221 279 336 410
#     4  11  21  41  69 101 128 174 223 276 342 407
#     4  12  25  44  64  95 133 181 228 284 339 412
#     4  11  23  41  66  92 134 179 228 269 342 406
#     4  11  21  41  69 100 133 171 222 281 342 401
#
# _framework density 21.571801000000001
#
# number of rings (size 3 to 8) (size 9 to 14) (size 15 to 20)
#    0.000    1.000    5.000    5.000    0.000    1.333 
#    3.000    0.833    0.000    0.000    0.000    0.000 
#    0.000    0.000    0.000    0.000    0.000    0.000 
#
# Total GULP energy -134066.277374 kJ/mol
# GULP energy per Si atom -5586.094891 kJ/mol
# Density = 2.152270 g / cm^3
# Si number density = 21.571801 Si / 1000 Ang^3
#
#
#
# Elastic Constant Matrix: (Units=GPa)
#
#
# Indices 1 2 3 4 5 6 
#
# 1 71.6283 19.8513 10.1527 0.0000 0.0000 0.0000
# 2 19.8513 82.1758 12.5766 0.0000 0.0000 0.0000
# 3 10.1527 12.5766 102.6457 0.0000 0.0000 0.0000
# 4 0.0000 0.0000 0.0000 30.1572 0.0000 0.0000
# 5 0.0000 0.0000 0.0000 0.0000 18.3170 0.0000
# 6 0.0000 0.0000 0.0000 0.0000 0.0000 44.8550
#
#
#
# Elastic Compliance Matrix: (Units=1/GPa)
#
#
# Indices 1 2 3 4 5 6 
#
# 1 0.015076 -0.003479 -0.001065 0.000000 0.000000 0.000000
# 2 -0.003479 0.013204 -0.001274 0.000000 0.000000 0.000000
# 3 -0.001065 -0.001274 0.010004 0.000000 0.000000 0.000000
# 4 0.000000 0.000000 0.000000 0.033160 0.000000 0.000000
# 5 0.000000 0.000000 0.000000 0.000000 0.054594 0.000000
# 6 0.000000 0.000000 0.000000 0.000000 0.000000 0.022294
#
#
# Mechanical properties :
#
#
# Convention : Reuss Voigt Hill
#
# Bulk Modulus (GPa) = 37.52510 37.95679 37.74095
# Shear Modulus (GPa) = 29.61206 32.92379 31.26793
#
# Velocity S-wave (km/s) = 3.70904 3.91095 3.81134
# Velocity P-wave (km/s) = 5.98129 6.16667 6.07469
#
# Compressibility (1/GPa) = 0.02664883
#
# Stress axis : x y z
#
# Youngs Moduli (GPa) = 66.33022 75.73235 99.96356
#
# Poissons Ratio (x) = 0.26347 0.10645
# Poissons Ratio (y) = 0.23076 0.12733
# Poissons Ratio (z) = 0.07064 0.09646
#
# Static dielectric constant tensor:
#      x y z
#    x 1.870030 0.000000 0.000000 
#    y 0.000000 1.819070 0.000000 
#    z 0.000000 0.000000 1.744250 
# 
# From -- ./inp_files/4185.got.cif
#   From: 2010.05.17/outbox.cif.g08.bks.cpg/sg18_3_cif.got.tgz:4185.got - 2010.06.03 22:40:56.
