data_PCOD9312487
_publ_section_title
;
Structure prediction by ZEFSAII (Michael W. Deem and Ramdas Pophale) SiO2 
 PCOD9312487
Probable space group: P 21 21 2
;
_chemical_formula_sum "Si O2"
_cell_formula_units_Z 18
_cell_length_a 17.197402
_cell_length_b 5.076538
_cell_length_c 10.378438
_cell_angle_alpha 90.000000
_cell_angle_beta 90.000000
_cell_angle_gamma 90.000000
_cell_volume 906.071520
_symmetry_space_group_name_H-M "P 21 21 2"
_symmetry_group_IT_number 18
_symmetry_cell_setting 'orthorhombic'
loop_
_space_group_symop_operation_xyz
x,y,z
-x,-y,z
1/2+x,1/2-y,-z
1/2-x,1/2+y,-z
loop_
_atom_site_type_symbol
_atom_site_label
_atom_site_fract_x
_atom_site_fract_y
_atom_site_fract_z
Si Si1 0.840091 0.158147 0.092304
Si Si2 0.254093 0.345016 0.170312
Si Si3 0.000000 0.000000 0.211884
Si Si4 0.953532 0.755564 0.468766
Si Si5 0.712697 0.442709 0.449572
O O1 0.784781 0.943027 0.163474
O O2 0.812978 0.446784 0.134234
O O3 0.818852 0.132834 0.941416
O O4 0.928961 0.108177 0.128770
O O5 0.286346 0.434641 0.307443
O O6 0.036715 0.208068 0.314182
O O7 0.865302 0.791248 0.509130
O O8 0.000000 0.500000 0.508726
O O9 0.000000 0.000000 0.527106
O O10 0.724899 0.704708 0.536954
#
# Coordination Sequence:
#
# PCOD9312487 Si02
#       5
#     4   4   2   4   4
#     4  10  22  38  64  85 119 152 201 247 291 349
#     4  10  22  41  59  89 117 156 200 246 289 354
#     4  10  22  36  62  88 116 160 194 242 302 352
#     4  10  23  37  56  88 124 153 193 251 294 356
#     4  12  23  38  65  90 119 162 201 244 303 362
#
# _framework density 19.865981000000001
#
# number of rings (size 3 to 8) (size 9 to 14) (size 15 to 20)
#    0.667    0.889    0.000    5.333    6.222    0.000 
#    2.000    0.000    0.000    0.000    0.000    0.000 
#    0.000    0.000    0.000    0.000    0.000    0.000 
#
# Total GULP energy -100450.488401 kJ/mol
# GULP energy per Si atom -5580.582689 kJ/mol
# Density = 1.982076 g / cm^3
# Si number density = 19.865981 Si / 1000 Ang^3
#
#
#
# Elastic Constant Matrix: (Units=GPa)
#
#
# Indices 1 2 3 4 5 6 
#
# 1 63.4782 -22.9797 26.3569 0.0000 0.0000 0.0000
# 2 -22.9797 83.0133 2.3852 0.0000 0.0000 0.0000
# 3 26.3569 2.3852 101.0785 0.0000 0.0000 0.0000
# 4 0.0000 0.0000 0.0000 -298.3989 0.0000 0.0000
# 5 0.0000 0.0000 0.0000 0.0000 25.9104 0.0000
# 6 0.0000 0.0000 0.0000 0.0000 0.0000 26.5524
#
#
#
# Elastic Compliance Matrix: (Units=1/GPa)
#
#
# Indices 1 2 3 4 5 6 
#
# 1 0.020044 0.005703 -0.005361 0.000000 0.000000 0.000000
# 2 0.005703 0.013677 -0.001810 0.000000 0.000000 0.000000
# 3 -0.005361 -0.001810 0.011334 0.000000 0.000000 0.000000
# 4 0.000000 0.000000 0.000000 -0.003351 0.000000 0.000000
# 5 0.000000 0.000000 0.000000 0.000000 0.038595 0.000000
# 6 0.000000 0.000000 0.000000 0.000000 0.000000 0.037661
#
#
# Mechanical properties :
#
#
# Convention : Reuss Voigt Hill
#
# Bulk Modulus (GPa) = 23.74280 28.78831 26.26555
# Shear Modulus (GPa) = 37.05480 -33.06672 1.99404
#
# Velocity S-wave (km/s) = 4.32353 -4.08424 1.00296
# Velocity P-wave (km/s) = 6.07464 2.77825 3.81986
#
# Compressibility (1/GPa) = 0.04211804
#
# Stress axis : x y z
#
# Youngs Moduli (GPa) = 49.89067 73.11629 88.23041
#
# Poissons Ratio (x) = -0.41695 0.47302
# Poissons Ratio (y) = -0.28450 0.15967
# Poissons Ratio (z) = 0.26747 0.13232
#
# Static dielectric constant tensor:
#      x y z
#    x 3.564040 0.000000 0.000000 
#    y 0.000000 1.707540 0.000000 
#    z 0.000000 0.000000 1.712360 
# 
# From -- ./inp_files/4404.got.cif
#   From: 2010.05.17/outbox.cif.g08.bks.cpg/sg18_3_cif.got.tgz:4404.got - 2010.06.03 22:40:56.
