data_PCOD9312338
_publ_section_title
;
Structure prediction by ZEFSAII (Michael W. Deem and Ramdas Pophale) SiO2 
 PCOD9312338
Probable space group: P 21 21 2
;
_chemical_formula_sum "Si O2"
_cell_formula_units_Z 28
_cell_length_a 18.229859
_cell_length_b 10.830598
_cell_length_c 5.693105
_cell_angle_alpha 90.000000
_cell_angle_beta 90.000000
_cell_angle_gamma 90.000000
_cell_volume 1124.048214
_symmetry_space_group_name_H-M "P 21 21 2"
_symmetry_group_IT_number 18
_symmetry_cell_setting 'orthorhombic'
loop_
_space_group_symop_operation_xyz
x,y,z
-x,-y,z
1/2+x,1/2-y,-z
1/2-x,1/2+y,-z
loop_
_atom_site_type_symbol
_atom_site_label
_atom_site_fract_x
_atom_site_fract_y
_atom_site_fract_z
Si Si1 0.423742 0.926452 0.000953
Si Si2 0.588990 0.984117 0.497046
Si Si3 0.435780 0.674431 0.768004
Si Si4 0.373817 0.474812 0.072362
Si Si5 0.923500 0.197352 0.555286
Si Si6 0.221631 0.899485 0.314431
Si Si7 0.800002 0.853448 0.549585
O O1 0.443810 0.785622 0.950439
O O2 0.500000 0.000000 0.019453
O O3 0.385239 0.975990 0.759858
O O4 0.387266 0.943975 0.257897
O O5 0.598311 0.839906 0.448367
O O6 0.500000 0.000000 0.514962
O O7 0.500324 0.318795 0.575937
O O8 0.357158 0.692563 0.644575
O O9 0.425469 0.544968 0.892084
O O10 0.418815 0.364641 0.190673
O O11 0.347195 0.581117 0.248649
O O12 0.298804 0.423945 0.955822
O O13 0.859209 0.125157 0.422547
O O14 0.260307 0.769138 0.359805
O O15 0.245278 0.030206 0.435335
#
# Coordination Sequence:
#
# PCOD9312338 Si02
#       7
#     4   4   4   4   4   4   4
#     4  10  21  39  64 101 151 188 236 298 368 447
#     4  10  21  39  64 101 151 188 236 298 368 447
#     4  11  24  45  73 108 150 190 243 315 381 456
#     4  10  26  45  74 104 146 197 250 302 388 455
#     4  11  24  45  73 108 150 190 243 315 381 456
#     4  10  25  49  73 104 147 197 253 310 376 457
#     4  10  25  49  73 104 147 197 253 310 376 457
#
# _framework density 24.909960999999999
#
# number of rings (size 3 to 8) (size 9 to 14) (size 15 to 20)
#    0.000    1.714    2.857    0.000    4.000   13.143 
#    0.000    0.000    3.143    0.000    0.000    0.000 
#    0.000    0.000    0.000    0.000    0.000    0.000 
#
# Total GULP energy -156632.825512 kJ/mol
# GULP energy per Si atom -5594.029483 kJ/mol
# Density = 2.485326 g / cm^3
# Si number density = 24.909961 Si / 1000 Ang^3
#
#
#
# Elastic Constant Matrix: (Units=GPa)
#
#
# Indices 1 2 3 4 5 6 
#
# 1 56.0945 52.0855 18.9805 0.0000 0.0000 0.0000
# 2 52.0855 177.3839 37.7965 0.0000 0.0000 0.0000
# 3 18.9805 37.7965 108.2777 0.0000 0.0000 0.0000
# 4 0.0000 0.0000 0.0000 8.7836 0.0000 0.0000
# 5 0.0000 0.0000 0.0000 0.0000 21.3709 0.0000
# 6 0.0000 0.0000 0.0000 0.0000 0.0000 54.2078
#
#
#
# Elastic Compliance Matrix: (Units=1/GPa)
#
#
# Indices 1 2 3 4 5 6 
#
# 1 0.024888 -0.006891 -0.001957 0.000000 0.000000 0.000000
# 2 -0.006891 0.007998 -0.001584 0.000000 0.000000 0.000000
# 3 -0.001957 -0.001584 0.010132 0.000000 0.000000 0.000000
# 4 0.000000 0.000000 0.000000 0.113849 0.000000 0.000000
# 5 0.000000 0.000000 0.000000 0.000000 0.046793 0.000000
# 6 0.000000 0.000000 0.000000 0.000000 0.000000 0.018448
#
#
# Mechanical properties :
#
#
# Convention : Reuss Voigt Hill
#
# Bulk Modulus (GPa) = 45.14004 62.16456 53.65230
# Shear Modulus (GPa) = 19.97163 32.39870 26.18516
#
# Velocity S-wave (km/s) = 2.83460 3.61034 3.24573
# Velocity P-wave (km/s) = 5.37344 6.51071 5.96922
#
# Compressibility (1/GPa) = 0.02215328
#
# Stress axis : x y z
#
# Youngs Moduli (GPa) = 40.18067 125.02578 98.70135
#
# Poissons Ratio (x) = 0.86152 0.19319
# Poissons Ratio (y) = 0.27687 0.15635
# Poissons Ratio (z) = 0.07865 0.19805
#
# Static dielectric constant tensor:
#      x y z
#    x 2.005570 0.000000 0.000000 
#    y 0.000000 1.931670 0.000000 
#    z 0.000000 0.000000 2.135830 
# 
# From -- ./inp_files/2275.got.cif
#   From: 2010.05.17/outbox.cif.g08.bks.cpg/sg18_2_cif.got.tgz:2275.got - 2010.06.03 22:40:56.
