data_PCOD9312514
_publ_section_title
;
Structure prediction by ZEFSAII (Michael W. Deem and Ramdas Pophale) SiO2 
 PCOD9312514
Probable space group: P 21 21 2
;
_chemical_formula_sum "Si O2"
_cell_formula_units_Z 24
_cell_length_a 13.604345
_cell_length_b 5.295792
_cell_length_c 15.233899
_cell_angle_alpha 90.000000
_cell_angle_beta 90.000000
_cell_angle_gamma 90.000000
_cell_volume 1097.538157
_symmetry_space_group_name_H-M "P 21 21 2"
_symmetry_group_IT_number 18
_symmetry_cell_setting 'orthorhombic'
loop_
_space_group_symop_operation_xyz
x,y,z
-x,-y,z
1/2+x,1/2-y,-z
1/2-x,1/2+y,-z
loop_
_atom_site_type_symbol
_atom_site_label
_atom_site_fract_x
_atom_site_fract_y
_atom_site_fract_z
Si Si1 0.000000 0.000000 0.477429
Si Si2 0.356248 0.207731 0.181497
Si Si3 0.154677 0.306121 0.549979
Si Si4 0.219808 0.701296 0.199109
Si Si5 0.683706 0.792881 0.991177
Si Si6 0.360290 0.150169 0.613176
Si Si7 0.500000 0.000000 0.311698
O O1 0.960990 0.220429 0.415471
O O2 0.093348 0.048946 0.539528
O O3 0.295858 0.466069 0.195411
O O4 0.284589 0.962777 0.201534
O O5 0.450529 0.197300 0.244401
O O6 0.383731 0.194680 0.077701
O O7 0.263969 0.307622 0.584169
O O8 0.152999 0.412624 0.451192
O O9 0.088130 0.445483 0.621055
O O10 0.153701 0.706816 0.110687
O O11 0.152960 0.642484 0.283306
O O12 0.746280 0.536777 0.000795
#
# Coordination Sequence:
#
# PCOD9312514 Si02
#       7
#     2   4   4   4   4   4   2
#     4  12  26  44  66  90 132 172 230 278 328 402
#     4  10  22  38  64  97 131 167 219 276 332 397
#     4  12  26  41  63  94 131 177 220 286 329 397
#     4  10  22  38  68  94 127 177 220 262 338 401
#     4   8  16  36  60  91 122 162 213 267 326 396
#     4  12  25  42  66  93 133 174 228 271 341 392
#     4  12  24  40  60 102 132 174 228 280 340 394
#
# _framework density 21.867121999999998
#
# number of rings (size 3 to 8) (size 9 to 14) (size 15 to 20)
#    0.000    1.333    5.000    0.000    7.000    0.667 
#    0.000    0.000    3.667    0.000    0.000    0.000 
#    0.000    0.000    0.000    0.000    0.000    0.000 
#
# Total GULP energy -133693.622617 kJ/mol
# GULP energy per Si atom -5570.567609 kJ/mol
# Density = 2.181735 g / cm^3
# Si number density = 21.867122 Si / 1000 Ang^3
#
#
#
# Elastic Constant Matrix: (Units=GPa)
#
#
# Indices 1 2 3 4 5 6 
#
# 1 63.1451 3.1228 13.9198 0.0000 0.0000 0.0000
# 2 3.1228 90.7630 4.3824 0.0000 0.0000 0.0000
# 3 13.9198 4.3824 155.3558 0.0000 0.0000 0.0000
# 4 0.0000 0.0000 0.0000 13.9853 0.0000 0.0000
# 5 0.0000 0.0000 0.0000 0.0000 42.4027 0.0000
# 6 0.0000 0.0000 0.0000 0.0000 0.0000 -10.0510
#
#
#
# Elastic Compliance Matrix: (Units=1/GPa)
#
#
# Indices 1 2 3 4 5 6 
#
# 1 0.016177 -0.000487 -0.001436 0.000000 0.000000 0.000000
# 2 -0.000487 0.011047 -0.000268 0.000000 0.000000 0.000000
# 3 -0.001436 -0.000268 0.006573 0.000000 0.000000 0.000000
# 4 0.000000 0.000000 0.000000 0.071503 0.000000 0.000000
# 5 0.000000 0.000000 0.000000 0.000000 0.023583 0.000000
# 6 0.000000 0.000000 0.000000 0.000000 0.000000 -0.099492
#
#
# Mechanical properties :
#
#
# Convention : Reuss Voigt Hill
#
# Bulk Modulus (GPa) = 33.99553 39.12379 36.55966
# Shear Modulus (GPa) = 114.73356 28.45666 71.59511
#
# Velocity S-wave (km/s) = 7.25137 3.61133 5.72818
# Velocity P-wave (km/s) = 9.25689 5.94301 7.77848
#
# Compressibility (1/GPa) = 0.02941563
#
# Stress axis : x y z
#
# Youngs Moduli (GPa) = 61.81567 90.51896 152.13663
#
# Poissons Ratio (x) = 0.04411 0.21843
# Poissons Ratio (y) = 0.03012 0.04077
# Poissons Ratio (z) = 0.08875 0.02426
#
# Static dielectric constant tensor:
#      x y z
#    x 1.845190 0.000000 0.000000 
#    y 0.000000 1.865900 0.000000 
#    z 0.000000 0.000000 1.920120 
# 
# From -- ./inp_files/6470.got.cif
#   From: 2010.05.17/outbox.cif.g08.bks.cpg/sg18_4_cif.got.tgz:6470.got - 2010.06.03 22:40:56.
