data_PCOD9312008
_publ_section_title
;
Structure prediction by ZEFSAII (Michael W. Deem and Ramdas Pophale) SiO2 
 PCOD9312008
Probable space group: P 21 21 2
;
_chemical_formula_sum "Si O2"
_cell_formula_units_Z 32
_cell_length_a 14.707299
_cell_length_b 7.840173
_cell_length_c 12.486479
_cell_angle_alpha 90.000000
_cell_angle_beta 90.000000
_cell_angle_gamma 90.000000
_cell_volume 1439.788030
_symmetry_space_group_name_H-M "P 21 21 2"
_symmetry_group_IT_number 18
_symmetry_cell_setting 'orthorhombic'
loop_
_space_group_symop_operation_xyz
x,y,z
-x,-y,z
1/2+x,1/2-y,-z
1/2-x,1/2+y,-z
loop_
_atom_site_type_symbol
_atom_site_label
_atom_site_fract_x
_atom_site_fract_y
_atom_site_fract_z
Si Si1 0.101121 0.064634 0.808113
Si Si2 0.369398 0.775073 0.517371
Si Si3 0.628351 0.877585 0.790825
Si Si4 0.769828 0.980553 0.630299
Si Si5 0.600542 0.062416 0.292352
Si Si6 0.054569 0.244618 0.266514
Si Si7 0.755262 0.043343 0.956178
Si Si8 0.764197 0.898045 0.173398
O O1 0.159678 0.960280 0.720468
O O2 0.109057 0.257156 0.768063
O O3 0.148938 0.036787 0.920716
O O4 0.000000 0.000000 0.808488
O O5 0.325799 0.610736 0.462190
O O6 0.397288 0.896407 0.419129
O O7 0.446862 0.733295 0.604189
O O8 0.290558 0.870255 0.583032
O O9 0.703147 0.851569 0.696672
O O10 0.546084 0.743346 0.784759
O O11 0.588312 0.063853 0.760457
O O12 0.678498 0.920370 0.902443
O O13 0.500000 0.000000 0.263802
O O14 0.683487 0.940893 0.256471
O O15 0.135757 0.122644 0.225303
O O16 0.747695 0.224850 0.896696
O O17 0.754008 0.044265 0.083339
#
# Coordination Sequence:
#
# PCOD9312008 Si02
#       8
#     4   4   4   4   4   4   4   4
#     4  10  21  41  61  87 127 166 218 269 329 398
#     4  10  20  35  59  86 121 164 207 262 333 381
#     4   8  17  35  58  84 117 162 214 263 317 390
#     4   9  19  34  57  86 122 165 204 267 326 389
#     4  11  24  38  61  95 126 167 220 273 326 408
#     4   9  18  35  59  91 121 162 215 266 316 397
#     4  10  21  40  65  87 126 176 208 273 339 385
#     4  11  22  41  64  95 134 167 219 274 331 400
#
# _framework density 22.225494000000001
#
# number of rings (size 3 to 8) (size 9 to 14) (size 15 to 20)
#    0.000    2.250    0.000    3.000    3.500    1.000 
#   11.250    0.000    0.000    1.500    0.000    0.000 
#    0.000    0.000    0.000    0.000    0.000    0.000 
#
# Total GULP energy -178620.077867 kJ/mol
# GULP energy per Si atom -5581.877433 kJ/mol
# Density = 2.217491 g / cm^3
# Si number density = 22.225494 Si / 1000 Ang^3
#
#
#
# Elastic Constant Matrix: (Units=GPa)
#
#
# Indices 1 2 3 4 5 6 
#
# 1 135.2102 31.1659 27.8818 0.0000 0.0000 0.0000
# 2 31.1659 69.9530 17.9313 0.0000 0.0000 0.0000
# 3 27.8818 17.9313 88.7516 0.0000 0.0000 0.0000
# 4 0.0000 0.0000 0.0000 28.4949 0.0000 0.0000
# 5 0.0000 0.0000 0.0000 0.0000 12.5226 0.0000
# 6 0.0000 0.0000 0.0000 0.0000 0.0000 33.3021
#
#
#
# Elastic Compliance Matrix: (Units=1/GPa)
#
#
# Indices 1 2 3 4 5 6 
#
# 1 0.008575 -0.003301 -0.002027 0.000000 0.000000 0.000000
# 2 -0.003301 0.016347 -0.002266 0.000000 0.000000 0.000000
# 3 -0.002027 -0.002266 0.012362 0.000000 0.000000 0.000000
# 4 0.000000 0.000000 0.000000 0.035094 0.000000 0.000000
# 5 0.000000 0.000000 0.000000 0.000000 0.079856 0.000000
# 6 0.000000 0.000000 0.000000 0.000000 0.000000 0.030028
#
#
# Mechanical properties :
#
#
# Convention : Reuss Voigt Hill
#
# Bulk Modulus (GPa) = 45.25589 49.76367 47.50978
# Shear Modulus (GPa) = 24.41248 29.32629 26.86939
#
# Velocity S-wave (km/s) = 3.31781 3.63642 3.48076
# Velocity P-wave (km/s) = 5.92313 6.33011 6.13000
#
# Compressibility (1/GPa) = 0.02209657
#
# Stress axis : x y z
#
# Youngs Moduli (GPa) = 116.62254 61.17469 80.89350
#
# Poissons Ratio (x) = 0.20192 0.16396
# Poissons Ratio (y) = 0.38493 0.18328
# Poissons Ratio (z) = 0.23638 0.13861
#
# Static dielectric constant tensor:
#      x y z
#    x 1.838110 0.000000 0.000000 
#    y 0.000000 1.867810 0.000000 
#    z 0.000000 0.000000 1.837780 
# 
# From -- ./inp_files/6117.got.cif
#   From: 2010.05.17/outbox.cif.g08.bks.cpg/sg18_4_cif.got.tgz:6117.got - 2010.06.03 22:40:56.
