data_PCOD9312430
_publ_section_title
;
Structure prediction by ZEFSAII (Michael W. Deem and Ramdas Pophale) SiO2 
 PCOD9312430
Probable space group: P 21 21 2
;
_chemical_formula_sum "Si O2"
_cell_formula_units_Z 30
_cell_length_a 26.717530
_cell_length_b 5.524033
_cell_length_c 9.714613
_cell_angle_alpha 90.000000
_cell_angle_beta 90.000000
_cell_angle_gamma 90.000000
_cell_volume 1433.765330
_symmetry_space_group_name_H-M "P 21 21 2"
_symmetry_group_IT_number 18
_symmetry_cell_setting 'orthorhombic'
loop_
_space_group_symop_operation_xyz
x,y,z
-x,-y,z
1/2+x,1/2-y,-z
1/2-x,1/2+y,-z
loop_
_atom_site_type_symbol
_atom_site_label
_atom_site_fract_x
_atom_site_fract_y
_atom_site_fract_z
Si Si1 0.800655 0.190173 0.975362
Si Si2 0.090394 0.707692 0.538874
Si Si3 0.258054 0.097040 0.764815
Si Si4 0.636240 0.191937 0.990064
Si Si5 0.923710 0.669794 0.751363
Si Si6 0.500000 0.500000 0.400086
Si Si7 0.639089 0.110450 0.677138
Si Si8 0.834048 0.911915 0.576820
O O1 0.766487 0.210907 0.112430
O O2 0.832063 0.443170 0.975185
O O3 0.834630 0.946277 0.982346
O O4 0.764769 0.137930 0.845071
O O5 0.074120 0.592004 0.683210
O O6 0.097308 0.523796 0.413549
O O7 0.145203 0.816548 0.569400
O O8 0.045544 0.893007 0.509408
O O9 0.312641 0.055777 0.704232
O O10 0.218912 0.144072 0.643966
O O11 0.623180 0.188574 0.828851
O O12 0.588469 0.180787 0.089235
O O13 0.971429 0.811959 0.697599
O O14 0.874902 0.783941 0.675336
O O15 0.659519 0.319135 0.577776
#
# Coordination Sequence:
#
# PCOD9312430 Si02
#       8
#     4   4   4   4   4   2   4   4
#     4  11  24  41  61  98 136 191 233 279 324 385
#     4  10  22  44  65 101 131 175 227 283 350 405
#     4  11  22  39  61  95 139 187 241 270 326 394
#     4  11  24  44  68  98 140 179 228 283 340 400
#     4  10  21  42  71  98 123 167 223 286 345 405
#     4  10  22  42  78  98 124 162 230 292 348 424
#     4  10  25  37  60  97 138 185 219 278 335 405
#     4  10  22  39  61  92 135 182 225 276 325 396
#
# _framework density 20.923926000000002
#
# number of rings (size 3 to 8) (size 9 to 14) (size 15 to 20)
#    0.000    1.600    1.333    2.800    7.467    0.000 
#    7.200    0.000    0.000   19.200    0.000    0.000 
#    0.000    0.000    0.000    0.000    0.000    0.000 
#
# Total GULP energy -167348.800187 kJ/mol
# GULP energy per Si atom -5578.293340 kJ/mol
# Density = 2.087630 g / cm^3
# Si number density = 20.923926 Si / 1000 Ang^3
#
#
#
# Elastic Constant Matrix: (Units=GPa)
#
#
# Indices 1 2 3 4 5 6 
#
# 1 54.7785 4.2683 27.1570 0.0000 0.0000 0.0000
# 2 4.2683 68.8956 8.8331 0.0000 0.0000 0.0000
# 3 27.1570 8.8331 108.7535 0.0000 0.0000 0.0000
# 4 0.0000 0.0000 0.0000 14.7973 0.0000 0.0000
# 5 0.0000 0.0000 0.0000 0.0000 13.9070 0.0000
# 6 0.0000 0.0000 0.0000 0.0000 0.0000 25.1531
#
#
#
# Elastic Compliance Matrix: (Units=1/GPa)
#
#
# Indices 1 2 3 4 5 6 
#
# 1 0.020862 -0.000631 -0.005158 0.000000 0.000000 0.000000
# 2 -0.000631 0.014687 -0.001035 0.000000 0.000000 0.000000
# 3 -0.005158 -0.001035 0.010567 0.000000 0.000000 0.000000
# 4 0.000000 0.000000 0.000000 0.067580 0.000000 0.000000
# 5 0.000000 0.000000 0.000000 0.000000 0.071906 0.000000
# 6 0.000000 0.000000 0.000000 0.000000 0.000000 0.039757
#
#
# Mechanical properties :
#
#
# Convention : Reuss Voigt Hill
#
# Bulk Modulus (GPa) = 30.80104 34.77160 32.78632
# Shear Modulus (GPa) = 20.01365 23.58276 21.79821
#
# Velocity S-wave (km/s) = 3.09608 3.36083 3.23117
# Velocity P-wave (km/s) = 5.24723 5.63156 5.44279
#
# Compressibility (1/GPa) = 0.03246644
#
# Stress axis : x y z
#
# Youngs Moduli (GPa) = 47.93467 68.08954 94.63209
#
# Poissons Ratio (x) = 0.04297 0.48813
# Poissons Ratio (y) = 0.03025 0.09797
# Poissons Ratio (z) = 0.24725 0.07049
#
# Static dielectric constant tensor:
#      x y z
#    x 1.775420 0.000000 0.000000 
#    y 0.000000 1.896630 0.000000 
#    z 0.000000 0.000000 1.758860 
# 
# From -- ./inp_files/4854.got.cif
#   From: 2010.05.17/outbox.cif.g08.bks.cpg/sg18_3_cif.got.tgz:4854.got - 2010.06.03 22:40:56.
