data_PCOD9312980
_publ_section_title
;
Structure prediction by ZEFSAII (Michael W. Deem and Ramdas Pophale) SiO2 
 PCOD9312980
Probable space group: P 21 21 2
;
_chemical_formula_sum "Si O2"
_cell_formula_units_Z 14
_cell_length_a 13.329566
_cell_length_b 8.771801
_cell_length_c 5.074534
_cell_angle_alpha 90.000000
_cell_angle_beta 90.000000
_cell_angle_gamma 90.000000
_cell_volume 593.336338
_symmetry_space_group_name_H-M "P 21 21 2"
_symmetry_group_IT_number 18
_symmetry_cell_setting 'orthorhombic'
loop_
_space_group_symop_operation_xyz
x,y,z
-x,-y,z
1/2+x,1/2-y,-z
1/2-x,1/2+y,-z
loop_
_atom_site_type_symbol
_atom_site_label
_atom_site_fract_x
_atom_site_fract_y
_atom_site_fract_z
Si Si1 0.000000 0.500000 0.126215
Si Si2 0.857749 0.075024 0.885505
Si Si3 0.465438 0.288225 0.611885
Si Si4 0.647931 0.241827 0.933729
O O1 0.937805 0.387031 0.316993
O O2 0.927080 0.609058 0.959409
O O3 0.912330 0.117917 0.156651
O O4 0.841771 0.893545 0.894455
O O5 0.927848 0.141910 0.656902
O O6 0.753078 0.164589 0.874194
O O7 0.584517 0.287244 0.671470
#
# Coordination Sequence:
#
# PCOD9312980 Si02
#       4
#     2   4   4   4
#     4   8  22  52  70 116 150 204 256 326 386 462
#     4  12  25  48  80 114 160 207 269 321 413 460
#     4  10  26  47  77 115 154 210 258 338 382 483
#     4  10  25  48  81 119 157 210 267 334 393 485
#
# _framework density 23.595383999999999
#
# number of rings (size 3 to 8) (size 9 to 14) (size 15 to 20)
#    1.714    0.000    0.000    2.571    0.000   12.571 
#    0.000    0.000    0.000    0.000    0.000    0.000 
#    0.000    0.000    0.000    0.000    0.000    0.000 
#
# Total GULP energy -78187.415864 kJ/mol
# GULP energy per Si atom -5584.815419 kJ/mol
# Density = 2.354168 g / cm^3
# Si number density = 23.595384 Si / 1000 Ang^3
#
#
#
# Elastic Constant Matrix: (Units=GPa)
#
#
# Indices 1 2 3 4 5 6 
#
# 1 165.1163 79.5594 30.2573 0.0000 0.0000 0.0000
# 2 79.5594 217.6805 41.3110 0.0000 0.0000 0.0000
# 3 30.2573 41.3110 69.7921 0.0000 0.0000 0.0000
# 4 0.0000 0.0000 0.0000 -1.3991 0.0000 0.0000
# 5 0.0000 0.0000 0.0000 0.0000 1.7158 0.0000
# 6 0.0000 0.0000 0.0000 0.0000 0.0000 50.6207
#
#
#
# Elastic Compliance Matrix: (Units=1/GPa)
#
#
# Indices 1 2 3 4 5 6 
#
# 1 0.007557 -0.002411 -0.001849 0.000000 0.000000 0.000000
# 2 -0.002411 0.005944 -0.002473 0.000000 0.000000 0.000000
# 3 -0.001849 -0.002473 0.016594 0.000000 0.000000 0.000000
# 4 0.000000 0.000000 0.000000 -0.714731 0.000000 0.000000
# 5 0.000000 0.000000 0.000000 0.000000 0.582833 0.000000
# 6 0.000000 0.000000 0.000000 0.000000 0.000000 0.019755
#
#
# Mechanical properties :
#
#
# Convention : Reuss Voigt Hill
#
# Bulk Modulus (GPa) = 60.13804 83.87158 72.00481
# Shear Modulus (GPa) = -79.31678 30.28487 -24.51596
#
# Velocity S-wave (km/s) = -5.80417 3.58649 -3.22687
# Velocity P-wave (km/s) = 4.40173 7.26454 4.08646
#
# Compressibility (1/GPa) = 0.01662841
#
# Stress axis : x y z
#
# Youngs Moduli (GPa) = 132.32928 168.22313 60.26304
#
# Poissons Ratio (x) = 0.40559 0.11143
# Poissons Ratio (y) = 0.31905 0.14905
# Poissons Ratio (z) = 0.24468 0.41608
#
# Static dielectric constant tensor:
#      x y z
#    x 1.887940 0.000000 0.000000 
#    y 0.000000 2.011260 0.000000 
#    z 0.000000 0.000000 1.864420 
# 
# From -- ./inp_files/1368.got.cif
#   From: 2010.05.17/outbox.cif.g08.bks.cpg/sg18_1_cif.got.tgz:1368.got - 2010.06.03 22:40:56.
