data_PCOD9312265
_publ_section_title
;
Structure prediction by ZEFSAII (Michael W. Deem and Ramdas Pophale) SiO2 
 PCOD9312265
Probable space group: P 21 21 2
;
_chemical_formula_sum "Si O2"
_cell_formula_units_Z 16
_cell_length_a 9.654465
_cell_length_b 8.127111
_cell_length_c 7.954701
_cell_angle_alpha 90.000000
_cell_angle_beta 90.000000
_cell_angle_gamma 90.000000
_cell_volume 624.148978
_symmetry_space_group_name_H-M "P 21 21 2"
_symmetry_group_IT_number 18
_symmetry_cell_setting 'orthorhombic'
loop_
_space_group_symop_operation_xyz
x,y,z
-x,-y,z
1/2+x,1/2-y,-z
1/2-x,1/2+y,-z
loop_
_atom_site_type_symbol
_atom_site_label
_atom_site_fract_x
_atom_site_fract_y
_atom_site_fract_z
Si Si1 0.964581 0.259043 0.944343
Si Si2 0.291602 0.548890 0.947253
Si Si3 0.964581 0.259043 0.555658
Si Si4 0.708397 0.451110 0.552746
O O1 0.861433 0.401436 0.006751
O O2 0.997522 0.291749 0.750000
O O3 0.104379 0.204562 0.034930
O O4 0.866619 0.097188 0.955804
O O5 0.285880 0.505350 0.750000
O O6 0.861432 0.401436 0.493249
O O7 0.104378 0.204560 0.465071
O O8 0.866618 0.097189 0.544197
#
# Coordination Sequence:
#
# PCOD9312265 Si02
#       4
#     4   4   4   4
#     4  10  21  36  55  79 106 138 175 215 260 309
#     4  10  21  36  55  79 106 138 175 215 260 309
#     4  10  21  36  55  79 106 138 175 215 260 309
#     4  10  21  36  55  79 106 138 175 215 260 309
#
# _framework density 25.634903999999999
#
# number of rings (size 3 to 8) (size 9 to 14) (size 15 to 20)
#    0.000    2.000    0.000    6.000    0.000   10.000 
#    0.000   10.000    0.000    0.000    0.000    0.000 
#    0.000    0.000    0.000    0.000    0.000    0.000 
#
# Total GULP energy -89568.188219 kJ/mol
# GULP energy per Si atom -5598.011764 kJ/mol
# Density = 2.557656 g / cm^3
# Si number density = 25.634904 Si / 1000 Ang^3
#
#
#
# Elastic Constant Matrix: (Units=GPa)
#
#
# Indices 1 2 3 4 5 6 
#
# 1 176.8583 26.4310 14.8468 0.0000 0.0000 0.0000
# 2 26.4310 67.5547 3.9469 0.0000 0.0000 0.0000
# 3 14.8468 3.9469 58.8577 0.0000 0.0000 0.0000
# 4 0.0000 0.0000 0.0000 26.2955 0.0000 0.0000
# 5 0.0000 0.0000 0.0000 0.0000 24.9112 0.0000
# 6 0.0000 0.0000 0.0000 0.0000 0.0000 66.3973
#
#
#
# Elastic Compliance Matrix: (Units=1/GPa)
#
#
# Indices 1 2 3 4 5 6 
#
# 1 0.006116 -0.002312 -0.001388 0.000000 0.000000 0.000000
# 2 -0.002312 0.015735 -0.000472 0.000000 0.000000 0.000000
# 3 -0.001388 -0.000472 0.017372 0.000000 0.000000 0.000000
# 4 0.000000 0.000000 0.000000 0.038029 0.000000 0.000000
# 5 0.000000 0.000000 0.000000 0.000000 0.040143 0.000000
# 6 0.000000 0.000000 0.000000 0.000000 0.000000 0.015061
#
#
# Mechanical properties :
#
#
# Convention : Reuss Voigt Hill
#
# Bulk Modulus (GPa) = 32.38378 43.74669 38.06523
# Shear Modulus (GPa) = 33.09233 40.72386 36.90810
#
# Velocity S-wave (km/s) = 3.59682 3.99006 3.79853
# Velocity P-wave (km/s) = 5.46897 6.19110 5.84121
#
# Compressibility (1/GPa) = 0.03087966
#
# Stress axis : x y z
#
# Youngs Moduli (GPa) = 163.49868 63.55283 57.56444
#
# Poissons Ratio (x) = 0.14693 0.07989
# Poissons Ratio (y) = 0.37800 0.02717
# Poissons Ratio (z) = 0.22690 0.03000
#
# Static dielectric constant tensor:
#      x y z
#    x 2.004080 0.000000 0.000000 
#    y 0.000000 2.148870 0.000000 
#    z 0.000000 0.000000 1.850330 
# 
# From -- ./inp_files/2834.got.cif
#   From: 2010.05.17/outbox.cif.g08.bks.cpg/sg18_2_cif.got.tgz:2834.got - 2010.06.03 22:40:56.
