data_PCOD9312299
_publ_section_title
;
Structure prediction by ZEFSAII (Michael W. Deem and Ramdas Pophale) SiO2 
 PCOD9312299
Probable space group: P 21 21 2
;
_chemical_formula_sum "Si O2"
_cell_formula_units_Z 32
_cell_length_a 9.177201
_cell_length_b 14.797467
_cell_length_c 11.078277
_cell_angle_alpha 90.000000
_cell_angle_beta 90.000000
_cell_angle_gamma 90.000000
_cell_volume 1504.422583
_symmetry_space_group_name_H-M "P 21 21 2"
_symmetry_group_IT_number 18
_symmetry_cell_setting 'orthorhombic'
loop_
_space_group_symop_operation_xyz
x,y,z
-x,-y,z
1/2+x,1/2-y,-z
1/2-x,1/2+y,-z
loop_
_atom_site_type_symbol
_atom_site_label
_atom_site_fract_x
_atom_site_fract_y
_atom_site_fract_z
Si Si1 0.884828 0.927299 0.644764
Si Si2 0.291550 0.530189 0.099521
Si Si3 0.406632 0.423593 0.868760
Si Si4 0.563920 0.737603 0.390060
Si Si5 0.379255 0.166676 0.640038
Si Si6 0.663602 0.198140 0.218119
Si Si7 0.153482 0.204626 0.027705
Si Si8 0.687986 0.148272 0.771480
O O1 0.712352 0.926053 0.622204
O O2 0.940703 0.836440 0.583414
O O3 0.892605 0.929671 0.792252
O O4 0.000000 0.000000 0.601702
O O5 0.202275 0.451933 0.170316
O O6 0.359216 0.471222 0.992782
O O7 0.246407 0.621855 0.025882
O O8 0.500000 0.500000 0.799773
O O9 0.263219 0.389483 0.801699
O O10 0.514682 0.343124 0.908789
O O11 0.607033 0.786246 0.511451
O O12 0.479893 0.805920 0.300176
O O13 0.689320 0.678184 0.325535
O O14 0.278338 0.230483 0.724096
O O15 0.531874 0.155068 0.707041
O O16 0.615059 0.236314 0.088920
O O17 0.210890 0.276326 0.124413
#
# Coordination Sequence:
#
# PCOD9312299 Si02
#       8
#     4   4   4   4   4   4   4   4
#     4  11  21  44  70 101 129 180 238 303 349 417
#     4  11  21  38  68 102 141 179 238 295 362 457
#     4  10  21  37  65  98 141 176 228 292 369 448
#     4  11  24  43  71  96 142 186 248 295 358 429
#     4  11  25  43  67 100 140 187 247 295 355 435
#     4  11  21  41  68  98 138 186 228 300 371 428
#     4  11  21  36  64 106 139 174 229 301 375 436
#     4  12  23  39  70 106 145 190 235 308 374 434
#
# _framework density 21.270619
#
# number of rings (size 3 to 8) (size 9 to 14) (size 15 to 20)
#    0.000    1.000    6.250    3.375    0.000    0.500 
#    0.000    0.625    2.750    0.000    0.000    0.000 
#    0.000    0.000    0.000    0.000    0.000    0.000 
#
# Total GULP energy -178225.992703 kJ/mol
# GULP energy per Si atom -5569.562272 kJ/mol
# Density = 2.122221 g / cm^3
# Si number density = 21.270619 Si / 1000 Ang^3
#
#
#
# Elastic Constant Matrix: (Units=GPa)
#
#
# Indices 1 2 3 4 5 6 
#
# 1 104.5456 35.2187 33.3582 0.0000 0.0000 0.0000
# 2 35.2187 98.3617 32.2983 0.0000 0.0000 0.0000
# 3 33.3582 32.2983 66.1866 0.0000 0.0000 0.0000
# 4 0.0000 0.0000 0.0000 35.1538 0.0000 0.0000
# 5 0.0000 0.0000 0.0000 0.0000 25.8165 0.0000
# 6 0.0000 0.0000 0.0000 0.0000 0.0000 46.7662
#
#
#
# Elastic Compliance Matrix: (Units=1/GPa)
#
#
# Indices 1 2 3 4 5 6 
#
# 1 0.011992 -0.002750 -0.004702 0.000000 0.000000 0.000000
# 2 -0.002750 0.012737 -0.004830 0.000000 0.000000 0.000000
# 3 -0.004702 -0.004830 0.019835 0.000000 0.000000 0.000000
# 4 0.000000 0.000000 0.000000 0.028446 0.000000 0.000000
# 5 0.000000 0.000000 0.000000 0.000000 0.038735 0.000000
# 6 0.000000 0.000000 0.000000 0.000000 0.000000 0.021383
#
#
# Mechanical properties :
#
#
# Convention : Reuss Voigt Hill
#
# Bulk Modulus (GPa) = 49.99649 52.31603 51.15626
# Shear Modulus (GPa) = 30.42128 32.76187 31.59158
#
# Velocity S-wave (km/s) = 3.78590 3.92885 3.85804
# Velocity P-wave (km/s) = 6.53198 6.72532 6.62936
#
# Compressibility (1/GPa) = 0.02000140
#
# Stress axis : x y z
#
# Youngs Moduli (GPa) = 83.38998 78.51162 50.41476
#
# Poissons Ratio (x) = 0.21589 0.23705
# Poissons Ratio (y) = 0.22930 0.24348
# Poissons Ratio (z) = 0.39211 0.37918
#
# Static dielectric constant tensor:
#      x y z
#    x 1.864160 0.000000 0.000000 
#    y 0.000000 1.856190 0.000000 
#    z 0.000000 0.000000 1.750980 
# 
# From -- ./inp_files/5703.got.cif
#   From: 2010.05.17/outbox.cif.g08.bks.cpg/sg18_3_cif.got.tgz:5703.got - 2010.06.03 22:40:56.
