data_PCOD9312203
_publ_section_title
;
Structure prediction by ZEFSAII (Michael W. Deem and Ramdas Pophale) SiO2 
 PCOD9312203
Probable space group: P 21 21 2
;
_chemical_formula_sum "Si O2"
_cell_formula_units_Z 16
_cell_length_a 10.608899
_cell_length_b 8.723521
_cell_length_c 7.612173
_cell_angle_alpha 90.000000
_cell_angle_beta 90.000000
_cell_angle_gamma 90.000000
_cell_volume 704.483418
_symmetry_space_group_name_H-M "P 21 21 2"
_symmetry_group_IT_number 18
_symmetry_cell_setting 'orthorhombic'
loop_
_space_group_symop_operation_xyz
x,y,z
-x,-y,z
1/2+x,1/2-y,-z
1/2-x,1/2+y,-z
loop_
_atom_site_type_symbol
_atom_site_label
_atom_site_fract_x
_atom_site_fract_y
_atom_site_fract_z
Si Si1 0.870960 0.408544 0.658907
Si Si2 0.877982 0.895535 0.873382
Si Si3 0.779557 0.710158 0.558309
Si Si4 0.285931 0.818527 0.837966
O O1 0.766305 0.543741 0.645144
O O2 0.847970 0.302120 0.487719
O O3 0.837228 0.292717 0.814501
O O4 0.000000 0.500000 0.668627
O O5 0.863366 0.813855 0.684904
O O6 0.760976 0.014040 0.888907
O O7 0.871316 0.764672 0.020411
O O8 0.000000 0.000000 0.884663
O O9 0.835813 0.682419 0.362848
#
# Coordination Sequence:
#
# PCOD9312203 Si02
#       4
#     4   4   4   4
#     4  10  20  41  65  90 124 166 206 263 322 363
#     4  12  24  43  67  94 131 171 209 266 322 370
#     4  10  21  42  62  93 127 158 219 260 305 391
#     4  10  23  42  60  97 128 161 218 259 307 390
#
# _framework density 22.711677000000002
#
# number of rings (size 3 to 8) (size 9 to 14) (size 15 to 20)
#    1.500    0.000    2.500    3.000    0.000    1.000 
#    9.000    1.250    0.000    0.000    0.000    0.000 
#    0.000    0.000    0.000    0.000    0.000    0.000 
#
# Total GULP energy -89201.520177 kJ/mol
# GULP energy per Si atom -5575.095011 kJ/mol
# Density = 2.265998 g / cm^3
# Si number density = 22.711677 Si / 1000 Ang^3
#
#
#
# Elastic Constant Matrix: (Units=GPa)
#
#
# Indices 1 2 3 4 5 6 
#
# 1 21.2829 -3.4712 2.1027 0.0000 0.0000 0.0000
# 2 -3.4712 113.7544 13.3113 0.0000 0.0000 0.0000
# 3 2.1027 13.3113 106.1474 0.0000 0.0000 0.0000
# 4 0.0000 0.0000 0.0000 22.5830 0.0000 0.0000
# 5 0.0000 0.0000 0.0000 0.0000 15.3795 0.0000
# 6 0.0000 0.0000 0.0000 0.0000 0.0000 35.9025
#
#
#
# Elastic Compliance Matrix: (Units=1/GPa)
#
#
# Indices 1 2 3 4 5 6 
#
# 1 0.047356 0.001578 -0.001136 0.000000 0.000000 0.000000
# 2 0.001578 0.008974 -0.001157 0.000000 0.000000 0.000000
# 3 -0.001136 -0.001157 0.009588 0.000000 0.000000 0.000000
# 4 0.000000 0.000000 0.000000 0.044281 0.000000 0.000000
# 5 0.000000 0.000000 0.000000 0.000000 0.065022 0.000000
# 6 0.000000 0.000000 0.000000 0.000000 0.000000 0.027853
#
#
# Mechanical properties :
#
#
# Convention : Reuss Voigt Hill
#
# Bulk Modulus (GPa) = 15.50650 29.45225 22.47937
# Shear Modulus (GPa) = 22.12389 30.05580 26.08985
#
# Velocity S-wave (km/s) = 3.12448 3.64175 3.39299
# Velocity P-wave (km/s) = 4.45632 5.53888 5.02683
#
# Compressibility (1/GPa) = 0.06448910
#
# Stress axis : x y z
#
# Youngs Moduli (GPa) = 21.11682 111.42844 104.29247
#
# Poissons Ratio (x) = -0.17583 0.11847
# Poissons Ratio (y) = -0.03332 0.12063
# Poissons Ratio (z) = 0.02399 0.12889
#
# Static dielectric constant tensor:
#      x y z
#    x 1.912760 0.000000 0.000000 
#    y 0.000000 1.852570 0.000000 
#    z 0.000000 0.000000 1.831170 
# 
# From -- ./inp_files/2737.got.cif
#   From: 2010.05.17/outbox.cif.g08.bks.cpg/sg18_2_cif.got.tgz:2737.got - 2010.06.03 22:40:56.
