data_PCOD9312356
_publ_section_title
;
Structure prediction by ZEFSAII (Michael W. Deem and Ramdas Pophale) SiO2 
 PCOD9312356
Probable space group: P 21 21 2
;
_chemical_formula_sum "Si O2"
_cell_formula_units_Z 24
_cell_length_a 16.137612
_cell_length_b 5.299746
_cell_length_c 11.830237
_cell_angle_alpha 90.000000
_cell_angle_beta 90.000000
_cell_angle_gamma 90.000000
_cell_volume 1011.783914
_symmetry_space_group_name_H-M "P 21 21 2"
_symmetry_group_IT_number 18
_symmetry_cell_setting 'orthorhombic'
loop_
_space_group_symop_operation_xyz
x,y,z
-x,-y,z
1/2+x,1/2-y,-z
1/2-x,1/2+y,-z
loop_
_atom_site_type_symbol
_atom_site_label
_atom_site_fract_x
_atom_site_fract_y
_atom_site_fract_z
Si Si1 0.619403 0.734876 0.294503
Si Si2 0.635054 0.181259 0.980055
Si Si3 0.500000 0.500000 0.108025
Si Si4 0.120781 0.373431 0.523732
Si Si5 0.698306 0.675059 0.870251
Si Si6 0.000000 0.000000 0.525456
Si Si7 0.735957 0.901279 0.638064
O O1 0.569454 0.654226 0.182418
O O2 0.572482 0.578410 0.390608
O O3 0.713697 0.634606 0.302389
O O4 0.606865 0.011910 0.349481
O O5 0.657696 0.406219 0.894162
O O6 0.642878 0.906028 0.921597
O O7 0.551956 0.287032 0.039981
O O8 0.711364 0.181731 0.069569
O O9 0.041888 0.236469 0.470554
O O10 0.202626 0.207488 0.543348
O O11 0.151787 0.563188 0.429593
O O12 0.716099 0.716850 0.739876
#
# Coordination Sequence:
#
# PCOD9312356 Si02
#       7
#     4   4   2   4   4   2   4
#     4  10  21  40  62 102 128 168 220 288 348 410
#     4  10  23  43  66  95 131 172 227 291 340 414
#     4  11  22  44  73 100 130 171 232 294 361 392
#     4  11  22  39  65 100 143 174 239 277 351 424
#     4  10  23  43  65  97 133 176 225 276 355 408
#     4   9  22  40  55  92 138 179 214 286 337 400
#     4  11  22  38  68  99 132 187 225 282 342 436
#
# _framework density 23.720482000000001
#
# number of rings (size 3 to 8) (size 9 to 14) (size 15 to 20)
#    0.000    1.667    3.333    0.500    2.333    2.000 
#    9.000    0.833    3.667    0.000    0.000    0.000 
#    0.000    0.000    0.000    0.000    0.000    0.000 
#
# Total GULP energy -133913.971976 kJ/mol
# GULP energy per Si atom -5579.748832 kJ/mol
# Density = 2.366649 g / cm^3
# Si number density = 23.720482 Si / 1000 Ang^3
#
#
#
# Elastic Constant Matrix: (Units=GPa)
#
#
# Indices 1 2 3 4 5 6 
#
# 1 69.0636 15.7094 22.2742 0.0000 0.0000 0.0000
# 2 15.7094 73.4076 1.9386 0.0000 0.0000 0.0000
# 3 22.2742 1.9386 62.3086 0.0000 0.0000 0.0000
# 4 0.0000 0.0000 0.0000 28.3113 0.0000 0.0000
# 5 0.0000 0.0000 0.0000 0.0000 50.7440 0.0000
# 6 0.0000 0.0000 0.0000 0.0000 0.0000 34.2422
#
#
#
# Elastic Compliance Matrix: (Units=1/GPa)
#
#
# Indices 1 2 3 4 5 6 
#
# 1 0.017233 -0.003528 -0.006051 0.000000 0.000000 0.000000
# 2 -0.003528 0.014356 0.000815 0.000000 0.000000 0.000000
# 3 -0.006051 0.000815 0.018187 0.000000 0.000000 0.000000
# 4 0.000000 0.000000 0.000000 0.035322 0.000000 0.000000
# 5 0.000000 0.000000 0.000000 0.000000 0.019707 0.000000
# 6 0.000000 0.000000 0.000000 0.000000 0.000000 0.029204
#
#
# Mechanical properties :
#
#
# Convention : Reuss Voigt Hill
#
# Bulk Modulus (GPa) = 31.01016 31.62491 31.31753
# Shear Modulus (GPa) = 30.80968 33.65000 32.22984
#
# Velocity S-wave (km/s) = 3.60789 3.77052 3.69010
# Velocity P-wave (km/s) = 5.51882 5.68481 5.60243
#
# Compressibility (1/GPa) = 0.03224750
#
# Stress axis : x y z
#
# Youngs Moduli (GPa) = 58.02662 69.65680 54.98467
#
# Poissons Ratio (x) = 0.24576 0.33271
# Poissons Ratio (y) = 0.20473 -0.04479
# Poissons Ratio (z) = 0.35111 -0.05674
#
# Static dielectric constant tensor:
#      x y z
#    x 1.923270 0.000000 0.000000 
#    y 0.000000 1.042860 0.000000 
#    z 0.000000 0.000000 1.859930 
# 
# From -- ./inp_files/6193.got.cif
#   From: 2010.05.17/outbox.cif.g08.bks.cpg/sg18_4_cif.got.tgz:6193.got - 2010.06.03 22:40:56.
