data_PCOD9312659
_publ_section_title
;
Structure prediction by ZEFSAII (Michael W. Deem and Ramdas Pophale) SiO2 
 PCOD9312659
Probable space group: P 21 21 2
;
_chemical_formula_sum "Si O2"
_cell_formula_units_Z 24
_cell_length_a 16.084253
_cell_length_b 6.669551
_cell_length_c 7.355734
_cell_angle_alpha 90.000000
_cell_angle_beta 90.000000
_cell_angle_gamma 90.000000
_cell_volume 789.084494
_symmetry_space_group_name_H-M "P 21 21 2"
_symmetry_group_IT_number 18
_symmetry_cell_setting 'orthorhombic'
loop_
_space_group_symop_operation_xyz
x,y,z
-x,-y,z
1/2+x,1/2-y,-z
1/2-x,1/2+y,-z
loop_
_atom_site_type_symbol
_atom_site_label
_atom_site_fract_x
_atom_site_fract_y
_atom_site_fract_z
Si Si1 0.599262 0.641139 0.509050
Si Si2 0.564315 0.202884 0.382725
Si Si3 0.566584 0.121108 0.966292
Si Si4 0.752093 0.238192 0.938748
Si Si5 0.433191 0.378126 0.932725
Si Si6 0.766916 0.620919 0.669560
O O1 0.581386 0.442525 0.393012
O O2 0.529362 0.804396 0.457959
O O3 0.582982 0.590462 0.718715
O O4 0.696250 0.674451 0.524456
O O5 0.570175 0.112548 0.184310
O O6 0.650805 0.119834 0.455393
O O7 0.742532 0.921189 0.205015
O O8 0.662168 0.137145 0.893559
O O9 0.455961 0.123740 0.919664
O O10 0.846938 0.148332 0.950015
O O11 0.542271 0.373141 0.967690
O O12 0.237547 0.222076 0.840775
#
# Coordination Sequence:
#
# PCOD9312659 Si02
#       6
#     4   4   4   4   4   4
#     4  10  22  45  71 104 147 198 242 298 382 457
#     4  10  22  44  69 106 148 197 242 297 384 457
#     4  11  24  43  72 108 147 194 254 322 376 440
#     4  10  22  42  74 108 145 192 260 328 369 437
#     4  11  21  40  74 104 143 199 258 317 374 445
#     4  10  22  46  75 112 146 193 263 311 380 445
#
# _framework density 30.414994
#
# number of rings (size 3 to 8) (size 9 to 14) (size 15 to 20)
#    0.000    1.667    1.667    4.000    2.333    0.000 
#   12.000    0.833   11.000    0.000    0.000    0.000 
#    0.000    0.000    0.000    0.000    0.000    0.000 
#
# Total GULP energy -133956.436816 kJ/mol
# GULP energy per Si atom -5581.518201 kJ/mol
# Density = 3.034577 g / cm^3
# Si number density = 30.414994 Si / 1000 Ang^3
#
#
#
# Elastic Constant Matrix: (Units=GPa)
#
#
# Indices 1 2 3 4 5 6 
#
# 1 389.8795 147.0503 33.2880 0.0000 0.0000 0.0000
# 2 147.0503 222.2504 40.3762 0.0000 0.0000 0.0000
# 3 33.2880 40.3762 103.3611 0.0000 0.0000 0.0000
# 4 0.0000 0.0000 0.0000 -9.6384 0.0000 0.0000
# 5 0.0000 0.0000 0.0000 0.0000 49.3217 0.0000
# 6 0.0000 0.0000 0.0000 0.0000 0.0000 94.8402
#
#
#
# Elastic Compliance Matrix: (Units=1/GPa)
#
#
# Indices 1 2 3 4 5 6 
#
# 1 0.003423 -0.002222 -0.000234 0.000000 0.000000 0.000000
# 2 -0.002222 0.006286 -0.001740 0.000000 0.000000 0.000000
# 3 -0.000234 -0.001740 0.010430 0.000000 0.000000 0.000000
# 4 0.000000 0.000000 0.000000 -0.103752 0.000000 0.000000
# 5 0.000000 0.000000 0.000000 0.000000 0.020275 0.000000
# 6 0.000000 0.000000 0.000000 0.000000 0.000000 0.010544
#
#
# Mechanical properties :
#
#
# Convention : Reuss Voigt Hill
#
# Bulk Modulus (GPa) = 85.13477 128.54667 106.84072
# Shear Modulus (GPa) = -123.50024 59.88982 -31.80521
#
# Velocity S-wave (km/s) = -6.37912 4.44226 -3.23725
# Velocity P-wave (km/s) = 5.11916 8.28659 4.60770
#
# Compressibility (1/GPa) = 0.01174608
#
# Stress axis : x y z
#
# Youngs Moduli (GPa) = 292.13489 159.08760 95.87832
#
# Poissons Ratio (x) = 0.35354 0.02247
# Poissons Ratio (y) = 0.64921 0.16680
# Poissons Ratio (z) = 0.06845 0.27677
#
# Static dielectric constant tensor:
#      x y z
#    x 2.880040 0.000000 0.000000 
#    y 0.000000 2.638420 0.000000 
#    z 0.000000 0.000000 2.112040 
# 
# From -- ./inp_files/4156.got.cif
#   From: 2010.05.17/outbox.cif.g08.bks.cpg/sg18_3_cif.got.tgz:4156.got - 2010.06.03 22:40:56.
