data_PCOD9312421
_publ_section_title
;
Structure prediction by ZEFSAII (Michael W. Deem and Ramdas Pophale) SiO2 
 PCOD9312421
Probable space group: P 21 21 2
;
_chemical_formula_sum "Si O2"
_cell_formula_units_Z 18
_cell_length_a 7.469806
_cell_length_b 5.417454
_cell_length_c 18.891483
_cell_angle_alpha 90.000000
_cell_angle_beta 90.000000
_cell_angle_gamma 90.000000
_cell_volume 764.487884
_symmetry_space_group_name_H-M "P 21 21 2"
_symmetry_group_IT_number 18
_symmetry_cell_setting 'orthorhombic'
loop_
_space_group_symop_operation_xyz
x,y,z
-x,-y,z
1/2+x,1/2-y,-z
1/2-x,1/2+y,-z
loop_
_atom_site_type_symbol
_atom_site_label
_atom_site_fract_x
_atom_site_fract_y
_atom_site_fract_z
Si Si1 0.500000 0.500000 0.024583
Si Si2 0.348870 0.820740 0.899377
Si Si3 0.801250 0.612779 0.535017
Si Si4 0.793531 0.268395 0.311471
Si Si5 0.701286 0.278933 0.746995
O O1 0.667276 0.561371 0.073128
O O2 0.437996 0.707905 0.969375
O O3 0.304974 0.661403 0.830753
O O4 0.500000 0.000000 0.869568
O O5 0.695484 0.354045 0.517597
O O6 0.723846 0.750851 0.604525
O O7 0.000000 0.500000 0.544243
O O8 0.718428 0.514646 0.274731
O O9 0.000156 0.245730 0.285352
O O10 0.706361 0.013658 0.286707
#
# Coordination Sequence:
#
# PCOD9312421 Si02
#       5
#     2   4   4   4   4
#     4  12  26  42  74 102 148 186 250 300 364 442
#     4  12  24  45  67 109 140 193 240 301 369 424
#     4  12  28  46  73 108 144 187 239 297 363 440
#     4  10  21  42  67 101 132 187 231 286 353 428
#     4  10  22  40  74  96 140 191 233 289 364 437
#
# _framework density 23.545171
#
# number of rings (size 3 to 8) (size 9 to 14) (size 15 to 20)
#    0.000    0.889    4.444    3.333    9.333    0.000 
#    4.000    0.000    0.000    0.000    0.000    0.000 
#    0.000    0.000    0.000    0.000    0.000    0.000 
#
# Total GULP energy -100422.595179 kJ/mol
# GULP energy per Si atom -5579.033065 kJ/mol
# Density = 2.349158 g / cm^3
# Si number density = 23.545171 Si / 1000 Ang^3
#
#
#
# Elastic Constant Matrix: (Units=GPa)
#
#
# Indices 1 2 3 4 5 6 
#
# 1 93.2625 16.1498 19.3065 0.0000 0.0000 0.0000
# 2 16.1498 148.3656 4.3228 0.0000 0.0000 0.0000
# 3 19.3065 4.3228 97.1067 0.0000 0.0000 0.0000
# 4 0.0000 0.0000 0.0000 59.9545 0.0000 0.0000
# 5 0.0000 0.0000 0.0000 0.0000 8.2370 0.0000
# 6 0.0000 0.0000 0.0000 0.0000 0.0000 21.1341
#
#
#
# Elastic Compliance Matrix: (Units=1/GPa)
#
#
# Indices 1 2 3 4 5 6 
#
# 1 0.011384 -0.001175 -0.002211 0.000000 0.000000 0.000000
# 2 -0.001175 0.006870 -0.000072 0.000000 0.000000 0.000000
# 3 -0.002211 -0.000072 0.010741 0.000000 0.000000 0.000000
# 4 0.000000 0.000000 0.000000 0.016679 0.000000 0.000000
# 5 0.000000 0.000000 0.000000 0.000000 0.121404 0.000000
# 6 0.000000 0.000000 0.000000 0.000000 0.000000 0.047317
#
#
# Mechanical properties :
#
#
# Convention : Reuss Voigt Hill
#
# Bulk Modulus (GPa) = 45.29293 46.47701 45.88497
# Shear Modulus (GPa) = 21.86562 37.79552 29.83057
#
# Velocity S-wave (km/s) = 3.05071 4.01088 3.56329
# Velocity P-wave (km/s) = 5.62916 6.42121 6.03819
#
# Compressibility (1/GPa) = 0.02207850
#
# Stress axis : x y z
#
# Youngs Moduli (GPa) = 87.84621 145.55873 93.10343
#
# Poissons Ratio (x) = 0.17099 0.20585
# Poissons Ratio (y) = 0.10319 0.00673
# Poissons Ratio (z) = 0.19422 0.01052
#
# Static dielectric constant tensor:
#      x y z
#    x 1.831560 0.000000 0.000000 
#    y 0.000000 2.050980 0.000000 
#    z 0.000000 0.000000 1.861330 
# 
# From -- ./inp_files/7271.got.cif
#   From: 2010.05.17/outbox.cif.g08.bks.cpg/sg18_4_cif.got.tgz:7271.got - 2010.06.03 22:40:56.
