data_PCOD9312973
_publ_section_title
;
Structure prediction by ZEFSAII (Michael W. Deem and Ramdas Pophale) SiO2 
 PCOD9312973
Probable space group: P 21 21 2
;
_chemical_formula_sum "Si O2"
_cell_formula_units_Z 32
_cell_length_a 9.448292
_cell_length_b 13.015009
_cell_length_c 12.082630
_cell_angle_alpha 90.000000
_cell_angle_beta 90.000000
_cell_angle_gamma 90.000000
_cell_volume 1485.796243
_symmetry_space_group_name_H-M "P 21 21 2"
_symmetry_group_IT_number 18
_symmetry_cell_setting 'orthorhombic'
loop_
_space_group_symop_operation_xyz
x,y,z
-x,-y,z
1/2+x,1/2-y,-z
1/2-x,1/2+y,-z
loop_
_atom_site_type_symbol
_atom_site_label
_atom_site_fract_x
_atom_site_fract_y
_atom_site_fract_z
Si Si1 0.901258 0.097302 0.787186
Si Si2 0.635113 0.798210 0.900091
Si Si3 0.074444 0.614586 0.427542
Si Si4 0.670444 0.305322 0.300392
Si Si5 0.383208 0.803296 0.759718
Si Si6 0.488293 0.877897 0.332581
Si Si7 0.137964 0.932607 0.051754
Si Si8 0.204451 0.621741 0.859982
O O1 0.746468 0.119254 0.740399
O O2 0.005013 0.176885 0.725047
O O3 0.869304 0.093709 0.919885
O O4 0.000000 0.000000 0.766741
O O5 0.754434 0.834118 0.815301
O O6 0.482787 0.839056 0.861963
O O7 0.631395 0.675878 0.889299
O O8 0.676778 0.825011 0.023050
O O9 0.237803 0.628640 0.387411
O O10 0.061597 0.655883 0.552264
O O11 0.000000 0.500000 0.415767
O O12 0.985952 0.689040 0.345150
O O13 0.661040 0.183439 0.328353
O O14 0.319712 0.692287 0.794588
O O15 0.568476 0.870146 0.216249
O O16 0.500000 0.000000 0.349267
O O17 0.257686 0.005697 0.103874
O O18 0.000000 0.000000 0.072212
#
# Coordination Sequence:
#
# PCOD9312973 Si02
#       8
#     4   4   4   4   4   4   4   4
#     4  11  22  38  65  97 133 175 220 272 340 414
#     4  11  23  40  62  96 136 175 224 273 342 430
#     4  10  25  47  69  97 132 176 242 302 350 420
#     4  11  23  42  70  98 134 184 231 284 356 418
#     4  11  23  41  65  93 132 174 226 281 342 409
#     4  11  25  44  68  97 139 182 234 291 354 421
#     4  11  21  36  59  91 135 173 210 273 333 406
#     4  12  24  39  66  98 137 178 227 281 351 422
#
# _framework density 21.537272000000002
#
# number of rings (size 3 to 8) (size 9 to 14) (size 15 to 20)
#    0.000    1.000    3.750    3.000    3.500    2.000 
#    0.000    0.625    0.000    0.750    0.000    0.000 
#    0.000    0.000    0.000    0.000    0.000    0.000 
#
# Total GULP energy -178164.347693 kJ/mol
# GULP energy per Si atom -5567.635865 kJ/mol
# Density = 2.148825 g / cm^3
# Si number density = 21.537272 Si / 1000 Ang^3
#
#
#
# Elastic Constant Matrix: (Units=GPa)
#
#
# Indices 1 2 3 4 5 6 
#
# 1 86.8391 24.9352 15.2931 0.0000 0.0000 0.0000
# 2 24.9352 46.4748 14.1368 0.0000 0.0000 0.0000
# 3 15.2931 14.1368 99.5450 0.0000 0.0000 0.0000
# 4 0.0000 0.0000 0.0000 31.9955 0.0000 0.0000
# 5 0.0000 0.0000 0.0000 0.0000 0.3550 0.0000
# 6 0.0000 0.0000 0.0000 0.0000 0.0000 34.4990
#
#
#
# Elastic Compliance Matrix: (Units=1/GPa)
#
#
# Indices 1 2 3 4 5 6 
#
# 1 0.013729 -0.007028 -0.001111 0.000000 0.000000 0.000000
# 2 -0.007028 0.026086 -0.002625 0.000000 0.000000 0.000000
# 3 -0.001111 -0.002625 0.010589 0.000000 0.000000 0.000000
# 4 0.000000 0.000000 0.000000 0.031254 0.000000 0.000000
# 5 0.000000 0.000000 0.000000 0.000000 2.816692 0.000000
# 6 0.000000 0.000000 0.000000 0.000000 0.000000 0.028986
#
#
# Mechanical properties :
#
#
# Convention : Reuss Voigt Hill
#
# Bulk Modulus (GPa) = 34.63036 37.95432 36.29234
# Shear Modulus (GPa) = 1.69005 25.26948 13.47976
#
# Velocity S-wave (km/s) = 0.88680 3.42905 2.50447
# Velocity P-wave (km/s) = 4.14279 5.77397 5.02501
#
# Compressibility (1/GPa) = 0.02887639
#
# Stress axis : x y z
#
# Youngs Moduli (GPa) = 72.83676 38.33424 94.43601
#
# Poissons Ratio (x) = 0.26942 0.10493
# Poissons Ratio (y) = 0.51191 0.24788
# Poissons Ratio (z) = 0.08093 0.10062
#
# Static dielectric constant tensor:
#      x y z
#    x 1.837850 0.000000 0.000000 
#    y 0.000000 2.236550 0.000000 
#    z 0.000000 0.000000 1.787360 
# 
# From -- ./inp_files/5668.got.cif
#   From: 2010.05.17/outbox.cif.g08.bks.cpg/sg18_3_cif.got.tgz:5668.got - 2010.06.03 22:40:56.
