data_PCOD9312143
_publ_section_title
;
Structure prediction by ZEFSAII (Michael W. Deem and Ramdas Pophale) SiO2 
 PCOD9312143
Probable space group: P 21 21 2
;
_chemical_formula_sum "Si O2"
_cell_formula_units_Z 32
_cell_length_a 11.827956
_cell_length_b 14.301438
_cell_length_c 9.566646
_cell_angle_alpha 90.000000
_cell_angle_beta 90.000000
_cell_angle_gamma 90.000000
_cell_volume 1618.263027
_symmetry_space_group_name_H-M "P 21 21 2"
_symmetry_group_IT_number 18
_symmetry_cell_setting 'orthorhombic'
loop_
_space_group_symop_operation_xyz
x,y,z
-x,-y,z
1/2+x,1/2-y,-z
1/2-x,1/2+y,-z
loop_
_atom_site_type_symbol
_atom_site_label
_atom_site_fract_x
_atom_site_fract_y
_atom_site_fract_z
Si Si1 0.249220 0.082692 0.867278
Si Si2 0.117221 0.773179 0.483375
Si Si3 0.319554 0.768460 0.677941
Si Si4 0.850404 0.907892 0.169538
Si Si5 0.457580 0.105880 0.666506
Si Si6 0.887814 0.119113 0.193713
Si Si7 0.475603 0.607493 0.300853
Si Si8 0.180475 0.868130 0.902610
O O1 0.370333 0.105127 0.797595
O O2 0.151670 0.115417 0.757498
O O3 0.235635 0.970096 0.880115
O O4 0.218681 0.112651 0.026563
O O5 0.238932 0.793678 0.550255
O O6 0.102319 0.661976 0.460562
O O7 0.113726 0.821683 0.332917
O O8 0.020564 0.820116 0.581802
O O9 0.331541 0.658192 0.697488
O O10 0.433450 0.827686 0.685983
O O11 0.249788 0.796246 0.813792
O O12 0.983637 0.893449 0.141144
O O13 0.837246 0.015650 0.212351
O O14 0.500000 0.000000 0.640707
O O15 0.822798 0.161568 0.062667
O O16 0.500000 0.500000 0.349202
O O17 0.557278 0.622755 0.167403
#
# Coordination Sequence:
#
# PCOD9312143 Si02
#       8
#     4   4   4   4   4   4   4   4
#     4  10  20  39  67  94 125 176 212 276 337 383
#     4  11  26  40  64  94 132 176 218 270 329 395
#     4  11  24  42  61  95 131 177 223 262 325 411
#     4  10  21  37  68  97 130 156 221 285 330 378
#     4  12  26  43  62  91 137 181 217 266 341 409
#     4  10  20  39  66 102 124 158 215 285 328 372
#     4   9  19  37  65  98 126 161 219 273 322 388
#     4   9  18  39  65  94 127 161 218 272 323 394
#
# _framework density 19.774287000000001
#
# number of rings (size 3 to 8) (size 9 to 14) (size 15 to 20)
#    0.000    1.750    3.750    0.000    5.250    1.000 
#    0.000    0.000    0.000    0.750    0.000    0.000 
#    0.000    0.000    0.000    0.000    0.000    0.000 
#
# Total GULP energy -178405.189667 kJ/mol
# GULP energy per Si atom -5575.162177 kJ/mol
# Density = 1.972928 g / cm^3
# Si number density = 19.774287 Si / 1000 Ang^3
#
#
#
# Elastic Constant Matrix: (Units=GPa)
#
#
# Indices 1 2 3 4 5 6 
#
# 1 92.2712 28.9943 32.0423 0.0000 0.0000 0.0000
# 2 28.9943 81.1682 48.2831 0.0000 0.0000 0.0000
# 3 32.0423 48.2831 105.5672 0.0000 0.0000 0.0000
# 4 0.0000 0.0000 0.0000 5.2852 0.0000 0.0000
# 5 0.0000 0.0000 0.0000 0.0000 -1.6789 0.0000
# 6 0.0000 0.0000 0.0000 0.0000 0.0000 23.8873
#
#
#
# Elastic Compliance Matrix: (Units=1/GPa)
#
#
# Indices 1 2 3 4 5 6 
#
# 1 0.012648 -0.003069 -0.002435 0.000000 0.000000 0.000000
# 2 -0.003069 0.017670 -0.007150 0.000000 0.000000 0.000000
# 3 -0.002435 -0.007150 0.013482 0.000000 0.000000 0.000000
# 4 0.000000 0.000000 0.000000 0.189209 0.000000 0.000000
# 5 0.000000 0.000000 0.000000 0.000000 -0.595627 0.000000
# 6 0.000000 0.000000 0.000000 0.000000 0.000000 0.041863
#
#
# Mechanical properties :
#
#
# Convention : Reuss Voigt Hill
#
# Bulk Modulus (GPa) = 54.08175 55.29398 54.68786
# Shear Modulus (GPa) = -17.28407 16.81118 -0.23645
#
# Velocity S-wave (km/s) = -2.95967 2.91890 -0.34617
# Velocity P-wave (km/s) = 3.96603 6.27561 5.24941
#
# Compressibility (1/GPa) = 0.01849053
#
# Stress axis : x y z
#
# Youngs Moduli (GPa) = 79.06560 56.59416 74.17369
#
# Poissons Ratio (x) = 0.17371 0.18062
# Poissons Ratio (y) = 0.24269 0.53033
# Poissons Ratio (z) = 0.19253 0.40464
#
# Static dielectric constant tensor:
#      x y z
#    x 1.760790 0.000000 0.000000 
#    y 0.000000 1.735940 0.000000 
#    z 0.000000 0.000000 1.685140 
# 
# From -- ./inp_files/3969.got.cif
#   From: 2010.05.17/outbox.cif.g08.bks.cpg/sg18_2_cif.got.tgz:3969.got - 2010.06.03 22:40:56.
