data_PCOD9312964
_publ_section_title
;
Structure prediction by ZEFSAII (Michael W. Deem and Ramdas Pophale) SiO2 
 PCOD9312964
Probable space group: P 21 21 2
;
_chemical_formula_sum "Si O2"
_cell_formula_units_Z 18
_cell_length_a 7.125975
_cell_length_b 10.436557
_cell_length_c 11.468556
_cell_angle_alpha 90.000000
_cell_angle_beta 90.000000
_cell_angle_gamma 90.000000
_cell_volume 852.923899
_symmetry_space_group_name_H-M "P 21 21 2"
_symmetry_group_IT_number 18
_symmetry_cell_setting 'orthorhombic'
loop_
_space_group_symop_operation_xyz
x,y,z
-x,-y,z
1/2+x,1/2-y,-z
1/2-x,1/2+y,-z
loop_
_atom_site_type_symbol
_atom_site_label
_atom_site_fract_x
_atom_site_fract_y
_atom_site_fract_z
Si Si1 0.500000 0.500000 0.529953
Si Si2 0.881490 0.370610 0.913386
Si Si3 0.791323 0.541375 0.333429
Si Si4 0.922330 0.816261 0.264275
Si Si5 0.717937 0.304066 0.166217
O O1 0.658662 0.553538 0.444336
O O2 0.417644 0.608644 0.614528
O O3 0.698139 0.387525 0.833553
O O4 0.000000 0.500000 0.918224
O O5 0.020195 0.262413 0.860676
O O6 0.814331 0.335395 0.042692
O O7 0.826637 0.676997 0.273104
O O8 0.712946 0.432195 0.245554
O O9 0.000000 0.500000 0.371247
O O10 0.138325 0.792400 0.230264
#
# Coordination Sequence:
#
# PCOD9312964 Si02
#       5
#     2   4   4   4   4
#     4  12  26  44  70 102 134 186 242 290 336 416
#     4  12  24  43  71 102 141 180 229 294 345 423
#     4  10  25  46  71  97 142 187 230 288 352 414
#     4  11  25  45  67 106 134 183 238 282 357 414
#     4  11  24  46  71 102 140 183 229 284 362 419
#
# _framework density 21.103877000000001
#
# number of rings (size 3 to 8) (size 9 to 14) (size 15 to 20)
#    0.000    0.889    2.222    4.667    6.222    2.667 
#    0.000    0.000    0.000    0.000    0.000    0.000 
#    0.000    0.000    0.000    0.000    0.000    0.000 
#
# Total GULP energy -100714.771752 kJ/mol
# GULP energy per Si atom -5595.265097 kJ/mol
# Density = 2.105584 g / cm^3
# Si number density = 21.103877 Si / 1000 Ang^3
#
#
#
# Elastic Constant Matrix: (Units=GPa)
#
#
# Indices 1 2 3 4 5 6 
#
# 1 52.7901 14.1049 20.7618 0.0000 0.0000 0.0000
# 2 14.1049 57.8132 -8.9268 0.0000 0.0000 0.0000
# 3 20.7618 -8.9268 74.1090 0.0000 0.0000 0.0000
# 4 0.0000 0.0000 0.0000 -2.3115 0.0000 0.0000
# 5 0.0000 0.0000 0.0000 0.0000 24.7555 0.0000
# 6 0.0000 0.0000 0.0000 0.0000 0.0000 31.0121
#
#
#
# Elastic Compliance Matrix: (Units=1/GPa)
#
#
# Indices 1 2 3 4 5 6 
#
# 1 0.023745 -0.006950 -0.007489 0.000000 0.000000 0.000000
# 2 -0.006950 0.019659 0.004315 0.000000 0.000000 0.000000
# 3 -0.007489 0.004315 0.016112 0.000000 0.000000 0.000000
# 4 0.000000 0.000000 0.000000 -0.432627 0.000000 0.000000
# 5 0.000000 0.000000 0.000000 0.000000 0.040395 0.000000
# 6 0.000000 0.000000 0.000000 0.000000 0.000000 0.032245
#
#
# Mechanical properties :
#
#
# Convention : Reuss Voigt Hill
#
# Bulk Modulus (GPa) = 25.46629 26.28798 25.87714
# Shear Modulus (GPa) = -18.71722 21.27606 1.27942
#
# Velocity S-wave (km/s) = -2.98133 3.17860 0.77947
# Velocity P-wave (km/s) = 0.49212 5.09459 3.61918
#
# Compressibility (1/GPa) = 0.03926760
#
# Stress axis : x y z
#
# Youngs Moduli (GPa) = 42.11355 50.86761 62.06721
#
# Poissons Ratio (x) = 0.35351 0.46485
# Poissons Ratio (y) = 0.29267 -0.26782
# Poissons Ratio (z) = 0.31541 -0.21949
#
# Static dielectric constant tensor:
#      x y z
#    x 1.752390 0.000000 0.000000 
#    y 0.000000 1.773770 0.000000 
#    z 0.000000 0.000000 1.698600 
# 
# From -- ./inp_files/2893.got.cif
#   From: 2010.05.17/outbox.cif.g08.bks.cpg/sg18_2_cif.got.tgz:2893.got - 2010.06.03 22:40:56.
