data_PCOD9312838
_publ_section_title
;
Structure prediction by ZEFSAII (Michael W. Deem and Ramdas Pophale) SiO2 
 PCOD9312838
Probable space group: P 21 21 2
;
_chemical_formula_sum "Si O2"
_cell_formula_units_Z 22
_cell_length_a 5.598351
_cell_length_b 11.447504
_cell_length_c 14.145092
_cell_angle_alpha 90.000000
_cell_angle_beta 90.000000
_cell_angle_gamma 90.000000
_cell_volume 906.518569
_symmetry_space_group_name_H-M "P 21 21 2"
_symmetry_group_IT_number 18
_symmetry_cell_setting 'orthorhombic'
loop_
_space_group_symop_operation_xyz
x,y,z
-x,-y,z
1/2+x,1/2-y,-z
1/2-x,1/2+y,-z
loop_
_atom_site_type_symbol
_atom_site_label
_atom_site_fract_x
_atom_site_fract_y
_atom_site_fract_z
Si Si1 0.732710 0.163120 0.601369
Si Si2 0.267809 0.807023 0.389435
Si Si3 0.467483 0.872384 0.202636
Si Si4 0.500000 0.000000 0.742431
Si Si5 0.646560 0.383858 0.906568
Si Si6 0.822223 0.326299 0.098969
O O1 0.725382 0.128680 0.490342
O O2 0.488565 0.241379 0.614455
O O3 0.695843 0.058168 0.673914
O O4 0.991630 0.224978 0.614425
O O5 0.319810 0.884796 0.297397
O O6 0.746642 0.845265 0.196641
O O7 0.362707 0.769852 0.139574
O O8 0.500000 0.000000 0.154196
O O9 0.388251 0.095679 0.811472
O O10 0.500000 0.500000 0.886759
O O11 0.527028 0.261095 0.934228
O O12 0.764642 0.406428 0.009468
#
# Coordination Sequence:
#
# PCOD9312838 Si02
#       6
#     4   4   4   2   4   4
#     4  10  23  46  72 106 149 190 248 309 377 447
#     4  10  23  46  73 104 147 197 248 308 370 452
#     4  12  25  44  70 101 143 192 249 300 376 454
#     4  12  26  44  76 110 152 190 250 320 388 462
#     4  12  27  46  71 103 145 191 250 311 377 462
#     4  12  27  46  71 106 145 194 246 314 389 451
#
# _framework density 24.268668999999999
#
# number of rings (size 3 to 8) (size 9 to 14) (size 15 to 20)
#    0.000    0.727    5.455    1.091    5.091    2.182 
#    3.273    0.000    0.000    0.000    0.000    0.000 
#    0.000    0.000    0.000    0.000    0.000    0.000 
#
# Total GULP energy -122536.736638 kJ/mol
# GULP energy per Si atom -5569.851665 kJ/mol
# Density = 2.421343 g / cm^3
# Si number density = 24.268669 Si / 1000 Ang^3
#
#
#
# Elastic Constant Matrix: (Units=GPa)
#
#
# Indices 1 2 3 4 5 6 
#
# 1 61.7260 8.9725 27.7821 0.0000 0.0000 0.0000
# 2 8.9725 82.1536 45.8176 0.0000 0.0000 0.0000
# 3 27.7821 45.8176 156.4024 0.0000 0.0000 0.0000
# 4 0.0000 0.0000 0.0000 32.0636 0.0000 0.0000
# 5 0.0000 0.0000 0.0000 0.0000 34.8553 0.0000
# 6 0.0000 0.0000 0.0000 0.0000 0.0000 21.5563
#
#
#
# Elastic Compliance Matrix: (Units=1/GPa)
#
#
# Indices 1 2 3 4 5 6 
#
# 1 0.017612 -0.000214 -0.003066 0.000000 0.000000 0.000000
# 2 -0.000214 0.014552 -0.004225 0.000000 0.000000 0.000000
# 3 -0.003066 -0.004225 0.008176 0.000000 0.000000 0.000000
# 4 0.000000 0.000000 0.000000 0.031188 0.000000 0.000000
# 5 0.000000 0.000000 0.000000 0.000000 0.028690 0.000000
# 6 0.000000 0.000000 0.000000 0.000000 0.000000 0.046390
#
#
# Mechanical properties :
#
#
# Convention : Reuss Voigt Hill
#
# Bulk Modulus (GPa) = 39.47783 51.71405 45.59594
# Shear Modulus (GPa) = 29.40136 32.20904 30.80520
#
# Velocity S-wave (km/s) = 3.48443 3.64701 3.56665
# Velocity P-wave (km/s) = 5.70006 6.25216 5.98248
#
# Compressibility (1/GPa) = 0.02533067
#
# Stress axis : x y z
#
# Youngs Moduli (GPa) = 56.78092 68.71926 122.30845
#
# Poissons Ratio (x) = 0.01468 0.37497
# Poissons Ratio (y) = 0.01213 0.51675
# Poissons Ratio (z) = 0.17408 0.29034
#
# Static dielectric constant tensor:
#      x y z
#    x 2.404640 0.000000 0.000000 
#    y 0.000000 2.016270 0.000000 
#    z 0.000000 0.000000 1.988470 
# 
# From -- ./inp_files/6435.got.cif
#   From: 2010.05.17/outbox.cif.g08.bks.cpg/sg18_4_cif.got.tgz:6435.got - 2010.06.03 22:40:56.
