data_PCOD9312787
_publ_section_title
;
Structure prediction by ZEFSAII (Michael W. Deem and Ramdas Pophale) SiO2 
 PCOD9312787
Probable space group: P 21 21 2
;
_chemical_formula_sum "Si O2"
_cell_formula_units_Z 26
_cell_length_a 11.249822
_cell_length_b 13.397923
_cell_length_c 9.575475
_cell_angle_alpha 90.000000
_cell_angle_beta 90.000000
_cell_angle_gamma 90.000000
_cell_volume 1443.256277
_symmetry_space_group_name_H-M "P 21 21 2"
_symmetry_group_IT_number 18
_symmetry_cell_setting 'orthorhombic'
loop_
_space_group_symop_operation_xyz
x,y,z
-x,-y,z
1/2+x,1/2-y,-z
1/2-x,1/2+y,-z
loop_
_atom_site_type_symbol
_atom_site_label
_atom_site_fract_x
_atom_site_fract_y
_atom_site_fract_z
Si Si1 0.369120 0.015223 0.904461
Si Si2 0.787832 0.886321 0.683265
Si Si3 0.136015 0.525877 0.567582
Si Si4 0.316101 0.352595 0.035778
Si Si5 0.500000 0.500000 0.171777
Si Si6 0.183410 0.334360 0.752298
Si Si7 0.911462 0.349668 0.834558
O O1 0.297467 0.095102 0.815470
O O2 0.500000 0.000000 0.846713
O O3 0.296749 0.912403 0.902255
O O4 0.382590 0.059879 0.059706
O O5 0.722716 0.940201 0.555221
O O6 0.804193 0.768413 0.667358
O O7 0.910469 0.938296 0.729733
O O8 0.183707 0.429002 0.650172
O O9 0.125900 0.614448 0.681357
O O10 0.000000 0.500000 0.522599
O O11 0.425827 0.424996 0.073579
O O12 0.344726 0.247744 0.108705
O O13 0.283332 0.340858 0.872891
O O14 0.053558 0.332161 0.827501
#
# Coordination Sequence:
#
# PCOD9312787 Si02
#       7
#     4   4   4   4   2   4   4
#     4  11  20  35  61  95 120 160 216 257 303 376
#     4  11  23  39  64  88 128 167 206 257 318 379
#     4  10  23  43  65  90 127 165 212 260 316 387
#     4  11  21  37  66  94 125 166 206 266 320 369
#     4  10  24  40  60  92 138 162 204 262 324 374
#     4  11  21  40  66  91 125 169 213 264 319 377
#     4  11  20  39  66  92 125 164 213 258 319 374
#
# _framework density 18.014818999999999
#
# number of rings (size 3 to 8) (size 9 to 14) (size 15 to 20)
#    0.000    1.231    6.154    0.923    0.000    2.462 
#    0.000    0.769    0.000    0.000    0.000    0.000 
#    0.000    0.000    0.000    0.000    0.000    0.000 
#
# Total GULP energy -145091.096321 kJ/mol
# GULP energy per Si atom -5580.426782 kJ/mol
# Density = 1.797382 g / cm^3
# Si number density = 18.014819 Si / 1000 Ang^3
#
#
#
# Elastic Constant Matrix: (Units=GPa)
#
#
# Indices 1 2 3 4 5 6 
#
# 1 118.2911 60.3988 56.9944 0.0000 0.0000 0.0000
# 2 60.3988 135.7859 43.2830 0.0000 0.0000 0.0000
# 3 56.9944 43.2830 92.7608 0.0000 0.0000 0.0000
# 4 0.0000 0.0000 0.0000 21.3840 0.0000 0.0000
# 5 0.0000 0.0000 0.0000 0.0000 31.9667 0.0000
# 6 0.0000 0.0000 0.0000 0.0000 0.0000 22.0676
#
#
#
# Elastic Compliance Matrix: (Units=1/GPa)
#
#
# Indices 1 2 3 4 5 6 
#
# 1 0.013627 -0.003985 -0.006513 0.000000 0.000000 0.000000
# 2 -0.003985 0.009817 -0.002132 0.000000 0.000000 0.000000
# 3 -0.006513 -0.002132 0.015777 0.000000 0.000000 0.000000
# 4 0.000000 0.000000 0.000000 0.046764 0.000000 0.000000
# 5 0.000000 0.000000 0.000000 0.000000 0.031283 0.000000
# 6 0.000000 0.000000 0.000000 0.000000 0.000000 0.045315
#
#
# Mechanical properties :
#
#
# Convention : Reuss Voigt Hill
#
# Bulk Modulus (GPa) = 71.63322 74.24336 72.93829
# Shear Modulus (GPa) = 25.97460 27.49443 26.73452
#
# Velocity S-wave (km/s) = 3.80128 3.91091 3.85649
# Velocity P-wave (km/s) = 7.68870 7.85465 7.77212
#
# Compressibility (1/GPa) = 0.01396000
#
# Stress axis : x y z
#
# Youngs Moduli (GPa) = 73.38609 101.86662 63.38352
#
# Poissons Ratio (x) = 0.40595 0.41282
# Poissons Ratio (y) = 0.29245 0.13513
# Poissons Ratio (z) = 0.47796 0.21718
#
# Static dielectric constant tensor:
#      x y z
#    x 1.628700 0.000000 0.000000 
#    y 0.000000 1.624010 0.000000 
#    z 0.000000 0.000000 1.603340 
# 
# From -- ./inp_files/3773.got.cif
#   From: 2010.05.17/outbox.cif.g08.bks.cpg/sg18_2_cif.got.tgz:3773.got - 2010.06.03 22:40:56.
