data_PCOD9312599
_publ_section_title
;
Structure prediction by ZEFSAII (Michael W. Deem and Ramdas Pophale) SiO2 
 PCOD9312599
Probable space group: P 21 21 2
;
_chemical_formula_sum "Si O2"
_cell_formula_units_Z 30
_cell_length_a 7.209162
_cell_length_b 17.758605
_cell_length_c 9.785389
_cell_angle_alpha 90.000000
_cell_angle_beta 90.000000
_cell_angle_gamma 90.000000
_cell_volume 1252.771103
_symmetry_space_group_name_H-M "P 21 21 2"
_symmetry_group_IT_number 18
_symmetry_cell_setting 'orthorhombic'
loop_
_space_group_symop_operation_xyz
x,y,z
-x,-y,z
1/2+x,1/2-y,-z
1/2-x,1/2+y,-z
loop_
_atom_site_type_symbol
_atom_site_label
_atom_site_fract_x
_atom_site_fract_y
_atom_site_fract_z
Si Si1 0.374232 0.566940 0.959033
Si Si2 0.238841 0.194851 0.412638
Si Si3 0.000000 0.500000 0.988611
Si Si4 0.062051 0.914560 0.322479
Si Si5 0.348441 0.886223 0.783326
Si Si6 0.071356 0.760816 0.840872
Si Si7 0.874771 0.637822 0.506199
Si Si8 0.311062 0.199035 0.871814
O O1 0.500000 0.500000 0.020676
O O2 0.500437 0.597430 0.835219
O O3 0.301844 0.628085 0.065778
O O4 0.175640 0.532967 0.907116
O O5 0.309481 0.208282 0.257617
O O6 0.203898 0.277475 0.475823
O O7 0.407035 0.149282 0.478336
O O8 0.056779 0.144413 0.410868
O O9 0.907782 0.559467 0.094316
O O10 0.272461 0.898730 0.364547
O O11 0.000000 0.000000 0.351579
O O12 0.162536 0.842154 0.819532
O O13 0.332605 0.913056 0.628067
O O14 0.519817 0.826613 0.779735
O O15 0.855011 0.755060 0.803790
O O16 0.099166 0.739001 0.997603
#
# Coordination Sequence:
#
# PCOD9312599 Si02
#       8
#     4   4   2   4   4   4   4   4
#     4  10  22  41  65  96 137 172 220 277 352 405
#     4  11  24  42  66  97 133 182 230 286 350 410
#     4  10  22  44  66  96 134 182 220 282 342 428
#     4  11  25  44  67 103 136 179 236 291 344 420
#     4  10  24  41  62  95 129 173 227 266 347 407
#     4  11  22  36  60  94 128 167 217 277 340 403
#     4  11  25  44  70  95 136 186 230 284 343 418
#     4  11  21  37  62  94 130 166 213 280 334 415
#
# _framework density 23.946914
#
# number of rings (size 3 to 8) (size 9 to 14) (size 15 to 20)
#    0.000    1.333    4.000    0.800    1.867    4.800 
#    0.000    3.333    0.000    0.000    0.000    0.000 
#    0.000    0.000    0.000    0.000    0.000    0.000 
#
# Total GULP energy -167765.716181 kJ/mol
# GULP energy per Si atom -5592.190539 kJ/mol
# Density = 2.389241 g / cm^3
# Si number density = 23.946914 Si / 1000 Ang^3
#
#
#
# Elastic Constant Matrix: (Units=GPa)
#
#
# Indices 1 2 3 4 5 6 
#
# 1 86.3873 -21.0727 3.8463 0.0000 0.0000 0.0000
# 2 -21.0727 32.6543 2.0709 0.0000 0.0000 0.0000
# 3 3.8463 2.0709 71.7313 0.0000 0.0000 0.0000
# 4 0.0000 0.0000 0.0000 21.0691 0.0000 0.0000
# 5 0.0000 0.0000 0.0000 0.0000 33.7680 0.0000
# 6 0.0000 0.0000 0.0000 0.0000 0.0000 36.2363
#
#
#
# Elastic Compliance Matrix: (Units=1/GPa)
#
#
# Indices 1 2 3 4 5 6 
#
# 1 0.013810 0.008975 -0.001000 0.000000 0.000000 0.000000
# 2 0.008975 0.036513 -0.001535 0.000000 0.000000 0.000000
# 3 -0.001000 -0.001535 0.014039 0.000000 0.000000 0.000000
# 4 0.000000 0.000000 0.000000 0.047463 0.000000 0.000000
# 5 0.000000 0.000000 0.000000 0.000000 0.029614 0.000000
# 6 0.000000 0.000000 0.000000 0.000000 0.000000 0.027597
#
#
# Mechanical properties :
#
#
# Convention : Reuss Voigt Hill
#
# Bulk Modulus (GPa) = 12.94634 17.82908 15.38771
# Shear Modulus (GPa) = 27.48731 31.94323 29.71527
#
# Velocity S-wave (km/s) = 3.39166 3.65625 3.52644
# Velocity P-wave (km/s) = 4.55585 5.02848 4.79799
#
# Compressibility (1/GPa) = 0.07724193
#
# Stress axis : x y z
#
# Youngs Moduli (GPa) = 72.41326 27.38737 71.23090
#
# Poissons Ratio (x) = -0.24581 0.07120
# Poissons Ratio (y) = -0.64992 0.10937
# Poissons Ratio (z) = 0.07238 0.04205
#
# Static dielectric constant tensor:
#      x y z
#    x 1.914390 0.000000 0.000000 
#    y 0.000000 1.973810 0.000000 
#    z 0.000000 0.000000 1.921960 
# 
# From -- ./inp_files/5240.got.cif
#   From: 2010.05.17/outbox.cif.g08.bks.cpg/sg18_3_cif.got.tgz:5240.got - 2010.06.03 22:40:56.
