data_PCOD9312152
_publ_section_title
;
Structure prediction by ZEFSAII (Michael W. Deem and Ramdas Pophale) SiO2 
 PCOD9312152
Probable space group: P 21 21 2
;
_chemical_formula_sum "Si O2"
_cell_formula_units_Z 16
_cell_length_a 17.628641
_cell_length_b 5.114859
_cell_length_c 7.609261
_cell_angle_alpha 90.000000
_cell_angle_beta 90.000000
_cell_angle_gamma 90.000000
_cell_volume 686.111945
_symmetry_space_group_name_H-M "P 21 21 2"
_symmetry_group_IT_number 18
_symmetry_cell_setting 'orthorhombic'
loop_
_space_group_symop_operation_xyz
x,y,z
-x,-y,z
1/2+x,1/2-y,-z
1/2-x,1/2+y,-z
loop_
_atom_site_type_symbol
_atom_site_label
_atom_site_fract_x
_atom_site_fract_y
_atom_site_fract_z
Si Si1 0.143074 0.243069 0.941720
Si Si2 0.500000 0.500000 0.464269
Si Si3 0.853791 0.006046 0.301434
Si Si4 0.232477 0.481668 0.241186
Si Si5 0.000000 0.500000 0.773315
O O1 0.183296 0.091814 0.781665
O O2 0.071937 0.411535 0.885912
O O3 0.122744 0.043271 0.097958
O O4 0.204454 0.429679 0.038865
O O5 0.426484 0.552365 0.582704
O O6 0.482110 0.249485 0.346168
O O7 0.786815 0.792715 0.332300
O O8 0.821122 0.294734 0.319433
#
# Coordination Sequence:
#
# PCOD9312152 Si02
#       5
#     4   2   4   4   2
#     4  10  23  42  73 107 128 175 241 295 339 393
#     4  12  28  46  58 106 152 186 220 278 354 444
#     4  10  22  40  73  92 134 182 232 274 341 414
#     4  10  20  39  75 101 125 171 249 295 320 408
#     4  12  30  40  68 104 156 172 226 298 358 392
#
# _framework density 23.319811000000001
#
# number of rings (size 3 to 8) (size 9 to 14) (size 15 to 20)
#    1.500    0.000    2.500    1.500    7.000    0.000 
#    0.000    5.000    0.000    0.000    0.000    0.000 
#    0.000    0.000    0.000    0.000    0.000    0.000 
#
# Total GULP energy -89476.711032 kJ/mol
# GULP energy per Si atom -5592.294439 kJ/mol
# Density = 2.326673 g / cm^3
# Si number density = 23.319811 Si / 1000 Ang^3
#
#
#
# Elastic Constant Matrix: (Units=GPa)
#
#
# Indices 1 2 3 4 5 6 
#
# 1 84.8823 6.2585 30.3265 0.0000 0.0000 0.0000
# 2 6.2585 111.3061 1.2106 0.0000 0.0000 0.0000
# 3 30.3265 1.2106 48.5605 0.0000 0.0000 0.0000
# 4 0.0000 0.0000 0.0000 10.5594 0.0000 0.0000
# 5 0.0000 0.0000 0.0000 0.0000 54.1129 0.0000
# 6 0.0000 0.0000 0.0000 0.0000 0.0000 44.0230
#
#
#
# Elastic Compliance Matrix: (Units=1/GPa)
#
#
# Indices 1 2 3 4 5 6 
#
# 1 0.015227 -0.000753 -0.009491 0.000000 0.000000 0.000000
# 2 -0.000753 0.009024 0.000245 0.000000 0.000000 0.000000
# 3 -0.009491 0.000245 0.026514 0.000000 0.000000 0.000000
# 4 0.000000 0.000000 0.000000 0.094702 0.000000 0.000000
# 5 0.000000 0.000000 0.000000 0.000000 0.018480 0.000000
# 6 0.000000 0.000000 0.000000 0.000000 0.000000 0.022715
#
#
# Mechanical properties :
#
#
# Convention : Reuss Voigt Hill
#
# Bulk Modulus (GPa) = 32.50128 35.59337 34.04733
# Shear Modulus (GPa) = 23.05040 35.53596 29.29318
#
# Velocity S-wave (km/s) = 3.14737 3.90789 3.54807
# Velocity P-wave (km/s) = 5.21300 5.97147 5.60508
#
# Compressibility (1/GPa) = 0.03076801
#
# Stress axis : x y z
#
# Youngs Moduli (GPa) = 65.67110 110.81676 37.71611
#
# Poissons Ratio (x) = 0.08344 0.35796
# Poissons Ratio (y) = 0.04945 -0.00925
# Poissons Ratio (z) = 0.62328 -0.02718
#
# Static dielectric constant tensor:
#      x y z
#    x 1.867250 0.000000 0.000000 
#    y 0.000000 1.850160 0.000000 
#    z 0.000000 0.000000 1.925640 
# 
# From -- ./inp_files/4384.got.cif
#   From: 2010.05.17/outbox.cif.g08.bks.cpg/sg18_3_cif.got.tgz:4384.got - 2010.06.03 22:40:56.
