data_PCOD9312839
_publ_section_title
;
Structure prediction by ZEFSAII (Michael W. Deem and Ramdas Pophale) SiO2 
 PCOD9312839
Probable space group: P 21 21 2
;
_chemical_formula_sum "Si O2"
_cell_formula_units_Z 32
_cell_length_a 11.790246
_cell_length_b 7.769692
_cell_length_c 13.849730
_cell_angle_alpha 90.000000
_cell_angle_beta 90.000000
_cell_angle_gamma 90.000000
_cell_volume 1268.726400
_symmetry_space_group_name_H-M "P 21 21 2"
_symmetry_group_IT_number 18
_symmetry_cell_setting 'orthorhombic'
loop_
_space_group_symop_operation_xyz
x,y,z
-x,-y,z
1/2+x,1/2-y,-z
1/2-x,1/2+y,-z
loop_
_atom_site_type_symbol
_atom_site_label
_atom_site_fract_x
_atom_site_fract_y
_atom_site_fract_z
Si Si1 0.703312 0.185309 0.608094
Si Si2 0.846422 0.116226 0.922445
Si Si3 0.963941 0.191486 0.390181
Si Si4 0.119596 0.545229 0.555874
Si Si5 0.061264 0.678793 0.085882
Si Si6 0.619795 0.455416 0.282918
Si Si7 0.846080 0.867377 0.103424
Si Si8 0.272678 0.326742 0.771496
O O1 0.579577 0.223128 0.651205
O O2 0.781895 0.354171 0.611024
O O3 0.674018 0.117892 0.499855
O O4 0.775635 0.037342 0.658774
O O5 0.721764 0.192590 0.910935
O O6 0.886368 0.054866 0.819025
O O7 0.917102 0.268100 0.974973
O O8 0.849944 0.967088 0.001907
O O9 0.920410 0.317471 0.474017
O O10 0.864507 0.176093 0.313254
O O11 0.000000 0.000000 0.423666
O O12 0.000000 0.500000 0.606046
O O13 0.176526 0.699689 0.145700
O O14 0.000000 0.500000 0.094624
O O15 0.974003 0.818802 0.129426
O O16 0.500000 0.500000 0.332494
O O17 0.655376 0.257780 0.263487
O O18 0.778608 0.988195 0.177717
#
# Coordination Sequence:
#
# PCOD9312839 Si02
#       8
#     4   4   4   4   4   4   4   4
#     4  11  25  46  73 106 140 184 233 287 363 426
#     4  11  23  40  62  92 136 181 236 287 346 416
#     4  11  23  42  75 107 137 176 228 300 347 420
#     4  10  23  46  73 107 142 181 232 286 357 440
#     4  11  23  38  68  99 135 185 236 298 351 411
#     4  12  27  45  65  95 143 191 229 292 355 427
#     4  11  22  42  66 101 135 187 241 298 353 416
#     4  11  24  42  68 101 137 177 243 296 353 416
#
# _framework density 25.222142000000002
#
# number of rings (size 3 to 8) (size 9 to 14) (size 15 to 20)
#    0.000    1.000    1.250    6.750    5.250    3.500 
#    2.250    0.625    0.000    0.000    0.000    0.000 
#    0.000    0.000    0.000    0.000    0.000    0.000 
#
# Total GULP energy -179311.689756 kJ/mol
# GULP energy per Si atom -5603.490305 kJ/mol
# Density = 2.516474 g / cm^3
# Si number density = 25.222142 Si / 1000 Ang^3
#
#
#
# Elastic Constant Matrix: (Units=GPa)
#
#
# Indices 1 2 3 4 5 6 
#
# 1 124.9570 39.9856 21.0182 0.0000 0.0000 0.0000
# 2 39.9856 76.3203 0.9400 0.0000 0.0000 0.0000
# 3 21.0182 0.9400 61.4908 0.0000 0.0000 0.0000
# 4 0.0000 0.0000 0.0000 28.3277 0.0000 0.0000
# 5 0.0000 0.0000 0.0000 0.0000 22.3157 0.0000
# 6 0.0000 0.0000 0.0000 0.0000 0.0000 51.8585
#
#
#
# Elastic Compliance Matrix: (Units=1/GPa)
#
#
# Indices 1 2 3 4 5 6 
#
# 1 0.010293 -0.005350 -0.003436 0.000000 0.000000 0.000000
# 2 -0.005350 0.015886 0.001586 0.000000 0.000000 0.000000
# 3 -0.003436 0.001586 0.017413 0.000000 0.000000 0.000000
# 4 0.000000 0.000000 0.000000 0.035301 0.000000 0.000000
# 5 0.000000 0.000000 0.000000 0.000000 0.044811 0.000000
# 6 0.000000 0.000000 0.000000 0.000000 0.000000 0.019283
#
#
# Mechanical properties :
#
#
# Convention : Reuss Voigt Hill
#
# Bulk Modulus (GPa) = 34.25771 42.96175 38.60973
# Shear Modulus (GPa) = 29.91869 33.88865 31.90367
#
# Velocity S-wave (km/s) = 3.44787 3.66950 3.56041
# Velocity P-wave (km/s) = 5.42792 5.91811 5.67831
#
# Compressibility (1/GPa) = 0.02919051
#
# Stress axis : x y z
#
# Youngs Moduli (GPa) = 97.15500 62.94754 57.42850
#
# Poissons Ratio (x) = 0.33679 0.19735
# Poissons Ratio (y) = 0.51981 -0.09108
# Poissons Ratio (z) = 0.33386 -0.09983
#
# Static dielectric constant tensor:
#      x y z
#    x 2.029400 0.000000 0.000000 
#    y 0.000000 2.012370 0.000000 
#    z 0.000000 0.000000 1.976790 
# 
# From -- ./inp_files/6906.got.cif
#   From: 2010.05.17/outbox.cif.g08.bks.cpg/sg18_4_cif.got.tgz:6906.got - 2010.06.03 22:40:56.
