data_PCOD9312042
_publ_section_title
;
Structure prediction by ZEFSAII (Michael W. Deem and Ramdas Pophale) SiO2 
 PCOD9312042
Probable space group: P 21 21 2
;
_chemical_formula_sum "Si O2"
_cell_formula_units_Z 32
_cell_length_a 9.094500
_cell_length_b 11.455504
_cell_length_c 14.281739
_cell_angle_alpha 90.000000
_cell_angle_beta 90.000000
_cell_angle_gamma 90.000000
_cell_volume 1487.901291
_symmetry_space_group_name_H-M "P 21 21 2"
_symmetry_group_IT_number 18
_symmetry_cell_setting 'orthorhombic'
loop_
_space_group_symop_operation_xyz
x,y,z
-x,-y,z
1/2+x,1/2-y,-z
1/2-x,1/2+y,-z
loop_
_atom_site_type_symbol
_atom_site_label
_atom_site_fract_x
_atom_site_fract_y
_atom_site_fract_z
Si Si1 0.596007 0.114231 0.043755
Si Si2 0.926627 0.605645 0.268619
Si Si3 0.964356 0.861420 0.549307
Si Si4 0.889180 0.856650 0.174047
Si Si5 0.346858 0.231536 0.606539
Si Si6 0.836913 0.232312 0.929770
Si Si7 0.789857 0.092549 0.220906
Si Si8 0.900439 0.112141 0.735455
O O1 0.482438 0.219140 0.022505
O O2 0.653987 0.113994 0.151444
O O3 0.500000 0.000000 0.026885
O O4 0.739866 0.135404 0.981238
O O5 0.902803 0.727884 0.217235
O O6 0.761902 0.571558 0.295744
O O7 0.000000 0.500000 0.211155
O O8 0.045236 0.634873 0.348226
O O9 0.051418 0.802170 0.465235
O O10 0.030733 0.819660 0.648685
O O11 0.793346 0.826089 0.555642
O O12 0.000000 0.000000 0.545320
O O13 0.774679 0.840926 0.089600
O O14 0.059771 0.887016 0.161198
O O15 0.813604 0.954146 0.241560
O O16 0.296585 0.321113 0.690112
O O17 0.888781 0.184738 0.829689
O O18 0.000000 0.000000 0.753949
#
# Coordination Sequence:
#
# PCOD9312042 Si02
#       8
#     4   4   4   4   4   4   4   4
#     4  12  25  43  66 101 141 178 231 286 354 428
#     4  10  20  36  66  96 136 177 229 282 348 420
#     4  11  24  43  67 100 143 178 234 291 355 425
#     4   9  20  39  67  98 131 178 232 285 349 417
#     4  11  24  42  71 103 140 190 229 293 361 423
#     4  11  24  42  66  96 137 177 226 287 348 422
#     4  10  21  43  71  99 136 182 231 286 354 425
#     4  10  22  42  65  94 130 178 227 286 338 409
#
# _framework density 21.506805
#
# number of rings (size 3 to 8) (size 9 to 14) (size 15 to 20)
#    0.000    1.500    1.250    3.750    3.500    4.000 
#    2.250    0.000    0.000    0.000    0.000    0.000 
#    0.000    0.000    0.000    0.000    0.000    0.000 
#
# Total GULP energy -178454.987587 kJ/mol
# GULP energy per Si atom -5576.718362 kJ/mol
# Density = 2.145785 g / cm^3
# Si number density = 21.506805 Si / 1000 Ang^3
#
#
#
# Elastic Constant Matrix: (Units=GPa)
#
#
# Indices 1 2 3 4 5 6 
#
# 1 136.9649 54.4825 28.3024 0.0000 0.0000 0.0000
# 2 54.4825 102.5837 28.0106 0.0000 0.0000 0.0000
# 3 28.3024 28.0106 73.2047 0.0000 0.0000 0.0000
# 4 0.0000 0.0000 0.0000 19.4223 0.0000 0.0000
# 5 0.0000 0.0000 0.0000 0.0000 36.2392 0.0000
# 6 0.0000 0.0000 0.0000 0.0000 0.0000 35.7786
#
#
#
# Elastic Compliance Matrix: (Units=1/GPa)
#
#
# Indices 1 2 3 4 5 6 
#
# 1 0.009499 -0.004514 -0.001945 0.000000 0.000000 0.000000
# 2 -0.004514 0.013030 -0.003241 0.000000 0.000000 0.000000
# 3 -0.001945 -0.003241 0.015652 0.000000 0.000000 0.000000
# 4 0.000000 0.000000 0.000000 0.051487 0.000000 0.000000
# 5 0.000000 0.000000 0.000000 0.000000 0.027594 0.000000
# 6 0.000000 0.000000 0.000000 0.000000 0.000000 0.027950
#
#
# Mechanical properties :
#
#
# Convention : Reuss Voigt Hill
#
# Bulk Modulus (GPa) = 53.24255 59.37160 56.30708
# Shear Modulus (GPa) = 29.26161 31.75187 30.50674
#
# Velocity S-wave (km/s) = 3.69260 3.84652 3.77034
# Velocity P-wave (km/s) = 6.55670 6.88429 6.72249
#
# Compressibility (1/GPa) = 0.01878197
#
# Stress axis : x y z
#
# Youngs Moduli (GPa) = 105.27943 76.74483 63.88780
#
# Poissons Ratio (x) = 0.34639 0.12428
# Poissons Ratio (y) = 0.47518 0.20705
# Poissons Ratio (z) = 0.20480 0.24871
#
# Static dielectric constant tensor:
#      x y z
#    x 1.839960 0.000000 0.000000 
#    y 0.000000 1.866820 0.000000 
#    z 0.000000 0.000000 1.798680 
# 
# From -- ./inp_files/6767.got.cif
#   From: 2010.05.17/outbox.cif.g08.bks.cpg/sg18_4_cif.got.tgz:6767.got - 2010.06.03 22:40:56.
