data_PCOD9312647
_publ_section_title
;
Structure prediction by ZEFSAII (Michael W. Deem and Ramdas Pophale) SiO2 
 PCOD9312647
Probable space group: P 21 21 2
;
_chemical_formula_sum "Si O2"
_cell_formula_units_Z 18
_cell_length_a 5.042676
_cell_length_b 12.937343
_cell_length_c 9.898009
_cell_angle_alpha 90.000000
_cell_angle_beta 90.000000
_cell_angle_gamma 90.000000
_cell_volume 645.734517
_symmetry_space_group_name_H-M "P 21 21 2"
_symmetry_group_IT_number 18
_symmetry_cell_setting 'orthorhombic'
loop_
_space_group_symop_operation_xyz
x,y,z
-x,-y,z
1/2+x,1/2-y,-z
1/2-x,1/2+y,-z
loop_
_atom_site_type_symbol
_atom_site_label
_atom_site_fract_x
_atom_site_fract_y
_atom_site_fract_z
Si Si1 0.318348 0.706565 0.078192
Si Si2 0.689006 0.228257 0.598381
Si Si3 0.500000 0.500000 0.982287
Si Si4 0.000000 0.000000 0.485930
Si Si5 0.000000 0.500000 0.364757
Si Si6 0.159526 0.863002 0.256272
O O1 0.324474 0.761309 0.222545
O O2 0.543634 0.759712 0.988438
O O3 0.350207 0.583888 0.072089
O O4 0.950093 0.248992 0.509727
O O5 0.632571 0.316386 0.711801
O O6 0.644344 0.114458 0.667982
O O7 0.676245 0.565192 0.876032
O O8 0.808178 0.065175 0.385052
O O9 0.229212 0.049290 0.574869
#
# Coordination Sequence:
#
# PCOD9312647 Si02
#       6
#     4   4   2   2   2   4
#     4  10  23  43  67 102 136 171 233 295 338 403
#     4  12  24  42  66 101 141 179 231 283 332 416
#     4   9  22  44  71  98 134 179 236 284 349 416
#     4  11  22  38  69  94 126 181 224 268 335 416
#     4  12  22  42  62  96 138 176 224 276 332 386
#     4  10  22  42  69 101 131 183 228 277 351 404
#
# _framework density 27.875235
#
# number of rings (size 3 to 8) (size 9 to 14) (size 15 to 20)
#    0.000    1.333    4.444    0.000    0.000   12.444 
#    0.000   12.222    0.000    0.000    0.000    0.000 
#    0.000    0.000    0.000    0.000    0.000    0.000 
#
# Total GULP energy -100318.055175 kJ/mol
# GULP energy per Si atom -5573.225287 kJ/mol
# Density = 2.781179 g / cm^3
# Si number density = 27.875235 Si / 1000 Ang^3
#
#
#
# Elastic Constant Matrix: (Units=GPa)
#
#
# Indices 1 2 3 4 5 6 
#
# 1 126.0020 -9.3594 25.4749 0.0000 0.0000 0.0000
# 2 -9.3594 194.4812 16.4082 0.0000 0.0000 0.0000
# 3 25.4749 16.4082 54.8608 0.0000 0.0000 0.0000
# 4 0.0000 0.0000 0.0000 46.7041 0.0000 0.0000
# 5 0.0000 0.0000 0.0000 0.0000 24.3405 0.0000
# 6 0.0000 0.0000 0.0000 0.0000 0.0000 53.0978
#
#
#
# Elastic Compliance Matrix: (Units=1/GPa)
#
#
# Indices 1 2 3 4 5 6 
#
# 1 0.008877 0.000795 -0.004360 0.000000 0.000000 0.000000
# 2 0.000795 0.005346 -0.001968 0.000000 0.000000 0.000000
# 3 -0.004360 -0.001968 0.020841 0.000000 0.000000 0.000000
# 4 0.000000 0.000000 0.000000 0.021411 0.000000 0.000000
# 5 0.000000 0.000000 0.000000 0.000000 0.041084 0.000000
# 6 0.000000 0.000000 0.000000 0.000000 0.000000 0.018833
#
#
# Mechanical properties :
#
#
# Convention : Reuss Voigt Hill
#
# Bulk Modulus (GPa) = 41.66962 48.93240 45.30101
# Shear Modulus (GPa) = 36.91184 47.68316 42.29750
#
# Velocity S-wave (km/s) = 3.64288 4.14042 3.89959
# Velocity P-wave (km/s) = 5.71622 6.36000 6.04668
#
# Compressibility (1/GPa) = 0.02399830
#
# Stress axis : x y z
#
# Youngs Moduli (GPa) = 112.65201 187.04876 47.98212
#
# Poissons Ratio (x) = -0.14871 0.20919
# Poissons Ratio (y) = -0.08956 0.09444
# Poissons Ratio (z) = 0.49114 0.36814
#
# Static dielectric constant tensor:
#      x y z
#    x 2.159730 0.000000 0.000000 
#    y 0.000000 2.424320 0.000000 
#    z 0.000000 0.000000 2.297110 
# 
# From -- ./inp_files/5034.got.cif
#   From: 2010.05.17/outbox.cif.g08.bks.cpg/sg18_3_cif.got.tgz:5034.got - 2010.06.03 22:40:56.
