data_PCOD9312549
_publ_section_title
;
Structure prediction by ZEFSAII (Michael W. Deem and Ramdas Pophale) SiO2 
 PCOD9312549
Probable space group: P 21 21 2
;
_chemical_formula_sum "Si O2"
_cell_formula_units_Z 32
_cell_length_a 8.358168
_cell_length_b 10.583328
_cell_length_c 15.120571
_cell_angle_alpha 90.000000
_cell_angle_beta 90.000000
_cell_angle_gamma 90.000000
_cell_volume 1337.523878
_symmetry_space_group_name_H-M "P 21 21 2"
_symmetry_group_IT_number 18
_symmetry_cell_setting 'orthorhombic'
loop_
_space_group_symop_operation_xyz
x,y,z
-x,-y,z
1/2+x,1/2-y,-z
1/2-x,1/2+y,-z
loop_
_atom_site_type_symbol
_atom_site_label
_atom_site_fract_x
_atom_site_fract_y
_atom_site_fract_z
Si Si1 0.412332 0.816300 0.287511
Si Si2 0.347953 0.422422 0.922221
Si Si3 0.176031 0.434969 0.099347
Si Si4 0.899479 0.693240 0.274079
Si Si5 0.704792 0.815664 0.830133
Si Si6 0.889913 0.829492 0.545546
Si Si7 0.753398 0.946131 0.262470
Si Si8 0.746991 0.088230 0.547246
O O1 0.355122 0.769404 0.193436
O O2 0.398775 0.697613 0.350432
O O3 0.587374 0.872483 0.278284
O O4 0.283056 0.924195 0.314340
O O5 0.500000 0.500000 0.955650
O O6 0.395601 0.281622 0.890594
O O7 0.288354 0.506271 0.837519
O O8 0.224822 0.400058 0.001465
O O9 0.186102 0.337194 0.180081
O O10 0.272295 0.558324 0.129228
O O11 0.000000 0.500000 0.099217
O O12 0.884445 0.843999 0.291953
O O13 0.813935 0.615307 0.352131
O O14 0.084418 0.659902 0.252671
O O15 0.857029 0.692244 0.504295
O O16 0.070281 0.872058 0.526092
O O17 0.757314 0.937825 0.526500
#
# Coordination Sequence:
#
# PCOD9312549 Si02
#       8
#     4   4   4   4   4   4   4   4
#     4  10  22  41  68  99 133 174 235 280 356 430
#     4  11  23  40  61 100 132 175 233 292 348 413
#     4  10  25  40  63  92 134 177 231 281 356 412
#     4  11  22  46  67  95 137 185 225 293 348 424
#     4  10  23  41  64  96 130 178 229 280 348 427
#     4  11  26  48  70 111 142 188 240 297 371 439
#     4  10  22  39  67  97 133 180 226 288 351 413
#     4  11  27  47  75 105 150 185 244 302 364 440
#
# _framework density 23.924807000000001
#
# number of rings (size 3 to 8) (size 9 to 14) (size 15 to 20)
#    0.000    1.500    2.500    0.750    8.750    1.500 
#    2.250    0.000    0.000    0.000    0.000    0.000 
#    0.000    0.000    0.000    0.000    0.000    0.000 
#
# Total GULP energy -178449.939148 kJ/mol
# GULP energy per Si atom -5576.560598 kJ/mol
# Density = 2.387035 g / cm^3
# Si number density = 23.924807 Si / 1000 Ang^3
#
#
#
# Elastic Constant Matrix: (Units=GPa)
#
#
# Indices 1 2 3 4 5 6 
#
# 1 48.5843 3.4066 14.5093 0.0000 0.0000 0.0000
# 2 3.4066 80.9572 0.8752 0.0000 0.0000 0.0000
# 3 14.5093 0.8752 49.2231 0.0000 0.0000 0.0000
# 4 0.0000 0.0000 0.0000 25.6146 0.0000 0.0000
# 5 0.0000 0.0000 0.0000 0.0000 29.2686 0.0000
# 6 0.0000 0.0000 0.0000 0.0000 0.0000 33.6832
#
#
#
# Elastic Compliance Matrix: (Units=1/GPa)
#
#
# Indices 1 2 3 4 5 6 
#
# 1 0.022632 -0.000880 -0.006656 0.000000 0.000000 0.000000
# 2 -0.000880 0.012389 0.000039 0.000000 0.000000 0.000000
# 3 -0.006656 0.000039 0.022277 0.000000 0.000000 0.000000
# 4 0.000000 0.000000 0.000000 0.039040 0.000000 0.000000
# 5 0.000000 0.000000 0.000000 0.000000 0.034166 0.000000
# 6 0.000000 0.000000 0.000000 0.000000 0.000000 0.029688
#
#
# Mechanical properties :
#
#
# Convention : Reuss Voigt Hill
#
# Bulk Modulus (GPa) = 23.63820 24.03852 23.83836
# Shear Modulus (GPa) = 26.41484 28.37817 27.39651
#
# Velocity S-wave (km/s) = 3.32637 3.44777 3.38762
# Velocity P-wave (km/s) = 4.96534 5.09106 5.02859
#
# Compressibility (1/GPa) = 0.04230440
#
# Stress axis : x y z
#
# Youngs Moduli (GPa) = 44.18498 80.71787 44.88976
#
# Poissons Ratio (x) = 0.07106 0.29876
# Poissons Ratio (y) = 0.03890 -0.00176
# Poissons Ratio (z) = 0.29407 -0.00317
#
# Static dielectric constant tensor:
#      x y z
#    x 1.992940 0.000000 0.000000 
#    y 0.000000 2.082050 0.000000 
#    z 0.000000 0.000000 1.943390 
# 
# From -- ./inp_files/6781.got.cif
#   From: 2010.05.17/outbox.cif.g08.bks.cpg/sg18_4_cif.got.tgz:6781.got - 2010.06.03 22:40:56.
