data_PCOD9312379
_publ_section_title
;
Structure prediction by ZEFSAII (Michael W. Deem and Ramdas Pophale) SiO2 
 PCOD9312379
Probable space group: P 21 21 2
;
_chemical_formula_sum "Si O2"
_cell_formula_units_Z 24
_cell_length_a 12.822353
_cell_length_b 13.404897
_cell_length_c 5.319986
_cell_angle_alpha 90.000000
_cell_angle_beta 90.000000
_cell_angle_gamma 90.000000
_cell_volume 914.411543
_symmetry_space_group_name_H-M "P 21 21 2"
_symmetry_group_IT_number 18
_symmetry_cell_setting 'orthorhombic'
loop_
_space_group_symop_operation_xyz
x,y,z
-x,-y,z
1/2+x,1/2-y,-z
1/2-x,1/2+y,-z
loop_
_atom_site_type_symbol
_atom_site_label
_atom_site_fract_x
_atom_site_fract_y
_atom_site_fract_z
Si Si1 0.352344 0.903216 0.521402
Si Si2 0.519714 0.792099 0.793568
Si Si3 0.283488 0.531736 0.790458
Si Si4 0.000000 0.500000 0.127967
Si Si5 0.500000 0.500000 0.507679
Si Si6 0.596946 0.352040 0.153215
Si Si7 0.731764 0.768344 0.513155
O O1 0.454550 0.835097 0.558160
O O2 0.395043 0.991321 0.700774
O O3 0.258914 0.834467 0.628747
O O4 0.307050 0.952910 0.270043
O O5 0.515215 0.888965 0.982030
O O6 0.461067 0.700962 0.923586
O O7 0.630044 0.765168 0.681758
O O8 0.392031 0.496855 0.660763
O O9 0.324041 0.560622 0.064085
O O10 0.244531 0.635782 0.664485
O O11 0.513845 0.402529 0.335205
O O12 0.673393 0.276178 0.289003
#
# Coordination Sequence:
#
# PCOD9312379 Si02
#       7
#     4   4   4   2   2   4   4
#     4  10  21  40  72  93 130 182 220 265 348 397
#     4  10  21  44  65  96 140 169 231 273 336 406
#     4  11  21  46  66  90 139 177 226 276 337 410
#     4   8  18  42  66  92 124 184 214 262 336 404
#     4  10  26  38  68  96 132 182 230 274 344 396
#     4  11  25  43  62 106 131 176 230 287 333 397
#     4  11  23  42  66  97 133 176 222 284 343 397
#
# _framework density 26.246386999999999
#
# number of rings (size 3 to 8) (size 9 to 14) (size 15 to 20)
#    1.000    0.667    3.333    0.500    4.667    1.333 
#   12.000    0.000    0.000    0.000    0.000    0.000 
#    0.000    0.000    0.000    0.000    0.000    0.000 
#
# Total GULP energy -134051.358731 kJ/mol
# GULP energy per Si atom -5585.473280 kJ/mol
# Density = 2.618665 g / cm^3
# Si number density = 26.246387 Si / 1000 Ang^3
#
#
#
# Elastic Constant Matrix: (Units=GPa)
#
#
# Indices 1 2 3 4 5 6 
#
# 1 121.5074 50.0176 32.4200 0.0000 0.0000 0.0000
# 2 50.0176 101.2023 8.0931 0.0000 0.0000 0.0000
# 3 32.4200 8.0931 54.7305 0.0000 0.0000 0.0000
# 4 0.0000 0.0000 0.0000 22.6891 0.0000 0.0000
# 5 0.0000 0.0000 0.0000 0.0000 28.2384 0.0000
# 6 0.0000 0.0000 0.0000 0.0000 0.0000 51.9274
#
#
#
# Elastic Compliance Matrix: (Units=1/GPa)
#
#
# Indices 1 2 3 4 5 6 
#
# 1 0.012217 -0.005525 -0.006420 0.000000 0.000000 0.000000
# 2 -0.005525 0.012498 0.001425 0.000000 0.000000 0.000000
# 3 -0.006420 0.001425 0.021864 0.000000 0.000000 0.000000
# 4 0.000000 0.000000 0.000000 0.044074 0.000000 0.000000
# 5 0.000000 0.000000 0.000000 0.000000 0.035413 0.000000
# 6 0.000000 0.000000 0.000000 0.000000 0.000000 0.019258
#
#
# Mechanical properties :
#
#
# Convention : Reuss Voigt Hill
#
# Bulk Modulus (GPa) = 39.15694 50.94461 45.05078
# Shear Modulus (GPa) = 28.59169 33.03160 30.81164
#
# Velocity S-wave (km/s) = 3.30412 3.55141 3.43000
# Velocity P-wave (km/s) = 5.43210 6.02237 5.73483
#
# Compressibility (1/GPa) = 0.02553825
#
# Stress axis : x y z
#
# Youngs Moduli (GPa) = 81.85251 80.01426 45.73812
#
# Poissons Ratio (x) = 0.44205 0.29364
# Poissons Ratio (y) = 0.45221 -0.06516
# Poissons Ratio (z) = 0.52549 -0.11398
#
# Static dielectric constant tensor:
#      x y z
#    x 1.980870 0.000000 0.000000 
#    y 0.000000 2.179360 0.000000 
#    z 0.000000 0.000000 2.057090 
# 
# From -- ./inp_files/1549.got.cif
#   From: 2010.05.17/outbox.cif.g08.bks.cpg/sg18_1_cif.got.tgz:1549.got - 2010.06.03 22:40:56.
