data_PCOD9312848
_publ_section_title
;
Structure prediction by ZEFSAII (Michael W. Deem and Ramdas Pophale) SiO2 
 PCOD9312848
Probable space group: P 21 21 2
;
_chemical_formula_sum "Si O2"
_cell_formula_units_Z 24
_cell_length_a 12.709503
_cell_length_b 5.422603
_cell_length_c 15.183313
_cell_angle_alpha 90.000000
_cell_angle_beta 90.000000
_cell_angle_gamma 90.000000
_cell_volume 1046.412510
_symmetry_space_group_name_H-M "P 21 21 2"
_symmetry_group_IT_number 18
_symmetry_cell_setting 'orthorhombic'
loop_
_space_group_symop_operation_xyz
x,y,z
-x,-y,z
1/2+x,1/2-y,-z
1/2-x,1/2+y,-z
loop_
_atom_site_type_symbol
_atom_site_label
_atom_site_fract_x
_atom_site_fract_y
_atom_site_fract_z
Si Si1 0.302586 0.738181 0.357145
Si Si2 0.500000 0.500000 0.926051
Si Si3 0.000000 0.500000 0.282456
Si Si4 0.000000 0.500000 0.594655
Si Si5 0.324912 0.210813 0.809069
Si Si6 0.500000 0.500000 0.605948
Si Si7 0.663103 0.629640 0.479726
Si Si8 0.806300 0.799379 0.970953
O O1 0.227258 0.819862 0.279234
O O2 0.306594 0.447234 0.380502
O O3 0.253851 0.809985 0.451948
O O4 0.421024 0.832023 0.348704
O O5 0.413874 0.362047 0.863868
O O6 0.423387 0.662688 0.989870
O O7 0.894626 0.520452 0.223595
O O8 0.986696 0.247526 0.336639
O O9 0.078697 0.656264 0.535143
O O10 0.223631 0.156064 0.869105
O O11 0.595362 0.445174 0.540021
O O12 0.765629 0.519988 0.987404
#
# Coordination Sequence:
#
# PCOD9312848 Si02
#       8
#     4   2   2   2   4   2   4   4
#     4  12  26  43  68 104 147 197 254 302 363 432
#     4  10  23  52  79 110 150 188 246 311 394 459
#     4  12  25  40  70 109 146 182 254 313 360 418
#     4  12  25  48  64  95 144 206 244 311 368 434
#     4  11  25  44  74 116 145 190 251 315 365 459
#     4  12  25  42  69 100 144 204 250 307 358 417
#     4  12  25  42  69  95 147 203 256 298 367 427
#     4  10  23  48  78 108 146 187 230 305 394 454
#
# _framework density 22.935507000000001
#
# number of rings (size 3 to 8) (size 9 to 14) (size 15 to 20)
#    0.000    0.667    5.000    2.000    2.333    3.333 
#    9.000    3.333    0.000    0.000    0.000    0.000 
#    0.000    0.000    0.000    0.000    0.000    0.000 
#
# Total GULP energy -133652.546402 kJ/mol
# GULP energy per Si atom -5568.856100 kJ/mol
# Density = 2.288331 g / cm^3
# Si number density = 22.935507 Si / 1000 Ang^3
#
#
#
# Elastic Constant Matrix: (Units=GPa)
#
#
# Indices 1 2 3 4 5 6 
#
# 1 148.9125 25.8665 63.3822 0.0000 0.0000 0.0000
# 2 25.8665 48.0274 21.2380 0.0000 0.0000 0.0000
# 3 63.3822 21.2380 109.4176 0.0000 0.0000 0.0000
# 4 0.0000 0.0000 0.0000 -41.6377 0.0000 0.0000
# 5 0.0000 0.0000 0.0000 0.0000 43.9083 0.0000
# 6 0.0000 0.0000 0.0000 0.0000 0.0000 41.3144
#
#
#
# Elastic Compliance Matrix: (Units=1/GPa)
#
#
# Indices 1 2 3 4 5 6 
#
# 1 0.009259 -0.002860 -0.004808 0.000000 0.000000 0.000000
# 2 -0.002860 0.023660 -0.002936 0.000000 0.000000 0.000000
# 3 -0.004808 -0.002936 0.012494 0.000000 0.000000 0.000000
# 4 0.000000 0.000000 0.000000 -0.024017 0.000000 0.000000
# 5 0.000000 0.000000 0.000000 0.000000 0.022775 0.000000
# 6 0.000000 0.000000 0.000000 0.000000 0.000000 0.024205
#
#
# Mechanical properties :
#
#
# Convention : Reuss Voigt Hill
#
# Bulk Modulus (GPa) = 41.31358 58.59232 49.95295
# Shear Modulus (GPa) = 51.20226 21.77506 36.48866
#
# Velocity S-wave (km/s) = 4.73000 3.08458 3.99297
# Velocity P-wave (km/s) = 6.91972 6.18775 6.56395
#
# Compressibility (1/GPa) = 0.02420512
#
# Stress axis : x y z
#
# Youngs Moduli (GPa) = 108.00682 42.26526 80.03685
#
# Poissons Ratio (x) = 0.12089 0.38482
# Poissons Ratio (y) = 0.30894 0.23495
# Poissons Ratio (z) = 0.51930 0.12407
#
# Static dielectric constant tensor:
#      x y z
#    x 7.088550 0.000000 0.000000 
#    y 0.000000 2.242010 0.000000 
#    z 0.000000 0.000000 1.932700 
# 
# From -- ./inp_files/6965.got.cif
#   From: 2010.05.17/outbox.cif.g08.bks.cpg/sg18_4_cif.got.tgz:6965.got - 2010.06.03 22:40:56.
