data_PCOD9312621
_publ_section_title
;
Structure prediction by ZEFSAII (Michael W. Deem and Ramdas Pophale) SiO2 
 PCOD9312621
Probable space group: P 21 21 2
;
_chemical_formula_sum "Si O2"
_cell_formula_units_Z 22
_cell_length_a 12.884227
_cell_length_b 13.638346
_cell_length_c 5.264394
_cell_angle_alpha 90.000000
_cell_angle_beta 90.000000
_cell_angle_gamma 90.000000
_cell_volume 925.056922
_symmetry_space_group_name_H-M "P 21 21 2"
_symmetry_group_IT_number 18
_symmetry_cell_setting 'orthorhombic'
loop_
_space_group_symop_operation_xyz
x,y,z
-x,-y,z
1/2+x,1/2-y,-z
1/2-x,1/2+y,-z
loop_
_atom_site_type_symbol
_atom_site_label
_atom_site_fract_x
_atom_site_fract_y
_atom_site_fract_z
Si Si1 0.157528 0.052579 0.401693
Si Si2 0.055342 0.855179 0.529571
Si Si3 0.500000 0.000000 0.336986
Si Si4 0.355589 0.266802 0.977414
Si Si5 0.700166 0.067975 0.024736
Si Si6 0.150361 0.590831 0.317301
O O1 0.248421 0.117277 0.523097
O O2 0.056022 0.120032 0.406189
O O3 0.115068 0.958859 0.560052
O O4 0.207753 0.998105 0.156487
O O5 0.110834 0.794656 0.308678
O O6 0.067766 0.802827 0.801045
O O7 0.594245 0.049672 0.180950
O O8 0.450833 0.084648 0.513853
O O9 0.246446 0.323525 0.007724
O O10 0.353823 0.150346 0.944063
O O11 0.673281 0.021855 0.754743
#
# Coordination Sequence:
#
# PCOD9312621 Si02
#       6
#     4   4   2   4   4   4
#     4   9  21  39  68  90 133 172 222 272 350 386
#     4  10  22  42  64 101 130 172 218 285 335 401
#     4  10  24  44  68  92 138 186 230 266 348 400
#     4  11  25  41  69  99 139 171 233 277 335 400
#     4  10  22  45  66  98 134 183 222 285 331 410
#     4  11  23  43  67  95 134 184 221 280 333 407
#
# _framework density 23.782321
#
# number of rings (size 3 to 8) (size 9 to 14) (size 15 to 20)
#    0.000    1.818    1.818    0.545    7.636    2.909 
#    3.273    0.000    0.000    0.000    0.000    0.000 
#    0.000    0.000    0.000    0.000    0.000    0.000 
#
# Total GULP energy -122749.707472 kJ/mol
# GULP energy per Si atom -5579.532158 kJ/mol
# Density = 2.372819 g / cm^3
# Si number density = 23.782321 Si / 1000 Ang^3
#
#
#
# Elastic Constant Matrix: (Units=GPa)
#
#
# Indices 1 2 3 4 5 6 
#
# 1 135.6883 21.7788 19.3854 0.0000 0.0000 0.0000
# 2 21.7788 48.4302 -1.1114 0.0000 0.0000 0.0000
# 3 19.3854 -1.1114 63.2559 0.0000 0.0000 0.0000
# 4 0.0000 0.0000 0.0000 33.4120 0.0000 0.0000
# 5 0.0000 0.0000 0.0000 0.0000 22.3243 0.0000
# 6 0.0000 0.0000 0.0000 0.0000 0.0000 20.2462
#
#
#
# Elastic Compliance Matrix: (Units=1/GPa)
#
#
# Indices 1 2 3 4 5 6 
#
# 1 0.008358 -0.003819 -0.002629 0.000000 0.000000 0.000000
# 2 -0.003819 0.022402 0.001564 0.000000 0.000000 0.000000
# 3 -0.002629 0.001564 0.016642 0.000000 0.000000 0.000000
# 4 0.000000 0.000000 0.000000 0.029929 0.000000 0.000000
# 5 0.000000 0.000000 0.000000 0.000000 0.044794 0.000000
# 6 0.000000 0.000000 0.000000 0.000000 0.000000 0.049392
#
#
# Mechanical properties :
#
#
# Convention : Reuss Voigt Hill
#
# Bulk Modulus (GPa) = 26.57141 36.38666 31.47903
# Shear Modulus (GPa) = 25.79588 29.01795 27.40692
#
# Velocity S-wave (km/s) = 3.29700 3.49685 3.39840
# Velocity P-wave (km/s) = 5.06859 5.62468 5.35386
#
# Compressibility (1/GPa) = 0.03763444
#
# Stress axis : x y z
#
# Youngs Moduli (GPa) = 119.64091 44.63978 60.08948
#
# Poissons Ratio (x) = 0.17048 0.15795
# Poissons Ratio (y) = 0.45691 -0.09398
# Poissons Ratio (z) = 0.31449 -0.06982
#
# Static dielectric constant tensor:
#      x y z
#    x 1.979210 0.000000 0.000000 
#    y 0.000000 2.042290 0.000000 
#    z 0.000000 0.000000 1.880450 
# 
# From -- ./inp_files/1049.got.cif
#   From: 2010.05.17/outbox.cif.g08.bks.cpg/sg18_1_cif.got.tgz:1049.got - 2010.06.03 22:40:56.
