data_PCOD9312113
_publ_section_title
;
Structure prediction by ZEFSAII (Michael W. Deem and Ramdas Pophale) SiO2 
 PCOD9312113
Probable space group: P 21 21 2
;
_chemical_formula_sum "Si O2"
_cell_formula_units_Z 26
_cell_length_a 9.345977
_cell_length_b 20.209833
_cell_length_c 5.457100
_cell_angle_alpha 90.000000
_cell_angle_beta 90.000000
_cell_angle_gamma 90.000000
_cell_volume 1030.740510
_symmetry_space_group_name_H-M "P 21 21 2"
_symmetry_group_IT_number 18
_symmetry_cell_setting 'orthorhombic'
loop_
_space_group_symop_operation_xyz
x,y,z
-x,-y,z
1/2+x,1/2-y,-z
1/2-x,1/2+y,-z
loop_
_atom_site_type_symbol
_atom_site_label
_atom_site_fract_x
_atom_site_fract_y
_atom_site_fract_z
Si Si1 0.290773 0.495001 0.339180
Si Si2 0.670230 0.357228 0.554169
Si Si3 0.802852 0.432063 0.941555
Si Si4 0.103249 0.688787 0.193864
Si Si5 0.721835 0.194100 0.973421
Si Si6 0.500000 0.000000 0.438707
Si Si7 0.146305 0.861475 0.474298
O O1 0.324280 0.570277 0.420469
O O2 0.281093 0.504895 0.046933
O O3 0.377408 0.440121 0.483124
O O4 0.128734 0.473336 0.401955
O O5 0.801819 0.313154 0.448605
O O6 0.511370 0.328144 0.535620
O O7 0.691572 0.380638 0.830958
O O8 0.890821 0.389424 0.134430
O O9 0.917909 0.449986 0.737657
O O10 0.941552 0.705757 0.112830
O O11 0.198314 0.737442 0.029315
O O12 0.787679 0.159914 0.733544
O O13 0.758935 0.154784 0.231196
#
# Coordination Sequence:
#
# PCOD9312113 Si02
#       7
#     4   4   4   4   4   2   4
#     4  10  23  41  70 110 153 194 259 308 405 456
#     4  10  25  47  77 105 157 201 257 324 392 466
#     4  10  23  41  78 101 157 195 257 315 396 460
#     4  11  27  50  75 116 147 212 260 332 387 475
#     4  12  31  48  83 108 162 204 271 325 395 471
#     4  10  20  38  66 110 144 200 234 326 376 482
#     4  12  29  49  75 119 154 211 257 331 387 483
#
# _framework density 25.224587
#
# number of rings (size 3 to 8) (size 9 to 14) (size 15 to 20)
#    0.000    1.231    0.000    2.769   23.692    0.000 
#    0.000    0.000    0.000    0.000    0.000    0.000 
#    0.000    0.000    0.000    0.000    0.000    0.000 
#
# Total GULP energy -144848.876118 kJ/mol
# GULP energy per Si atom -5571.110620 kJ/mol
# Density = 2.516717 g / cm^3
# Si number density = 25.224587 Si / 1000 Ang^3
#
#
#
# Elastic Constant Matrix: (Units=GPa)
#
#
# Indices 1 2 3 4 5 6 
#
# 1 161.8813 22.4367 32.2917 0.0000 0.0000 0.0000
# 2 22.4367 87.5799 43.0297 0.0000 0.0000 0.0000
# 3 32.2917 43.0297 118.0946 0.0000 0.0000 0.0000
# 4 0.0000 0.0000 0.0000 15.0233 0.0000 0.0000
# 5 0.0000 0.0000 0.0000 0.0000 13.8590 0.0000
# 6 0.0000 0.0000 0.0000 0.0000 0.0000 35.9482
#
#
#
# Elastic Compliance Matrix: (Units=1/GPa)
#
#
# Indices 1 2 3 4 5 6 
#
# 1 0.006602 -0.000980 -0.001448 0.000000 0.000000 0.000000
# 2 -0.000980 0.014053 -0.004853 0.000000 0.000000 0.000000
# 3 -0.001448 -0.004853 0.010632 0.000000 0.000000 0.000000
# 4 0.000000 0.000000 0.000000 0.066563 0.000000 0.000000
# 5 0.000000 0.000000 0.000000 0.000000 0.072155 0.000000
# 6 0.000000 0.000000 0.000000 0.000000 0.000000 0.027818
#
#
# Mechanical properties :
#
#
# Convention : Reuss Voigt Hill
#
# Bulk Modulus (GPa) = 59.78735 62.56354 61.17544
# Shear Modulus (GPa) = 22.93995 30.95263 26.94629
#
# Velocity S-wave (km/s) = 3.01894 3.50677 3.27196
# Velocity P-wave (km/s) = 5.99212 6.42285 6.21122
#
# Compressibility (1/GPa) = 0.01672595
#
# Stress axis : x y z
#
# Youngs Moduli (GPa) = 151.46792 71.15744 94.05628
#
# Poissons Ratio (x) = 0.06972 0.13622
# Poissons Ratio (y) = 0.14841 0.45642
# Poissons Ratio (z) = 0.21936 0.34530
#
# Static dielectric constant tensor:
#      x y z
#    x 2.092920 0.000000 0.000000 
#    y 0.000000 2.145870 0.000000 
#    z 0.000000 0.000000 2.178590 
# 
# From -- ./inp_files/646.got.cif
#   From: 2010.05.17/outbox.cif.g08.bks.cpg/sg18_1_cif.got.tgz:646.got - 2010.06.03 22:40:56.
