data_PCOD9312542
_publ_section_title
;
Structure prediction by ZEFSAII (Michael W. Deem and Ramdas Pophale) SiO2 
 PCOD9312542
Probable space group: P 21 21 2
;
_chemical_formula_sum "Si O2"
_cell_formula_units_Z 26
_cell_length_a 10.173053
_cell_length_b 16.452011
_cell_length_c 7.595808
_cell_angle_alpha 90.000000
_cell_angle_beta 90.000000
_cell_angle_gamma 90.000000
_cell_volume 1271.288964
_symmetry_space_group_name_H-M "P 21 21 2"
_symmetry_group_IT_number 18
_symmetry_cell_setting 'orthorhombic'
loop_
_space_group_symop_operation_xyz
x,y,z
-x,-y,z
1/2+x,1/2-y,-z
1/2-x,1/2+y,-z
loop_
_atom_site_type_symbol
_atom_site_label
_atom_site_fract_x
_atom_site_fract_y
_atom_site_fract_z
Si Si1 0.453625 0.186878 0.230215
Si Si2 0.064086 0.167700 0.996767
Si Si3 0.000000 0.500000 0.356440
Si Si4 0.704474 0.595565 0.931519
Si Si5 0.173892 0.390115 0.553441
Si Si6 0.296205 0.779316 0.776121
Si Si7 0.336960 0.073741 0.947358
O O1 0.514250 0.268750 0.148267
O O2 0.545504 0.157734 0.383130
O O3 0.308280 0.211823 0.281224
O O4 0.433457 0.114275 0.090732
O O5 0.205665 0.130313 0.942894
O O6 0.078576 0.225222 0.170302
O O7 0.951517 0.100765 0.029906
O O8 0.118563 0.474674 0.483599
O O9 0.070894 0.563862 0.224393
O O10 0.733570 0.604930 0.723393
O O11 0.760639 0.672282 0.043306
O O12 0.778981 0.514594 0.998296
O O13 0.215487 0.344599 0.377124
#
# Coordination Sequence:
#
# PCOD9312542 Si02
#       7
#     4   4   2   4   4   4   4
#     4  10  22  39  64  95 126 168 218 271 322 392
#     4  10  22  42  68  92 131 179 216 271 336 385
#     4  12  24  38  66  98 130 172 222 274 330 404
#     4  11  22  42  66  93 131 173 218 273 328 398
#     4  12  23  38  65  95 129 166 216 274 331 390
#     4  10  22  40  61  96 124 170 218 263 333 389
#     4  11  22  43  68  95 129 175 223 268 330 396
#
# _framework density 20.451682000000002
#
# number of rings (size 3 to 8) (size 9 to 14) (size 15 to 20)
#    0.000    1.231    3.077    3.231    2.154    1.231 
#    0.000    0.000    6.769    0.000    0.000    0.000 
#    0.000    0.000    0.000    0.000    0.000    0.000 
#
# Total GULP energy -144904.446570 kJ/mol
# GULP energy per Si atom -5573.247945 kJ/mol
# Density = 2.040513 g / cm^3
# Si number density = 20.451682 Si / 1000 Ang^3
#
#
#
# Elastic Constant Matrix: (Units=GPa)
#
#
# Indices 1 2 3 4 5 6 
#
# 1 47.9340 -0.2212 8.0754 0.0000 0.0000 0.0000
# 2 -0.2212 48.6766 -7.3265 0.0000 0.0000 0.0000
# 3 8.0754 -7.3265 73.2352 0.0000 0.0000 0.0000
# 4 0.0000 0.0000 0.0000 88.6153 0.0000 0.0000
# 5 0.0000 0.0000 0.0000 0.0000 10.2599 0.0000
# 6 0.0000 0.0000 0.0000 0.0000 0.0000 37.7135
#
#
#
# Elastic Compliance Matrix: (Units=1/GPa)
#
#
# Indices 1 2 3 4 5 6 
#
# 1 0.021260 -0.000260 -0.002370 0.000000 0.000000 0.000000
# 2 -0.000260 0.020861 0.002116 0.000000 0.000000 0.000000
# 3 -0.002370 0.002116 0.014128 0.000000 0.000000 0.000000
# 4 0.000000 0.000000 0.000000 0.011285 0.000000 0.000000
# 5 0.000000 0.000000 0.000000 0.000000 0.097467 0.000000
# 6 0.000000 0.000000 0.000000 0.000000 0.000000 0.026516
#
#
# Mechanical properties :
#
#
# Convention : Reuss Voigt Hill
#
# Bulk Modulus (GPa) = 18.10967 18.98903 18.54935
# Shear Modulus (GPa) = 23.70204 38.60560 31.15382
#
# Velocity S-wave (km/s) = 3.40800 4.34942 3.90717
# Velocity P-wave (km/s) = 4.93559 5.87608 5.42625
#
# Compressibility (1/GPa) = 0.05521912
#
# Stress axis : x y z
#
# Youngs Moduli (GPa) = 47.03633 47.93636 70.78316
#
# Poissons Ratio (x) = 0.01247 0.16778
# Poissons Ratio (y) = 0.01224 -0.14975
# Poissons Ratio (z) = 0.11149 -0.10142
#
# Static dielectric constant tensor:
#      x y z
#    x 1.754420 0.000000 0.000000 
#    y 0.000000 1.816380 0.000000 
#    z 0.000000 0.000000 1.729950 
# 
# From -- ./inp_files/1154.got.cif
#   From: 2010.05.17/outbox.cif.g08.bks.cpg/sg18_1_cif.got.tgz:1154.got - 2010.06.03 22:40:56.
