data_PCOD9312709
_publ_section_title
;
Structure prediction by ZEFSAII (Michael W. Deem and Ramdas Pophale) SiO2 
 PCOD9312709
Probable space group: P 21 21 2
;
_chemical_formula_sum "Si O2"
_cell_formula_units_Z 28
_cell_length_a 5.871037
_cell_length_b 24.762870
_cell_length_c 8.814797
_cell_angle_alpha 90.000000
_cell_angle_beta 90.000000
_cell_angle_gamma 90.000000
_cell_volume 1281.528032
_symmetry_space_group_name_H-M "P 21 21 2"
_symmetry_group_IT_number 18
_symmetry_cell_setting 'orthorhombic'
loop_
_space_group_symop_operation_xyz
x,y,z
-x,-y,z
1/2+x,1/2-y,-z
1/2-x,1/2+y,-z
loop_
_atom_site_type_symbol
_atom_site_label
_atom_site_fract_x
_atom_site_fract_y
_atom_site_fract_z
Si Si1 0.444880 0.832898 0.495298
Si Si2 0.835938 0.298275 0.206099
Si Si3 0.158082 0.104483 0.428429
Si Si4 0.000000 0.000000 0.255334
Si Si5 0.052400 0.868701 0.724334
Si Si6 0.627188 0.110828 0.970209
Si Si7 0.000000 0.500000 0.908114
Si Si8 0.652045 0.681779 0.768982
O O1 0.604527 0.801845 0.613269
O O2 0.572916 0.884554 0.422937
O O3 0.240587 0.849852 0.604150
O O4 0.348196 0.802056 0.351809
O O5 0.575872 0.318433 0.198005
O O6 0.904096 0.238634 0.153529
O O7 0.976446 0.343238 0.112706
O O8 0.046682 0.052560 0.355972
O O9 0.118428 0.102342 0.609739
O O10 0.046249 0.154302 0.332453
O O11 0.247821 0.994253 0.171538
O O12 0.171631 0.903390 0.852580
O O13 0.745359 0.138588 0.115008
O O14 0.485941 0.057334 0.005910
#
# Coordination Sequence:
#
# PCOD9312709 Si02
#       8
#     4   4   4   2   4   4   2   4
#     4   9  21  40  65  97 134 179 230 288 355 419
#     4  10  24  40  67  97 142 184 232 292 357 434
#     4  10  22  44  71 101 136 180 239 299 364 424
#     4  12  26  48  78 108 138 184 250 306 352 434
#     4   9  22  44  63  99 138 178 233 287 357 429
#     4  11  25  46  65 102 143 187 238 287 361 432
#     4  12  28  50  76 104 144 192 244 300 360 432
#     4  11  23  39  68 103 135 185 232 294 356 433
#
# _framework density 21.848918999999999
#
# number of rings (size 3 to 8) (size 9 to 14) (size 15 to 20)
#    0.000    1.714    1.429    0.857   12.000    2.286 
#    7.714    0.000    0.000    0.000    0.000    0.000 
#    0.000    0.000    0.000    0.000    0.000    0.000 
#
# Total GULP energy -155999.105363 kJ/mol
# GULP energy per Si atom -5571.396620 kJ/mol
# Density = 2.179919 g / cm^3
# Si number density = 21.848919 Si / 1000 Ang^3
#
#
#
# Elastic Constant Matrix: (Units=GPa)
#
#
# Indices 1 2 3 4 5 6 
#
# 1 65.7556 -6.9339 15.5390 0.0000 0.0000 0.0000
# 2 -6.9339 85.1830 14.5276 0.0000 0.0000 0.0000
# 3 15.5390 14.5276 82.3883 0.0000 0.0000 0.0000
# 4 0.0000 0.0000 0.0000 26.5632 0.0000 0.0000
# 5 0.0000 0.0000 0.0000 0.0000 25.4824 0.0000
# 6 0.0000 0.0000 0.0000 0.0000 0.0000 27.1367
#
#
#
# Elastic Compliance Matrix: (Units=1/GPa)
#
#
# Indices 1 2 3 4 5 6 
#
# 1 0.016210 0.001898 -0.003392 0.000000 0.000000 0.000000
# 2 0.001898 0.012326 -0.002531 0.000000 0.000000 0.000000
# 3 -0.003392 -0.002531 0.013224 0.000000 0.000000 0.000000
# 4 0.000000 0.000000 0.000000 0.037646 0.000000 0.000000
# 5 0.000000 0.000000 0.000000 0.000000 0.039243 0.000000
# 6 0.000000 0.000000 0.000000 0.000000 0.000000 0.036850
#
#
# Mechanical properties :
#
#
# Convention : Reuss Voigt Hill
#
# Bulk Modulus (GPa) = 29.66632 31.06582 30.36607
# Shear Modulus (GPa) = 28.60662 29.84943 29.22802
#
# Velocity S-wave (km/s) = 3.62234 3.70019 3.66147
# Velocity P-wave (km/s) = 5.57696 5.70128 5.63946
#
# Compressibility (1/GPa) = 0.03370826
#
# Stress axis : x y z
#
# Youngs Moduli (GPa) = 61.69215 81.13175 75.62165
#
# Poissons Ratio (x) = -0.15398 0.25650
# Poissons Ratio (y) = -0.11709 0.19142
# Poissons Ratio (z) = 0.20925 0.20537
#
# Static dielectric constant tensor:
#      x y z
#    x 1.935510 0.000000 0.000000 
#    y 0.000000 1.835510 0.000000 
#    z 0.000000 0.000000 1.829770 
# 
# From -- ./inp_files/2626.got.cif
#   From: 2010.05.17/outbox.cif.g08.bks.cpg/sg18_2_cif.got.tgz:2626.got - 2010.06.03 22:40:56.
