data_PCOD9312458
_publ_section_title
;
Structure prediction by ZEFSAII (Michael W. Deem and Ramdas Pophale) SiO2 
 PCOD9312458
Probable space group: P 21 21 2
;
_chemical_formula_sum "Si O2"
_cell_formula_units_Z 16
_cell_length_a 8.220178
_cell_length_b 10.063789
_cell_length_c 7.763941
_cell_angle_alpha 90.000000
_cell_angle_beta 90.000000
_cell_angle_gamma 90.000000
_cell_volume 642.280846
_symmetry_space_group_name_H-M "P 21 21 2"
_symmetry_group_IT_number 18
_symmetry_cell_setting 'orthorhombic'
loop_
_space_group_symop_operation_xyz
x,y,z
-x,-y,z
1/2+x,1/2-y,-z
1/2-x,1/2+y,-z
loop_
_atom_site_type_symbol
_atom_site_label
_atom_site_fract_x
_atom_site_fract_y
_atom_site_fract_z
Si Si1 0.888851 0.243691 0.793602
Si Si2 0.193998 0.484694 0.363739
Si Si3 0.842133 0.230533 0.411531
Si Si4 0.570687 0.355186 0.899662
O O1 0.925122 0.269362 0.594334
O O2 0.760151 0.351111 0.859874
O O3 0.782397 0.105715 0.780098
O O4 0.029321 0.229641 0.931280
O O5 0.256249 0.635763 0.366016
O O6 0.246351 0.403460 0.535772
O O7 0.000000 0.500000 0.341991
O O8 0.973083 0.202261 0.264907
O O9 0.500000 0.500000 0.925798
#
# Coordination Sequence:
#
# PCOD9312458 Si02
#       4
#     4   4   4   4
#     4  10  27  43  74 105 144 189 240 301 359 441
#     4  10  21  44  68 103 140 186 237 293 358 431
#     4  10  22  44  71 100 144 187 239 292 358 425
#     4  12  26  46  74 109 147 191 246 300 373 431
#
# _framework density 24.91122
#
# number of rings (size 3 to 8) (size 9 to 14) (size 15 to 20)
#    1.500    0.000    2.500    1.500    3.500    5.000 
#    0.000    1.250    0.000    0.000    0.000    0.000 
#    0.000    0.000    0.000    0.000    0.000    0.000 
#
# Total GULP energy -89451.360759 kJ/mol
# GULP energy per Si atom -5590.710047 kJ/mol
# Density = 2.485452 g / cm^3
# Si number density = 24.911220 Si / 1000 Ang^3
#
#
#
# Elastic Constant Matrix: (Units=GPa)
#
#
# Indices 1 2 3 4 5 6 
#
# 1 52.3027 0.5008 22.9982 0.0000 0.0000 0.0000
# 2 0.5008 69.5256 -18.2256 0.0000 0.0000 0.0000
# 3 22.9982 -18.2256 126.8010 0.0000 0.0000 0.0000
# 4 0.0000 0.0000 0.0000 10.7434 0.0000 0.0000
# 5 0.0000 0.0000 0.0000 0.0000 34.2351 0.0000
# 6 0.0000 0.0000 0.0000 0.0000 0.0000 36.4094
#
#
#
# Elastic Compliance Matrix: (Units=1/GPa)
#
#
# Indices 1 2 3 4 5 6 
#
# 1 0.020870 -0.001187 -0.003956 0.000000 0.000000 0.000000
# 2 -0.001187 0.015014 0.002373 0.000000 0.000000 0.000000
# 3 -0.003956 0.002373 0.008945 0.000000 0.000000 0.000000
# 4 0.000000 0.000000 0.000000 0.093080 0.000000 0.000000
# 5 0.000000 0.000000 0.000000 0.000000 0.029210 0.000000
# 6 0.000000 0.000000 0.000000 0.000000 0.000000 0.027465
#
#
# Mechanical properties :
#
#
# Convention : Reuss Voigt Hill
#
# Bulk Modulus (GPa) = 25.45220 28.79733 27.12476
# Shear Modulus (GPa) = 23.44983 32.50131 27.97557
#
# Velocity S-wave (km/s) = 3.07145 3.61596 3.35477
# Velocity P-wave (km/s) = 4.77679 5.38690 5.09099
#
# Compressibility (1/GPa) = 0.03928934
#
# Stress axis : x y z
#
# Youngs Moduli (GPa) = 47.91491 66.60492 111.79417
#
# Poissons Ratio (x) = 0.07908 0.44225
# Poissons Ratio (y) = 0.05689 -0.26533
# Poissons Ratio (z) = 0.18955 -0.15808
#
# Static dielectric constant tensor:
#      x y z
#    x 1.981710 0.000000 0.000000 
#    y 0.000000 2.030420 0.000000 
#    z 0.000000 0.000000 1.921920 
# 
# From -- ./inp_files/2777.got.cif
#   From: 2010.05.17/outbox.cif.g08.bks.cpg/sg18_2_cif.got.tgz:2777.got - 2010.06.03 22:40:56.
