data_PCOD9312044
_publ_section_title
;
Structure prediction by ZEFSAII (Michael W. Deem and Ramdas Pophale) SiO2 
 PCOD9312044
Probable space group: P 21 21 2
;
_chemical_formula_sum "Si O2"
_cell_formula_units_Z 20
_cell_length_a 9.398752
_cell_length_b 15.530935
_cell_length_c 5.022104
_cell_angle_alpha 90.000000
_cell_angle_beta 90.000000
_cell_angle_gamma 90.000000
_cell_volume 733.083584
_symmetry_space_group_name_H-M "P 21 21 2"
_symmetry_group_IT_number 18
_symmetry_cell_setting 'orthorhombic'
loop_
_space_group_symop_operation_xyz
x,y,z
-x,-y,z
1/2+x,1/2-y,-z
1/2-x,1/2+y,-z
loop_
_atom_site_type_symbol
_atom_site_label
_atom_site_fract_x
_atom_site_fract_y
_atom_site_fract_z
Si Si1 0.773674 0.989505 0.798109
Si Si2 0.948363 0.380642 0.446854
Si Si3 0.686986 0.352092 0.788466
Si Si4 0.568471 0.206532 0.084865
Si Si5 0.464781 0.369600 0.388586
O O1 0.628174 0.968246 0.651552
O O2 0.906678 0.932595 0.697711
O O3 0.823564 0.084555 0.718981
O O4 0.766642 0.945001 0.089342
O O5 0.800670 0.336407 0.556510
O O6 0.006233 0.335129 0.182042
O O7 0.060927 0.368686 0.689919
O O8 0.695129 0.269459 0.982979
O O9 0.520795 0.357735 0.692907
O O10 0.484411 0.280167 0.245024
#
# Coordination Sequence:
#
# PCOD9312044 Si02
#       5
#     4   4   4   4   4
#     4   9  19  33  53  80 115 146 176 225 282 331
#     4  11  21  35  53  80 117 147 184 221 272 335
#     4  10  20  37  54  82 119 146 182 228 277 330
#     4  11  21  35  53  80 117 147 184 221 272 335
#     4   9  19  33  53  80 115 146 176 225 282 331
#
# _framework density 27.282022000000001
#
# number of rings (size 3 to 8) (size 9 to 14) (size 15 to 20)
#    0.000    2.000    4.000    0.000    0.000   12.800 
#    0.000    0.000    0.000    0.000    0.000    1.400 
#   36.000    0.000    0.000    0.000    0.000    0.000 
#
# Total GULP energy -111350.402012 kJ/mol
# GULP energy per Si atom -5567.520101 kJ/mol
# Density = 2.721993 g / cm^3
# Si number density = 27.282022 Si / 1000 Ang^3
#
#
#
# Elastic Constant Matrix: (Units=GPa)
#
#
# Indices 1 2 3 4 5 6 
#
# 1 100.0385 39.1052 41.8093 0.0000 0.0000 0.0000
# 2 39.1052 34.4976 7.9967 0.0000 0.0000 0.0000
# 3 41.8093 7.9967 171.1185 0.0000 0.0000 0.0000
# 4 0.0000 0.0000 0.0000 13.9313 0.0000 0.0000
# 5 0.0000 0.0000 0.0000 0.0000 31.1761 0.0000
# 6 0.0000 0.0000 0.0000 0.0000 0.0000 40.5206
#
#
#
# Elastic Compliance Matrix: (Units=1/GPa)
#
#
# Indices 1 2 3 4 5 6 
#
# 1 0.020253 -0.022050 -0.003918 0.000000 0.000000 0.000000
# 2 -0.022050 0.053311 0.002896 0.000000 0.000000 0.000000
# 3 -0.003918 0.002896 0.006666 0.000000 0.000000 0.000000
# 4 0.000000 0.000000 0.000000 0.071781 0.000000 0.000000
# 5 0.000000 0.000000 0.000000 0.000000 0.032076 0.000000
# 6 0.000000 0.000000 0.000000 0.000000 0.000000 0.024679
#
#
# Mechanical properties :
#
#
# Convention : Reuss Voigt Hill
#
# Bulk Modulus (GPa) = 29.33718 53.71964 41.52841
# Shear Modulus (GPa) = 18.77795 31.57518 25.17656
#
# Velocity S-wave (km/s) = 2.62637 3.40569 3.04110
# Velocity P-wave (km/s) = 4.46920 5.93281 5.25224
#
# Compressibility (1/GPa) = 0.03408644
#
# Stress axis : x y z
#
# Youngs Moduli (GPa) = 49.37592 18.75795 150.01880
#
# Poissons Ratio (x) = 0.41360 0.58776
# Poissons Ratio (y) = 1.08872 -0.43446
# Poissons Ratio (z) = 0.19345 -0.05432
#
# Static dielectric constant tensor:
#      x y z
#    x 2.236580 0.000000 0.000000 
#    y 0.000000 2.485170 0.000000 
#    z 0.000000 0.000000 2.362610 
# 
# From -- ./inp_files/1563.got.cif
#   From: 2010.05.17/outbox.cif.g08.bks.cpg/sg18_1_cif.got.tgz:1563.got - 2010.06.03 22:40:56.
