data_PCOD9312940
_publ_section_title
;
Structure prediction by ZEFSAII (Michael W. Deem and Ramdas Pophale) SiO2 
 PCOD9312940
Probable space group: P 21 21 2
;
_chemical_formula_sum "Si O2"
_cell_formula_units_Z 16
_cell_length_a 7.639434
_cell_length_b 15.282774
_cell_length_c 5.180003
_cell_angle_alpha 90.000000
_cell_angle_beta 90.000000
_cell_angle_gamma 90.000000
_cell_volume 604.774381
_symmetry_space_group_name_H-M "P 21 21 2"
_symmetry_group_IT_number 18
_symmetry_cell_setting 'orthorhombic'
loop_
_space_group_symop_operation_xyz
x,y,z
-x,-y,z
1/2+x,1/2-y,-z
1/2-x,1/2+y,-z
loop_
_atom_site_type_symbol
_atom_site_label
_atom_site_fract_x
_atom_site_fract_y
_atom_site_fract_z
Si Si1 0.888716 0.217649 0.355407
Si Si2 0.500000 0.000000 0.075021
Si Si3 0.251227 0.362034 0.122126
Si Si4 0.000000 0.000000 0.797025
Si Si5 0.257514 0.613337 0.573632
O O1 0.798806 0.163093 0.587414
O O2 0.878542 0.317025 0.453289
O O3 0.084128 0.177985 0.329903
O O4 0.774503 0.212199 0.093828
O O5 0.649576 0.950568 0.240096
O O6 0.416980 0.921441 0.912183
O O7 0.406148 0.427759 0.035897
O O8 0.855191 0.950413 0.627140
#
# Coordination Sequence:
#
# PCOD9312940 Si02
#       5
#     4   2   4   2   4
#     4  11  26  47  71 104 146 192 241 299 362 430
#     4  12  24  44  76 112 146 192 244 300 364 434
#     4  11  25  45  71 106 147 191 241 298 363 431
#     4  10  24  48  74 106 150 196 242 302 364 434
#     4  11  25  47  75 108 147 191 243 300 363 431
#
# _framework density 26.456144999999999
#
# number of rings (size 3 to 8) (size 9 to 14) (size 15 to 20)
#    0.000    1.000    0.000    6.000    0.000   15.000 
#    0.000    0.000    0.000    0.000    0.000    0.000 
#    0.000    0.000    0.000    0.000    0.000    0.000 
#
# Total GULP energy -89620.249268 kJ/mol
# GULP energy per Si atom -5601.265579 kJ/mol
# Density = 2.639593 g / cm^3
# Si number density = 26.456145 Si / 1000 Ang^3
#
#
#
# Elastic Constant Matrix: (Units=GPa)
#
#
# Indices 1 2 3 4 5 6 
#
# 1 148.8969 70.5374 67.5409 0.0000 0.0000 0.0000
# 2 70.5374 117.8539 36.9718 0.0000 0.0000 0.0000
# 3 67.5409 36.9718 102.9705 0.0000 0.0000 0.0000
# 4 0.0000 0.0000 0.0000 24.9397 0.0000 0.0000
# 5 0.0000 0.0000 0.0000 0.0000 47.4744 0.0000
# 6 0.0000 0.0000 0.0000 0.0000 0.0000 80.6014
#
#
#
# Elastic Compliance Matrix: (Units=1/GPa)
#
#
# Indices 1 2 3 4 5 6 
#
# 1 0.011889 -0.005262 -0.005909 0.000000 0.000000 0.000000
# 2 -0.005262 0.011891 -0.000818 0.000000 0.000000 0.000000
# 3 -0.005909 -0.000818 0.013881 0.000000 0.000000 0.000000
# 4 0.000000 0.000000 0.000000 0.040097 0.000000 0.000000
# 5 0.000000 0.000000 0.000000 0.000000 0.021064 0.000000
# 6 0.000000 0.000000 0.000000 0.000000 0.000000 0.012407
#
#
# Mechanical properties :
#
#
# Convention : Reuss Voigt Hill
#
# Bulk Modulus (GPa) = 73.08265 79.98018 76.53141
# Shear Modulus (GPa) = 35.77338 43.58118 39.67728
#
# Velocity S-wave (km/s) = 3.68118 4.06310 3.87685
# Velocity P-wave (km/s) = 6.76404 7.23246 7.00217
#
# Compressibility (1/GPa) = 0.01368314
#
# Stress axis : x y z
#
# Youngs Moduli (GPa) = 84.10873 84.09581 72.04019
#
# Poissons Ratio (x) = 0.44253 0.42569
# Poissons Ratio (y) = 0.44260 0.05892
# Poissons Ratio (z) = 0.49701 0.06879
#
# Static dielectric constant tensor:
#      x y z
#    x 2.138130 0.000000 0.000000 
#    y 0.000000 2.065810 0.000000 
#    z 0.000000 0.000000 1.995210 
# 
# From -- ./inp_files/427.got.cif
#   From: 2010.05.17/outbox.cif.g08.bks.cpg/sg18_1_cif.got.tgz:427.got - 2010.06.03 22:40:56.
