data_PCOD9312960
_publ_section_title
;
Structure prediction by ZEFSAII (Michael W. Deem and Ramdas Pophale) SiO2 
 PCOD9312960
Probable space group: P 21 21 2
;
_chemical_formula_sum "Si O2"
_cell_formula_units_Z 32
_cell_length_a 8.938151
_cell_length_b 14.764423
_cell_length_c 12.808299
_cell_angle_alpha 90.000000
_cell_angle_beta 90.000000
_cell_angle_gamma 90.000000
_cell_volume 1690.268211
_symmetry_space_group_name_H-M "P 21 21 2"
_symmetry_group_IT_number 18
_symmetry_cell_setting 'orthorhombic'
loop_
_space_group_symop_operation_xyz
x,y,z
-x,-y,z
1/2+x,1/2-y,-z
1/2-x,1/2+y,-z
loop_
_atom_site_type_symbol
_atom_site_label
_atom_site_fract_x
_atom_site_fract_y
_atom_site_fract_z
Si Si1 0.093993 0.800701 0.706437
Si Si2 0.172118 0.480606 0.643824
Si Si3 0.861238 0.838303 0.311088
Si Si4 0.424924 0.401047 0.511766
Si Si5 0.956931 0.217572 0.113925
Si Si6 0.413748 0.405478 0.077432
Si Si7 0.631092 0.166125 0.186476
Si Si8 0.933227 0.597871 0.030079
O O1 0.248857 0.746223 0.692801
O O2 0.067873 0.853097 0.599209
O O3 0.093721 0.867499 0.805480
O O4 0.965093 0.729062 0.737140
O O5 0.260349 0.573049 0.668489
O O6 0.260024 0.423120 0.556226
O O7 0.176697 0.421750 0.748605
O O8 0.000000 0.500000 0.616211
O O9 0.984052 0.841873 0.403196
O O10 0.950404 0.835594 0.202214
O O11 0.500000 0.500000 0.504965
O O12 0.781700 0.213772 0.144453
O O13 0.010946 0.321000 0.103846
O O14 0.982603 0.167576 0.003178
O O15 0.500000 0.500000 0.072244
O O16 0.243985 0.414641 0.039415
O O17 0.534735 0.132422 0.087625
O O18 0.000000 0.500000 0.051730
#
# Coordination Sequence:
#
# PCOD9312960 Si02
#       8
#     4   4   4   4   4   4   4   4
#     4  12  24  43  66  94 131 173 218 265 331 397
#     4  11  22  42  66 100 125 163 224 279 327 378
#     4  11  24  40  69  92 131 166 217 278 320 387
#     4  10  25  45  65  93 129 171 219 274 331 392
#     4  11  24  44  64 100 133 171 219 267 330 394
#     4  11  26  40  65  96 135 177 210 266 328 401
#     4  11  24  40  67  96 130 170 219 273 320 391
#     4  11  25  42  64  98 135 175 217 267 329 394
#
# _framework density 18.931906999999999
#
# number of rings (size 3 to 8) (size 9 to 14) (size 15 to 20)
#    0.000    1.000    5.000    0.750    7.000    0.000 
#    0.000    1.875    0.000    0.000    0.000    0.000 
#    0.000    0.000    0.000    0.000    0.000    0.000 
#
# Total GULP energy -178751.131049 kJ/mol
# GULP energy per Si atom -5585.972845 kJ/mol
# Density = 1.888882 g / cm^3
# Si number density = 18.931907 Si / 1000 Ang^3
#
#
#
# Elastic Constant Matrix: (Units=GPa)
#
#
# Indices 1 2 3 4 5 6 
#
# 1 97.1652 49.1150 40.9778 0.0000 0.0000 0.0000
# 2 49.1150 99.9309 49.5773 0.0000 0.0000 0.0000
# 3 40.9778 49.5773 142.0165 0.0000 0.0000 0.0000
# 4 0.0000 0.0000 0.0000 18.8787 0.0000 0.0000
# 5 0.0000 0.0000 0.0000 0.0000 22.5100 0.0000
# 6 0.0000 0.0000 0.0000 0.0000 0.0000 33.0096
#
#
#
# Elastic Compliance Matrix: (Units=1/GPa)
#
#
# Indices 1 2 3 4 5 6 
#
# 1 0.014149 -0.005961 -0.002002 0.000000 0.000000 0.000000
# 2 -0.005961 0.014615 -0.003382 0.000000 0.000000 0.000000
# 3 -0.002002 -0.003382 0.008800 0.000000 0.000000 0.000000
# 4 0.000000 0.000000 0.000000 0.052970 0.000000 0.000000
# 5 0.000000 0.000000 0.000000 0.000000 0.044425 0.000000
# 6 0.000000 0.000000 0.000000 0.000000 0.000000 0.030294
#
#
# Mechanical properties :
#
#
# Convention : Reuss Voigt Hill
#
# Bulk Modulus (GPa) = 67.23103 68.71698 67.97400
# Shear Modulus (GPa) = 25.92029 28.17583 27.04806
#
# Velocity S-wave (km/s) = 3.70419 3.86200 3.78392
# Velocity P-wave (km/s) = 7.34056 7.50083 7.42113
#
# Compressibility (1/GPa) = 0.01487408
#
# Stress axis : x y z
#
# Youngs Moduli (GPa) = 70.67577 68.42515 113.64192
#
# Poissons Ratio (x) = 0.40789 0.22747
# Poissons Ratio (y) = 0.42131 0.38432
# Poissons Ratio (z) = 0.14147 0.23140
#
# Static dielectric constant tensor:
#      x y z
#    x 1.743170 0.000000 0.000000 
#    y 0.000000 1.655360 0.000000 
#    z 0.000000 0.000000 1.642250 
# 
# From -- ./inp_files/5670.got.cif
#   From: 2010.05.17/outbox.cif.g08.bks.cpg/sg18_3_cif.got.tgz:5670.got - 2010.06.03 22:40:56.
