data_PCOD9312699
_publ_section_title
;
Structure prediction by ZEFSAII (Michael W. Deem and Ramdas Pophale) SiO2 
 PCOD9312699
Probable space group: P 21 21 2
;
_chemical_formula_sum "Si O2"
_cell_formula_units_Z 26
_cell_length_a 8.663299
_cell_length_b 7.754327
_cell_length_c 16.771511
_cell_angle_alpha 90.000000
_cell_angle_beta 90.000000
_cell_angle_gamma 90.000000
_cell_volume 1126.677461
_symmetry_space_group_name_H-M "P 21 21 2"
_symmetry_group_IT_number 18
_symmetry_cell_setting 'orthorhombic'
loop_
_space_group_symop_operation_xyz
x,y,z
-x,-y,z
1/2+x,1/2-y,-z
1/2-x,1/2+y,-z
loop_
_atom_site_type_symbol
_atom_site_label
_atom_site_fract_x
_atom_site_fract_y
_atom_site_fract_z
Si Si1 0.904125 0.822982 0.962846
Si Si2 0.175856 0.509902 0.677197
Si Si3 0.654884 0.057784 0.895008
Si Si4 0.589665 0.767868 0.190489
Si Si5 0.770477 0.324521 0.402820
Si Si6 0.911353 0.815948 0.436755
Si Si7 0.000000 0.000000 0.679369
O O1 0.985499 0.728337 0.888286
O O2 0.739111 0.895081 0.935127
O O3 0.885830 0.695227 0.036144
O O4 0.000000 0.000000 0.980217
O O5 0.155799 0.560265 0.769635
O O6 0.252830 0.327690 0.661416
O O7 0.286978 0.645270 0.632682
O O8 0.000000 0.500000 0.643733
O O9 0.770680 0.146089 0.835196
O O10 0.500000 0.000000 0.853259
O O11 0.510342 0.664819 0.262711
O O12 0.686169 0.268941 0.484950
O O13 0.658009 0.476725 0.371169
O O14 0.953465 0.321156 0.419129
O O15 0.000000 0.000000 0.450031
#
# Coordination Sequence:
#
# PCOD9312699 Si02
#       7
#     4   4   4   4   4   4   2
#     4  10  22  44  65  99 134 178 227 283 355 443
#     4  11  23  41  67  99 139 181 238 292 355 420
#     4  11  22  41  70  98 136 176 230 289 353 433
#     4  11  24  43  64  96 137 180 230 283 362 417
#     4  11  23  42  70 100 141 187 243 291 364 430
#     4  10  23  43  69 106 141 187 244 298 357 430
#     4  12  22  44  68  88 138 190 232 290 364 422
#
# _framework density 23.076701
#
# number of rings (size 3 to 8) (size 9 to 14) (size 15 to 20)
#    0.000    1.231    4.615    2.769    0.000    3.077 
#    0.000    5.385    0.000    0.000    0.000    0.000 
#    0.000    0.000    0.000    0.000    0.000    0.000 
#
# Total GULP energy -145293.953158 kJ/mol
# GULP energy per Si atom -5588.228968 kJ/mol
# Density = 2.302418 g / cm^3
# Si number density = 23.076701 Si / 1000 Ang^3
#
#
#
# Elastic Constant Matrix: (Units=GPa)
#
#
# Indices 1 2 3 4 5 6 
#
# 1 152.8400 19.2696 31.9293 0.0000 0.0000 0.0000
# 2 19.2696 82.0941 26.2565 0.0000 0.0000 0.0000
# 3 31.9293 26.2565 88.6857 0.0000 0.0000 0.0000
# 4 0.0000 0.0000 0.0000 25.2019 0.0000 0.0000
# 5 0.0000 0.0000 0.0000 0.0000 3.3305 0.0000
# 6 0.0000 0.0000 0.0000 0.0000 0.0000 33.7760
#
#
#
# Elastic Compliance Matrix: (Units=1/GPa)
#
#
# Indices 1 2 3 4 5 6 
#
# 1 0.007140 -0.000943 -0.002292 0.000000 0.000000 0.000000
# 2 -0.000943 0.013580 -0.003681 0.000000 0.000000 0.000000
# 3 -0.002292 -0.003681 0.013191 0.000000 0.000000 0.000000
# 4 0.000000 0.000000 0.000000 0.039679 0.000000 0.000000
# 5 0.000000 0.000000 0.000000 0.000000 0.300251 0.000000
# 6 0.000000 0.000000 0.000000 0.000000 0.000000 0.029607
#
#
# Mechanical properties :
#
#
# Convention : Reuss Voigt Hill
#
# Bulk Modulus (GPa) = 49.80165 53.17005 51.48585
# Shear Modulus (GPa) = 11.79322 28.87265 20.33294
#
# Velocity S-wave (km/s) = 2.26308 3.54101 2.97156
# Velocity P-wave (km/s) = 5.33446 6.30943 5.84232
#
# Compressibility (1/GPa) = 0.02007966
#
# Stress axis : x y z
#
# Youngs Moduli (GPa) = 140.04791 73.63876 75.81173
#
# Poissons Ratio (x) = 0.06945 0.17372
# Poissons Ratio (y) = 0.13208 0.27906
# Poissons Ratio (z) = 0.32092 0.27106
#
# Static dielectric constant tensor:
#      x y z
#    x 1.895340 0.000000 0.000000 
#    y 0.000000 1.976850 0.000000 
#    z 0.000000 0.000000 1.812660 
# 
# From -- ./inp_files/7316.got.cif
#   From: 2010.05.17/outbox.cif.g08.bks.cpg/sg18_4_cif.got.tgz:7316.got - 2010.06.03 22:40:56.
