data_PCOD9312140
_publ_section_title
;
Structure prediction by ZEFSAII (Michael W. Deem and Ramdas Pophale) SiO2 
 PCOD9312140
Probable space group: P 21 21 2
;
_chemical_formula_sum "Si O2"
_cell_formula_units_Z 32
_cell_length_a 10.317174
_cell_length_b 14.765707
_cell_length_c 11.485135
_cell_angle_alpha 90.000000
_cell_angle_beta 90.000000
_cell_angle_gamma 90.000000
_cell_volume 1749.649696
_symmetry_space_group_name_H-M "P 21 21 2"
_symmetry_group_IT_number 18
_symmetry_cell_setting 'orthorhombic'
loop_
_space_group_symop_operation_xyz
x,y,z
-x,-y,z
1/2+x,1/2-y,-z
1/2-x,1/2+y,-z
loop_
_atom_site_type_symbol
_atom_site_label
_atom_site_fract_x
_atom_site_fract_y
_atom_site_fract_z
Si Si1 0.971147 0.756029 0.397235
Si Si2 0.810587 0.898139 0.965575
Si Si3 0.399052 0.922911 0.741813
Si Si4 0.860202 0.967710 0.716457
Si Si5 0.112399 0.440452 0.990184
Si Si6 0.250777 0.786995 0.142607
Si Si7 0.487129 0.607984 0.810042
Si Si8 0.228458 0.214686 0.604058
O O1 0.929454 0.668989 0.322825
O O2 0.953305 0.842107 0.311169
O O3 0.876622 0.761976 0.506990
O O4 0.123209 0.740482 0.428773
O O5 0.884434 0.925975 0.846163
O O6 0.733787 0.807951 0.925544
O O7 0.891555 0.877010 0.080848
O O8 0.727164 0.986826 0.994896
O O9 0.500000 0.000000 0.700673
O O10 0.250704 0.955681 0.727112
O O11 0.426292 0.912322 0.879162
O O12 0.794428 0.890254 0.637692
O O13 0.000000 0.000000 0.671552
O O14 0.148215 0.351206 0.921590
O O15 0.000000 0.500000 0.933396
O O16 0.294457 0.765603 0.273634
O O17 0.120104 0.844420 0.151113
O O18 0.500000 0.500000 0.793900
#
# Coordination Sequence:
#
# PCOD9312140 Si02
#       8
#     4   4   4   4   4   4   4   4
#     4  11  24  44  64  87 122 171 215 264 318 374
#     4  10  21  37  60  94 124 159 197 243 311 378
#     4  10  20  39  64  89 121 163 207 254 317 376
#     4  10  21  37  64  95 121 155 207 264 305 371
#     4  10  21  36  61  92 124 156 199 241 304 382
#     4  10  22  40  61  86 128 163 194 256 306 363
#     4  11  22  41  63  91 128 162 202 253 317 373
#     4  10  24  44  61  88 123 164 219 262 311 373
#
# _framework density 18.289376000000001
#
# number of rings (size 3 to 8) (size 9 to 14) (size 15 to 20)
#    0.000    1.750    2.500    1.125   10.500    0.500 
#    4.500    0.625    0.000    0.000    0.000    0.000 
#    0.000    0.000    0.000    0.000    0.000    0.000 
#
# Total GULP energy -178470.162847 kJ/mol
# GULP energy per Si atom -5577.192589 kJ/mol
# Density = 1.824775 g / cm^3
# Si number density = 18.289376 Si / 1000 Ang^3
#
#
#
# Elastic Constant Matrix: (Units=GPa)
#
#
# Indices 1 2 3 4 5 6 
#
# 1 82.7185 37.1821 53.5712 0.0000 0.0000 0.0000
# 2 37.1821 113.1239 45.8044 0.0000 0.0000 0.0000
# 3 53.5712 45.8044 91.5819 0.0000 0.0000 0.0000
# 4 0.0000 0.0000 0.0000 13.5134 0.0000 0.0000
# 5 0.0000 0.0000 0.0000 0.0000 23.7303 0.0000
# 6 0.0000 0.0000 0.0000 0.0000 0.0000 29.6178
#
#
#
# Elastic Compliance Matrix: (Units=1/GPa)
#
#
# Indices 1 2 3 4 5 6 
#
# 1 0.019926 -0.002295 -0.010508 0.000000 0.000000 0.000000
# 2 -0.002295 0.011349 -0.004334 0.000000 0.000000 0.000000
# 3 -0.010508 -0.004334 0.019234 0.000000 0.000000 0.000000
# 4 0.000000 0.000000 0.000000 0.074001 0.000000 0.000000
# 5 0.000000 0.000000 0.000000 0.000000 0.042140 0.000000
# 6 0.000000 0.000000 0.000000 0.000000 0.000000 0.033764
#
#
# Mechanical properties :
#
#
# Convention : Reuss Voigt Hill
#
# Bulk Modulus (GPa) = 61.59461 62.28221 61.93841
# Shear Modulus (GPa) = 20.82481 23.43005 22.12743
#
# Velocity S-wave (km/s) = 3.37802 3.58309 3.48207
# Velocity P-wave (km/s) = 6.99754 7.15861 7.07854
#
# Compressibility (1/GPa) = 0.01623519
#
# Stress axis : x y z
#
# Youngs Moduli (GPa) = 50.18552 88.11457 51.99240
#
# Poissons Ratio (x) = 0.20218 0.54635
# Poissons Ratio (y) = 0.11515 0.22533
# Poissons Ratio (z) = 0.52736 0.38188
#
# Static dielectric constant tensor:
#      x y z
#    x 1.662510 0.000000 0.000000 
#    y 0.000000 1.642710 0.000000 
#    z 0.000000 0.000000 1.618610 
# 
# From -- ./inp_files/5688.got.cif
#   From: 2010.05.17/outbox.cif.g08.bks.cpg/sg18_3_cif.got.tgz:5688.got - 2010.06.03 22:40:56.
