data_PCOD9312024
_publ_section_title
;
Structure prediction by ZEFSAII (Michael W. Deem and Ramdas Pophale) SiO2 
 PCOD9312024
Probable space group: P 21 21 2
;
_chemical_formula_sum "Si O2"
_cell_formula_units_Z 32
_cell_length_a 15.534658
_cell_length_b 17.238971
_cell_length_c 6.848989
_cell_angle_alpha 90.000000
_cell_angle_beta 90.000000
_cell_angle_gamma 90.000000
_cell_volume 1834.169656
_symmetry_space_group_name_H-M "P 21 21 2"
_symmetry_group_IT_number 18
_symmetry_cell_setting 'orthorhombic'
loop_
_space_group_symop_operation_xyz
x,y,z
-x,-y,z
1/2+x,1/2-y,-z
1/2-x,1/2+y,-z
loop_
_atom_site_type_symbol
_atom_site_label
_atom_site_fract_x
_atom_site_fract_y
_atom_site_fract_z
Si Si1 0.651832 0.691145 0.557382
Si Si2 0.077042 0.204539 0.893461
Si Si3 0.077042 0.704539 0.106539
Si Si4 0.991109 0.909853 0.561213
Si Si5 0.651832 0.191145 0.442618
Si Si6 0.991109 0.409853 0.438786
Si Si7 0.847459 0.343129 0.708887
Si Si8 0.847459 0.843129 0.291112
O O1 0.629074 0.735007 0.758862
O O2 0.580536 0.626831 0.513818
O O3 0.750000 0.662840 0.558721
O O4 0.643924 0.758307 0.392426
O O5 0.129074 0.264993 0.758861
O O6 0.039199 0.139970 0.747808
O O7 0.133997 0.166751 0.062941
O O8 1.000000 0.250000 1.000000
O O9 0.039198 0.639970 0.252192
O O10 0.133997 0.666751 0.937058
O O11 0.918883 0.895567 0.395296
O O12 0.000000 0.000000 0.605704
O O13 0.580536 0.126831 0.486183
O O14 0.643924 0.258307 0.607575
O O15 0.918883 0.395567 0.604703
O O16 0.000000 0.500000 0.394295
O O17 0.750000 0.370122 0.672629
#
# Coordination Sequence:
#
# PCOD9312024 Si02
#       8
#     4   4   4   4   4   4   4   4
#     4  10  20  36  59  86 111 148 194 237 282 342
#     4  11  18  37  62  85 110 148 201 238 280 332
#     4  11  18  37  62  85 110 148 201 238 280 332
#     4  11  23  37  57  84 122 155 184 239 297 346
#     4  10  20  36  59  86 111 148 194 237 282 342
#     4  11  23  37  57  84 122 155 184 239 297 346
#     4  10  20  37  62  85 111 148 195 240 282 338
#     4  10  20  37  62  85 111 148 195 240 282 338
#
# _framework density 17.446586
#
# number of rings (size 3 to 8) (size 9 to 14) (size 15 to 20)
#    0.000    1.500    5.000    2.250    0.000    3.000 
#    0.000    0.000    0.000    0.000    0.000    0.000 
#    0.000    0.000    0.000    0.000    0.000    0.000 
#
# Total GULP energy -178653.938864 kJ/mol
# GULP energy per Si atom -5582.935589 kJ/mol
# Density = 1.740688 g / cm^3
# Si number density = 17.446586 Si / 1000 Ang^3
#
#
#
# Elastic Constant Matrix: (Units=GPa)
#
#
# Indices 1 2 3 4 5 6 
#
# 1 138.3949 43.5274 37.0015 0.0000 0.0000 0.0000
# 2 43.5274 68.2580 23.1389 0.0000 0.0000 0.0000
# 3 37.0015 23.1389 108.3809 0.0000 0.0000 0.0000
# 4 0.0000 0.0000 0.0000 10.9901 0.0000 0.0000
# 5 0.0000 0.0000 0.0000 0.0000 24.0079 0.0000
# 6 0.0000 0.0000 0.0000 0.0000 0.0000 0.1101
#
#
#
# Elastic Compliance Matrix: (Units=1/GPa)
#
#
# Indices 1 2 3 4 5 6 
#
# 1 0.009459 -0.005323 -0.002093 0.000000 0.000000 0.000000
# 2 -0.005323 0.018788 -0.002194 0.000000 0.000000 0.000000
# 3 -0.002093 -0.002194 0.010410 0.000000 0.000000 0.000000
# 4 0.000000 0.000000 0.000000 0.090991 0.000000 0.000000
# 5 0.000000 0.000000 0.000000 0.000000 0.041653 0.000000
# 6 0.000000 0.000000 0.000000 0.000000 0.000000 9.079617
#
#
# Mechanical properties :
#
#
# Convention : Reuss Voigt Hill
#
# Bulk Modulus (GPa) = 51.44613 58.04105 54.74359
# Shear Modulus (GPa) = 0.53899 21.11269 10.82584
#
# Velocity S-wave (km/s) = 0.55642 3.48247 2.49371
# Velocity P-wave (km/s) = 5.47399 7.03635 6.30376
#
# Compressibility (1/GPa) = 0.01943781
#
# Stress axis : x y z
#
# Youngs Moduli (GPa) = 105.71549 53.22488 96.06397
#
# Poissons Ratio (x) = 0.28329 0.20107
# Poissons Ratio (y) = 0.56268 0.21077
# Poissons Ratio (z) = 0.22127 0.11678
#
# Static dielectric constant tensor:
#      x y z
#    x 1.606010 0.000000 0.000000 
#    y 0.000000 1.552170 0.000000 
#    z 0.000000 0.000000 1.591060 
# 
# From -- ./inp_files/1643.got.cif
#   From: 2010.05.17/outbox.cif.g08.bks.cpg/sg18_1_cif.got.tgz:1643.got - 2010.06.03 22:40:56.
