data_PCOD9312234
_publ_section_title
;
Structure prediction by ZEFSAII (Michael W. Deem and Ramdas Pophale) SiO2 
 PCOD9312234
Probable space group: P 21 21 2
;
_chemical_formula_sum "Si O2"
_cell_formula_units_Z 30
_cell_length_a 9.373270
_cell_length_b 9.931097
_cell_length_c 14.814846
_cell_angle_alpha 90.000000
_cell_angle_beta 90.000000
_cell_angle_gamma 90.000000
_cell_volume 1379.067400
_symmetry_space_group_name_H-M "P 21 21 2"
_symmetry_group_IT_number 18
_symmetry_cell_setting 'orthorhombic'
loop_
_space_group_symop_operation_xyz
x,y,z
-x,-y,z
1/2+x,1/2-y,-z
1/2-x,1/2+y,-z
loop_
_atom_site_type_symbol
_atom_site_label
_atom_site_fract_x
_atom_site_fract_y
_atom_site_fract_z
Si Si1 0.063210 0.796525 0.767804
Si Si2 0.573739 0.637849 0.438508
Si Si3 0.325199 0.696709 0.106668
Si Si4 0.500000 0.000000 0.301464
Si Si5 0.180508 0.329765 0.576232
Si Si6 0.352287 0.187647 0.734095
Si Si7 0.535039 0.862233 0.985723
Si Si8 0.366995 0.874360 0.796287
O O1 0.027755 0.637600 0.753395
O O2 0.214189 0.811467 0.815316
O O3 0.090011 0.856996 0.669038
O O4 0.930515 0.867375 0.817484
O O5 0.500000 0.500000 0.465956
O O6 0.719351 0.646803 0.491934
O O7 0.464561 0.759331 0.456200
O O8 0.217845 0.766994 0.180262
O O9 0.202940 0.643472 0.038379
O O10 0.451345 0.753494 0.044067
O O11 0.367302 0.960629 0.366698
O O12 0.265601 0.231764 0.646174
O O13 0.523930 0.205344 0.730423
O O14 0.344525 0.027372 0.759721
O O15 0.450269 0.870847 0.891075
O O16 0.500000 0.000000 0.036468
#
# Coordination Sequence:
#
# PCOD9312234 Si02
#       8
#     4   4   4   2   4   4   4   4
#     4  11  24  43  69  94 134 180 226 269 353 407
#     4  11  26  42  67 100 129 177 232 283 336 404
#     4  11  22  42  65  96 136 175 226 272 344 409
#     4  10  24  44  62  92 136 184 212 282 340 396
#     4  11  25  44  65  99 138 178 228 282 343 402
#     4  10  20  43  66  98 138 172 223 282 334 410
#     4  11  23  42  67  99 137 173 222 289 334 400
#     4  10  21  41  71 101 129 173 224 279 337 397
#
# _framework density 21.753831000000002
#
# number of rings (size 3 to 8) (size 9 to 14) (size 15 to 20)
#    0.000    1.333    5.333    1.600    6.533    0.000 
#    2.400    0.000    2.933    0.000    0.000    0.000 
#    0.000    0.000    0.000    0.000    0.000    0.000 
#
# Total GULP energy -167017.762371 kJ/mol
# GULP energy per Si atom -5567.258746 kJ/mol
# Density = 2.170432 g / cm^3
# Si number density = 21.753831 Si / 1000 Ang^3
#
#
#
# Elastic Constant Matrix: (Units=GPa)
#
#
# Indices 1 2 3 4 5 6 
#
# 1 165.4649 25.2897 42.6814 0.0000 0.0000 0.0000
# 2 25.2897 42.2966 13.3251 0.0000 0.0000 0.0000
# 3 42.6814 13.3251 81.3653 0.0000 0.0000 0.0000
# 4 0.0000 0.0000 0.0000 5.6185 0.0000 0.0000
# 5 0.0000 0.0000 0.0000 0.0000 38.4667 0.0000
# 6 0.0000 0.0000 0.0000 0.0000 0.0000 24.3202
#
#
#
# Elastic Compliance Matrix: (Units=1/GPa)
#
#
# Indices 1 2 3 4 5 6 
#
# 1 0.007422 -0.003386 -0.003339 0.000000 0.000000 0.000000
# 2 -0.003386 0.026473 -0.002559 0.000000 0.000000 0.000000
# 3 -0.003339 -0.002559 0.014461 0.000000 0.000000 0.000000
# 4 0.000000 0.000000 0.000000 0.177985 0.000000 0.000000
# 5 0.000000 0.000000 0.000000 0.000000 0.025997 0.000000
# 6 0.000000 0.000000 0.000000 0.000000 0.000000 0.041118
#
#
# Mechanical properties :
#
#
# Convention : Reuss Voigt Hill
#
# Bulk Modulus (GPa) = 33.57055 50.19103 41.88079
# Shear Modulus (GPa) = 15.53017 27.53645 21.53331
#
# Velocity S-wave (km/s) = 2.67480 3.56170 3.14962
# Velocity P-wave (km/s) = 5.00049 6.32745 5.70270
#
# Compressibility (1/GPa) = 0.02978801
#
# Stress axis : x y z
#
# Youngs Moduli (GPa) = 134.72747 37.77375 69.15198
#
# Poissons Ratio (x) = 0.12790 0.23090
# Poissons Ratio (y) = 0.45619 0.17698
# Poissons Ratio (z) = 0.44986 0.09667
#
# Static dielectric constant tensor:
#      x y z
#    x 1.731750 0.000000 0.000000 
#    y 0.000000 1.882630 0.000000 
#    z 0.000000 0.000000 1.878950 
# 
# From -- ./inp_files/6750.got.cif
#   From: 2010.05.17/outbox.cif.g08.bks.cpg/sg18_4_cif.got.tgz:6750.got - 2010.06.03 22:40:56.
