data_PCOD9312615
_publ_section_title
;
Structure prediction by ZEFSAII (Michael W. Deem and Ramdas Pophale) SiO2 
 PCOD9312615
Probable space group: P 21 21 2
;
_chemical_formula_sum "Si O2"
_cell_formula_units_Z 30
_cell_length_a 30.184334
_cell_length_b 5.586177
_cell_length_c 8.181644
_cell_angle_alpha 90.000000
_cell_angle_beta 90.000000
_cell_angle_gamma 90.000000
_cell_volume 1379.548168
_symmetry_space_group_name_H-M "P 21 21 2"
_symmetry_group_IT_number 18
_symmetry_cell_setting 'orthorhombic'
loop_
_space_group_symop_operation_xyz
x,y,z
-x,-y,z
1/2+x,1/2-y,-z
1/2-x,1/2+y,-z
loop_
_atom_site_type_symbol
_atom_site_label
_atom_site_fract_x
_atom_site_fract_y
_atom_site_fract_z
Si Si1 0.371316 0.383313 0.567354
Si Si2 0.456500 0.656436 0.505766
Si Si3 0.727846 0.537674 0.554761
Si Si4 0.414726 0.000001 0.749999
Si Si5 0.000000 0.500000 0.750000
Si Si6 0.128683 0.116688 0.067354
Si Si7 0.727846 0.462317 0.945239
Si Si8 0.543500 0.656436 0.994233
O O1 0.412574 0.500315 0.474116
O O2 0.322959 0.424863 0.496427
O O3 0.370177 0.500001 0.750000
O O4 0.384019 0.109937 0.608114
O O5 0.500000 0.500000 0.527782
O O6 0.445409 0.801756 0.669473
O O7 0.468923 0.837812 0.362744
O O8 0.747319 0.289201 0.482774
O O9 0.727929 0.499994 0.750000
O O10 0.384019 0.890064 0.891886
O O11 0.445409 0.198245 0.830525
O O12 0.968923 0.337811 0.862745
O O13 0.177041 0.075143 0.996427
O O14 0.087426 0.999684 0.974116
O O15 0.752681 0.210790 0.982775
O O16 0.500000 0.500000 0.972216
#
# Coordination Sequence:
#
# PCOD9312615 Si02
#       8
#     4   4   4   4   2   4   4   4
#     4   9  22  40  69  96 129 172 229 277 333 409
#     4  11  24  42  62  98 126 178 219 278 334 409
#     4  11  25  46  74 107 144 187 238 297 360 423
#     4  10  22  41  72  94 126 168 234 276 327 404
#     4  12  26  42  60  86 148 178 210 276 348 408
#     4   9  22  40  69  96 129 172 229 277 333 409
#     4  11  25  46  74 107 144 187 238 297 360 423
#     4  11  24  42  62  98 126 178 219 278 334 409
#
# _framework density 21.746251999999998
#
# number of rings (size 3 to 8) (size 9 to 14) (size 15 to 20)
#    0.000    1.600    0.000    2.800   11.200   12.800 
#    2.400    5.333    0.000    0.000    0.000    0.000 
#    0.000    0.000    0.000    0.000    0.000    0.000 
#
# Total GULP energy -167679.506925 kJ/mol
# GULP energy per Si atom -5589.316897 kJ/mol
# Density = 2.169676 g / cm^3
# Si number density = 21.746252 Si / 1000 Ang^3
#
#
#
# Elastic Constant Matrix: (Units=GPa)
#
#
# Indices 1 2 3 4 5 6 
#
# 1 231.6377 111.6145 45.6364 0.0000 0.0000 0.0000
# 2 111.6145 154.6362 33.5576 0.0000 0.0000 0.0000
# 3 45.6364 33.5576 46.3192 0.0000 0.0000 0.0000
# 4 0.0000 0.0000 0.0000 34.0030 0.0000 0.0000
# 5 0.0000 0.0000 0.0000 0.0000 22.0682 0.0000
# 6 0.0000 0.0000 0.0000 0.0000 0.0000 17.6785
#
#
#
# Elastic Compliance Matrix: (Units=1/GPa)
#
#
# Indices 1 2 3 4 5 6 
#
# 1 0.007177 -0.004326 -0.003937 0.000000 0.000000 0.000000
# 2 -0.004326 0.010281 -0.003186 0.000000 0.000000 0.000000
# 3 -0.003937 -0.003186 0.027777 0.000000 0.000000 0.000000
# 4 0.000000 0.000000 0.000000 0.029409 0.000000 0.000000
# 5 0.000000 0.000000 0.000000 0.000000 0.045314 0.000000
# 6 0.000000 0.000000 0.000000 0.000000 0.000000 0.056566
#
#
# Mechanical properties :
#
#
# Convention : Reuss Voigt Hill
#
# Bulk Modulus (GPa) = 44.77053 90.46781 67.61917
# Shear Modulus (GPa) = 24.17000 30.86890 27.51945
#
# Velocity S-wave (km/s) = 3.33747 3.77172 3.56122
# Velocity P-wave (km/s) = 5.95684 7.78843 6.93339
#
# Compressibility (1/GPa) = 0.02233612
#
# Stress axis : x y z
#
# Youngs Moduli (GPa) = 139.32793 97.27002 36.00130
#
# Poissons Ratio (x) = 0.42080 0.14175
# Poissons Ratio (y) = 0.60274 0.11470
# Poissons Ratio (z) = 0.54858 0.30989
#
# Static dielectric constant tensor:
#      x y z
#    x 1.828580 0.000000 0.000000 
#    y 0.000000 1.911210 0.000000 
#    z 0.000000 0.000000 1.804120 
# 
# From -- ./inp_files/4850.got.cif
#   From: 2010.05.17/outbox.cif.g08.bks.cpg/sg18_3_cif.got.tgz:4850.got - 2010.06.03 22:40:56.
