data_PCOD9312335
_publ_section_title
;
Structure prediction by ZEFSAII (Michael W. Deem and Ramdas Pophale) SiO2 
 PCOD9312335
Probable space group: P 21 21 2
;
_chemical_formula_sum "Si O2"
_cell_formula_units_Z 32
_cell_length_a 12.074411
_cell_length_b 18.307292
_cell_length_c 7.310252
_cell_angle_alpha 90.000000
_cell_angle_beta 90.000000
_cell_angle_gamma 90.000000
_cell_volume 1615.929508
_symmetry_space_group_name_H-M "P 21 21 2"
_symmetry_group_IT_number 18
_symmetry_cell_setting 'orthorhombic'
loop_
_space_group_symop_operation_xyz
x,y,z
-x,-y,z
1/2+x,1/2-y,-z
1/2-x,1/2+y,-z
loop_
_atom_site_type_symbol
_atom_site_label
_atom_site_fract_x
_atom_site_fract_y
_atom_site_fract_z
Si Si1 0.869110 0.188084 0.687664
Si Si2 0.256790 0.912782 0.956815
Si Si3 0.000034 0.416053 0.603347
Si Si4 0.274808 0.153975 0.347785
Si Si5 0.869062 0.811901 0.687719
Si Si6 0.274737 0.846041 0.347727
Si Si7 0.743176 0.912765 0.956877
Si Si8 0.499983 0.915275 0.952588
O O1 0.832598 0.130455 0.840417
O O2 0.808576 0.265425 0.720623
O O3 0.823245 0.160139 0.492910
O O4 0.999977 0.800521 0.685787
O O5 0.380496 0.885091 0.898089
O O6 0.251525 0.000011 0.930166
O O7 0.246885 0.894930 0.172103
O O8 0.885249 0.377526 0.553282
O O9 0.000000 0.500000 0.544781
O O10 0.114847 0.377560 0.553300
O O11 0.000032 0.414031 0.825793
O O12 0.176839 0.160140 0.492997
O O13 0.246954 0.105075 0.172177
O O14 0.808546 0.734554 0.720661
O O15 0.832565 0.869512 0.840521
O O16 0.619470 0.885081 0.898126
O O17 0.500000 0.000000 0.897251
#
# Coordination Sequence:
#
# PCOD9312335 Si02
#       8
#     4   4   4   4   4   4   4   4
#     4  11  24  40  59  88 125 166 206 243 297 374
#     4  10  21  39  63  91 120 156 201 253 308 357
#     4   9  16  33  65  91 111 148 202 258 303 341
#     4  10  21  41  62  88 123 162 204 253 306 355
#     4  11  24  40  59  88 125 166 206 243 297 374
#     4  10  21  41  62  88 123 162 204 253 306 355
#     4  10  21  39  63  91 120 156 201 253 308 357
#     4   7  14  31  55  85 114 140 188 248 294 341
#
# _framework density 19.802841999999998
#
# number of rings (size 3 to 8) (size 9 to 14) (size 15 to 20)
#    0.000    2.250    1.250    3.000    0.000    4.500 
#    2.250    1.250    0.000    0.000    0.000    0.000 
#    0.000    0.000    0.000    0.000    0.000    0.000 
#
# Total GULP energy -178632.171861 kJ/mol
# GULP energy per Si atom -5582.255371 kJ/mol
# Density = 1.975777 g / cm^3
# Si number density = 19.802842 Si / 1000 Ang^3
#
#
#
# Elastic Constant Matrix: (Units=GPa)
#
#
# Indices 1 2 3 4 5 6 
#
# 1 38.9176 -21.7945 6.5643 0.0000 0.0000 0.0000
# 2 -21.7945 44.8453 -5.3644 0.0000 0.0000 0.0000
# 3 6.5643 -5.3644 45.0667 0.0000 0.0000 0.0000
# 4 0.0000 0.0000 0.0000 196.3329 0.0000 0.0000
# 5 0.0000 0.0000 0.0000 0.0000 30.4557 0.0000
# 6 0.0000 0.0000 0.0000 0.0000 0.0000 29.7896
#
#
#
# Elastic Compliance Matrix: (Units=1/GPa)
#
#
# Indices 1 2 3 4 5 6 
#
# 1 0.035749 0.016993 -0.003184 0.000000 0.000000 0.000000
# 2 0.016993 0.030698 0.001179 0.000000 0.000000 0.000000
# 3 -0.003184 0.001179 0.022793 0.000000 0.000000 0.000000
# 4 0.000000 0.000000 0.000000 0.005093 0.000000 0.000000
# 5 0.000000 0.000000 0.000000 0.000000 0.032835 0.000000
# 6 0.000000 0.000000 0.000000 0.000000 0.000000 0.033569
#
#
# Mechanical properties :
#
#
# Convention : Reuss Voigt Hill
#
# Bulk Modulus (GPa) = 8.38824 9.73784 9.06304
# Shear Modulus (GPa) = 29.32538 61.27725 45.30131
#
# Velocity S-wave (km/s) = 3.85238 5.56874 4.78809
# Velocity P-wave (km/s) = 4.90233 6.80264 5.92911
#
# Compressibility (1/GPa) = 0.11921457
#
# Stress axis : x y z
#
# Youngs Moduli (GPa) = 27.97316 32.57522 43.87220
#
# Poissons Ratio (x) = -0.55354 0.13971
# Poissons Ratio (y) = -0.47534 -0.05172
# Poissons Ratio (z) = 0.08908 -0.03840
#
# Static dielectric constant tensor:
#      x y z
#    x 1.703100 0.000000 0.000000 
#    y 0.000000 1.682140 0.000000 
#    z 0.000000 0.000000 1.708230 
# 
# From -- ./inp_files/4368.got.cif
#   From: 2010.05.17/outbox.cif.g08.bks.cpg/sg18_3_cif.got.tgz:4368.got - 2010.06.03 22:40:56.
