data_PCOD9312101
_publ_section_title
;
Structure prediction by ZEFSAII (Michael W. Deem and Ramdas Pophale) SiO2 
 PCOD9312101
Probable space group: P 21 21 2
;
_chemical_formula_sum "Si O2"
_cell_formula_units_Z 28
_cell_length_a 9.933120
_cell_length_b 20.801055
_cell_length_c 6.226807
_cell_angle_alpha 90.000000
_cell_angle_beta 90.000000
_cell_angle_gamma 90.000000
_cell_volume 1286.578973
_symmetry_space_group_name_H-M "P 21 21 2"
_symmetry_group_IT_number 18
_symmetry_cell_setting 'orthorhombic'
loop_
_space_group_symop_operation_xyz
x,y,z
-x,-y,z
1/2+x,1/2-y,-z
1/2-x,1/2+y,-z
loop_
_atom_site_type_symbol
_atom_site_label
_atom_site_fract_x
_atom_site_fract_y
_atom_site_fract_z
Si Si1 0.887122 0.105951 0.287364
Si Si2 0.391702 0.922857 0.848382
Si Si3 0.000000 0.000000 0.566443
Si Si4 0.713817 0.186045 0.574097
Si Si5 0.489210 0.708844 0.419559
Si Si6 0.500000 0.000000 0.464932
Si Si7 0.838492 0.448879 0.914534
Si Si8 0.425961 0.605640 0.093054
O O1 0.752064 0.141263 0.366462
O O2 0.997611 0.153658 0.398109
O O3 0.900032 0.038766 0.411424
O O4 0.937630 0.100047 0.045961
O O5 0.320754 0.857232 0.781554
O O6 0.542189 0.916583 0.944384
O O7 0.410720 0.957408 0.620737
O O8 0.323792 0.976990 0.999925
O O9 0.930577 0.948544 0.722117
O O10 0.594726 0.232330 0.506977
O O11 0.853222 0.223416 0.622745
O O12 0.425312 0.674091 0.212371
O O13 0.403346 0.043285 0.318367
O O14 0.701506 0.411000 0.946363
#
# Coordination Sequence:
#
# PCOD9312101 Si02
#       8
#     4   4   2   4   4   2   4   4
#     4   9  22  39  61  96 121 166 208 260 325 381
#     4   9  19  38  61  87 124 163 206 252 314 383
#     4  10  20  38  62  94 126 168 196 264 328 380
#     4  10  21  46  63  86 123 174 214 266 311 378
#     4   9  24  42  62  87 123 166 220 261 321 362
#     4   8  18  36  52 100 120 160 190 248 308 394
#     4   9  20  34  59  94 122 163 197 251 323 381
#     4  11  21  39  60  97 129 159 214 268 316 385
#
# _framework density 21.763141000000001
#
# number of rings (size 3 to 8) (size 9 to 14) (size 15 to 20)
#    0.857    2.000    0.000    1.286    2.000    6.857 
#    5.143    0.000    0.000    0.000    0.000    0.000 
#    0.000    0.000    0.000    0.000    0.000    0.000 
#
# Total GULP energy -156201.888779 kJ/mol
# GULP energy per Si atom -5578.638885 kJ/mol
# Density = 2.171361 g / cm^3
# Si number density = 21.763141 Si / 1000 Ang^3
#
#
#
# Elastic Constant Matrix: (Units=GPa)
#
#
# Indices 1 2 3 4 5 6 
#
# 1 73.3855 23.8652 -15.4101 0.0000 0.0000 0.0000
# 2 23.8652 46.5304 5.7194 0.0000 0.0000 0.0000
# 3 -15.4101 5.7194 47.8554 0.0000 0.0000 0.0000
# 4 0.0000 0.0000 0.0000 5.9758 0.0000 0.0000
# 5 0.0000 0.0000 0.0000 0.0000 16.3795 0.0000
# 6 0.0000 0.0000 0.0000 0.0000 0.0000 47.2955
#
#
#
# Elastic Compliance Matrix: (Units=1/GPa)
#
#
# Indices 1 2 3 4 5 6 
#
# 1 0.018515 -0.010382 0.007203 0.000000 0.000000 0.000000
# 2 -0.010382 0.027633 -0.006646 0.000000 0.000000 0.000000
# 3 0.007203 -0.006646 0.024010 0.000000 0.000000 0.000000
# 4 0.000000 0.000000 0.000000 0.167342 0.000000 0.000000
# 5 0.000000 0.000000 0.000000 0.000000 0.061052 0.000000
# 6 0.000000 0.000000 0.000000 0.000000 0.000000 0.021144
#
#
# Mechanical properties :
#
#
# Convention : Reuss Voigt Hill
#
# Bulk Modulus (GPa) = 19.79828 21.79115 20.79471
# Shear Modulus (GPa) = 14.03781 24.16994 19.10388
#
# Velocity S-wave (km/s) = 2.54249 3.33617 2.96600
# Velocity P-wave (km/s) = 4.21141 4.98745 4.61576
#
# Compressibility (1/GPa) = 0.05050945
#
# Stress axis : x y z
#
# Youngs Moduli (GPa) = 54.00904 36.18863 41.64931
#
# Poissons Ratio (x) = 0.37570 -0.30000
# Poissons Ratio (y) = 0.56071 0.27679
# Poissons Ratio (z) = -0.38903 0.24050
#
# Static dielectric constant tensor:
#      x y z
#    x 1.817770 0.000000 0.000000 
#    y 0.000000 1.791250 0.000000 
#    z 0.000000 0.000000 1.818600 
# 
# From -- ./inp_files/1262.got.cif
#   From: 2010.05.17/outbox.cif.g08.bks.cpg/sg18_1_cif.got.tgz:1262.got - 2010.06.03 22:40:56.
