data_PCOD9312467
_publ_section_title
;
Structure prediction by ZEFSAII (Michael W. Deem and Ramdas Pophale) SiO2 
 PCOD9312467
Probable space group: P 21 21 2
;
_chemical_formula_sum "Si O2"
_cell_formula_units_Z 32
_cell_length_a 15.374879
_cell_length_b 9.348745
_cell_length_c 10.194956
_cell_angle_alpha 90.000000
_cell_angle_beta 90.000000
_cell_angle_gamma 90.000000
_cell_volume 1465.380393
_symmetry_space_group_name_H-M "P 21 21 2"
_symmetry_group_IT_number 18
_symmetry_cell_setting 'orthorhombic'
loop_
_space_group_symop_operation_xyz
x,y,z
-x,-y,z
1/2+x,1/2-y,-z
1/2-x,1/2+y,-z
loop_
_atom_site_type_symbol
_atom_site_label
_atom_site_fract_x
_atom_site_fract_y
_atom_site_fract_z
Si Si1 0.441866 0.359231 0.128447
Si Si2 0.598894 0.536716 0.761290
Si Si3 0.544480 0.792258 0.855878
Si Si4 0.221080 0.347429 0.854167
Si Si5 0.050108 0.355266 0.683358
Si Si6 0.914539 0.903160 0.515211
Si Si7 0.785660 0.975369 0.742749
Si Si8 0.135859 0.404553 0.135149
O O1 0.500000 0.500000 0.118968
O O2 0.492563 0.244612 0.218498
O O3 0.352806 0.420711 0.183576
O O4 0.428696 0.291279 0.986870
O O5 0.500000 0.500000 0.815526
O O6 0.582957 0.706547 0.732850
O O7 0.693527 0.552406 0.831041
O O8 0.607263 0.441606 0.633020
O O9 0.440721 0.792793 0.847347
O O10 0.584704 0.946421 0.877123
O O11 0.140766 0.388202 0.758194
O O12 0.231408 0.176273 0.819443
O O13 0.188197 0.367874 0.003046
O O14 0.064734 0.258967 0.554954
O O15 0.000000 0.500000 0.656313
O O16 0.833026 0.942333 0.607192
O O17 0.000000 0.000000 0.549508
O O18 0.698244 0.067045 0.742862
#
# Coordination Sequence:
#
# PCOD9312467 Si02
#       8
#     4   4   4   4   4   4   4   4
#     4  12  19  37  71 107 139 183 229 289 365 445
#     4  11  25  47  69  94 139 195 247 288 359 428
#     4  11  23  41  65 103 149 190 223 295 372 436
#     4  11  22  43  68 110 145 189 236 299 367 447
#     4  11  21  41  73 113 144 180 242 313 364 427
#     4  10  21  46  73  96 137 195 247 297 348 433
#     4  11  21  39  70 103 140 186 253 291 355 429
#     4  11  23  39  66 105 153 180 229 299 372 442
#
# _framework density 21.837333000000001
#
# number of rings (size 3 to 8) (size 9 to 14) (size 15 to 20)
#    0.000    1.000    6.250    1.875    0.000    1.000 
#    2.250   10.000   11.000    0.000    0.000    0.000 
#    0.000    0.000    0.000    0.000    0.000    0.000 
#
# Total GULP energy -178497.338979 kJ/mol
# GULP energy per Si atom -5578.041843 kJ/mol
# Density = 2.178763 g / cm^3
# Si number density = 21.837333 Si / 1000 Ang^3
#
#
#
# Elastic Constant Matrix: (Units=GPa)
#
#
# Indices 1 2 3 4 5 6 
#
# 1 128.9182 31.7327 33.8329 0.0000 0.0000 0.0000
# 2 31.7327 92.2324 44.2758 0.0000 0.0000 0.0000
# 3 33.8329 44.2758 67.1347 0.0000 0.0000 0.0000
# 4 0.0000 0.0000 0.0000 22.7703 0.0000 0.0000
# 5 0.0000 0.0000 0.0000 0.0000 49.3854 0.0000
# 6 0.0000 0.0000 0.0000 0.0000 0.0000 46.5119
#
#
#
# Elastic Compliance Matrix: (Units=1/GPa)
#
#
# Indices 1 2 3 4 5 6 
#
# 1 0.009053 -0.001353 -0.003670 0.000000 0.000000 0.000000
# 2 -0.001353 0.016067 -0.009915 0.000000 0.000000 0.000000
# 3 -0.003670 -0.009915 0.023284 0.000000 0.000000 0.000000
# 4 0.000000 0.000000 0.000000 0.043917 0.000000 0.000000
# 5 0.000000 0.000000 0.000000 0.000000 0.020249 0.000000
# 6 0.000000 0.000000 0.000000 0.000000 0.000000 0.021500
#
#
# Mechanical properties :
#
#
# Convention : Reuss Voigt Hill
#
# Bulk Modulus (GPa) = 53.97017 56.44091 55.20554
# Shear Modulus (GPa) = 29.39087 35.62977 32.51032
#
# Velocity S-wave (km/s) = 3.67263 4.04369 3.86262
# Velocity P-wave (km/s) = 6.53855 6.90681 6.72520
#
# Compressibility (1/GPa) = 0.01852876
#
# Stress axis : x y z
#
# Youngs Moduli (GPa) = 110.46020 62.23908 42.94848
#
# Poissons Ratio (x) = 0.08420 0.15762
# Poissons Ratio (y) = 0.14944 0.42581
# Poissons Ratio (z) = 0.40540 0.61707
#
# Static dielectric constant tensor:
#      x y z
#    x 1.437270 0.000000 0.000000 
#    y 0.000000 1.838340 0.000000 
#    z 0.000000 0.000000 1.800220 
# 
# From -- ./inp_files/6120.got.cif
#   From: 2010.05.17/outbox.cif.g08.bks.cpg/sg18_4_cif.got.tgz:6120.got - 2010.06.03 22:40:56.
