data_PCOD9312765
_publ_section_title
;
Structure prediction by ZEFSAII (Michael W. Deem and Ramdas Pophale) SiO2 
 PCOD9312765
Probable space group: P 21 21 2
;
_chemical_formula_sum "Si O2"
_cell_formula_units_Z 18
_cell_length_a 11.407611
_cell_length_b 12.199349
_cell_length_c 5.170287
_cell_angle_alpha 90.000000
_cell_angle_beta 90.000000
_cell_angle_gamma 90.000000
_cell_volume 719.525202
_symmetry_space_group_name_H-M "P 21 21 2"
_symmetry_group_IT_number 18
_symmetry_cell_setting 'orthorhombic'
loop_
_space_group_symop_operation_xyz
x,y,z
-x,-y,z
1/2+x,1/2-y,-z
1/2-x,1/2+y,-z
loop_
_atom_site_type_symbol
_atom_site_label
_atom_site_fract_x
_atom_site_fract_y
_atom_site_fract_z
Si Si1 0.016868 0.320543 0.266157
Si Si2 0.000000 0.000000 0.985883
Si Si3 0.223289 0.090643 0.257855
Si Si4 0.315441 0.000120 0.755206
Si Si5 0.418141 0.278255 0.238885
O O1 0.921130 0.415750 0.296622
O O2 0.977978 0.235235 0.483118
O O3 0.139708 0.379948 0.315242
O O4 0.000270 0.279925 0.975222
O O5 0.906703 0.927551 0.147329
O O6 0.077070 0.906388 0.838096
O O7 0.297349 0.204950 0.233019
O O8 0.223853 0.049616 0.551401
O O9 0.292984 0.010606 0.060400
#
# Coordination Sequence:
#
# PCOD9312765 Si02
#       5
#     4   2   4   4   4
#     4   9  18  37  66  98 132 171 216 267 324 386
#     4  12  28  46  68  98 132 174 220 270 324 386
#     4  10  23  41  63  95 132 170 214 266 324 386
#     4   9  18  37  66  98 132 171 216 267 324 386
#     4  10  23  41  63  95 132 170 214 266 324 386
#
# _framework density 25.016497000000001
#
# number of rings (size 3 to 8) (size 9 to 14) (size 15 to 20)
#    0.000    2.222    0.000    1.333    0.000   14.222 
#    0.000    4.444    0.000    0.000    0.000    0.000 
#    0.000    0.000    0.000    0.000    0.000    0.000 
#
# Total GULP energy -100416.232424 kJ/mol
# GULP energy per Si atom -5578.679579 kJ/mol
# Density = 2.495956 g / cm^3
# Si number density = 25.016497 Si / 1000 Ang^3
#
#
#
# Elastic Constant Matrix: (Units=GPa)
#
#
# Indices 1 2 3 4 5 6 
#
# 1 62.0491 72.9400 5.7365 0.0000 0.0000 0.0000
# 2 72.9400 113.0558 35.5233 0.0000 0.0000 0.0000
# 3 5.7365 35.5233 93.1921 0.0000 0.0000 0.0000
# 4 0.0000 0.0000 0.0000 -7.2307 0.0000 0.0000
# 5 0.0000 0.0000 0.0000 0.0000 21.2201 0.0000
# 6 0.0000 0.0000 0.0000 0.0000 0.0000 50.4072
#
#
#
# Elastic Compliance Matrix: (Units=1/GPa)
#
#
# Indices 1 2 3 4 5 6 
#
# 1 0.087784 -0.062413 0.018387 0.000000 0.000000 0.000000
# 2 -0.062413 0.054423 -0.016903 0.000000 0.000000 0.000000
# 3 0.018387 -0.016903 0.016042 0.000000 0.000000 0.000000
# 4 0.000000 0.000000 0.000000 -0.138300 0.000000 0.000000
# 5 0.000000 0.000000 0.000000 0.000000 0.047125 0.000000
# 6 0.000000 0.000000 0.000000 0.000000 0.000000 0.019838
#
#
# Mechanical properties :
#
#
# Convention : Reuss Voigt Hill
#
# Bulk Modulus (GPa) = 27.47937 55.18852 41.33394
# Shear Modulus (GPa) = 22.63468 23.15248 22.89358
#
# Velocity S-wave (km/s) = 3.01124 3.04548 3.02841
# Velocity P-wave (km/s) = 4.80608 5.87157 5.36534
#
# Compressibility (1/GPa) = 0.03639094
#
# Stress axis : x y z
#
# Youngs Moduli (GPa) = 11.39166 18.37461 62.33646
#
# Poissons Ratio (x) = 1.14681 -1.14619
# Poissons Ratio (y) = 0.71098 1.05369
# Poissons Ratio (z) = -0.20946 0.31059
#
# Static dielectric constant tensor:
#      x y z
#    x 2.573990 0.000000 0.000000 
#    y 0.000000 1.924490 0.000000 
#    z 0.000000 0.000000 1.847160 
# 
# From -- ./inp_files/1386.got.cif
#   From: 2010.05.17/outbox.cif.g08.bks.cpg/sg18_1_cif.got.tgz:1386.got - 2010.06.03 22:40:56.
