data_PCOD9312426
_publ_section_title
;
Structure prediction by ZEFSAII (Michael W. Deem and Ramdas Pophale) SiO2 
 PCOD9312426
Probable space group: P 21 21 2
;
_chemical_formula_sum "Si O2"
_cell_formula_units_Z 22
_cell_length_a 13.936905
_cell_length_b 10.720182
_cell_length_c 5.980662
_cell_angle_alpha 90.000000
_cell_angle_beta 90.000000
_cell_angle_gamma 90.000000
_cell_volume 893.547732
_symmetry_space_group_name_H-M "P 21 21 2"
_symmetry_group_IT_number 18
_symmetry_cell_setting 'orthorhombic'
loop_
_space_group_symop_operation_xyz
x,y,z
-x,-y,z
1/2+x,1/2-y,-z
1/2-x,1/2+y,-z
loop_
_atom_site_type_symbol
_atom_site_label
_atom_site_fract_x
_atom_site_fract_y
_atom_site_fract_z
Si Si1 0.318334 0.491339 0.925244
Si Si2 0.528495 0.855241 0.140036
Si Si3 0.123532 0.156432 0.460230
Si Si4 0.810740 0.741343 0.856638
Si Si5 0.000000 0.000000 0.799328
Si Si6 0.031422 0.645501 0.352173
O O1 0.290852 0.625421 0.030821
O O2 0.417052 0.448234 0.041215
O O3 0.338560 0.538840 0.676431
O O4 0.244925 0.379071 0.940716
O O5 0.423552 0.791860 0.128006
O O6 0.572130 0.830855 0.391909
O O7 0.500000 0.000000 0.144525
O O8 0.578964 0.834030 0.895546
O O9 0.205373 0.230722 0.593703
O O10 0.059872 0.260847 0.340078
O O11 0.052268 0.093425 0.635972
O O12 0.000000 0.500000 0.354642
#
# Coordination Sequence:
#
# PCOD9312426 Si02
#       6
#     4   4   4   4   2   4
#     4  11  23  47  70 100 143 184 237 301 362 443
#     4   9  17  35  61  95 131 175 225 290 357 424
#     4  10  21  42  68  95 139 183 235 296 361 437
#     4  10  23  42  68 100 138 183 234 299 367 433
#     4  10  24  44  70  96 136 192 240 286 370 438
#     4   9  17  33  61  93 129 172 226 288 348 411
#
# _framework density 24.620954999999999
#
# number of rings (size 3 to 8) (size 9 to 14) (size 15 to 20)
#    0.000    2.182    1.818    0.545    0.000    2.909 
#   16.364    1.818    0.000    0.000    0.000    0.000 
#    0.000    0.000    0.000    0.000    0.000    0.000 
#
# Total GULP energy -122567.737759 kJ/mol
# GULP energy per Si atom -5571.260807 kJ/mol
# Density = 2.456492 g / cm^3
# Si number density = 24.620955 Si / 1000 Ang^3
#
#
#
# Elastic Constant Matrix: (Units=GPa)
#
#
# Indices 1 2 3 4 5 6 
#
# 1 80.3873 32.9788 31.8176 0.0000 0.0000 0.0000
# 2 32.9788 119.1888 35.2736 0.0000 0.0000 0.0000
# 3 31.8176 35.2736 177.0082 0.0000 0.0000 0.0000
# 4 0.0000 0.0000 0.0000 -1.1704 0.0000 0.0000
# 5 0.0000 0.0000 0.0000 0.0000 64.6688 0.0000
# 6 0.0000 0.0000 0.0000 0.0000 0.0000 34.3298
#
#
#
# Elastic Compliance Matrix: (Units=1/GPa)
#
#
# Indices 1 2 3 4 5 6 
#
# 1 0.014632 -0.003475 -0.001938 0.000000 0.000000 0.000000
# 2 -0.003475 0.009741 -0.001317 0.000000 0.000000 0.000000
# 3 -0.001938 -0.001317 0.006260 0.000000 0.000000 0.000000
# 4 0.000000 0.000000 0.000000 -0.854440 0.000000 0.000000
# 5 0.000000 0.000000 0.000000 0.000000 0.015463 0.000000
# 6 0.000000 0.000000 0.000000 0.000000 0.000000 0.029129
#
#
# Mechanical properties :
#
#
# Convention : Reuss Voigt Hill
#
# Bulk Modulus (GPa) = 58.22453 64.08050 61.15252
# Shear Modulus (GPa) = -6.57869 37.99994 15.71063
#
# Velocity S-wave (km/s) = -1.63640 3.93287 2.52880
# Velocity P-wave (km/s) = 4.48657 6.83423 5.78083
#
# Compressibility (1/GPa) = 0.01717489
#
# Stress axis : x y z
#
# Youngs Moduli (GPa) = 68.34133 102.65616 159.74165
#
# Poissons Ratio (x) = 0.35676 0.30953
# Poissons Ratio (y) = 0.23750 0.21030
# Poissons Ratio (z) = 0.13242 0.13515
#
# Static dielectric constant tensor:
#      x y z
#    x 1.911490 0.000000 0.000000 
#    y 0.000000 1.886420 0.000000 
#    z 0.000000 0.000000 2.181100 
# 
# From -- ./inp_files/1469.got.cif
#   From: 2010.05.17/outbox.cif.g08.bks.cpg/sg18_1_cif.got.tgz:1469.got - 2010.06.03 22:40:56.
