data_PCOD9312313
_publ_section_title
;
Structure prediction by ZEFSAII (Michael W. Deem and Ramdas Pophale) SiO2 
 PCOD9312313
Probable space group: P 21 21 2
;
_chemical_formula_sum "Si O2"
_cell_formula_units_Z 26
_cell_length_a 5.184592
_cell_length_b 14.955428
_cell_length_c 15.927569
_cell_angle_alpha 90.000000
_cell_angle_beta 90.000000
_cell_angle_gamma 90.000000
_cell_volume 1234.988538
_symmetry_space_group_name_H-M "P 21 21 2"
_symmetry_group_IT_number 18
_symmetry_cell_setting 'orthorhombic'
loop_
_space_group_symop_operation_xyz
x,y,z
-x,-y,z
1/2+x,1/2-y,-z
1/2-x,1/2+y,-z
loop_
_atom_site_type_symbol
_atom_site_label
_atom_site_fract_x
_atom_site_fract_y
_atom_site_fract_z
Si Si1 0.206504 0.694598 0.018713
Si Si2 0.500000 0.500000 0.320552
Si Si3 0.703440 0.717114 0.607671
Si Si4 0.520358 0.895037 0.143093
Si Si5 0.705889 0.667979 0.415373
Si Si6 0.521667 0.608370 0.766214
Si Si7 0.258223 0.555552 0.155552
O O1 0.233343 0.649294 0.109256
O O2 0.479876 0.733385 0.990193
O O3 0.114876 0.621514 0.950732
O O4 0.651877 0.571349 0.376151
O O5 0.322129 0.555742 0.254741
O O6 0.689754 0.669782 0.516599
O O7 0.982726 0.763347 0.615366
O O8 0.626734 0.648120 0.679865
O O9 0.484988 0.793837 0.608147
O O10 0.235546 0.862303 0.165373
O O11 0.741035 0.857707 0.204980
O O12 0.500000 0.000000 0.157639
O O13 0.500000 0.500000 0.761783
O O14 0.500000 0.500000 0.117915
O O15 0.000000 0.500000 0.142627
#
# Coordination Sequence:
#
# PCOD9312313 Si02
#       7
#     4   2   4   4   4   4   4
#     4  12  25  41  64  95 124 165 216 264 324 377
#     4  10  26  42  70  94 126 182 222 262 322 396
#     4  10  22  41  61  95 132 163 202 276 314 374
#     4  10  22  40  60  85 121 160 203 252 311 372
#     4  10  23  40  64  92 130 168 212 253 329 374
#     4  10  21  38  64  92 119 165 209 249 318 378
#     4  10  24  44  64  91 130 170 219 267 317 382
#
# _framework density 21.052826
#
# number of rings (size 3 to 8) (size 9 to 14) (size 15 to 20)
#    0.462    1.231    0.000    3.231    3.231    5.538 
#    0.000    0.000    0.000    0.000    0.000    0.000 
#    0.000    0.000    0.000    0.000    0.000    0.000 
#
# Total GULP energy -145200.661542 kJ/mol
# GULP energy per Si atom -5584.640829 kJ/mol
# Density = 2.100491 g / cm^3
# Si number density = 21.052826 Si / 1000 Ang^3
#
#
#
# Elastic Constant Matrix: (Units=GPa)
#
#
# Indices 1 2 3 4 5 6 
#
# 1 83.5182 5.4735 20.1231 0.0000 0.0000 0.0000
# 2 5.4735 39.4027 27.2661 0.0000 0.0000 0.0000
# 3 20.1231 27.2661 64.8967 0.0000 0.0000 0.0000
# 4 0.0000 0.0000 0.0000 37.3474 0.0000 0.0000
# 5 0.0000 0.0000 0.0000 0.0000 268.8084 0.0000
# 6 0.0000 0.0000 0.0000 0.0000 0.0000 26.5916
#
#
#
# Elastic Compliance Matrix: (Units=1/GPa)
#
#
# Indices 1 2 3 4 5 6 
#
# 1 0.012994 0.001386 -0.004611 0.000000 0.000000 0.000000
# 2 0.001386 0.035930 -0.015526 0.000000 0.000000 0.000000
# 3 -0.004611 -0.015526 0.023362 0.000000 0.000000 0.000000
# 4 0.000000 0.000000 0.000000 0.026776 0.000000 0.000000
# 5 0.000000 0.000000 0.000000 0.000000 0.003720 0.000000
# 6 0.000000 0.000000 0.000000 0.000000 0.000000 0.037606
#
#
# Mechanical properties :
#
#
# Convention : Reuss Voigt Hill
#
# Bulk Modulus (GPa) = 28.74909 32.61588 30.68249
# Shear Modulus (GPa) = 26.38751 75.54650 50.96701
#
# Velocity S-wave (km/s) = 3.54417 5.99685 4.92561
# Velocity P-wave (km/s) = 5.51666 7.96716 6.85234
#
# Compressibility (1/GPa) = 0.03478371
#
# Stress axis : x y z
#
# Youngs Moduli (GPa) = 76.96048 27.83197 42.80458
#
# Poissons Ratio (x) = -0.03858 0.19739
# Poissons Ratio (y) = -0.10667 0.66457
# Poissons Ratio (z) = 0.35490 0.43211
#
# Static dielectric constant tensor:
#      x y z
#    x 1.749240 0.000000 0.000000 
#    y 0.000000 1.708370 0.000000 
#    z 0.000000 0.000000 1.752210 
# 
# From -- ./inp_files/6502.got.cif
#   From: 2010.05.17/outbox.cif.g08.bks.cpg/sg18_4_cif.got.tgz:6502.got - 2010.06.03 22:40:56.
