data_PCOD9312546
_publ_section_title
;
Structure prediction by ZEFSAII (Michael W. Deem and Ramdas Pophale) SiO2 
 PCOD9312546
Probable space group: P 21 21 2
;
_chemical_formula_sum "Si O2"
_cell_formula_units_Z 20
_cell_length_a 8.917697
_cell_length_b 16.857493
_cell_length_c 5.475249
_cell_angle_alpha 90.000000
_cell_angle_beta 90.000000
_cell_angle_gamma 90.000000
_cell_volume 823.094263
_symmetry_space_group_name_H-M "P 21 21 2"
_symmetry_group_IT_number 18
_symmetry_cell_setting 'orthorhombic'
loop_
_space_group_symop_operation_xyz
x,y,z
-x,-y,z
1/2+x,1/2-y,-z
1/2-x,1/2+y,-z
loop_
_atom_site_type_symbol
_atom_site_label
_atom_site_fract_x
_atom_site_fract_y
_atom_site_fract_z
Si Si1 0.821674 0.986536 0.483630
Si Si2 0.125739 0.066891 0.981207
Si Si3 0.670340 0.267785 0.915899
Si Si4 0.986072 0.353599 0.856083
Si Si5 0.403971 0.882449 0.643336
O O1 0.739130 0.064623 0.579613
O O2 0.773442 0.962253 0.209462
O O3 0.000000 0.000000 0.452557
O O4 0.805757 0.925636 0.710072
O O5 0.069680 0.153094 0.065354
O O6 0.000000 0.000000 0.951970
O O7 0.625822 0.209191 0.135055
O O8 0.636703 0.209803 0.690621
O O9 0.837053 0.302588 0.908334
O O10 0.990023 0.390918 0.589891
O O11 0.022893 0.405422 0.096240
#
# Coordination Sequence:
#
# PCOD9312546 Si02
#       5
#     4   4   4   4   4
#     4  10  22  39  65  94 130 175 224 277 337 398
#     4  10  23  38  65  99 132 175 226 275 337 404
#     4  10  26  42  72 100 140 179 235 278 344 406
#     4  10  25  40  70  95 136 173 233 280 337 393
#     4  10  24  41  68  99 137 176 231 280 336 404
#
# _framework density 24.298552000000001
#
# number of rings (size 3 to 8) (size 9 to 14) (size 15 to 20)
#    1.200    0.800    0.000    1.200   11.200    3.200 
#    0.000    6.000    0.000    0.000    0.000    0.000 
#    0.000    0.000    0.000    0.000    0.000    0.000 
#
# Total GULP energy -111490.303488 kJ/mol
# GULP energy per Si atom -5574.515174 kJ/mol
# Density = 2.424325 g / cm^3
# Si number density = 24.298552 Si / 1000 Ang^3
#
#
#
# Elastic Constant Matrix: (Units=GPa)
#
#
# Indices 1 2 3 4 5 6 
#
# 1 76.7634 -3.1116 15.1315 0.0000 0.0000 0.0000
# 2 -3.1116 57.8966 1.7964 0.0000 0.0000 0.0000
# 3 15.1315 1.7964 196.4981 0.0000 0.0000 0.0000
# 4 0.0000 0.0000 0.0000 20.9697 0.0000 0.0000
# 5 0.0000 0.0000 0.0000 0.0000 27.8703 0.0000
# 6 0.0000 0.0000 0.0000 0.0000 0.0000 49.0597
#
#
#
# Elastic Compliance Matrix: (Units=1/GPa)
#
#
# Indices 1 2 3 4 5 6 
#
# 1 0.013260 0.000745 -0.001028 0.000000 0.000000 0.000000
# 2 0.000745 0.017319 -0.000216 0.000000 0.000000 0.000000
# 3 -0.001028 -0.000216 0.005170 0.000000 0.000000 0.000000
# 4 0.000000 0.000000 0.000000 0.047688 0.000000 0.000000
# 5 0.000000 0.000000 0.000000 0.000000 0.035880 0.000000
# 6 0.000000 0.000000 0.000000 0.000000 0.000000 0.020383
#
#
# Mechanical properties :
#
#
# Convention : Reuss Voigt Hill
#
# Bulk Modulus (GPa) = 28.77624 39.86564 34.32094
# Shear Modulus (GPa) = 32.83377 40.73606 36.78491
#
# Velocity S-wave (km/s) = 3.67994 4.09893 3.89507
# Velocity P-wave (km/s) = 5.47033 6.23248 5.86380
#
# Compressibility (1/GPa) = 0.03475090
#
# Stress axis : x y z
#
# Youngs Moduli (GPa) = 75.41572 57.74047 193.41483
#
# Poissons Ratio (x) = -0.04299 0.19881
# Poissons Ratio (y) = -0.05615 0.04171
# Poissons Ratio (z) = 0.07752 0.01245
#
# Static dielectric constant tensor:
#      x y z
#    x 2.046530 0.000000 0.000000 
#    y 0.000000 1.959290 0.000000 
#    z 0.000000 0.000000 1.968610 
# 
# From -- ./inp_files/1092.got.cif
#   From: 2010.05.17/outbox.cif.g08.bks.cpg/sg18_1_cif.got.tgz:1092.got - 2010.06.03 22:40:56.
