data_PCOD9312450
_publ_section_title
;
Structure prediction by ZEFSAII (Michael W. Deem and Ramdas Pophale) SiO2 
 PCOD9312450
Probable space group: P 21 21 2
;
_chemical_formula_sum "Si O2"
_cell_formula_units_Z 32
_cell_length_a 6.267099
_cell_length_b 26.768961
_cell_length_c 8.860300
_cell_angle_alpha 90.000000
_cell_angle_beta 90.000000
_cell_angle_gamma 90.000000
_cell_volume 1486.436966
_symmetry_space_group_name_H-M "P 21 21 2"
_symmetry_group_IT_number 18
_symmetry_cell_setting 'orthorhombic'
loop_
_space_group_symop_operation_xyz
x,y,z
-x,-y,z
1/2+x,1/2-y,-z
1/2-x,1/2+y,-z
loop_
_atom_site_type_symbol
_atom_site_label
_atom_site_fract_x
_atom_site_fract_y
_atom_site_fract_z
Si Si1 0.779539 0.885675 0.212917
Si Si2 0.886730 0.550854 0.873109
Si Si3 0.200355 0.866016 0.630691
Si Si4 0.401053 0.375379 0.044056
Si Si5 0.065681 0.703620 0.332252
Si Si6 0.213580 0.763765 0.052017
Si Si7 0.397985 0.693876 0.575882
Si Si8 0.902351 0.050173 0.415060
O O1 0.548654 0.908522 0.196671
O O2 0.815725 0.829207 0.267796
O O3 0.889330 0.888769 0.050824
O O4 0.910754 0.916094 0.340283
O O5 0.759267 0.579566 0.003312
O O6 0.737518 0.536504 0.731385
O O7 0.000000 0.500000 0.923928
O O8 0.406789 0.840922 0.707660
O O9 0.220321 0.917739 0.540847
O O10 0.108454 0.829940 0.498931
O O11 0.053017 0.870970 0.778533
O O12 0.309289 0.323528 0.972588
O O13 0.925120 0.747747 0.404259
O O14 0.201991 0.733936 0.209781
O O15 0.217007 0.681535 0.457683
O O16 0.466116 0.752860 0.004514
O O17 0.000000 0.000000 0.481340
#
# Coordination Sequence:
#
# PCOD9312450 Si02
#       8
#     4   4   4   4   4   4   4   4
#     4  10  22  41  67  94 130 175 232 293 356 434
#     4  11  23  43  72  97 134 179 243 301 365 444
#     4  11  24  45  61 100 140 180 231 301 359 442
#     4  11  25  42  67 103 139 188 238 291 373 441
#     4  12  23  39  68  96 142 186 244 288 360 433
#     4  12  27  46  72 105 152 202 243 300 368 448
#     4  11  23  38  64  96 130 185 230 294 345 427
#     4  10  21  43  69  95 127 176 237 299 371 429
#
# _framework density 21.527989999999999
#
# number of rings (size 3 to 8) (size 9 to 14) (size 15 to 20)
#    0.000    1.000    5.000    1.500    1.750    2.000 
#    2.250    0.625    0.000    0.000    0.000    0.000 
#    0.000    0.000    0.000    0.000    0.000    0.000 
#
# Total GULP energy -178276.789873 kJ/mol
# GULP energy per Si atom -5571.149684 kJ/mol
# Density = 2.147899 g / cm^3
# Si number density = 21.527990 Si / 1000 Ang^3
#
#
#
# Elastic Constant Matrix: (Units=GPa)
#
#
# Indices 1 2 3 4 5 6 
#
# 1 57.8787 13.7208 -0.7558 0.0000 0.0000 0.0000
# 2 13.7208 99.0117 0.2032 0.0000 0.0000 0.0000
# 3 -0.7558 0.2032 58.1530 0.0000 0.0000 0.0000
# 4 0.0000 0.0000 0.0000 18.6454 0.0000 0.0000
# 5 0.0000 0.0000 0.0000 0.0000 14.1636 0.0000
# 6 0.0000 0.0000 0.0000 0.0000 0.0000 26.0870
#
#
#
# Elastic Compliance Matrix: (Units=1/GPa)
#
#
# Indices 1 2 3 4 5 6 
#
# 1 0.017868 -0.002477 0.000241 0.000000 0.000000 0.000000
# 2 -0.002477 0.010443 -0.000069 0.000000 0.000000 0.000000
# 3 0.000241 -0.000069 0.017199 0.000000 0.000000 0.000000
# 4 0.000000 0.000000 0.000000 0.053632 0.000000 0.000000
# 5 0.000000 0.000000 0.000000 0.000000 0.070604 0.000000
# 6 0.000000 0.000000 0.000000 0.000000 0.000000 0.038333
#
#
# Mechanical properties :
#
#
# Convention : Reuss Voigt Hill
#
# Bulk Modulus (GPa) = 24.44895 26.81999 25.63447
# Shear Modulus (GPa) = 22.09240 25.23756 23.66498
#
# Velocity S-wave (km/s) = 3.20694 3.42762 3.31911
# Velocity P-wave (km/s) = 5.00940 5.30566 5.15966
#
# Compressibility (1/GPa) = 0.04090155
#
# Stress axis : x y z
#
# Youngs Moduli (GPa) = 55.96677 95.75656 58.14162
#
# Poissons Ratio (x) = 0.23715 -0.01401
# Poissons Ratio (y) = 0.13861 0.00399
# Poissons Ratio (z) = -0.01348 0.00658
#
# Static dielectric constant tensor:
#      x y z
#    x 1.860930 0.000000 0.000000 
#    y 0.000000 1.786970 0.000000 
#    z 0.000000 0.000000 1.815870 
# 
# From -- ./inp_files/2678.got.cif
#   From: 2010.05.17/outbox.cif.g08.bks.cpg/sg18_2_cif.got.tgz:2678.got - 2010.06.03 22:40:56.
