data_PCOD9312664
_publ_section_title
;
Structure prediction by ZEFSAII (Michael W. Deem and Ramdas Pophale) SiO2 
 PCOD9312664
Probable space group: P 21 21 2
;
_chemical_formula_sum "Si O2"
_cell_formula_units_Z 32
_cell_length_a 12.043667
_cell_length_b 9.184446
_cell_length_c 12.452760
_cell_angle_alpha 90.000000
_cell_angle_beta 90.000000
_cell_angle_gamma 90.000000
_cell_volume 1377.454690
_symmetry_space_group_name_H-M "P 21 21 2"
_symmetry_group_IT_number 18
_symmetry_cell_setting 'orthorhombic'
loop_
_space_group_symop_operation_xyz
x,y,z
-x,-y,z
1/2+x,1/2-y,-z
1/2-x,1/2+y,-z
loop_
_atom_site_type_symbol
_atom_site_label
_atom_site_fract_x
_atom_site_fract_y
_atom_site_fract_z
Si Si1 0.086427 0.884758 0.282279
Si Si2 0.068972 0.139921 0.641912
Si Si3 0.196366 0.402589 0.578067
Si Si4 0.877105 0.046965 0.045337
Si Si5 0.437796 0.867736 0.826633
Si Si6 0.737620 0.052452 0.661338
Si Si7 0.236104 0.695362 0.941549
Si Si8 0.625543 0.831342 0.280178
O O1 0.188611 0.858562 0.362215
O O2 0.018622 0.749107 0.231919
O O3 0.131306 0.963859 0.174309
O O4 0.000000 0.000000 0.332395
O O5 0.122267 0.257823 0.561965
O O6 0.988455 0.240490 0.712873
O O7 0.170737 0.061937 0.702365
O O8 0.000000 0.000000 0.598877
O O9 0.218813 0.474836 0.463739
O O10 0.134339 0.521043 0.652411
O O11 0.787679 0.938837 0.995462
O O12 0.000000 0.000000 0.013798
O O13 0.843147 0.205994 0.011690
O O14 0.371131 0.948411 0.731705
O O15 0.344803 0.783604 0.897083
O O16 0.500000 0.000000 0.886259
O O17 0.786916 0.215336 0.670817
O O18 0.163195 0.644571 0.840880
#
# Coordination Sequence:
#
# PCOD9312664 Si02
#       8
#     4   4   4   4   4   4   4   4
#     4  11  22  44  69  95 133 178 227 280 343 398
#     4  10  23  41  59  91 137 173 219 280 335 388
#     4  12  22  40  69  97 135 185 231 278 332 414
#     4  11  24  47  70 103 134 174 227 284 347 409
#     4  11  23  40  65  96 137 177 227 280 339 405
#     4  10  23  40  61  99 136 176 234 279 334 398
#     4  11  24  45  69 100 134 175 228 284 342 420
#     4  10  22  43  64  93 136 178 223 279 339 408
#
# _framework density 23.231252999999999
#
# number of rings (size 3 to 8) (size 9 to 14) (size 15 to 20)
#    0.000    1.250    3.750    2.625    1.750    7.000 
#    2.250    0.000    0.000    0.000    0.000    0.000 
#    0.000    0.000    0.000    0.000    0.000    0.000 
#
# Total GULP energy -178862.031362 kJ/mol
# GULP energy per Si atom -5589.438480 kJ/mol
# Density = 2.317838 g / cm^3
# Si number density = 23.231253 Si / 1000 Ang^3
#
#
#
# Elastic Constant Matrix: (Units=GPa)
#
#
# Indices 1 2 3 4 5 6 
#
# 1 94.7145 33.3602 14.6826 0.0000 0.0000 0.0000
# 2 33.3602 88.4240 7.2983 0.0000 0.0000 0.0000
# 3 14.6826 7.2983 34.5301 0.0000 0.0000 0.0000
# 4 0.0000 0.0000 0.0000 19.3451 0.0000 0.0000
# 5 0.0000 0.0000 0.0000 0.0000 14.3894 0.0000
# 6 0.0000 0.0000 0.0000 0.0000 0.0000 53.6584
#
#
#
# Elastic Compliance Matrix: (Units=1/GPa)
#
#
# Indices 1 2 3 4 5 6 
#
# 1 0.012831 -0.004469 -0.004512 0.000000 0.000000 0.000000
# 2 -0.004469 0.013066 -0.000862 0.000000 0.000000 0.000000
# 3 -0.004512 -0.000862 0.031061 0.000000 0.000000 0.000000
# 4 0.000000 0.000000 0.000000 0.051693 0.000000 0.000000
# 5 0.000000 0.000000 0.000000 0.000000 0.069496 0.000000
# 6 0.000000 0.000000 0.000000 0.000000 0.000000 0.018636
#
#
# Mechanical properties :
#
#
# Convention : Reuss Voigt Hill
#
# Bulk Modulus (GPa) = 26.82778 36.48342 31.65560
# Shear Modulus (GPa) = 21.84444 28.30041 25.07242
#
# Velocity S-wave (km/s) = 3.06976 3.49406 3.28876
# Velocity P-wave (km/s) = 4.91302 5.65832 5.29879
#
# Compressibility (1/GPa) = 0.03727479
#
# Stress axis : x y z
#
# Youngs Moduli (GPa) = 77.93419 76.53374 32.19498
#
# Poissons Ratio (x) = 0.34200 0.14525
# Poissons Ratio (y) = 0.34825 0.02774
# Poissons Ratio (z) = 0.35160 0.06594
#
# Static dielectric constant tensor:
#      x y z
#    x 1.908560 0.000000 0.000000 
#    y 0.000000 1.912500 0.000000 
#    z 0.000000 0.000000 1.809100 
# 
# From -- ./inp_files/6925.got.cif
#   From: 2010.05.17/outbox.cif.g08.bks.cpg/sg18_4_cif.got.tgz:6925.got - 2010.06.03 22:40:56.
