data_PCOD9312695
_publ_section_title
;
Structure prediction by ZEFSAII (Michael W. Deem and Ramdas Pophale) SiO2 
 PCOD9312695
Probable space group: P 21 21 2
;
_chemical_formula_sum "Si O2"
_cell_formula_units_Z 20
_cell_length_a 10.270171
_cell_length_b 8.394881
_cell_length_c 8.785111
_cell_angle_alpha 90.000000
_cell_angle_beta 90.000000
_cell_angle_gamma 90.000000
_cell_volume 757.424715
_symmetry_space_group_name_H-M "P 21 21 2"
_symmetry_group_IT_number 18
_symmetry_cell_setting 'orthorhombic'
loop_
_space_group_symop_operation_xyz
x,y,z
-x,-y,z
1/2+x,1/2-y,-z
1/2-x,1/2+y,-z
loop_
_atom_site_type_symbol
_atom_site_label
_atom_site_fract_x
_atom_site_fract_y
_atom_site_fract_z
Si Si1 0.460144 0.660729 0.334269
Si Si2 0.173817 0.539846 0.335661
Si Si3 0.628481 0.663517 0.867406
Si Si4 0.500000 0.000000 0.379561
Si Si5 0.901617 0.648062 0.049861
Si Si6 0.500000 0.500000 0.627990
O O1 0.500000 0.500000 0.247608
O O2 0.310874 0.622850 0.358678
O O3 0.516505 0.641313 0.505913
O O4 0.495902 0.836698 0.286375
O O5 0.108272 0.680280 0.238491
O O6 0.160713 0.392578 0.218046
O O7 0.118330 0.496212 0.499537
O O8 0.495163 0.695865 0.963324
O O9 0.617813 0.518564 0.747270
O O10 0.768186 0.663215 0.949678
O O11 0.000000 0.500000 0.011506
#
# Coordination Sequence:
#
# PCOD9312695 Si02
#       6
#     4   4   4   2   4   2
#     4  10  25  43  71 108 140 195 248 299 388 450
#     4  11  22  46  70  99 140 192 250 308 378 454
#     4  11  23  44  72 101 145 196 256 312 391 459
#     4  12  22  46  70  98 152 190 240 308 376 450
#     4  10  24  45  70 104 143 199 253 321 388 457
#     4  10  22  44  62 102 140 192 246 312 378 456
#
# _framework density 26.405263999999999
#
# number of rings (size 3 to 8) (size 9 to 14) (size 15 to 20)
#    0.600    0.800    5.000    0.000   11.200    1.600 
#    1.800    0.000    0.000    0.000    0.000    0.000 
#    0.000    0.000    0.000    0.000    0.000    0.000 
#
# Total GULP energy -111369.071861 kJ/mol
# GULP energy per Si atom -5568.453593 kJ/mol
# Density = 2.634516 g / cm^3
# Si number density = 26.405264 Si / 1000 Ang^3
#
#
#
# Elastic Constant Matrix: (Units=GPa)
#
#
# Indices 1 2 3 4 5 6 
#
# 1 71.5232 18.4019 26.7104 0.0000 0.0000 0.0000
# 2 18.4019 161.2368 48.3477 0.0000 0.0000 0.0000
# 3 26.7104 48.3477 102.1315 0.0000 0.0000 0.0000
# 4 0.0000 0.0000 0.0000 42.8404 0.0000 0.0000
# 5 0.0000 0.0000 0.0000 0.0000 34.3646 0.0000
# 6 0.0000 0.0000 0.0000 0.0000 0.0000 32.4290
#
#
#
# Elastic Compliance Matrix: (Units=1/GPa)
#
#
# Indices 1 2 3 4 5 6 
#
# 1 0.015553 -0.000647 -0.003761 0.000000 0.000000 0.000000
# 2 -0.000647 0.007255 -0.003265 0.000000 0.000000 0.000000
# 3 -0.003761 -0.003265 0.012321 0.000000 0.000000 0.000000
# 4 0.000000 0.000000 0.000000 0.023342 0.000000 0.000000
# 5 0.000000 0.000000 0.000000 0.000000 0.029100 0.000000
# 6 0.000000 0.000000 0.000000 0.000000 0.000000 0.030837
#
#
# Mechanical properties :
#
#
# Convention : Reuss Voigt Hill
#
# Bulk Modulus (GPa) = 50.55282 57.97905 54.26594
# Shear Modulus (GPa) = 35.62581 38.02221 36.82401
#
# Velocity S-wave (km/s) = 3.67712 3.79878 3.73845
# Velocity P-wave (km/s) = 6.10040 6.42231 6.26342
#
# Compressibility (1/GPa) = 0.01978129
#
# Stress axis : x y z
#
# Youngs Moduli (GPa) = 64.29802 137.83594 81.16481
#
# Poissons Ratio (x) = 0.08921 0.30527
# Poissons Ratio (y) = 0.04162 0.26502
# Poissons Ratio (z) = 0.24183 0.45006
#
# Static dielectric constant tensor:
#      x y z
#    x 2.468720 0.000000 0.000000 
#    y 0.000000 2.257510 0.000000 
#    z 0.000000 0.000000 2.181610 
# 
# From -- ./inp_files/5448.got.cif
#   From: 2010.05.17/outbox.cif.g08.bks.cpg/sg18_3_cif.got.tgz:5448.got - 2010.06.03 22:40:56.
