data_PCOD9312799
_publ_section_title
;
Structure prediction by ZEFSAII (Michael W. Deem and Ramdas Pophale) SiO2 
 PCOD9312799
Probable space group: P 21 21 2
;
_chemical_formula_sum "Si O2"
_cell_formula_units_Z 26
_cell_length_a 12.836775
_cell_length_b 16.415500
_cell_length_c 5.517504
_cell_angle_alpha 90.000000
_cell_angle_beta 90.000000
_cell_angle_gamma 90.000000
_cell_volume 1162.659919
_symmetry_space_group_name_H-M "P 21 21 2"
_symmetry_group_IT_number 18
_symmetry_cell_setting 'orthorhombic'
loop_
_space_group_symop_operation_xyz
x,y,z
-x,-y,z
1/2+x,1/2-y,-z
1/2-x,1/2+y,-z
loop_
_atom_site_type_symbol
_atom_site_label
_atom_site_fract_x
_atom_site_fract_y
_atom_site_fract_z
Si Si1 0.645936 0.359865 0.976572
Si Si2 0.629775 0.852991 0.789692
Si Si3 0.818129 0.043499 0.005864
Si Si4 0.700573 0.086090 0.490328
Si Si5 0.940488 0.202199 0.946766
Si Si6 0.243751 0.734519 0.604656
Si Si7 0.000000 0.500000 0.332892
O O1 0.627563 0.455837 0.981908
O O2 0.558205 0.314864 0.134102
O O3 0.657455 0.309390 0.728201
O O4 0.764988 0.352898 0.058073
O O5 0.561537 0.775436 0.861797
O O6 0.679797 0.836604 0.529244
O O7 0.567208 0.935372 0.816514
O O8 0.743272 0.048775 0.240107
O O9 0.899577 0.116480 0.048326
O O10 0.761114 0.057335 0.741484
O O11 0.714291 0.184264 0.469387
O O12 0.582526 0.054994 0.521093
O O13 0.849834 0.226641 0.762887
#
# Coordination Sequence:
#
# PCOD9312799 Si02
#       7
#     4   4   4   4   4   4   2
#     4  11  23  41  70 101 139 184 243 302 354 434
#     4  11  23  46  63 102 142 180 247 289 370 431
#     4  11  23  47  68 104 141 182 237 301 353 429
#     4  11  24  45  70 100 145 185 239 294 362 433
#     4  10  23  43  70  97 136 194 235 293 368 432
#     4  10  23  45  66  98 143 189 237 300 360 439
#     4  12  24  42  72 108 140 196 234 310 364 432
#
# _framework density 22.362513
#
# number of rings (size 3 to 8) (size 9 to 14) (size 15 to 20)
#    0.000    1.231    3.077    2.308    0.000    3.077 
#    5.538    1.538    0.000    0.000    0.000    0.000 
#    0.000    0.000    0.000    0.000    0.000    0.000 
#
# Total GULP energy -144891.062585 kJ/mol
# GULP energy per Si atom -5572.733176 kJ/mol
# Density = 2.231161 g / cm^3
# Si number density = 22.362513 Si / 1000 Ang^3
#
#
#
# Elastic Constant Matrix: (Units=GPa)
#
#
# Indices 1 2 3 4 5 6 
#
# 1 85.6045 52.3441 13.8816 0.0000 0.0000 0.0000
# 2 52.3441 120.9375 6.1429 0.0000 0.0000 0.0000
# 3 13.8816 6.1429 52.4544 0.0000 0.0000 0.0000
# 4 0.0000 0.0000 0.0000 9.8684 0.0000 0.0000
# 5 0.0000 0.0000 0.0000 0.0000 8.5442 0.0000
# 6 0.0000 0.0000 0.0000 0.0000 0.0000 13.1530
#
#
#
# Elastic Compliance Matrix: (Units=1/GPa)
#
#
# Indices 1 2 3 4 5 6 
#
# 1 0.016520 -0.006969 -0.003556 0.000000 0.000000 0.000000
# 2 -0.006969 0.011259 0.000526 0.000000 0.000000 0.000000
# 3 -0.003556 0.000526 0.019944 0.000000 0.000000 0.000000
# 4 0.000000 0.000000 0.000000 0.101334 0.000000 0.000000
# 5 0.000000 0.000000 0.000000 0.000000 0.117038 0.000000
# 6 0.000000 0.000000 0.000000 0.000000 0.000000 0.076028
#
#
# Mechanical properties :
#
#
# Convention : Reuss Voigt Hill
#
# Bulk Modulus (GPa) = 36.07045 44.85929 40.46487
# Shear Modulus (GPa) = 13.46396 18.75498 16.10947
#
# Velocity S-wave (km/s) = 2.45639 2.89914 2.68690
# Velocity P-wave (km/s) = 4.92037 5.59556 5.26879
#
# Compressibility (1/GPa) = 0.02772352
#
# Stress axis : x y z
#
# Youngs Moduli (GPa) = 60.53342 88.82148 50.14154
#
# Poissons Ratio (x) = 0.61904 0.17829
# Poissons Ratio (y) = 0.42189 -0.02637
# Poissons Ratio (z) = 0.21523 -0.04671
#
# Static dielectric constant tensor:
#      x y z
#    x 1.795480 0.000000 0.000000 
#    y 0.000000 1.838770 0.000000 
#    z 0.000000 0.000000 1.987030 
# 
# From -- ./inp_files/1157.got.cif
#   From: 2010.05.17/outbox.cif.g08.bks.cpg/sg18_1_cif.got.tgz:1157.got - 2010.06.03 22:40:56.
