data_PCOD9312925
_publ_section_title
;
Structure prediction by ZEFSAII (Michael W. Deem and Ramdas Pophale) SiO2 
 PCOD9312925
Probable space group: P 21 21 2
;
_chemical_formula_sum "Si O2"
_cell_formula_units_Z 12
_cell_length_a 14.240424
_cell_length_b 5.840403
_cell_length_c 4.957237
_cell_angle_alpha 90.000000
_cell_angle_beta 90.000000
_cell_angle_gamma 90.000000
_cell_volume 412.292484
_symmetry_space_group_name_H-M "P 21 21 2"
_symmetry_group_IT_number 18
_symmetry_cell_setting 'orthorhombic'
loop_
_space_group_symop_operation_xyz
x,y,z
-x,-y,z
1/2+x,1/2-y,-z
1/2-x,1/2+y,-z
loop_
_atom_site_type_symbol
_atom_site_label
_atom_site_fract_x
_atom_site_fract_y
_atom_site_fract_z
Si Si1 0.369657 0.753624 0.819112
Si Si2 0.798939 0.496677 0.681229
Si Si3 0.968134 0.245479 0.816736
O O1 0.311622 0.543151 0.699601
O O2 0.336614 0.950445 0.615582
O O3 0.479512 0.741780 0.890412
O O4 0.328286 0.801943 0.116475
O O5 0.857042 0.279113 0.797555
O O6 0.000000 0.500000 0.709949
O O7 0.000000 0.000000 0.697576
#
# Coordination Sequence:
#
# PCOD9312925 Si02
#       3
#     4   4   4
#     4  11  24  45  73 111 150 198 251 311 374 447
#     4  11  24  45  73 111 150 198 251 311 374 447
#     4  10  24  46  74 110 150 192 246 308 372 438
#
# _framework density 29.105550999999998
#
# number of rings (size 3 to 8) (size 9 to 14) (size 15 to 20)
#    0.000    1.333    0.000    4.000    0.000   17.333 
#    0.000   13.333    0.000    0.000    0.000    0.000 
#    0.000    0.000    0.000    0.000    0.000    0.000 
#
# Total GULP energy -67021.093677 kJ/mol
# GULP energy per Si atom -5585.091140 kJ/mol
# Density = 2.903931 g / cm^3
# Si number density = 29.105551 Si / 1000 Ang^3
#
#
#
# Elastic Constant Matrix: (Units=GPa)
#
#
# Indices 1 2 3 4 5 6 
#
# 1 107.6627 25.5846 49.1287 0.0000 0.0000 0.0000
# 2 25.5846 164.9119 37.4715 0.0000 0.0000 0.0000
# 3 49.1287 37.4715 134.0473 0.0000 0.0000 0.0000
# 4 0.0000 0.0000 0.0000 43.1538 0.0000 0.0000
# 5 0.0000 0.0000 0.0000 0.0000 47.4026 0.0000
# 6 0.0000 0.0000 0.0000 0.0000 0.0000 56.0027
#
#
#
# Elastic Compliance Matrix: (Units=1/GPa)
#
#
# Indices 1 2 3 4 5 6 
#
# 1 0.011268 -0.000865 -0.003888 0.000000 0.000000 0.000000
# 2 -0.000865 0.006541 -0.001512 0.000000 0.000000 0.000000
# 3 -0.003888 -0.001512 0.009308 0.000000 0.000000 0.000000
# 4 0.000000 0.000000 0.000000 0.023173 0.000000 0.000000
# 5 0.000000 0.000000 0.000000 0.000000 0.021096 0.000000
# 6 0.000000 0.000000 0.000000 0.000000 0.000000 0.017856
#
#
# Mechanical properties :
#
#
# Convention : Reuss Voigt Hill
#
# Bulk Modulus (GPa) = 68.54840 70.11017 69.32928
# Shear Modulus (GPa) = 46.88952 48.94096 47.91524
#
# Velocity S-wave (km/s) = 4.01810 4.10506 4.06181
# Velocity P-wave (km/s) = 6.71786 6.82709 6.77270
#
# Compressibility (1/GPa) = 0.01458823
#
# Stress axis : x y z
#
# Youngs Moduli (GPa) = 88.74747 152.87065 107.43906
#
# Poissons Ratio (x) = 0.13218 0.41772
# Poissons Ratio (y) = 0.07674 0.16242
# Poissons Ratio (z) = 0.34505 0.23109
#
# Static dielectric constant tensor:
#      x y z
#    x 2.427450 0.000000 0.000000 
#    y 0.000000 2.331850 0.000000 
#    z 0.000000 0.000000 2.133160 
# 
# From -- ./inp_files/1680.got.cif
#   From: 2010.05.17/outbox.cif.g08.bks.cpg/sg18_1_cif.got.tgz:1680.got - 2010.06.03 22:40:56.
