data_PCOD9312808
_publ_section_title
;
Structure prediction by ZEFSAII (Michael W. Deem and Ramdas Pophale) SiO2 
 PCOD9312808
Probable space group: P 21 21 2
;
_chemical_formula_sum "Si O2"
_cell_formula_units_Z 26
_cell_length_a 7.584666
_cell_length_b 18.205236
_cell_length_c 6.995005
_cell_angle_alpha 90.000000
_cell_angle_beta 90.000000
_cell_angle_gamma 90.000000
_cell_volume 965.874729
_symmetry_space_group_name_H-M "P 21 21 2"
_symmetry_group_IT_number 18
_symmetry_cell_setting 'orthorhombic'
loop_
_space_group_symop_operation_xyz
x,y,z
-x,-y,z
1/2+x,1/2-y,-z
1/2-x,1/2+y,-z
loop_
_atom_site_type_symbol
_atom_site_label
_atom_site_fract_x
_atom_site_fract_y
_atom_site_fract_z
Si Si1 0.079048 0.874950 0.825347
Si Si2 0.262159 0.529501 0.099720
Si Si3 0.000000 0.500000 0.354380
Si Si4 0.271317 0.969501 0.288156
Si Si5 0.143453 0.823879 0.413122
Si Si6 0.368072 0.722263 0.863372
Si Si7 0.535157 0.167062 0.158573
O O1 0.138990 0.830395 0.639931
O O2 0.906746 0.924920 0.788408
O O3 0.994000 0.824309 0.990771
O O4 0.211339 0.941946 0.868928
O O5 0.083345 0.555841 0.199993
O O6 0.280998 0.528998 0.869750
O O7 0.841128 0.508955 0.504009
O O8 0.124668 0.907718 0.331778
O O9 0.430597 0.918904 0.201026
O O10 0.331996 0.800006 0.322734
O O11 0.981988 0.778686 0.328356
O O12 0.373415 0.801360 0.966919
O O13 0.171068 0.688990 0.844290
#
# Coordination Sequence:
#
# PCOD9312808 Si02
#       7
#     4   4   2   4   4   4   4
#     4  11  25  44  68 101 140 187 243 295 356 438
#     4  11  24  43  66 101 141 191 237 299 359 434
#     4  12  24  40  68 100 144 180 244 288 368 424
#     4  10  23  44  67 100 144 186 235 301 357 429
#     4  10  23  47  66 103 143 180 243 297 355 429
#     4  12  23  47  73 103 142 194 238 299 366 438
#     4  10  23  45  75 102 141 191 238 299 367 431
#
# _framework density 26.918604999999999
#
# number of rings (size 3 to 8) (size 9 to 14) (size 15 to 20)
#    0.923    0.308    4.615    0.462    6.462    0.000 
#    2.769    1.538    0.000    0.000    0.000    0.000 
#    0.000    0.000    0.000    0.000    0.000    0.000 
#
# Total GULP energy -145065.576152 kJ/mol
# GULP energy per Si atom -5579.445237 kJ/mol
# Density = 2.685734 g / cm^3
# Si number density = 26.918605 Si / 1000 Ang^3
#
#
#
# Elastic Constant Matrix: (Units=GPa)
#
#
# Indices 1 2 3 4 5 6 
#
# 1 168.3628 2.9755 47.6917 0.0000 0.0000 0.0000
# 2 2.9755 72.2627 14.3699 0.0000 0.0000 0.0000
# 3 47.6917 14.3699 171.0498 0.0000 0.0000 0.0000
# 4 0.0000 0.0000 0.0000 35.6242 0.0000 0.0000
# 5 0.0000 0.0000 0.0000 0.0000 44.8823 0.0000
# 6 0.0000 0.0000 0.0000 0.0000 0.0000 36.4915
#
#
#
# Elastic Compliance Matrix: (Units=1/GPa)
#
#
# Indices 1 2 3 4 5 6 
#
# 1 0.006450 0.000094 -0.001806 0.000000 0.000000 0.000000
# 2 0.000094 0.014075 -0.001209 0.000000 0.000000 0.000000
# 3 -0.001806 -0.001209 0.006451 0.000000 0.000000 0.000000
# 4 0.000000 0.000000 0.000000 0.028071 0.000000 0.000000
# 5 0.000000 0.000000 0.000000 0.000000 0.022280 0.000000
# 6 0.000000 0.000000 0.000000 0.000000 0.000000 0.027404
#
#
# Mechanical properties :
#
#
# Convention : Reuss Voigt Hill
#
# Bulk Modulus (GPa) = 47.31789 60.19439 53.75614
# Shear Modulus (GPa) = 42.51074 46.50880 44.50977
#
# Velocity S-wave (km/s) = 3.97827 4.16114 4.07073
# Velocity P-wave (km/s) = 6.22241 6.74514 6.48904
#
# Compressibility (1/GPa) = 0.02113365
#
# Stress axis : x y z
#
# Youngs Moduli (GPa) = 155.05054 71.04865 155.00632
#
# Poissons Ratio (x) = -0.00665 0.27996
# Poissons Ratio (y) = -0.01451 0.18733
# Poissons Ratio (z) = 0.28004 0.08586
#
# Static dielectric constant tensor:
#      x y z
#    x 2.154710 0.000000 0.000000 
#    y 0.000000 2.211970 0.000000 
#    z 0.000000 0.000000 2.080370 
# 
# From -- ./inp_files/707.got.cif
#   From: 2010.05.17/outbox.cif.g08.bks.cpg/sg18_1_cif.got.tgz:707.got - 2010.06.03 22:40:56.
