data_PCOD9312644
_publ_section_title
;
Structure prediction by ZEFSAII (Michael W. Deem and Ramdas Pophale) SiO2 
 PCOD9312644
Probable space group: P 21 21 2
;
_chemical_formula_sum "Si O2"
_cell_formula_units_Z 20
_cell_length_a 7.763463
_cell_length_b 16.154803
_cell_length_c 6.069828
_cell_angle_alpha 90.000000
_cell_angle_beta 90.000000
_cell_angle_gamma 90.000000
_cell_volume 761.260925
_symmetry_space_group_name_H-M "P 21 21 2"
_symmetry_group_IT_number 18
_symmetry_cell_setting 'orthorhombic'
loop_
_space_group_symop_operation_xyz
x,y,z
-x,-y,z
1/2+x,1/2-y,-z
1/2-x,1/2+y,-z
loop_
_atom_site_type_symbol
_atom_site_label
_atom_site_fract_x
_atom_site_fract_y
_atom_site_fract_z
Si Si1 0.901227 0.871852 0.875579
Si Si2 0.179181 0.506673 0.829918
Si Si3 0.107167 0.647779 0.487824
Si Si4 0.905649 0.089525 0.475093
Si Si5 0.628257 0.262740 0.738094
O O1 0.749742 0.862171 0.699504
O O2 0.074807 0.894480 0.740596
O O3 0.826819 0.944174 0.035439
O O4 0.900910 0.785324 0.008792
O O5 0.117165 0.566664 0.632735
O O6 0.252481 0.426748 0.701654
O O7 0.000000 0.500000 0.966682
O O8 0.180898 0.717030 0.655545
O O9 0.936877 0.677567 0.364368
O O10 0.008458 0.166059 0.371652
O O11 0.000000 0.000000 0.460285
#
# Coordination Sequence:
#
# PCOD9312644 Si02
#       5
#     4   4   4   4   4
#     4  10  22  42  68  93 132 172 222 252 331 399
#     4  11  25  43  67  99 134 165 215 284 323 374
#     4  10  23  43  64  91 134 168 212 266 323 385
#     4  11  21  42  69  90 125 177 217 260 323 395
#     4  10  23  41  65  91 128 172 216 263 319 390
#
# _framework density 26.272200000000002
#
# number of rings (size 3 to 8) (size 9 to 14) (size 15 to 20)
#    0.000    1.600    6.000    0.000    5.600    7.200 
#    0.000    0.000    0.000    0.000    0.000    0.000 
#    0.000    0.000    0.000    0.000    0.000    0.000 
#
# Total GULP energy -111638.091700 kJ/mol
# GULP energy per Si atom -5581.904585 kJ/mol
# Density = 2.621240 g / cm^3
# Si number density = 26.272200 Si / 1000 Ang^3
#
#
#
# Elastic Constant Matrix: (Units=GPa)
#
#
# Indices 1 2 3 4 5 6 
#
# 1 77.4303 2.5286 26.2624 0.0000 0.0000 0.0000
# 2 2.5286 59.6715 17.5929 0.0000 0.0000 0.0000
# 3 26.2624 17.5929 110.7026 0.0000 0.0000 0.0000
# 4 0.0000 0.0000 0.0000 38.2946 0.0000 0.0000
# 5 0.0000 0.0000 0.0000 0.0000 36.4858 0.0000
# 6 0.0000 0.0000 0.0000 0.0000 0.0000 45.7587
#
#
#
# Elastic Compliance Matrix: (Units=1/GPa)
#
#
# Indices 1 2 3 4 5 6 
#
# 1 0.014054 0.000406 -0.003399 0.000000 0.000000 0.000000
# 2 0.000406 0.017594 -0.002892 0.000000 0.000000 0.000000
# 3 -0.003399 -0.002892 0.010299 0.000000 0.000000 0.000000
# 4 0.000000 0.000000 0.000000 0.026113 0.000000 0.000000
# 5 0.000000 0.000000 0.000000 0.000000 0.027408 0.000000
# 6 0.000000 0.000000 0.000000 0.000000 0.000000 0.021854
#
#
# Mechanical properties :
#
#
# Convention : Reuss Voigt Hill
#
# Bulk Modulus (GPa) = 33.13673 37.84138 35.48906
# Shear Modulus (GPa) = 35.93210 37.53586 36.73398
#
# Velocity S-wave (km/s) = 3.70223 3.78395 3.74332
# Velocity P-wave (km/s) = 5.56018 5.79016 5.67633
#
# Compressibility (1/GPa) = 0.03017799
#
# Stress axis : x y z
#
# Youngs Moduli (GPa) = 71.15239 56.83767 97.09505
#
# Poissons Ratio (x) = -0.02310 0.33000
# Poissons Ratio (y) = -0.02892 0.28084
# Poissons Ratio (z) = 0.24183 0.16440
#
# Static dielectric constant tensor:
#      x y z
#    x 2.238160 0.000000 0.000000 
#    y 0.000000 2.057430 0.000000 
#    z 0.000000 0.000000 2.126060 
# 
# From -- ./inp_files/508.got.cif
#   From: 2010.05.17/outbox.cif.g08.bks.cpg/sg18_1_cif.got.tgz:508.got - 2010.06.03 22:40:56.
