data_PCOD9312125
_publ_section_title
;
Structure prediction by ZEFSAII (Michael W. Deem and Ramdas Pophale) SiO2 
 PCOD9312125
Probable space group: P 21 21 2
;
_chemical_formula_sum "Si O2"
_cell_formula_units_Z 22
_cell_length_a 11.385368
_cell_length_b 5.843146
_cell_length_c 14.075281
_cell_angle_alpha 90.000000
_cell_angle_beta 90.000000
_cell_angle_gamma 90.000000
_cell_volume 936.377316
_symmetry_space_group_name_H-M "P 21 21 2"
_symmetry_group_IT_number 18
_symmetry_cell_setting 'orthorhombic'
loop_
_space_group_symop_operation_xyz
x,y,z
-x,-y,z
1/2+x,1/2-y,-z
1/2-x,1/2+y,-z
loop_
_atom_site_type_symbol
_atom_site_label
_atom_site_fract_x
_atom_site_fract_y
_atom_site_fract_z
Si Si1 0.107657 0.373896 0.703043
Si Si2 0.500000 0.500000 0.158218
Si Si3 0.319117 0.148363 0.119123
Si Si4 0.000000 0.500000 0.020810
Si Si5 0.064709 0.216371 0.180803
Si Si6 0.780840 0.305805 0.451744
Si Si7 0.500000 0.000000 0.648358
O O1 0.162619 0.561523 0.772943
O O2 0.200069 0.251063 0.638010
O O3 0.000000 0.500000 0.649604
O O4 0.054596 0.189787 0.774219
O O5 0.394618 0.378510 0.102793
O O6 0.181588 0.181803 0.119868
O O7 0.387181 0.978749 0.047588
O O8 0.024153 0.695108 0.098961
O O9 0.083264 0.372996 0.273636
O O10 0.000000 0.000000 0.222827
O O11 0.737440 0.559712 0.491224
O O12 0.914854 0.346592 0.416863
#
# Coordination Sequence:
#
# PCOD9312125 Si02
#       7
#     4   2   4   2   4   4   2
#     4  10  23  44  71 106 143 192 248 312 398 456
#     4  10  20  38  74  94 138 192 238 316 378 458
#     4  11  23  44  70 105 145 192 260 315 386 471
#     4  11  26  42  61 118 138 200 259 316 388 441
#     4  11  27  45  76 103 155 211 251 323 393 481
#     4  12  31  50  81 119 156 207 264 338 399 488
#     4  11  28  56  77 112 160 202 267 316 424 489
#
# _framework density 23.494803000000001
#
# number of rings (size 3 to 8) (size 9 to 14) (size 15 to 20)
#    0.000    1.091    2.727    2.182   15.273    1.455 
#    0.000    0.000    0.000    0.000    0.000    0.000 
#    0.000    0.000    0.000    0.000    0.000    0.000 
#
# Total GULP energy -122576.607772 kJ/mol
# GULP energy per Si atom -5571.663990 kJ/mol
# Density = 2.344133 g / cm^3
# Si number density = 23.494803 Si / 1000 Ang^3
#
#
#
# Elastic Constant Matrix: (Units=GPa)
#
#
# Indices 1 2 3 4 5 6 
#
# 1 70.8598 27.6920 32.7942 0.0000 0.0000 0.0000
# 2 27.6920 95.6737 36.4469 0.0000 0.0000 0.0000
# 3 32.7942 36.4469 97.7714 0.0000 0.0000 0.0000
# 4 0.0000 0.0000 0.0000 22.0383 0.0000 0.0000
# 5 0.0000 0.0000 0.0000 0.0000 17.4339 0.0000
# 6 0.0000 0.0000 0.0000 0.0000 0.0000 35.7004
#
#
#
# Elastic Compliance Matrix: (Units=1/GPa)
#
#
# Indices 1 2 3 4 5 6 
#
# 1 0.017561 -0.003309 -0.004657 0.000000 0.000000 0.000000
# 2 -0.003309 0.012806 -0.003664 0.000000 0.000000 0.000000
# 3 -0.004657 -0.003664 0.013156 0.000000 0.000000 0.000000
# 4 0.000000 0.000000 0.000000 0.045376 0.000000 0.000000
# 5 0.000000 0.000000 0.000000 0.000000 0.057359 0.000000
# 6 0.000000 0.000000 0.000000 0.000000 0.000000 0.028011
#
#
# Mechanical properties :
#
#
# Convention : Reuss Voigt Hill
#
# Bulk Modulus (GPa) = 49.35034 50.90789 50.12911
# Shear Modulus (GPa) = 24.47612 26.19265 25.33438
#
# Velocity S-wave (km/s) = 3.23114 3.34253 3.28731
# Velocity P-wave (km/s) = 5.91361 6.05073 5.98256
#
# Compressibility (1/GPa) = 0.02026328
#
# Stress axis : x y z
#
# Youngs Moduli (GPa) = 56.94567 78.09067 76.01302
#
# Poissons Ratio (x) = 0.25839 0.35397
# Poissons Ratio (y) = 0.18842 0.27850
# Poissons Ratio (z) = 0.26518 0.28611
#
# Static dielectric constant tensor:
#      x y z
#    x 1.846140 0.000000 0.000000 
#    y 0.000000 2.187900 0.000000 
#    z 0.000000 0.000000 1.836770 
# 
# From -- ./inp_files/6867.got.cif
#   From: 2010.05.17/outbox.cif.g08.bks.cpg/sg18_4_cif.got.tgz:6867.got - 2010.06.03 22:40:56.
