data_PCOD9312951
_publ_section_title
;
Structure prediction by ZEFSAII (Michael W. Deem and Ramdas Pophale) SiO2 
 PCOD9312951
Probable space group: P 21 21 2
;
_chemical_formula_sum "Si O2"
_cell_formula_units_Z 16
_cell_length_a 7.848161
_cell_length_b 9.674590
_cell_length_c 7.421286
_cell_angle_alpha 90.000000
_cell_angle_beta 90.000000
_cell_angle_gamma 90.000000
_cell_volume 563.481473
_symmetry_space_group_name_H-M "P 21 21 2"
_symmetry_group_IT_number 18
_symmetry_cell_setting 'orthorhombic'
loop_
_space_group_symop_operation_xyz
x,y,z
-x,-y,z
1/2+x,1/2-y,-z
1/2-x,1/2+y,-z
loop_
_atom_site_type_symbol
_atom_site_label
_atom_site_fract_x
_atom_site_fract_y
_atom_site_fract_z
Si Si1 0.362517 0.113071 0.989769
Si Si2 0.500000 0.500000 0.859977
Si Si3 0.471809 0.333831 0.255532
Si Si4 0.000000 0.500000 0.368475
Si Si5 0.269430 0.335694 0.594444
O O1 0.388997 0.263827 0.078742
O O2 0.168186 0.062453 0.033814
O O3 0.500000 0.000000 0.072784
O O4 0.425779 0.105736 0.782066
O O5 0.413304 0.396573 0.720105
O O6 0.500000 0.500000 0.274219
O O7 0.357087 0.274365 0.417780
O O8 0.647240 0.258958 0.290518
O O9 0.850126 0.551330 0.495506
#
# Coordination Sequence:
#
# PCOD9312951 Si02
#       5
#     4   2   4   2   4
#     4  10  24  54  85 124 180 236 287 363 447 541
#     4  12  22  50  94 126 166 246 308 364 424 536
#     4  12  27  49  83 130 177 232 296 371 440 537
#     4  10  26  54  86 126 182 230 300 376 434 536
#     4  12  25  48  83 128 168 231 302 367 429 515
#
# _framework density 28.394898999999999
#
# number of rings (size 3 to 8) (size 9 to 14) (size 15 to 20)
#    0.750    0.000    3.750    3.000    3.500    1.000 
#    4.500    3.750    0.000    0.000    0.000    0.000 
#    0.000    0.000    0.000    0.000    0.000    0.000 
#
# Total GULP energy -89637.509222 kJ/mol
# GULP energy per Si atom -5602.344326 kJ/mol
# Density = 2.833027 g / cm^3
# Si number density = 28.394899 Si / 1000 Ang^3
#
#
#
# Elastic Constant Matrix: (Units=GPa)
#
#
# Indices 1 2 3 4 5 6 
#
# 1 205.6815 74.8052 44.2918 0.0000 0.0000 0.0000
# 2 74.8052 187.2094 60.1342 0.0000 0.0000 0.0000
# 3 44.2918 60.1342 180.1816 0.0000 0.0000 0.0000
# 4 0.0000 0.0000 0.0000 41.2729 0.0000 0.0000
# 5 0.0000 0.0000 0.0000 0.0000 27.7738 0.0000
# 6 0.0000 0.0000 0.0000 0.0000 0.0000 72.9379
#
#
#
# Elastic Compliance Matrix: (Units=1/GPa)
#
#
# Indices 1 2 3 4 5 6 
#
# 1 0.005772 -0.002073 -0.000727 0.000000 0.000000 0.000000
# 2 -0.002073 0.006727 -0.001736 0.000000 0.000000 0.000000
# 3 -0.000727 -0.001736 0.006308 0.000000 0.000000 0.000000
# 4 0.000000 0.000000 0.000000 0.024229 0.000000 0.000000
# 5 0.000000 0.000000 0.000000 0.000000 0.036005 0.000000
# 6 0.000000 0.000000 0.000000 0.000000 0.000000 0.013710
#
#
# Mechanical properties :
#
#
# Convention : Reuss Voigt Hill
#
# Bulk Modulus (GPa) = 102.70845 103.50388 103.10617
# Shear Modulus (GPa) = 47.58768 54.65299 51.12033
#
# Velocity S-wave (km/s) = 4.09825 4.39195 4.24764
# Velocity P-wave (km/s) = 7.65795 7.88985 7.77476
#
# Compressibility (1/GPa) = 0.00973630
#
# Stress axis : x y z
#
# Youngs Moduli (GPa) = 173.23836 148.64467 158.52989
#
# Poissons Ratio (x) = 0.30814 0.11527
# Poissons Ratio (y) = 0.35912 0.27515
# Poissons Ratio (z) = 0.12596 0.25800
#
# Static dielectric constant tensor:
#      x y z
#    x 2.326290 0.000000 0.000000 
#    y 0.000000 2.644930 0.000000 
#    z 0.000000 0.000000 2.270550 
# 
# From -- ./inp_files/2757.got.cif
#   From: 2010.05.17/outbox.cif.g08.bks.cpg/sg18_2_cif.got.tgz:2757.got - 2010.06.03 22:40:56.
