data_PCOD9312393
_publ_section_title
;
Structure prediction by ZEFSAII (Michael W. Deem and Ramdas Pophale) SiO2 
 PCOD9312393
Probable space group: P 21 21 2
;
_chemical_formula_sum "Si O2"
_cell_formula_units_Z 32
_cell_length_a 9.418859
_cell_length_b 27.680130
_cell_length_c 5.056548
_cell_angle_alpha 90.000000
_cell_angle_beta 90.000000
_cell_angle_gamma 90.000000
_cell_volume 1318.319133
_symmetry_space_group_name_H-M "P 21 21 2"
_symmetry_group_IT_number 18
_symmetry_cell_setting 'orthorhombic'
loop_
_space_group_symop_operation_xyz
x,y,z
-x,-y,z
1/2+x,1/2-y,-z
1/2-x,1/2+y,-z
loop_
_atom_site_type_symbol
_atom_site_label
_atom_site_fract_x
_atom_site_fract_y
_atom_site_fract_z
Si Si1 0.683455 0.284598 0.254114
Si Si2 0.932057 0.624361 0.584131
Si Si3 0.796796 0.653219 0.089578
Si Si4 0.196009 0.579224 0.823274
Si Si5 0.231728 0.477683 0.614841
Si Si6 0.348039 0.601921 0.327762
Si Si7 0.139957 0.750532 0.761171
Si Si8 0.872296 0.053418 0.883799
O O1 0.639615 0.340549 0.294057
O O2 0.786296 0.267219 0.491161
O O3 0.532398 0.255028 0.239137
O O4 0.780966 0.279390 0.992994
O O5 0.925792 0.647863 0.296674
O O6 0.864710 0.570318 0.595441
O O7 0.084215 0.617389 0.711068
O O8 0.840688 0.656321 0.786179
O O9 0.695658 0.695474 0.180373
O O10 0.719276 0.602224 0.117678
O O11 0.156672 0.524929 0.732682
O O12 0.331389 0.590241 0.637341
O O13 0.218908 0.586017 0.133540
O O14 0.299842 0.482476 0.326487
O O15 0.356426 0.467324 0.824955
O O16 0.477296 0.571330 0.212505
#
# Coordination Sequence:
#
# PCOD9312393 Si02
#       8
#     4   4   4   4   4   4   4   4
#     4  12  28  47  72 104 140 178 230 286 354 410
#     4  10  22  39  64  94 131 169 215 267 319 400
#     4  10  21  41  68  91 119 174 214 253 329 395
#     4  12  25  39  62  95 133 170 213 272 326 375
#     4  10  22  39  64  93 124 172 220 269 314 378
#     4  12  26  43  63  90 134 171 208 273 331 391
#     4  12  26  47  74 103 137 178 228 290 340 425
#     4  10  21  41  64  88 125 167 219 256 315 389
#
# _framework density 24.273332
#
# number of rings (size 3 to 8) (size 9 to 14) (size 15 to 20)
#    0.000    1.000    1.250    4.875    0.000    9.000 
#    0.000    5.000    0.000    0.000    0.000    0.000 
#    0.000    0.000    0.000    0.000    0.000    0.000 
#
# Total GULP energy -179045.874356 kJ/mol
# GULP energy per Si atom -5595.183574 kJ/mol
# Density = 2.421808 g / cm^3
# Si number density = 24.273332 Si / 1000 Ang^3
#
#
#
# Elastic Constant Matrix: (Units=GPa)
#
#
# Indices 1 2 3 4 5 6 
#
# 1 82.1097 21.4927 13.0598 0.0000 0.0000 0.0000
# 2 21.4927 83.7147 -1.3610 0.0000 0.0000 0.0000
# 3 13.0598 -1.3610 75.4302 0.0000 0.0000 0.0000
# 4 0.0000 0.0000 0.0000 33.7999 0.0000 0.0000
# 5 0.0000 0.0000 0.0000 0.0000 23.9524 0.0000
# 6 0.0000 0.0000 0.0000 0.0000 0.0000 29.7323
#
#
#
# Elastic Compliance Matrix: (Units=1/GPa)
#
#
# Indices 1 2 3 4 5 6 
#
# 1 0.013476 -0.003499 -0.002396 0.000000 0.000000 0.000000
# 2 -0.003499 0.012857 0.000838 0.000000 0.000000 0.000000
# 3 -0.002396 0.000838 0.013687 0.000000 0.000000 0.000000
# 4 0.000000 0.000000 0.000000 0.029586 0.000000 0.000000
# 5 0.000000 0.000000 0.000000 0.000000 0.041750 0.000000
# 6 0.000000 0.000000 0.000000 0.000000 0.000000 0.033634
#
#
# Mechanical properties :
#
#
# Convention : Reuss Voigt Hill
#
# Bulk Modulus (GPa) = 33.43836 34.18196 33.81016
# Shear Modulus (GPa) = 30.28976 31.36777 30.82877
#
# Velocity S-wave (km/s) = 3.53634 3.59872 3.56767
# Velocity P-wave (km/s) = 5.52086 5.60182 5.56149
#
# Compressibility (1/GPa) = 0.02990578
#
# Stress axis : x y z
#
# Youngs Moduli (GPa) = 74.20728 77.77745 73.06046
#
# Poissons Ratio (x) = 0.27212 0.17507
# Poissons Ratio (y) = 0.25963 -0.06121
# Poissons Ratio (z) = 0.17782 -0.06516
#
# Static dielectric constant tensor:
#      x y z
#    x 1.956260 0.000000 0.000000 
#    y 0.000000 1.938360 0.000000 
#    z 0.000000 0.000000 1.884590 
# 
# From -- ./inp_files/794.got.cif
#   From: 2010.05.17/outbox.cif.g08.bks.cpg/sg18_1_cif.got.tgz:794.got - 2010.06.03 22:40:56.
