data_PCOD9312172
_publ_section_title
;
Structure prediction by ZEFSAII (Michael W. Deem and Ramdas Pophale) SiO2 
 PCOD9312172
Probable space group: P 21 21 2
;
_chemical_formula_sum "Si O2"
_cell_formula_units_Z 12
_cell_length_a 7.439039
_cell_length_b 9.297037
_cell_length_c 7.366673
_cell_angle_alpha 90.000000
_cell_angle_beta 90.000000
_cell_angle_gamma 90.000000
_cell_volume 509.486625
_symmetry_space_group_name_H-M "P 21 21 2"
_symmetry_group_IT_number 18
_symmetry_cell_setting 'orthorhombic'
loop_
_space_group_symop_operation_xyz
x,y,z
-x,-y,z
1/2+x,1/2-y,-z
1/2-x,1/2+y,-z
loop_
_atom_site_type_symbol
_atom_site_label
_atom_site_fract_x
_atom_site_fract_y
_atom_site_fract_z
Si Si1 0.783540 0.523980 0.946701
Si Si2 0.333480 0.683937 0.236409
Si Si3 0.639369 0.868361 0.387781
O O1 0.756507 0.689039 0.892999
O O2 0.731028 0.431298 0.767961
O O3 0.000000 0.500000 0.970704
O O4 0.689693 0.459836 0.121636
O O5 0.528820 0.738368 0.298396
O O6 0.226944 0.673633 0.424490
O O7 0.500000 0.000000 0.422340
#
# Coordination Sequence:
#
# PCOD9312172 Si02
#       3
#     4   4   4
#     4   9  21  39  60  86 118 156 194 241 294 344
#     4  10  20  40  64  86 118 156 194 242 294 344
#     4   9  21  39  60  86 118 156 194 241 294 344
#
# _framework density 23.553121000000001
#
# number of rings (size 3 to 8) (size 9 to 14) (size 15 to 20)
#    0.000    3.333    0.000    1.000    0.000   10.667 
#    0.000   40.000    0.000    0.000    0.000    0.000 
#    0.000    0.000    0.000    0.000    0.000    0.000 
#
# Total GULP energy -67102.813360 kJ/mol
# GULP energy per Si atom -5591.901113 kJ/mol
# Density = 2.349951 g / cm^3
# Si number density = 23.553121 Si / 1000 Ang^3
#
#
#
# Elastic Constant Matrix: (Units=GPa)
#
#
# Indices 1 2 3 4 5 6 
#
# 1 43.9093 37.3086 38.7098 0.0000 0.0000 0.0000
# 2 37.3086 105.5496 72.5849 0.0000 0.0000 0.0000
# 3 38.7098 72.5849 146.2003 0.0000 0.0000 0.0000
# 4 0.0000 0.0000 0.0000 47.4664 0.0000 0.0000
# 5 0.0000 0.0000 0.0000 0.0000 12.7413 0.0000
# 6 0.0000 0.0000 0.0000 0.0000 0.0000 23.2618
#
#
#
# Elastic Compliance Matrix: (Units=1/GPa)
#
#
# Indices 1 2 3 4 5 6 
#
# 1 0.034540 -0.008989 -0.004682 0.000000 0.000000 0.000000
# 2 -0.008989 0.016725 -0.005924 0.000000 0.000000 0.000000
# 3 -0.004682 -0.005924 0.011021 0.000000 0.000000 0.000000
# 4 0.000000 0.000000 0.000000 0.021068 0.000000 0.000000
# 5 0.000000 0.000000 0.000000 0.000000 0.078485 0.000000
# 6 0.000000 0.000000 0.000000 0.000000 0.000000 0.042989
#
#
# Mechanical properties :
#
#
# Convention : Reuss Voigt Hill
#
# Bulk Modulus (GPa) = 43.29791 65.87399 54.58595
# Shear Modulus (GPa) = 19.86376 26.49763 23.18069
#
# Velocity S-wave (km/s) = 2.90722 3.35776 3.14058
# Velocity P-wave (km/s) = 5.44906 6.56215 6.03133
#
# Compressibility (1/GPa) = 0.02309580
#
# Stress axis : x y z
#
# Youngs Moduli (GPa) = 28.95225 59.79066 90.73857
#
# Poissons Ratio (x) = 0.53744 0.42488
# Poissons Ratio (y) = 0.26024 0.53750
# Poissons Ratio (z) = 0.13557 0.35418
#
# Static dielectric constant tensor:
#      x y z
#    x 1.910480 0.000000 0.000000 
#    y 0.000000 1.918630 0.000000 
#    z 0.000000 0.000000 1.864640 
# 
# From -- ./inp_files/813.got.cif
#   From: 2010.05.17/outbox.cif.g08.bks.cpg/sg18_1_cif.got.tgz:813.got - 2010.06.03 22:40:56.
