data_PCOD9312724
_publ_section_title
;
Structure prediction by ZEFSAII (Michael W. Deem and Ramdas Pophale) SiO2 
 PCOD9312724
Probable space group: P 21 21 2
;
_chemical_formula_sum "Si O2"
_cell_formula_units_Z 20
_cell_length_a 11.812267
_cell_length_b 8.324329
_cell_length_c 8.320325
_cell_angle_alpha 90.000000
_cell_angle_beta 90.000000
_cell_angle_gamma 90.000000
_cell_volume 818.130874
_symmetry_space_group_name_H-M "P 21 21 2"
_symmetry_group_IT_number 18
_symmetry_cell_setting 'orthorhombic'
loop_
_space_group_symop_operation_xyz
x,y,z
-x,-y,z
1/2+x,1/2-y,-z
1/2-x,1/2+y,-z
loop_
_atom_site_type_symbol
_atom_site_label
_atom_site_fract_x
_atom_site_fract_y
_atom_site_fract_z
Si Si1 0.879217 0.420831 0.847811
Si Si2 0.927177 0.657099 0.255426
Si Si3 0.285992 0.550485 0.347920
Si Si4 0.606397 0.729559 0.489204
Si Si5 0.698920 0.253918 0.049130
O O1 0.895873 0.330104 0.678175
O O2 0.821248 0.300398 0.975045
O O3 0.000000 0.500000 0.880905
O O4 0.799825 0.579406 0.865323
O O5 0.808848 0.584794 0.315747
O O6 0.890062 0.753930 0.098047
O O7 0.000000 0.500000 0.212393
O O8 0.998997 0.737645 0.397043
O O9 0.374607 0.457074 0.455300
O O10 0.216359 0.696269 0.423211
O O11 0.334393 0.615844 0.181805
#
# Coordination Sequence:
#
# PCOD9312724 Si02
#       5
#     4   4   4   4   4
#     4  12  25  47  80 114 159 211 255 326 396 471
#     4  10  22  45  82 112 152 207 254 329 395 465
#     4  11  23  45  79 112 154 203 261 325 392 477
#     4  11  24  47  79 114 155 205 263 322 405 462
#     4  12  24  46  82 113 159 205 267 317 397 474
#
# _framework density 24.445967
#
# number of rings (size 3 to 8) (size 9 to 14) (size 15 to 20)
#    0.000    0.800    4.000    3.600    2.800    0.000 
#    0.000    7.000   22.000    0.000    0.000    0.000 
#    0.000    0.000    0.000    0.000    0.000    0.000 
#
# Total GULP energy -111914.868253 kJ/mol
# GULP energy per Si atom -5595.743413 kJ/mol
# Density = 2.439033 g / cm^3
# Si number density = 24.445967 Si / 1000 Ang^3
#
#
#
# Elastic Constant Matrix: (Units=GPa)
#
#
# Indices 1 2 3 4 5 6 
#
# 1 102.1322 65.7681 37.4099 0.0000 0.0000 0.0000
# 2 65.7681 93.7452 65.2755 0.0000 0.0000 0.0000
# 3 37.4099 65.2755 123.4418 0.0000 0.0000 0.0000
# 4 0.0000 0.0000 0.0000 68.2291 0.0000 0.0000
# 5 0.0000 0.0000 0.0000 0.0000 31.0409 0.0000
# 6 0.0000 0.0000 0.0000 0.0000 0.0000 43.6839
#
#
#
# Elastic Compliance Matrix: (Units=1/GPa)
#
#
# Indices 1 2 3 4 5 6 
#
# 1 0.018152 -0.014094 0.001952 0.000000 0.000000 0.000000
# 2 -0.014094 0.027827 -0.010443 0.000000 0.000000 0.000000
# 3 0.001952 -0.010443 0.013032 0.000000 0.000000 0.000000
# 4 0.000000 0.000000 0.000000 0.014657 0.000000 0.000000
# 5 0.000000 0.000000 0.000000 0.000000 0.032216 0.000000
# 6 0.000000 0.000000 0.000000 0.000000 0.000000 0.022892
#
#
# Mechanical properties :
#
#
# Convention : Reuss Voigt Hill
#
# Bulk Modulus (GPa) = 72.25640 72.91403 72.58522
# Shear Modulus (GPa) = 28.00202 38.64850 33.32526
#
# Velocity S-wave (km/s) = 3.38815 3.98046 3.69619
# Velocity P-wave (km/s) = 6.70282 7.14261 6.92620
#
# Compressibility (1/GPa) = 0.01383960
#
# Stress axis : x y z
#
# Youngs Moduli (GPa) = 55.09035 35.93684 76.73424
#
# Poissons Ratio (x) = 0.50648 -0.14975
# Poissons Ratio (y) = 0.77642 0.80137
# Poissons Ratio (z) = -0.10751 0.37530
#
# Static dielectric constant tensor:
#      x y z
#    x 2.007120 0.000000 0.000000 
#    y 0.000000 1.944330 0.000000 
#    z 0.000000 0.000000 2.008110 
# 
# From -- ./inp_files/3638.got.cif
#   From: 2010.05.17/outbox.cif.g08.bks.cpg/sg18_2_cif.got.tgz:3638.got - 2010.06.03 22:40:56.
