data_PCOD9312798
_publ_section_title
;
Structure prediction by ZEFSAII (Michael W. Deem and Ramdas Pophale) SiO2 
 PCOD9312798
Probable space group: P 21 21 2
;
_chemical_formula_sum "Si O2"
_cell_formula_units_Z 32
_cell_length_a 8.579722
_cell_length_b 13.300567
_cell_length_c 11.632047
_cell_angle_alpha 90.000000
_cell_angle_beta 90.000000
_cell_angle_gamma 90.000000
_cell_volume 1327.392989
_symmetry_space_group_name_H-M "P 21 21 2"
_symmetry_group_IT_number 18
_symmetry_cell_setting 'orthorhombic'
loop_
_space_group_symop_operation_xyz
x,y,z
-x,-y,z
1/2+x,1/2-y,-z
1/2-x,1/2+y,-z
loop_
_atom_site_type_symbol
_atom_site_label
_atom_site_fract_x
_atom_site_fract_y
_atom_site_fract_z
Si Si1 0.225584 0.220098 0.930130
Si Si2 0.185707 0.101179 0.521133
Si Si3 0.536997 0.305234 0.846190
Si Si4 0.557389 0.151207 0.240951
Si Si5 0.908508 0.607438 0.293886
Si Si6 0.987141 0.713160 0.504023
Si Si7 0.734057 0.466969 0.725045
Si Si8 0.170029 0.026875 0.786232
O O1 0.375505 0.290889 0.914130
O O2 0.084236 0.270806 0.859727
O O3 0.246496 0.111757 0.866775
O O4 0.172276 0.208373 0.059779
O O5 0.041502 0.170221 0.482343
O O6 0.339744 0.172356 0.519247
O O7 0.214193 0.028604 0.413120
O O8 0.166184 0.060793 0.650727
O O9 0.526914 0.210535 0.758938
O O10 0.588968 0.406448 0.779877
O O11 0.562317 0.202487 0.364672
O O12 0.388687 0.099298 0.244190
O O13 0.702548 0.074108 0.234266
O O14 0.881592 0.641164 0.424311
O O15 0.762545 0.577082 0.218139
O O16 0.000000 0.500000 0.295574
O O17 0.000000 0.000000 0.828707
#
# Coordination Sequence:
#
# PCOD9312798 Si02
#       8
#     4   4   4   4   4   4   4   4
#     4  12  27  49  70 101 138 180 240 295 350 416
#     4  11  22  41  66 106 141 184 223 278 350 418
#     4  12  27  47  73  99 136 186 236 295 352 415
#     4  10  23  43  69  99 141 179 223 283 346 416
#     4  12  24  47  72 102 141 187 233 291 358 432
#     4  11  22  38  71  99 146 180 222 282 349 417
#     4  10  23  44  69 101 137 183 226 276 351 414
#     4  12  28  45  72 107 143 183 239 293 358 428
#
# _framework density 24.107405
#
# number of rings (size 3 to 8) (size 9 to 14) (size 15 to 20)
#    0.000    0.750    5.000    1.500    7.000    1.500 
#    4.500    0.000    0.000    0.000    0.000    0.000 
#    0.000    0.000    0.000    0.000    0.000    0.000 
#
# Total GULP energy -178792.444743 kJ/mol
# GULP energy per Si atom -5587.263898 kJ/mol
# Density = 2.405254 g / cm^3
# Si number density = 24.107405 Si / 1000 Ang^3
#
#
#
# Elastic Constant Matrix: (Units=GPa)
#
#
# Indices 1 2 3 4 5 6 
#
# 1 64.7353 14.1372 -5.7942 0.0000 0.0000 0.0000
# 2 14.1372 65.2034 27.4855 0.0000 0.0000 0.0000
# 3 -5.7942 27.4855 92.8258 0.0000 0.0000 0.0000
# 4 0.0000 0.0000 0.0000 6.1234 0.0000 0.0000
# 5 0.0000 0.0000 0.0000 0.0000 30.3969 0.0000
# 6 0.0000 0.0000 0.0000 0.0000 0.0000-5786.5397
#
#
#
# Elastic Compliance Matrix: (Units=1/GPa)
#
#
# Indices 1 2 3 4 5 6 
#
# 1 0.016675 -0.004632 0.002413 0.000000 0.000000 0.000000
# 2 -0.004632 0.018811 -0.005859 0.000000 0.000000 0.000000
# 3 0.002413 -0.005859 0.012658 0.000000 0.000000 0.000000
# 4 0.000000 0.000000 0.000000 0.163308 0.000000 0.000000
# 5 0.000000 0.000000 0.000000 0.000000 0.032898 0.000000
# 6 0.000000 0.000000 0.000000 0.000000 0.000000 -0.000173
#
#
# Mechanical properties :
#
#
# Convention : Reuss Voigt Hill
#
# Bulk Modulus (GPa) = 31.26327 32.71350 31.98839
# Shear Modulus (GPa) = 18.45037 -1137.54149 -559.54556
#
# Velocity S-wave (km/s) = 2.76948 -21.74600 -15.25153
# Velocity P-wave (km/s) = 4.81904 24.83784 17.22927
#
# Compressibility (1/GPa) = 0.03198641
#
# Stress axis : x y z
#
# Youngs Moduli (GPa) = 59.96960 53.16102 78.99963
#
# Poissons Ratio (x) = 0.24626 -0.19059
# Poissons Ratio (y) = 0.27780 0.46286
# Poissons Ratio (z) = -0.14468 0.31147
#
# Static dielectric constant tensor:
#      x y z
#    x 2.015430 0.000000 0.000000 
#    y 0.000000 1.916360 0.000000 
#    z 0.000000 0.000000 90.994070 
# 
# From -- ./inp_files/5675.got.cif
#   From: 2010.05.17/outbox.cif.g08.bks.cpg/sg18_3_cif.got.tgz:5675.got - 2010.06.03 22:40:56.
