data_PCOD9312077
_publ_section_title
;
Structure prediction by ZEFSAII (Michael W. Deem and Ramdas Pophale) SiO2 
 PCOD9312077
Probable space group: P 21 21 2
;
_chemical_formula_sum "Si O2"
_cell_formula_units_Z 30
_cell_length_a 10.136622
_cell_length_b 15.098669
_cell_length_c 10.374217
_cell_angle_alpha 90.000000
_cell_angle_beta 90.000000
_cell_angle_gamma 90.000000
_cell_volume 1587.768728
_symmetry_space_group_name_H-M "P 21 21 2"
_symmetry_group_IT_number 18
_symmetry_cell_setting 'orthorhombic'
loop_
_space_group_symop_operation_xyz
x,y,z
-x,-y,z
1/2+x,1/2-y,-z
1/2-x,1/2+y,-z
loop_
_atom_site_type_symbol
_atom_site_label
_atom_site_fract_x
_atom_site_fract_y
_atom_site_fract_z
Si Si1 0.686293 0.228386 0.117628
Si Si2 0.168545 0.124215 0.684863
Si Si3 0.283765 0.903474 0.341755
Si Si4 0.716438 0.901776 0.410627
Si Si5 0.501816 0.340352 0.690614
Si Si6 0.443234 0.321949 0.992557
Si Si7 0.500000 0.500000 0.144410
Si Si8 0.515610 0.225545 0.454955
O O1 0.733080 0.306775 0.214756
O O2 0.681141 0.139893 0.203740
O O3 0.794981 0.214624 0.008342
O O4 0.546243 0.259338 0.065317
O O5 0.255206 0.095014 0.564038
O O6 0.051460 0.184479 0.621805
O O7 0.111052 0.042377 0.763848
O O8 0.356980 0.837787 0.440901
O O9 0.124910 0.898513 0.352872
O O10 0.329339 0.003087 0.361228
O O11 0.855240 0.879574 0.342605
O O12 0.607237 0.825990 0.394180
O O13 0.485515 0.327102 0.842648
O O14 0.491029 0.253007 0.601886
O O15 0.450941 0.418853 0.056364
#
# Coordination Sequence:
#
# PCOD9312077 Si02
#       8
#     4   4   4   4   4   4   2   4
#     4   9  20  40  60  83 118 158 194 242 280 347
#     4   9  21  39  59  85 121 154 190 244 294 344
#     4  10  21  36  57  85 125 148 185 244 292 339
#     4  11  21  34  62  90 117 149 192 240 295 349
#     4  10  21  35  59  87 113 152 201 237 278 349
#     4  10  21  38  63  83 116 157 199 239 286 333
#     4  10  22  38  60  84 114 156 206 236 280 346
#     4  10  20  38  57  87 121 153 179 238 307 351
#
# _framework density 18.894438999999998
#
# number of rings (size 3 to 8) (size 9 to 14) (size 15 to 20)
#    0.000    2.133    0.000    4.000    7.467    3.200 
#    2.400    0.000    2.933    0.000    0.000    0.000 
#    0.000    0.000    0.000    0.000    0.000    0.000 
#
# Total GULP energy -167354.248440 kJ/mol
# GULP energy per Si atom -5578.474948 kJ/mol
# Density = 1.885143 g / cm^3
# Si number density = 18.894439 Si / 1000 Ang^3
#
#
#
# Elastic Constant Matrix: (Units=GPa)
#
#
# Indices 1 2 3 4 5 6 
#
# 1 71.0415 51.4551 26.1990 0.0000 0.0000 0.0000
# 2 51.4551 106.3084 33.3497 0.0000 0.0000 0.0000
# 3 26.1990 33.3497 55.4844 0.0000 0.0000 0.0000
# 4 0.0000 0.0000 0.0000 10.2437 0.0000 0.0000
# 5 0.0000 0.0000 0.0000 0.0000 21.2924 0.0000
# 6 0.0000 0.0000 0.0000 0.0000 0.0000 20.9466
#
#
#
# Elastic Compliance Matrix: (Units=1/GPa)
#
#
# Indices 1 2 3 4 5 6 
#
# 1 0.022784 -0.009431 -0.005090 0.000000 0.000000 0.000000
# 2 -0.009431 0.015496 -0.004861 0.000000 0.000000 0.000000
# 3 -0.005090 -0.004861 0.023348 0.000000 0.000000 0.000000
# 4 0.000000 0.000000 0.000000 0.097621 0.000000 0.000000
# 5 0.000000 0.000000 0.000000 0.000000 0.046965 0.000000
# 6 0.000000 0.000000 0.000000 0.000000 0.000000 0.047740
#
#
# Mechanical properties :
#
#
# Convention : Reuss Voigt Hill
#
# Bulk Modulus (GPa) = 43.73504 50.53799 47.13651
# Shear Modulus (GPa) = 16.64771 18.61856 17.63314
#
# Velocity S-wave (km/s) = 2.97154 3.14251 3.05822
# Velocity P-wave (km/s) = 5.91360 6.32240 6.12142
#
# Compressibility (1/GPa) = 0.02286496
#
# Stress axis : x y z
#
# Youngs Moduli (GPa) = 43.88974 64.53080 42.82999
#
# Poissons Ratio (x) = 0.60861 0.21799
# Poissons Ratio (y) = 0.41394 0.20820
# Poissons Ratio (z) = 0.22338 0.31369
#
# Static dielectric constant tensor:
#      x y z
#    x 1.682000 0.000000 0.000000 
#    y 0.000000 1.648410 0.000000 
#    z 0.000000 0.000000 1.670540 
# 
# From -- ./inp_files/5641.got.cif
#   From: 2010.05.17/outbox.cif.g08.bks.cpg/sg18_3_cif.got.tgz:5641.got - 2010.06.03 22:40:56.
