data_PCOD9312673
_publ_section_title
;
Structure prediction by ZEFSAII (Michael W. Deem and Ramdas Pophale) SiO2 
 PCOD9312673
Probable space group: P 21 21 2
;
_chemical_formula_sum "Si O2"
_cell_formula_units_Z 16
_cell_length_a 7.498869
_cell_length_b 9.565759
_cell_length_c 8.114011
_cell_angle_alpha 90.000000
_cell_angle_beta 90.000000
_cell_angle_gamma 90.000000
_cell_volume 582.037269
_symmetry_space_group_name_H-M "P 21 21 2"
_symmetry_group_IT_number 18
_symmetry_cell_setting 'orthorhombic'
loop_
_space_group_symop_operation_xyz
x,y,z
-x,-y,z
1/2+x,1/2-y,-z
1/2-x,1/2+y,-z
loop_
_atom_site_type_symbol
_atom_site_label
_atom_site_fract_x
_atom_site_fract_y
_atom_site_fract_z
Si Si1 0.811053 0.065952 0.486369
Si Si2 0.213681 0.506105 0.985983
Si Si3 0.318935 0.175457 0.699878
Si Si4 0.771392 0.735109 0.206827
O O1 0.740931 0.174357 0.350296
O O2 0.841029 0.170264 0.643855
O O3 0.696540 0.936956 0.552665
O O4 0.000000 0.000000 0.442066
O O5 0.268257 0.598193 0.145679
O O6 0.278424 0.352721 0.040711
O O7 0.000000 0.500000 0.978998
O O8 0.266188 0.601311 0.832346
O O9 0.473696 0.801966 0.742391
#
# Coordination Sequence:
#
# PCOD9312673 Si02
#       4
#     4   4   4   4
#     4  11  23  40  65  95 130 173 221 277 335 396
#     4   9  21  41  66  96 131 173 224 278 329 393
#     4  10  23  44  66  96 132 171 223 278 332 400
#     4  10  22  43  66  97 137 173 222 279 330 397
#
# _framework density 27.489650999999999
#
# number of rings (size 3 to 8) (size 9 to 14) (size 15 to 20)
#    0.000    2.000    0.000    3.750    0.000   12.000 
#    0.000    8.750    0.000    3.000    0.000    0.000 
#    0.000    0.000    0.000    0.000    0.000    0.000 
#
# Total GULP energy -89624.969138 kJ/mol
# GULP energy per Si atom -5601.560571 kJ/mol
# Density = 2.742708 g / cm^3
# Si number density = 27.489651 Si / 1000 Ang^3
#
#
#
# Elastic Constant Matrix: (Units=GPa)
#
#
# Indices 1 2 3 4 5 6 
#
# 1 64.7132 27.7466 14.0226 0.0000 0.0000 0.0000
# 2 27.7466 213.1947 49.3815 0.0000 0.0000 0.0000
# 3 14.0226 49.3815 80.6399 0.0000 0.0000 0.0000
# 4 0.0000 0.0000 0.0000 84.9096 0.0000 0.0000
# 5 0.0000 0.0000 0.0000 0.0000 28.0429 0.0000
# 6 0.0000 0.0000 0.0000 0.0000 0.0000 40.3553
#
#
#
# Elastic Compliance Matrix: (Units=1/GPa)
#
#
# Indices 1 2 3 4 5 6 
#
# 1 0.016592 -0.001738 -0.001821 0.000000 0.000000 0.000000
# 2 -0.001738 0.005648 -0.003156 0.000000 0.000000 0.000000
# 3 -0.001821 -0.003156 0.014650 0.000000 0.000000 0.000000
# 4 0.000000 0.000000 0.000000 0.011777 0.000000 0.000000
# 5 0.000000 0.000000 0.000000 0.000000 0.035660 0.000000
# 6 0.000000 0.000000 0.000000 0.000000 0.000000 0.024780
#
#
# Mechanical properties :
#
#
# Convention : Reuss Voigt Hill
#
# Bulk Modulus (GPa) = 42.62542 60.09437 51.35989
# Shear Modulus (GPa) = 38.35591 48.48802 43.42197
#
# Velocity S-wave (km/s) = 3.73940 4.20440 3.97870
# Velocity P-wave (km/s) = 5.84670 6.74370 6.31115
#
# Compressibility (1/GPa) = 0.02346018
#
# Stress axis : x y z
#
# Youngs Moduli (GPa) = 60.26836 177.06027 68.25755
#
# Poissons Ratio (x) = 0.30766 0.12431
# Poissons Ratio (y) = 0.10472 0.21545
# Poissons Ratio (z) = 0.10976 0.55887
#
# Static dielectric constant tensor:
#      x y z
#    x 2.078150 0.000000 0.000000 
#    y 0.000000 2.117600 0.000000 
#    z 0.000000 0.000000 2.268350 
# 
# From -- ./inp_files/3580.got.cif
#   From: 2010.05.17/outbox.cif.g08.bks.cpg/sg18_2_cif.got.tgz:3580.got - 2010.06.03 22:40:56.
