data_PCOD9312775
_publ_section_title
;
Structure prediction by ZEFSAII (Michael W. Deem and Ramdas Pophale) SiO2 
 PCOD9312775
Probable space group: P 21 21 2
;
_chemical_formula_sum "Si O2"
_cell_formula_units_Z 26
_cell_length_a 18.132218
_cell_length_b 7.533130
_cell_length_c 9.621375
_cell_angle_alpha 90.000000
_cell_angle_beta 90.000000
_cell_angle_gamma 90.000000
_cell_volume 1314.206273
_symmetry_space_group_name_H-M "P 21 21 2"
_symmetry_group_IT_number 18
_symmetry_cell_setting 'orthorhombic'
loop_
_space_group_symop_operation_xyz
x,y,z
-x,-y,z
1/2+x,1/2-y,-z
1/2-x,1/2+y,-z
loop_
_atom_site_type_symbol
_atom_site_label
_atom_site_fract_x
_atom_site_fract_y
_atom_site_fract_z
Si Si1 0.343549 0.546994 0.378813
Si Si2 0.000000 0.000000 0.478508
Si Si3 0.228247 0.227258 0.358108
Si Si4 0.317282 0.708585 0.088255
Si Si5 0.811093 0.065336 0.158928
Si Si6 0.394052 0.881563 0.850545
Si Si7 0.460558 0.258681 0.765554
O O1 0.424678 0.510173 0.436702
O O2 0.295976 0.364736 0.363070
O O3 0.299981 0.670166 0.490052
O O4 0.351258 0.646181 0.232231
O O5 0.992189 0.175847 0.381883
O O6 0.163914 0.315962 0.264827
O O7 0.236884 0.043299 0.272317
O O8 0.233567 0.759184 0.123125
O O9 0.317506 0.549530 0.979268
O O10 0.355494 0.868673 0.001442
O O11 0.893143 0.107419 0.209278
O O12 0.465966 0.753658 0.858977
O O13 0.423506 0.067988 0.792656
#
# Coordination Sequence:
#
# PCOD9312775 Si02
#       7
#     4   2   4   4   4   4   4
#     4  12  25  40  65  98 141 167 228 276 349 395
#     4  12  24  44  64 102 132 184 220 286 336 406
#     4  11  23  41  65  96 126 185 220 271 331 410
#     4  11  23  40  62 101 133 169 223 286 342 393
#     4  11  21  41  68  92 133 179 234 273 336 412
#     4  10  23  41  71  96 128 176 233 275 334 408
#     4  11  21  43  71  94 126 180 235 271 324 424
#
# _framework density 19.783802999999999
#
# number of rings (size 3 to 8) (size 9 to 14) (size 15 to 20)
#    0.000    0.923    3.077    5.538    2.154    1.231 
#    0.000    1.538    0.000    0.000    0.000    0.000 
#    0.000    0.000    0.000    0.000    0.000    0.000 
#
# Total GULP energy -145033.657781 kJ/mol
# GULP energy per Si atom -5578.217607 kJ/mol
# Density = 1.973877 g / cm^3
# Si number density = 19.783803 Si / 1000 Ang^3
#
#
#
# Elastic Constant Matrix: (Units=GPa)
#
#
# Indices 1 2 3 4 5 6 
#
# 1 140.3081 42.1169 38.9540 0.0000 0.0000 0.0000
# 2 42.1169 72.9652 36.4779 0.0000 0.0000 0.0000
# 3 38.9540 36.4779 134.6123 0.0000 0.0000 0.0000
# 4 0.0000 0.0000 0.0000 13.5820 0.0000 0.0000
# 5 0.0000 0.0000 0.0000 0.0000 29.4709 0.0000
# 6 0.0000 0.0000 0.0000 0.0000 0.0000 44.1045
#
#
#
# Elastic Compliance Matrix: (Units=1/GPa)
#
#
# Indices 1 2 3 4 5 6 
#
# 1 0.008830 -0.004418 -0.001358 0.000000 0.000000 0.000000
# 2 -0.004418 0.018063 -0.003616 0.000000 0.000000 0.000000
# 3 -0.001358 -0.003616 0.008802 0.000000 0.000000 0.000000
# 4 0.000000 0.000000 0.000000 0.073627 0.000000 0.000000
# 5 0.000000 0.000000 0.000000 0.000000 0.033932 0.000000
# 6 0.000000 0.000000 0.000000 0.000000 0.000000 0.022673
#
#
# Mechanical properties :
#
#
# Convention : Reuss Voigt Hill
#
# Bulk Modulus (GPa) = 59.13554 64.77590 61.95572
# Shear Modulus (GPa) = 26.26745 32.78727 29.52736
#
# Velocity S-wave (km/s) = 3.64775 4.07539 3.86748
# Velocity P-wave (km/s) = 6.90632 7.41337 7.16433
#
# Compressibility (1/GPa) = 0.01691031
#
# Stress axis : x y z
#
# Youngs Moduli (GPa) = 113.24470 55.36072 113.61407
#
# Poissons Ratio (x) = 0.24459 0.15430
# Poissons Ratio (y) = 0.50033 0.41087
# Poissons Ratio (z) = 0.15380 0.20020
#
# Static dielectric constant tensor:
#      x y z
#    x 1.691560 0.000000 0.000000 
#    y 0.000000 1.778350 0.000000 
#    z 0.000000 0.000000 1.677180 
# 
# From -- ./inp_files/4529.got.cif
#   From: 2010.05.17/outbox.cif.g08.bks.cpg/sg18_3_cif.got.tgz:4529.got - 2010.06.03 22:40:56.
