data_PCOD9312846
_publ_section_title
;
Structure prediction by ZEFSAII (Michael W. Deem and Ramdas Pophale) SiO2 
 PCOD9312846
Probable space group: P 21 21 2
;
_chemical_formula_sum "Si O2"
_cell_formula_units_Z 22
_cell_length_a 14.045581
_cell_length_b 11.467816
_cell_length_c 5.970156
_cell_angle_alpha 90.000000
_cell_angle_beta 90.000000
_cell_angle_gamma 90.000000
_cell_volume 961.625794
_symmetry_space_group_name_H-M "P 21 21 2"
_symmetry_group_IT_number 18
_symmetry_cell_setting 'orthorhombic'
loop_
_space_group_symop_operation_xyz
x,y,z
-x,-y,z
1/2+x,1/2-y,-z
1/2-x,1/2+y,-z
loop_
_atom_site_type_symbol
_atom_site_label
_atom_site_fract_x
_atom_site_fract_y
_atom_site_fract_z
Si Si1 0.564470 0.235351 0.789500
Si Si2 0.000000 0.500000 0.093670
Si Si3 0.217342 0.226054 0.867743
Si Si4 0.358342 0.140401 0.231072
Si Si5 0.179526 0.073627 0.493044
Si Si6 0.616551 0.675665 0.599918
O O1 0.624969 0.315172 0.617824
O O2 0.461633 0.296486 0.787976
O O3 0.547895 0.098307 0.749587
O O4 0.618753 0.233894 0.027105
O O5 0.926274 0.434364 0.928606
O O6 0.198633 0.102139 0.751297
O O7 0.276595 0.297258 0.684698
O O8 0.289841 0.215087 0.071280
O O9 0.282195 0.064244 0.372551
O O10 0.405762 0.231746 0.402793
O O11 0.117871 0.958308 0.466557
#
# Coordination Sequence:
#
# PCOD9312846 Si02
#       6
#     4   2   4   4   4   4
#     4  11  25  43  71 106 139 192 237 292 362 411
#     4  12  24  46  70 102 146 184 248 294 342 448
#     4  10  23  47  68 106 142 189 236 289 369 418
#     4  10  24  44  70 104 138 190 232 299 359 414
#     4  10  24  45  71 103 145 187 234 303 357 429
#     4  11  23  46  70 107 148 183 245 293 361 431
#
# _framework density 22.877918999999999
#
# number of rings (size 3 to 8) (size 9 to 14) (size 15 to 20)
#    0.000    1.455    1.818    1.636    2.545    8.000 
#    6.545    0.000    0.000    0.000    0.000    0.000 
#    0.000    0.000    0.000    0.000    0.000    0.000 
#
# Total GULP energy -122829.614568 kJ/mol
# GULP energy per Si atom -5583.164299 kJ/mol
# Density = 2.282585 g / cm^3
# Si number density = 22.877919 Si / 1000 Ang^3
#
#
#
# Elastic Constant Matrix: (Units=GPa)
#
#
# Indices 1 2 3 4 5 6 
#
# 1 104.5584 44.4163 19.9345 0.0000 0.0000 0.0000
# 2 44.4163 92.7772 16.5943 0.0000 0.0000 0.0000
# 3 19.9345 16.5943 43.2938 0.0000 0.0000 0.0000
# 4 0.0000 0.0000 0.0000 23.3101 0.0000 0.0000
# 5 0.0000 0.0000 0.0000 0.0000 29.2965 0.0000
# 6 0.0000 0.0000 0.0000 0.0000 0.0000 23.2571
#
#
#
# Elastic Compliance Matrix: (Units=1/GPa)
#
#
# Indices 1 2 3 4 5 6 
#
# 1 0.012542 -0.005338 -0.003729 0.000000 0.000000 0.000000
# 2 -0.005338 0.013843 -0.002848 0.000000 0.000000 0.000000
# 3 -0.003729 -0.002848 0.025907 0.000000 0.000000 0.000000
# 4 0.000000 0.000000 0.000000 0.042900 0.000000 0.000000
# 5 0.000000 0.000000 0.000000 0.000000 0.034134 0.000000
# 6 0.000000 0.000000 0.000000 0.000000 0.000000 0.042998
#
#
# Mechanical properties :
#
#
# Convention : Reuss Voigt Hill
#
# Bulk Modulus (GPa) = 35.13439 44.72442 39.92940
# Shear Modulus (GPa) = 24.31415 25.81837 25.06626
#
# Velocity S-wave (km/s) = 3.26356 3.36300 3.31366
# Velocity P-wave (km/s) = 5.43984 5.88823 5.66847
#
# Compressibility (1/GPa) = 0.02846215
#
# Stress axis : x y z
#
# Youngs Moduli (GPa) = 79.72943 72.23709 38.59980
#
# Poissons Ratio (x) = 0.38557 0.14395
# Poissons Ratio (y) = 0.42556 0.10995
# Poissons Ratio (z) = 0.29733 0.20576
#
# Static dielectric constant tensor:
#      x y z
#    x 1.893830 0.000000 0.000000 
#    y 0.000000 1.853640 0.000000 
#    z 0.000000 0.000000 1.842070 
# 
# From -- ./inp_files/1060.got.cif
#   From: 2010.05.17/outbox.cif.g08.bks.cpg/sg18_1_cif.got.tgz:1060.got - 2010.06.03 22:40:56.
