data_PCOD9312293
_publ_section_title
;
Structure prediction by ZEFSAII (Michael W. Deem and Ramdas Pophale) SiO2 
 PCOD9312293
Probable space group: P 21 21 2
;
_chemical_formula_sum "Si O2"
_cell_formula_units_Z 16
_cell_length_a 5.281112
_cell_length_b 14.476937
_cell_length_c 9.684369
_cell_angle_alpha 90.000000
_cell_angle_beta 90.000000
_cell_angle_gamma 90.000000
_cell_volume 740.411902
_symmetry_space_group_name_H-M "P 21 21 2"
_symmetry_group_IT_number 18
_symmetry_cell_setting 'orthorhombic'
loop_
_space_group_symop_operation_xyz
x,y,z
-x,-y,z
1/2+x,1/2-y,-z
1/2-x,1/2+y,-z
loop_
_atom_site_type_symbol
_atom_site_label
_atom_site_fract_x
_atom_site_fract_y
_atom_site_fract_z
Si Si1 0.873844 0.135225 0.993258
Si Si2 0.010151 0.300616 0.444581
Si Si3 0.373554 0.166623 0.870438
Si Si4 0.000000 0.500000 0.580244
Si Si5 0.000000 0.000000 0.236158
O O1 0.852029 0.242943 0.032685
O O2 0.946229 0.084312 0.133407
O O3 0.603554 0.107440 0.932129
O O4 0.099513 0.120446 0.884304
O O5 0.772450 0.252049 0.521781
O O6 0.944867 0.302069 0.282670
O O7 0.034724 0.406534 0.493447
O O8 0.250753 0.513840 0.672562
#
# Coordination Sequence:
#
# PCOD9312293 Si02
#       5
#     4   4   4   2   2
#     4  10  21  37  62  87 117 156 200 261 310 375
#     4  12  25  43  67  95 135 177 214 270 326 386
#     4  10  21  39  60  88 119 157 206 250 318 376
#     4  12  26  42  66  96 128 172 224 262 320 410
#     4  12  24  42  64  92 126 164 216 270 328 378
#
# _framework density 21.609594000000001
#
# number of rings (size 3 to 8) (size 9 to 14) (size 15 to 20)
#    0.000    1.000    0.000    7.500    0.000    6.000 
#    0.000    0.000    0.000    0.000    0.000    0.000 
#    0.000    0.000    0.000    0.000    0.000    0.000 
#
# Total GULP energy -89474.312488 kJ/mol
# GULP energy per Si atom -5592.144530 kJ/mol
# Density = 2.156041 g / cm^3
# Si number density = 21.609594 Si / 1000 Ang^3
#
#
#
# Elastic Constant Matrix: (Units=GPa)
#
#
# Indices 1 2 3 4 5 6 
#
# 1 47.9133 38.0190 -2.7237 0.0000 0.0000 0.0000
# 2 38.0190 80.4827 -12.4163 0.0000 0.0000 0.0000
# 3 -2.7237 -12.4163 50.6075 0.0000 0.0000 0.0000
# 4 0.0000 0.0000 0.0000 -300.5590 0.0000 0.0000
# 5 0.0000 0.0000 0.0000 0.0000 34.2619 0.0000
# 6 0.0000 0.0000 0.0000 0.0000 0.0000 27.1468
#
#
#
# Elastic Compliance Matrix: (Units=1/GPa)
#
#
# Indices 1 2 3 4 5 6 
#
# 1 0.033612 -0.016213 -0.002169 0.000000 0.000000 0.000000
# 2 -0.016213 0.020734 0.004214 0.000000 0.000000 0.000000
# 3 -0.002169 0.004214 0.020677 0.000000 0.000000 0.000000
# 4 0.000000 0.000000 0.000000 -0.003327 0.000000 0.000000
# 5 0.000000 0.000000 0.000000 0.000000 0.029187 0.000000
# 6 0.000000 0.000000 0.000000 0.000000 0.000000 0.036837
#
#
# Mechanical properties :
#
#
# Convention : Reuss Voigt Hill
#
# Bulk Modulus (GPa) = 21.41807 24.97351 23.19579
# Shear Modulus (GPa) = 27.53047 -37.42175 -4.94564
#
# Velocity S-wave (km/s) = 3.57318 -4.16591 -1.51446
# Velocity P-wave (km/s) = 5.19195 3.39970 2.77474
#
# Compressibility (1/GPa) = 0.04668956
#
# Stress axis : x y z
#
# Youngs Moduli (GPa) = 29.75093 48.23038 48.36252
#
# Poissons Ratio (x) = 0.78194 0.10488
# Poissons Ratio (y) = 0.48234 -0.20382
# Poissons Ratio (z) = 0.06452 -0.20326
#
# Static dielectric constant tensor:
#      x y z
#    x 1.983460 0.000000 0.000000 
#    y 0.000000 1.827080 0.000000 
#    z 0.000000 0.000000 1.727510 
# 
# From -- ./inp_files/2408.got.cif
#   From: 2010.05.17/outbox.cif.g08.bks.cpg/sg18_2_cif.got.tgz:2408.got - 2010.06.03 22:40:56.
