data_PCOD9312285
_publ_section_title
;
Structure prediction by ZEFSAII (Michael W. Deem and Ramdas Pophale) SiO2 
 PCOD9312285
Probable space group: P 21 21 2
;
_chemical_formula_sum "Si O2"
_cell_formula_units_Z 16
_cell_length_a 8.269131
_cell_length_b 12.741575
_cell_length_c 7.732306
_cell_angle_alpha 90.000000
_cell_angle_beta 90.000000
_cell_angle_gamma 90.000000
_cell_volume 814.689314
_symmetry_space_group_name_H-M "P 21 21 2"
_symmetry_group_IT_number 18
_symmetry_cell_setting 'orthorhombic'
loop_
_space_group_symop_operation_xyz
x,y,z
-x,-y,z
1/2+x,1/2-y,-z
1/2-x,1/2+y,-z
loop_
_atom_site_type_symbol
_atom_site_label
_atom_site_fract_x
_atom_site_fract_y
_atom_site_fract_z
Si Si1 0.528622 0.260110 0.846608
Si Si2 0.445796 0.617926 0.492265
Si Si3 0.160262 0.565433 0.262988
Si Si4 0.645127 0.632262 0.145936
O O1 0.529931 0.308769 0.655513
O O2 0.403631 0.162621 0.847708
O O3 0.703458 0.209651 0.876772
O O4 0.474201 0.344555 0.988042
O O5 0.500000 0.500000 0.538367
O O6 0.262326 0.609228 0.423977
O O7 0.552591 0.651900 0.326613
O O8 0.278838 0.484299 0.164044
O O9 0.000000 0.500000 0.315739
#
# Coordination Sequence:
#
# PCOD9312285 Si02
#       4
#     4   4   4   4
#     4  11  21  37  61  85 116 162 201 240 305 367
#     4  10  21  37  59  85 115 152 196 248 301 357
#     4   9  20  39  59  85 121 154 197 254 304 353
#     4  10  22  37  58  87 120 156 198 254 298 353
#
# _framework density 19.639389000000001
#
# number of rings (size 3 to 8) (size 9 to 14) (size 15 to 20)
#    0.000    2.000    0.000    3.000    0.000    5.000 
#    0.000    2.500    0.000   10.500    0.000    0.000 
#    0.000    0.000    0.000    0.000    0.000    0.000 
#
# Total GULP energy -89350.608885 kJ/mol
# GULP energy per Si atom -5584.413055 kJ/mol
# Density = 1.959469 g / cm^3
# Si number density = 19.639389 Si / 1000 Ang^3
#
#
#
# Elastic Constant Matrix: (Units=GPa)
#
#
# Indices 1 2 3 4 5 6 
#
# 1 93.7805 54.9188 60.5206 0.0000 0.0000 0.0000
# 2 54.9188 73.4718 65.7154 0.0000 0.0000 0.0000
# 3 60.5206 65.7154 119.2233 0.0000 0.0000 0.0000
# 4 0.0000 0.0000 0.0000 18.0221 0.0000 0.0000
# 5 0.0000 0.0000 0.0000 0.0000 20.7783 0.0000
# 6 0.0000 0.0000 0.0000 0.0000 0.0000 31.6492
#
#
#
# Elastic Compliance Matrix: (Units=1/GPa)
#
#
# Indices 1 2 3 4 5 6 
#
# 1 0.019771 -0.011443 -0.003729 0.000000 0.000000 0.000000
# 2 -0.011443 0.033469 -0.012639 0.000000 0.000000 0.000000
# 3 -0.003729 -0.012639 0.017247 0.000000 0.000000 0.000000
# 4 0.000000 0.000000 0.000000 0.055488 0.000000 0.000000
# 5 0.000000 0.000000 0.000000 0.000000 0.048127 0.000000
# 6 0.000000 0.000000 0.000000 0.000000 0.000000 0.031596
#
#
# Mechanical properties :
#
#
# Convention : Reuss Voigt Hill
#
# Bulk Modulus (GPa) = 67.27310 72.08724 69.68017
# Shear Modulus (GPa) = 18.77758 21.11131 19.94444
#
# Velocity S-wave (km/s) = 3.09547 3.28220 3.19020
# Velocity P-wave (km/s) = 6.86327 7.15184 7.00904
#
# Compressibility (1/GPa) = 0.01486478
#
# Stress axis : x y z
#
# Youngs Moduli (GPa) = 50.57984 29.87821 57.98100
#
# Poissons Ratio (x) = 0.34190 0.21619
# Poissons Ratio (y) = 0.57880 0.73283
# Poissons Ratio (z) = 0.18859 0.37764
#
# Static dielectric constant tensor:
#      x y z
#    x 1.717540 0.000000 0.000000 
#    y 0.000000 1.696850 0.000000 
#    z 0.000000 0.000000 1.636260 
# 
# From -- ./inp_files/1370.got.cif
#   From: 2010.05.17/outbox.cif.g08.bks.cpg/sg18_1_cif.got.tgz:1370.got - 2010.06.03 22:40:56.
