data_PCOD9312412
_publ_section_title
;
Structure prediction by ZEFSAII (Michael W. Deem and Ramdas Pophale) SiO2 
 PCOD9312412
Probable space group: P 21 21 2
;
_chemical_formula_sum "Si O2"
_cell_formula_units_Z 24
_cell_length_a 7.949673
_cell_length_b 7.742964
_cell_length_c 16.807469
_cell_angle_alpha 90.000000
_cell_angle_beta 90.000000
_cell_angle_gamma 90.000000
_cell_volume 1034.567482
_symmetry_space_group_name_H-M "P 21 21 2"
_symmetry_group_IT_number 18
_symmetry_cell_setting 'orthorhombic'
loop_
_space_group_symop_operation_xyz
x,y,z
-x,-y,z
1/2+x,1/2-y,-z
1/2-x,1/2+y,-z
loop_
_atom_site_type_symbol
_atom_site_label
_atom_site_fract_x
_atom_site_fract_y
_atom_site_fract_z
Si Si1 0.648753 0.764599 0.173760
Si Si2 0.179557 0.923512 0.260910
Si Si3 0.298208 0.034845 0.025765
Si Si4 0.203855 0.237262 0.593645
Si Si5 0.500000 0.500000 0.285379
Si Si6 0.000000 0.500000 0.481335
Si Si7 0.234487 0.219656 0.875888
O O1 0.692620 0.930973 0.228021
O O2 0.642513 0.593966 0.229784
O O3 0.456018 0.758877 0.146706
O O4 0.739545 0.812155 0.090009
O O5 0.208500 0.881237 0.351873
O O6 0.176867 0.749423 0.207461
O O7 0.000000 0.000000 0.248340
O O8 0.243585 0.062078 0.935330
O O9 0.500000 0.000000 0.023012
O O10 0.206025 0.873473 0.065928
O O11 0.093816 0.345146 0.530069
O O12 0.346169 0.101961 0.563226
O O13 0.081550 0.139912 0.656012
#
# Coordination Sequence:
#
# PCOD9312412 Si02
#       7
#     4   4   4   4   2   2   4
#     4  10  23  43  66 102 139 196 250 288 372 423
#     4  11  25  44  71  98 145 187 238 297 357 431
#     4   9  21  37  62  92 143 183 249 303 363 412
#     4  12  28  49  81 111 151 185 243 296 373 454
#     4  12  24  44  80 106 144 196 238 300 360 444
#     4  12  30  52  80 120 152 190 240 298 386 458
#     4  10  21  42  62  98 134 195 239 306 355 428
#
# _framework density 23.1981
#
# number of rings (size 3 to 8) (size 9 to 14) (size 15 to 20)
#    0.000    1.333    1.667    3.500    7.000    5.333 
#    1.500    0.000    0.000    0.000    0.000    0.000 
#    0.000    0.000    0.000    0.000    0.000    0.000 
#
# Total GULP energy -133773.003548 kJ/mol
# GULP energy per Si atom -5573.875148 kJ/mol
# Density = 2.314530 g / cm^3
# Si number density = 23.198100 Si / 1000 Ang^3
#
#
#
# Elastic Constant Matrix: (Units=GPa)
#
#
# Indices 1 2 3 4 5 6 
#
# 1 61.3384 16.9935 28.1434 0.0000 0.0000 0.0000
# 2 16.9935 107.8911 28.3472 0.0000 0.0000 0.0000
# 3 28.1434 28.3472 98.3414 0.0000 0.0000 0.0000
# 4 0.0000 0.0000 0.0000 273.6631 0.0000 0.0000
# 5 0.0000 0.0000 0.0000 0.0000 7.7605 0.0000
# 6 0.0000 0.0000 0.0000 0.0000 0.0000 33.4193
#
#
#
# Elastic Compliance Matrix: (Units=1/GPa)
#
#
# Indices 1 2 3 4 5 6 
#
# 1 0.019050 -0.001697 -0.004963 0.000000 0.000000 0.000000
# 2 -0.001697 0.010179 -0.002449 0.000000 0.000000 0.000000
# 3 -0.004963 -0.002449 0.012295 0.000000 0.000000 0.000000
# 4 0.000000 0.000000 0.000000 0.003654 0.000000 0.000000
# 5 0.000000 0.000000 0.000000 0.000000 0.128858 0.000000
# 6 0.000000 0.000000 0.000000 0.000000 0.000000 0.029923
#
#
# Mechanical properties :
#
#
# Convention : Reuss Voigt Hill
#
# Bulk Modulus (GPa) = 42.90366 46.05990 44.48178
# Shear Modulus (GPa) = 21.74445 75.90771 48.82608
#
# Velocity S-wave (km/s) = 3.06492 5.72648 4.59273
# Velocity P-wave (km/s) = 5.57311 7.97631 6.88045
#
# Compressibility (1/GPa) = 0.02330804
#
# Stress axis : x y z
#
# Youngs Moduli (GPa) = 52.49342 98.23970 81.33582
#
# Poissons Ratio (x) = 0.16667 0.40364
# Poissons Ratio (y) = 0.08906 0.19916
# Poissons Ratio (z) = 0.26051 0.24055
#
# Static dielectric constant tensor:
#      x y z
#    x 1.724620 0.000000 0.000000 
#    y 0.000000 2.053930 0.000000 
#    z 0.000000 0.000000 1.902380 
# 
# From -- ./inp_files/6690.got.cif
#   From: 2010.05.17/outbox.cif.g08.bks.cpg/sg18_4_cif.got.tgz:6690.got - 2010.06.03 22:40:56.
