data_PCOD9312370
_publ_section_title
;
Structure prediction by ZEFSAII (Michael W. Deem and Ramdas Pophale) SiO2 
 PCOD9312370
Probable space group: P 21 21 2
;
_chemical_formula_sum "Si O2"
_cell_formula_units_Z 18
_cell_length_a 24.515670
_cell_length_b 5.471779
_cell_length_c 4.902232
_cell_angle_alpha 90.000000
_cell_angle_beta 90.000000
_cell_angle_gamma 90.000000
_cell_volume 657.606619
_symmetry_space_group_name_H-M "P 21 21 2"
_symmetry_group_IT_number 18
_symmetry_cell_setting 'orthorhombic'
loop_
_space_group_symop_operation_xyz
x,y,z
-x,-y,z
1/2+x,1/2-y,-z
1/2-x,1/2+y,-z
loop_
_atom_site_type_symbol
_atom_site_label
_atom_site_fract_x
_atom_site_fract_y
_atom_site_fract_z
Si Si1 0.315867 0.783541 0.169667
Si Si2 0.297524 0.482427 0.670459
Si Si3 0.426608 0.654198 0.307150
Si Si4 0.500000 0.000000 0.988888
Si Si5 0.907348 0.184005 0.195269
O O1 0.301106 0.544558 0.353620
O O2 0.264386 0.947794 0.239096
O O3 0.376188 0.845597 0.274468
O O4 0.317234 0.710553 0.854597
O O5 0.343333 0.279072 0.737005
O O6 0.428700 0.526945 0.598798
O O7 0.478969 0.785101 0.185513
O O8 0.410244 0.436417 0.102038
O O9 0.449443 0.093411 0.807416
#
# Coordination Sequence:
#
# PCOD9312370 Si02
#       5
#     4   4   4   2   4
#     4  10  21  40  66  97 135 170 216 286 339 402
#     4  10  21  40  66  97 135 170 216 286 339 402
#     4  10  25  46  67 105 142 176 237 292 337 410
#     4  12  26  46  80  96 140 206 226 280 360 424
#     4  10  25  46  67 105 142 176 237 292 337 410
#
# _framework density 27.371986
#
# number of rings (size 3 to 8) (size 9 to 14) (size 15 to 20)
#    0.000    1.778    0.000    2.000    3.111    7.111 
#    0.000    0.000    0.000    0.000    0.000    0.000 
#    0.000    0.000    0.000    0.000    0.000    0.000 
#
# Total GULP energy -100880.300047 kJ/mol
# GULP energy per Si atom -5604.461114 kJ/mol
# Density = 2.730969 g / cm^3
# Si number density = 27.371986 Si / 1000 Ang^3
#
#
#
# Elastic Constant Matrix: (Units=GPa)
#
#
# Indices 1 2 3 4 5 6 
#
# 1 124.9360 20.2754 16.9828 0.0000 0.0000 0.0000
# 2 20.2754 67.5876 25.0163 0.0000 0.0000 0.0000
# 3 16.9828 25.0163 102.0879 0.0000 0.0000 0.0000
# 4 0.0000 0.0000 0.0000 20.1787 0.0000 0.0000
# 5 0.0000 0.0000 0.0000 0.0000 35.4848 0.0000
# 6 0.0000 0.0000 0.0000 0.0000 0.0000 49.3262
#
#
#
# Elastic Compliance Matrix: (Units=1/GPa)
#
#
# Indices 1 2 3 4 5 6 
#
# 1 0.008483 -0.002224 -0.000866 0.000000 0.000000 0.000000
# 2 -0.002224 0.016855 -0.003760 0.000000 0.000000 0.000000
# 3 -0.000866 -0.003760 0.010861 0.000000 0.000000 0.000000
# 4 0.000000 0.000000 0.000000 0.049557 0.000000 0.000000
# 5 0.000000 0.000000 0.000000 0.000000 0.028181 0.000000
# 6 0.000000 0.000000 0.000000 0.000000 0.000000 0.020273
#
#
# Mechanical properties :
#
#
# Convention : Reuss Voigt Hill
#
# Bulk Modulus (GPa) = 44.44942 46.57337 45.51139
# Shear Modulus (GPa) = 32.17301 36.48708 34.33004
#
# Velocity S-wave (km/s) = 3.43213 3.65500 3.54532
# Velocity P-wave (km/s) = 5.65511 5.90457 5.78119
#
# Compressibility (1/GPa) = 0.02249748
#
# Stress axis : x y z
#
# Youngs Moduli (GPa) = 117.88589 59.33107 92.07270
#
# Poissons Ratio (x) = 0.13196 0.07975
# Poissons Ratio (y) = 0.26219 0.34621
# Poissons Ratio (z) = 0.10210 0.22309
#
# Static dielectric constant tensor:
#      x y z
#    x 2.220520 0.000000 0.000000 
#    y 0.000000 2.171590 0.000000 
#    z 0.000000 0.000000 2.020770 
# 
# From -- ./inp_files/215.got.cif
#   From: 2010.05.17/outbox.cif.g08.bks.cpg/sg18_1_cif.got.tgz:215.got - 2010.06.03 22:40:56.
