data_PCOD9312627
_publ_section_title
;
Structure prediction by ZEFSAII (Michael W. Deem and Ramdas Pophale) SiO2 
 PCOD9312627
Probable space group: P 21 21 2
;
_chemical_formula_sum "Si O2"
_cell_formula_units_Z 18
_cell_length_a 10.466108
_cell_length_b 8.265172
_cell_length_c 8.931484
_cell_angle_alpha 90.000000
_cell_angle_beta 90.000000
_cell_angle_gamma 90.000000
_cell_volume 772.610725
_symmetry_space_group_name_H-M "P 21 21 2"
_symmetry_group_IT_number 18
_symmetry_cell_setting 'orthorhombic'
loop_
_space_group_symop_operation_xyz
x,y,z
-x,-y,z
1/2+x,1/2-y,-z
1/2-x,1/2+y,-z
loop_
_atom_site_type_symbol
_atom_site_label
_atom_site_fract_x
_atom_site_fract_y
_atom_site_fract_z
Si Si1 0.348049 0.773558 0.196866
Si Si2 0.627131 0.713905 0.328818
Si Si3 0.500000 0.500000 0.819585
Si Si4 0.219593 0.937166 0.957874
Si Si5 0.797037 0.994930 0.409228
O O1 0.484461 0.740475 0.269917
O O2 0.295786 0.613248 0.115263
O O3 0.257507 0.847100 0.324410
O O4 0.340665 0.906994 0.063795
O O5 0.709772 0.684261 0.179743
O O6 0.680993 0.869861 0.414534
O O7 0.646436 0.559000 0.435910
O O8 0.404835 0.582756 0.699479
O O9 0.596166 0.589004 0.933397
#
# Coordination Sequence:
#
# PCOD9312627 Si02
#       5
#     4   4   2   4   4
#     4  11  24  46  72 111 146 197 249 317 371 457
#     4  12  25  45  76 106 153 194 257 310 379 452
#     4  10  22  42  66 100 140 192 236 298 378 438
#     4  11  22  44  75 104 144 197 248 312 380 435
#     4  11  27  43  72 106 147 198 250 305 385 448
#
# _framework density 23.297633000000001
#
# number of rings (size 3 to 8) (size 9 to 14) (size 15 to 20)
#    0.000    0.889    2.222    4.667    6.222    0.000 
#    0.000    0.000    0.000    0.000    0.000    0.000 
#    0.000    0.000    0.000    0.000    0.000    0.000 
#
# Total GULP energy -100543.583714 kJ/mol
# GULP energy per Si atom -5585.754651 kJ/mol
# Density = 2.324461 g / cm^3
# Si number density = 23.297633 Si / 1000 Ang^3
#
#
#
# Elastic Constant Matrix: (Units=GPa)
#
#
# Indices 1 2 3 4 5 6 
#
# 1 87.7569 61.2111 61.0650 0.0000 0.0000 0.0000
# 2 61.2111 96.4733 50.1663 0.0000 0.0000 0.0000
# 3 61.0650 50.1663 162.2729 0.0000 0.0000 0.0000
# 4 0.0000 0.0000 0.0000 40.4974 0.0000 0.0000
# 5 0.0000 0.0000 0.0000 0.0000 41.3245 0.0000
# 6 0.0000 0.0000 0.0000 0.0000 0.0000 30.2680
#
#
#
# Elastic Compliance Matrix: (Units=1/GPa)
#
#
# Indices 1 2 3 4 5 6 
#
# 1 0.023450 -0.012261 -0.005034 0.000000 0.000000 0.000000
# 2 -0.012261 0.018762 -0.001186 0.000000 0.000000 0.000000
# 3 -0.005034 -0.001186 0.008424 0.000000 0.000000 0.000000
# 4 0.000000 0.000000 0.000000 0.024693 0.000000 0.000000
# 5 0.000000 0.000000 0.000000 0.000000 0.024199 0.000000
# 6 0.000000 0.000000 0.000000 0.000000 0.000000 0.033038
#
#
# Mechanical properties :
#
#
# Convention : Reuss Voigt Hill
#
# Bulk Modulus (GPa) = 73.13753 76.82088 74.97921
# Shear Modulus (GPa) = 28.72139 34.02201 31.37170
#
# Velocity S-wave (km/s) = 3.51494 3.82556 3.67353
# Velocity P-wave (km/s) = 6.92343 7.24972 7.08845
#
# Compressibility (1/GPa) = 0.01367287
#
# Stress axis : x y z
#
# Youngs Moduli (GPa) = 42.64337 53.29935 118.71485
#
# Poissons Ratio (x) = 0.65351 0.59762
# Poissons Ratio (y) = 0.52286 0.14082
# Poissons Ratio (z) = 0.21467 0.06322
#
# Static dielectric constant tensor:
#      x y z
#    x 1.889590 0.000000 0.000000 
#    y 0.000000 1.942190 0.000000 
#    z 0.000000 0.000000 1.881560 
# 
# From -- ./inp_files/3644.got.cif
#   From: 2010.05.17/outbox.cif.g08.bks.cpg/sg18_2_cif.got.tgz:3644.got - 2010.06.03 22:40:56.
