data_PCOD9312083
_publ_section_title
;
Structure prediction by ZEFSAII (Michael W. Deem and Ramdas Pophale) SiO2 
 PCOD9312083
Probable space group: P 21 21 2
;
_chemical_formula_sum "Si O2"
_cell_formula_units_Z 24
_cell_length_a 25.176329
_cell_length_b 7.938973
_cell_length_c 5.551121
_cell_angle_alpha 90.000000
_cell_angle_beta 90.000000
_cell_angle_gamma 90.000000
_cell_volume 1109.525848
_symmetry_space_group_name_H-M "P 21 21 2"
_symmetry_group_IT_number 18
_symmetry_cell_setting 'orthorhombic'
loop_
_space_group_symop_operation_xyz
x,y,z
-x,-y,z
1/2+x,1/2-y,-z
1/2-x,1/2+y,-z
loop_
_atom_site_type_symbol
_atom_site_label
_atom_site_fract_x
_atom_site_fract_y
_atom_site_fract_z
Si Si1 0.000000 0.500000 0.107986
Si Si2 0.604020 0.936926 0.628515
Si Si3 0.395980 0.436926 0.871485
Si Si4 0.950164 0.250000 0.750000
Si Si5 0.722419 0.948967 0.698289
Si Si6 0.000000 0.000000 0.392014
Si Si7 0.722419 0.551033 0.801711
O O1 0.053224 0.471557 0.260567
O O2 0.013164 0.661899 0.946339
O O3 0.605593 0.750000 0.750000
O O4 0.588007 0.894545 0.355365
O O5 0.661771 0.012832 0.666097
O O6 0.446776 0.528443 0.760567
O O7 0.338229 0.512832 0.833903
O O8 0.411993 0.394545 0.144635
O O9 0.986836 0.161899 0.553661
O O10 0.720912 0.750000 0.750000
O O11 0.751403 0.974868 0.440564
O O12 0.748597 0.025132 0.940564
#
# Coordination Sequence:
#
# PCOD9312083 Si02
#       7
#     2   4   4   4   4   2   4
#     4  10  20  38  60 100 116 172 206 266 318 398
#     4   9  21  38  64  89 125 171 214 258 330 393
#     4   9  21  38  64  89 125 171 214 258 330 393
#     4  10  20  38  66  88 130 164 212 260 328 396
#     4  11  25  45  70  99 134 179 226 278 333 396
#     4  10  20  38  60 100 116 172 206 266 318 398
#     4  11  25  45  70  99 134 179 226 278 333 396
#
# _framework density 21.630863999999999
#
# number of rings (size 3 to 8) (size 9 to 14) (size 15 to 20)
#    0.000    2.000    0.000    2.000   14.000    0.000 
#    3.000   10.000    0.000    0.000    0.000    0.000 
#    0.000    0.000    0.000    0.000    0.000    0.000 
#
# Total GULP energy -133939.175181 kJ/mol
# GULP energy per Si atom -5580.798966 kJ/mol
# Density = 2.158163 g / cm^3
# Si number density = 21.630864 Si / 1000 Ang^3
#
#
#
# Elastic Constant Matrix: (Units=GPa)
#
#
# Indices 1 2 3 4 5 6 
#
# 1 242.7590 32.9698 109.2958 0.0000 0.0000 0.0000
# 2 32.9698 31.3969 16.9367 0.0000 0.0000 0.0000
# 3 109.2958 16.9367 138.9316 0.0000 0.0000 0.0000
# 4 0.0000 0.0000 0.0000 39.4192 0.0000 0.0000
# 5 0.0000 0.0000 0.0000 0.0000 17.1963 0.0000
# 6 0.0000 0.0000 0.0000 0.0000 0.0000 27.3840
#
#
#
# Elastic Compliance Matrix: (Units=1/GPa)
#
#
# Indices 1 2 3 4 5 6 
#
# 1 0.006963 -0.004664 -0.004909 0.000000 0.000000 0.000000
# 2 -0.004664 0.037216 -0.000868 0.000000 0.000000 0.000000
# 3 -0.004909 -0.000868 0.011166 0.000000 0.000000 0.000000
# 4 0.000000 0.000000 0.000000 0.025368 0.000000 0.000000
# 5 0.000000 0.000000 0.000000 0.000000 0.058152 0.000000
# 6 0.000000 0.000000 0.000000 0.000000 0.000000 0.036518
#
#
# Mechanical properties :
#
#
# Convention : Reuss Voigt Hill
#
# Bulk Modulus (GPa) = 29.01692 81.27691 55.14691
# Shear Modulus (GPa) = 24.06724 33.72557 28.89640
#
# Velocity S-wave (km/s) = 3.33924 3.95288 3.65894
# Velocity P-wave (km/s) = 5.32081 7.64786 6.58790
#
# Compressibility (1/GPa) = 0.03446265
#
# Stress axis : x y z
#
# Youngs Moduli (GPa) = 143.61893 26.87039 89.56131
#
# Poissons Ratio (x) = 0.12531 0.43966
# Poissons Ratio (y) = 0.66977 0.07775
# Poissons Ratio (z) = 0.70504 0.02333
#
# Static dielectric constant tensor:
#      x y z
#    x 1.797520 0.000000 0.000000 
#    y 0.000000 1.804560 0.000000 
#    z 0.000000 0.000000 1.885390 
# 
# From -- ./inp_files/644.got.cif
#   From: 2010.05.17/outbox.cif.g08.bks.cpg/sg18_1_cif.got.tgz:644.got - 2010.06.03 22:40:56.
