data_PCOD9312757
_publ_section_title
;
Structure prediction by ZEFSAII (Michael W. Deem and Ramdas Pophale) SiO2 
 PCOD9312757
Probable space group: P 21 21 2
;
_chemical_formula_sum "Si O2"
_cell_formula_units_Z 22
_cell_length_a 14.761125
_cell_length_b 5.249573
_cell_length_c 13.133299
_cell_angle_alpha 90.000000
_cell_angle_beta 90.000000
_cell_angle_gamma 90.000000
_cell_volume 1017.694129
_symmetry_space_group_name_H-M "P 21 21 2"
_symmetry_group_IT_number 18
_symmetry_cell_setting 'orthorhombic'
loop_
_space_group_symop_operation_xyz
x,y,z
-x,-y,z
1/2+x,1/2-y,-z
1/2-x,1/2+y,-z
loop_
_atom_site_type_symbol
_atom_site_label
_atom_site_fract_x
_atom_site_fract_y
_atom_site_fract_z
Si Si1 0.598433 0.396256 0.271588
Si Si2 0.602629 0.886662 0.949415
Si Si3 0.829503 0.399147 0.829285
Si Si4 0.500000 0.500000 0.833751
Si Si5 0.847548 0.692803 0.244743
Si Si6 0.751459 0.975646 0.565924
O O1 0.500000 0.500000 0.297039
O O2 0.636365 0.616162 0.197444
O O3 0.660219 0.396475 0.370875
O O4 0.609021 0.121891 0.218976
O O5 0.576806 0.607185 0.909344
O O6 0.500000 0.000000 0.965570
O O7 0.653099 0.014251 0.854591
O O8 0.661731 0.919632 0.049614
O O9 0.730592 0.403607 0.776580
O O10 0.448428 0.696019 0.761340
O O11 0.822702 0.549403 0.348268
O O12 0.771902 0.233524 0.503344
#
# Coordination Sequence:
#
# PCOD9312757 Si02
#       6
#     4   4   4   2   4   4
#     4  11  24  45  69 103 137 179 231 292 347 418
#     4  10  23  40  62 102 141 185 227 276 335 424
#     4  11  25  39  73 100 145 186 228 273 347 416
#     4  10  24  42  66  96 150 178 242 274 346 412
#     4  10  25  42  68  98 138 183 231 291 345 418
#     4  11  25  47  73  96 134 176 234 294 357 412
#
# _framework density 21.617498000000001
#
# number of rings (size 3 to 8) (size 9 to 14) (size 15 to 20)
#    0.000    1.455    0.000    3.818   16.545    0.000 
#    1.636    0.000    0.000    0.000    0.000    0.000 
#    0.000    0.000    0.000    0.000    0.000    0.000 
#
# Total GULP energy -122864.935151 kJ/mol
# GULP energy per Si atom -5584.769780 kJ/mol
# Density = 2.156830 g / cm^3
# Si number density = 21.617498 Si / 1000 Ang^3
#
#
#
# Elastic Constant Matrix: (Units=GPa)
#
#
# Indices 1 2 3 4 5 6 
#
# 1 32.9230 19.4009 33.0475 0.0000 0.0000 0.0000
# 2 19.4009 77.3498 24.4428 0.0000 0.0000 0.0000
# 3 33.0475 24.4428 123.3153 0.0000 0.0000 0.0000
# 4 0.0000 0.0000 0.0000 20.1729 0.0000 0.0000
# 5 0.0000 0.0000 0.0000 0.0000 2.9531 0.0000
# 6 0.0000 0.0000 0.0000 0.0000 0.0000 30.5447
#
#
#
# Elastic Compliance Matrix: (Units=1/GPa)
#
#
# Indices 1 2 3 4 5 6 
#
# 1 0.045895 -0.008134 -0.010687 0.000000 0.000000 0.000000
# 2 -0.008134 0.015234 -0.000840 0.000000 0.000000 0.000000
# 3 -0.010687 -0.000840 0.011140 0.000000 0.000000 0.000000
# 4 0.000000 0.000000 0.000000 0.049572 0.000000 0.000000
# 5 0.000000 0.000000 0.000000 0.000000 0.338631 0.000000
# 6 0.000000 0.000000 0.000000 0.000000 0.000000 0.032739
#
#
# Mechanical properties :
#
#
# Convention : Reuss Voigt Hill
#
# Bulk Modulus (GPa) = 30.35224 43.04116 36.69670
# Shear Modulus (GPa) = 9.19940 21.18059 15.19000
#
# Velocity S-wave (km/s) = 2.06513 3.13355 2.65367
# Velocity P-wave (km/s) = 4.44493 5.74855 5.13825
#
# Compressibility (1/GPa) = 0.03294650
#
# Stress axis : x y z
#
# Youngs Moduli (GPa) = 21.78898 65.64342 89.76825
#
# Poissons Ratio (x) = 0.53395 0.95936
# Poissons Ratio (y) = 0.17723 0.07538
# Poissons Ratio (z) = 0.23286 0.05512
#
# Static dielectric constant tensor:
#      x y z
#    x 1.874970 0.000000 0.000000 
#    y 0.000000 1.858920 0.000000 
#    z 0.000000 0.000000 1.749930 
# 
# From -- ./inp_files/6030.got.cif
#   From: 2010.05.17/outbox.cif.g08.bks.cpg/sg18_4_cif.got.tgz:6030.got - 2010.06.03 22:40:56.
