data_PCOD9312325
_publ_section_title
;
Structure prediction by ZEFSAII (Michael W. Deem and Ramdas Pophale) SiO2 
 PCOD9312325
Probable space group: P 21 21 2
;
_chemical_formula_sum "Si O2"
_cell_formula_units_Z 18
_cell_length_a 5.147775
_cell_length_b 12.276324
_cell_length_c 11.938552
_cell_angle_alpha 90.000000
_cell_angle_beta 90.000000
_cell_angle_gamma 90.000000
_cell_volume 754.465793
_symmetry_space_group_name_H-M "P 21 21 2"
_symmetry_group_IT_number 18
_symmetry_cell_setting 'orthorhombic'
loop_
_space_group_symop_operation_xyz
x,y,z
-x,-y,z
1/2+x,1/2-y,-z
1/2-x,1/2+y,-z
loop_
_atom_site_type_symbol
_atom_site_label
_atom_site_fract_x
_atom_site_fract_y
_atom_site_fract_z
Si Si1 0.393995 0.227593 0.933637
Si Si2 0.000000 0.500000 0.007414
Si Si3 0.987377 0.368865 0.395633
Si Si4 0.512173 0.772667 0.353654
Si Si5 0.808012 0.082266 0.200418
O O1 0.465297 0.311608 0.838213
O O2 0.593374 0.255333 0.034183
O O3 0.437814 0.101543 0.915499
O O4 0.775712 0.527812 0.917480
O O5 0.232049 0.301589 0.346448
O O6 0.987335 0.335657 0.527546
O O7 0.000000 0.500000 0.382341
O O8 0.723776 0.314254 0.350256
O O9 0.437516 0.868262 0.265604
O O10 0.000000 0.000000 0.263457
#
# Coordination Sequence:
#
# PCOD9312325 Si02
#       5
#     4   2   4   4   4
#     4  10  21  39  61  92 129 168 209 264 341 382
#     4  10  22  40  66  92 134 166 220 272 342 380
#     4  10  22  44  65  90 140 173 212 277 345 399
#     4  10  24  38  67 102 125 174 229 270 332 408
#     4  11  23  39  66 101 132 170 229 282 320 409
#
# _framework density 23.857941
#
# number of rings (size 3 to 8) (size 9 to 14) (size 15 to 20)
#    0.000    1.778    2.222    0.667    4.667    3.556 
#    2.000    0.000   19.556    0.000    0.000    0.000 
#    0.000    0.000    0.000    0.000    0.000    0.000 
#
# Total GULP energy -100537.041046 kJ/mol
# GULP energy per Si atom -5585.391169 kJ/mol
# Density = 2.380364 g / cm^3
# Si number density = 23.857941 Si / 1000 Ang^3
#
#
#
# Elastic Constant Matrix: (Units=GPa)
#
#
# Indices 1 2 3 4 5 6 
#
# 1 143.5291 52.5877 31.0133 0.0000 0.0000 0.0000
# 2 52.5877 178.6302 39.9489 0.0000 0.0000 0.0000
# 3 31.0133 39.9489 41.7810 0.0000 0.0000 0.0000
# 4 0.0000 0.0000 0.0000 15.8566 0.0000 0.0000
# 5 0.0000 0.0000 0.0000 0.0000 26.1276 0.0000
# 6 0.0000 0.0000 0.0000 0.0000 0.0000 37.2068
#
#
#
# Elastic Compliance Matrix: (Units=1/GPa)
#
#
# Indices 1 2 3 4 5 6 
#
# 1 0.008564 -0.001399 -0.005020 0.000000 0.000000 0.000000
# 2 -0.001399 0.007349 -0.005989 0.000000 0.000000 0.000000
# 3 -0.005020 -0.005989 0.033387 0.000000 0.000000 0.000000
# 4 0.000000 0.000000 0.000000 0.063065 0.000000 0.000000
# 5 0.000000 0.000000 0.000000 0.000000 0.038274 0.000000
# 6 0.000000 0.000000 0.000000 0.000000 0.000000 0.026877
#
#
# Mechanical properties :
#
#
# Convention : Reuss Voigt Hill
#
# Bulk Modulus (GPa) = 40.84024 67.89336 54.36680
# Shear Modulus (GPa) = 23.75383 31.86422 27.80903
#
# Velocity S-wave (km/s) = 3.15879 3.65853 3.41781
# Velocity P-wave (km/s) = 5.51899 6.80922 6.19777
#
# Compressibility (1/GPa) = 0.02448565
#
# Stress axis : x y z
#
# Youngs Moduli (GPa) = 116.76294 136.06842 29.95212
#
# Poissons Ratio (x) = 0.19031 0.15036
# Poissons Ratio (y) = 0.16331 0.17938
# Poissons Ratio (z) = 0.58613 0.81488
#
# Static dielectric constant tensor:
#      x y z
#    x 1.928560 0.000000 0.000000 
#    y 0.000000 1.920410 0.000000 
#    z 0.000000 0.000000 1.919560 
# 
# From -- ./inp_files/5007.got.cif
#   From: 2010.05.17/outbox.cif.g08.bks.cpg/sg18_3_cif.got.tgz:5007.got - 2010.06.03 22:40:56.
