data_PCOD9312351
_publ_section_title
;
Structure prediction by ZEFSAII (Michael W. Deem and Ramdas Pophale) SiO2 
 PCOD9312351
Probable space group: P 21 21 2
;
_chemical_formula_sum "Si O2"
_cell_formula_units_Z 32
_cell_length_a 23.048588
_cell_length_b 11.037410
_cell_length_c 5.365667
_cell_angle_alpha 90.000000
_cell_angle_beta 90.000000
_cell_angle_gamma 90.000000
_cell_volume 1365.008062
_symmetry_space_group_name_H-M "P 21 21 2"
_symmetry_group_IT_number 18
_symmetry_cell_setting 'orthorhombic'
loop_
_space_group_symop_operation_xyz
x,y,z
-x,-y,z
1/2+x,1/2-y,-z
1/2-x,1/2+y,-z
loop_
_atom_site_type_symbol
_atom_site_label
_atom_site_fract_x
_atom_site_fract_y
_atom_site_fract_z
Si Si1 0.564588 0.556457 0.776922
Si Si2 0.290929 0.997579 0.192492
Si Si3 0.789599 0.767431 0.769119
Si Si4 0.068419 0.474758 0.191453
Si Si5 0.968988 0.134694 0.722933
Si Si6 0.672147 0.389856 0.732380
Si Si7 0.042905 0.381209 0.687480
Si Si8 0.327650 0.113740 0.690606
O O1 0.500000 0.500000 0.777385
O O2 0.568941 0.634390 0.526635
O O3 0.609736 0.447750 0.770469
O O4 0.568767 0.633963 0.027313
O O5 0.305231 0.867483 0.293382
O O6 0.221989 0.011727 0.218340
O O7 0.318982 0.088628 0.395828
O O8 0.305536 0.016472 0.901619
O O9 0.817823 0.848177 0.551476
O O10 0.719384 0.783339 0.755062
O O11 0.812630 0.796834 0.045621
O O12 0.075900 0.385109 0.424725
O O13 0.104297 0.596684 0.249916
O O14 0.000000 0.500000 0.174830
O O15 0.081154 0.411963 0.928501
O O16 0.010790 0.252121 0.720461
O O17 0.000000 0.000000 0.722394
O O18 0.000000 0.500000 0.671073
#
# Coordination Sequence:
#
# PCOD9312351 Si02
#       8
#     4   4   4   4   4   4   4   4
#     4  10  21  40  60  90 123 163 206 250 313 383
#     4  10  21  40  60  92 117 156 209 258 314 363
#     4  10  21  40  63  87 121 157 209 257 312 366
#     4  10  21  40  63  90 125 162 206 255 315 385
#     4  10  21  40  58  84 128 164 203 248 299 368
#     4  10  21  40  64  86 123 159 204 258 307 375
#     4  10  21  40  60  86 126 166 205 248 299 372
#     4  10  21  40  62  89 123 157 204 260 307 372
#
# _framework density 23.443083999999999
#
# number of rings (size 3 to 8) (size 9 to 14) (size 15 to 20)
#    0.000    2.000    0.000    3.000    0.000    0.000 
#   36.000    0.000    0.000    0.000    0.000    0.000 
#    0.000    0.000    0.000    0.000    0.000    0.000 
#
# Total GULP energy -178452.351144 kJ/mol
# GULP energy per Si atom -5576.635973 kJ/mol
# Density = 2.338973 g / cm^3
# Si number density = 23.443084 Si / 1000 Ang^3
#
#
#
# Elastic Constant Matrix: (Units=GPa)
#
#
# Indices 1 2 3 4 5 6 
#
# 1 91.6915 -1.4824 -24.4444 0.0000 0.0000 0.0000
# 2 -1.4824 72.6685 -2.6410 0.0000 0.0000 0.0000
# 3 -24.4444 -2.6410 156.5220 0.0000 0.0000 0.0000
# 4 0.0000 0.0000 0.0000 22.7892 0.0000 0.0000
# 5 0.0000 0.0000 0.0000 0.0000 106.8156 0.0000
# 6 0.0000 0.0000 0.0000 0.0000 0.0000 0.5579
#
#
#
# Elastic Compliance Matrix: (Units=1/GPa)
#
#
# Indices 1 2 3 4 5 6 
#
# 1 0.011386 0.000297 0.001783 0.000000 0.000000 0.000000
# 2 0.000297 0.013777 0.000279 0.000000 0.000000 0.000000
# 3 0.001783 0.000279 0.006672 0.000000 0.000000 0.000000
# 4 0.000000 0.000000 0.000000 0.043880 0.000000 0.000000
# 5 0.000000 0.000000 0.000000 0.000000 0.009362 0.000000
# 6 0.000000 0.000000 0.000000 0.000000 0.000000 1.792473
#
#
# Mechanical properties :
#
#
# Convention : Reuss Voigt Hill
#
# Bulk Modulus (GPa) = 27.35672 29.30517 28.33095
# Shear Modulus (GPa) = 2.65249 49.32919 25.99084
#
# Velocity S-wave (km/s) = 1.06486 4.59214 3.33329
# Velocity P-wave (km/s) = 3.63409 6.37532 5.18900
#
# Compressibility (1/GPa) = 0.03655408
#
# Stress axis : x y z
#
# Youngs Moduli (GPa) = 87.82457 72.58308 149.87836
#
# Poissons Ratio (x) = -0.02156 -0.26727
# Poissons Ratio (y) = -0.02609 -0.04179
# Poissons Ratio (z) = -0.15661 -0.02024
#
# Static dielectric constant tensor:
#      x y z
#    x 1.937270 0.000000 0.000000 
#    y 0.000000 0.909640 0.000000 
#    z 0.000000 0.000000 1.989690 
# 
# From -- ./inp_files/2138.got.cif
#   From: 2010.05.17/outbox.cif.g08.bks.cpg/sg18_2_cif.got.tgz:2138.got - 2010.06.03 22:40:56.
