data_PCOD9312468
_publ_section_title
;
Structure prediction by ZEFSAII (Michael W. Deem and Ramdas Pophale) SiO2 
 PCOD9312468
Probable space group: P 21 21 2
;
_chemical_formula_sum "Si O2"
_cell_formula_units_Z 16
_cell_length_a 4.939061
_cell_length_b 9.378816
_cell_length_c 14.068590
_cell_angle_alpha 90.000000
_cell_angle_beta 90.000000
_cell_angle_gamma 90.000000
_cell_volume 651.692884
_symmetry_space_group_name_H-M "P 21 21 2"
_symmetry_group_IT_number 18
_symmetry_cell_setting 'orthorhombic'
loop_
_space_group_symop_operation_xyz
x,y,z
-x,-y,z
1/2+x,1/2-y,-z
1/2-x,1/2+y,-z
loop_
_atom_site_type_symbol
_atom_site_label
_atom_site_fract_x
_atom_site_fract_y
_atom_site_fract_z
Si Si1 0.500000 0.000000 0.342344
Si Si2 0.257041 0.598349 0.352856
Si Si3 0.548067 0.228452 0.197356
Si Si4 0.000000 0.000000 0.915057
Si Si5 0.500000 0.500000 0.528240
Si Si6 0.500000 0.000000 0.043654
O O1 0.602954 0.871874 0.274448
O O2 0.749772 0.046185 0.407595
O O3 0.500000 0.500000 0.314899
O O4 0.219698 0.709072 0.267494
O O5 0.382849 0.624483 0.458247
O O6 0.000000 0.500000 0.367706
O O7 0.410357 0.361880 0.145429
O O8 0.619897 0.121523 0.112674
O O9 0.746581 0.950175 0.978166
#
# Coordination Sequence:
#
# PCOD9312468 Si02
#       6
#     2   4   4   2   2   2
#     4  11  26  42  71 102 150 178 241 294 344 415
#     4  10  22  42  69  99 138 185 233 278 340 421
#     4  11  26  46  71 107 137 187 234 293 356 418
#     4  12  25  49  72  98 142 182 234 287 365 430
#     4  10  21  47  64 106 138 194 228 289 347 410
#     4  11  28  46  73 104 138 178 233 302 354 421
#
# _framework density 24.551442000000002
#
# number of rings (size 3 to 8) (size 9 to 14) (size 15 to 20)
#    0.750    0.500    2.500    1.500    1.750   12.000 
#    0.000    0.000    0.000    0.000    0.000    0.000 
#    0.000    0.000    0.000    0.000    0.000    0.000 
#
# Total GULP energy -89135.359885 kJ/mol
# GULP energy per Si atom -5570.959993 kJ/mol
# Density = 2.449556 g / cm^3
# Si number density = 24.551442 Si / 1000 Ang^3
#
#
#
# Elastic Constant Matrix: (Units=GPa)
#
#
# Indices 1 2 3 4 5 6 
#
# 1 121.4713 17.6449 50.3345 0.0000 0.0000 0.0000
# 2 17.6449 104.8904 63.4014 0.0000 0.0000 0.0000
# 3 50.3345 63.4014 157.4572 0.0000 0.0000 0.0000
# 4 0.0000 0.0000 0.0000 34.1496 0.0000 0.0000
# 5 0.0000 0.0000 0.0000 0.0000 28.5970 0.0000
# 6 0.0000 0.0000 0.0000 0.0000 0.0000 18.7560
#
#
#
# Elastic Compliance Matrix: (Units=1/GPa)
#
#
# Indices 1 2 3 4 5 6 
#
# 1 0.009497 0.000314 -0.003162 0.000000 0.000000 0.000000
# 2 0.000314 0.012611 -0.005178 0.000000 0.000000 0.000000
# 3 -0.003162 -0.005178 0.009447 0.000000 0.000000 0.000000
# 4 0.000000 0.000000 0.000000 0.029283 0.000000 0.000000
# 5 0.000000 0.000000 0.000000 0.000000 0.034969 0.000000
# 6 0.000000 0.000000 0.000000 0.000000 0.000000 0.053316
#
#
# Mechanical properties :
#
#
# Convention : Reuss Voigt Hill
#
# Bulk Modulus (GPa) = 64.50945 71.84227 68.17586
# Shear Modulus (GPa) = 29.35241 33.12972 31.24107
#
# Velocity S-wave (km/s) = 3.46142 3.67740 3.57105
# Velocity P-wave (km/s) = 6.50442 6.88161 6.69567
#
# Compressibility (1/GPa) = 0.01550161
#
# Stress axis : x y z
#
# Youngs Moduli (GPa) = 105.29410 79.29603 105.85470
#
# Poissons Ratio (x) = -0.02489 0.33475
# Poissons Ratio (y) = -0.03305 0.54814
# Poissons Ratio (z) = 0.33298 0.41061
#
# Static dielectric constant tensor:
#      x y z
#    x 1.857680 0.000000 0.000000 
#    y 0.000000 2.024160 0.000000 
#    z 0.000000 0.000000 1.991950 
# 
# From -- ./inp_files/6382.got.cif
#   From: 2010.05.17/outbox.cif.g08.bks.cpg/sg18_4_cif.got.tgz:6382.got - 2010.06.03 22:40:56.
