data_PCOD9312400
_publ_section_title
;
Structure prediction by ZEFSAII (Michael W. Deem and Ramdas Pophale) SiO2 
 PCOD9312400
Probable space group: P 21 21 2
;
_chemical_formula_sum "Si O2"
_cell_formula_units_Z 20
_cell_length_a 13.499696
_cell_length_b 7.893786
_cell_length_c 8.678435
_cell_angle_alpha 90.000000
_cell_angle_beta 90.000000
_cell_angle_gamma 90.000000
_cell_volume 924.806242
_symmetry_space_group_name_H-M "P 21 21 2"
_symmetry_group_IT_number 18
_symmetry_cell_setting 'orthorhombic'
loop_
_space_group_symop_operation_xyz
x,y,z
-x,-y,z
1/2+x,1/2-y,-z
1/2-x,1/2+y,-z
loop_
_atom_site_type_symbol
_atom_site_label
_atom_site_fract_x
_atom_site_fract_y
_atom_site_fract_z
Si Si1 0.625038 0.864101 0.844365
Si Si2 0.576878 0.201060 0.695854
Si Si3 0.938878 0.169520 0.570014
Si Si4 0.795633 0.046402 0.321460
Si Si5 0.106680 0.582063 0.810948
O O1 0.509509 0.806967 0.826261
O O2 0.683879 0.696763 0.798729
O O3 0.635242 0.026359 0.729825
O O4 0.649604 0.915693 0.017936
O O5 0.510198 0.213220 0.539142
O O6 0.642893 0.371165 0.705978
O O7 0.839062 0.126484 0.476969
O O8 0.911941 0.236894 0.736071
O O9 0.000000 0.000000 0.583240
O O10 0.680717 0.006479 0.308723
O O11 0.000000 0.500000 0.818106
#
# Coordination Sequence:
#
# PCOD9312400 Si02
#       5
#     4   4   4   4   4
#     4  10  21  41  67  97 126 172 212 276 326 384
#     4   9  19  44  70  88 126 176 222 252 332 404
#     4   9  22  45  67  94 129 181 216 272 333 395
#     4  10  24  43  67  94 126 179 222 255 336 402
#     4  12  26  41  62 106 136 162 227 282 324 383
#
# _framework density 21.626151
#
# number of rings (size 3 to 8) (size 9 to 14) (size 15 to 20)
#    0.000    2.000    2.000    1.800    8.400    4.800 
#    3.600    0.000    0.000    0.000    0.000    0.000 
#    0.000    0.000    0.000    0.000    0.000    0.000 
#
# Total GULP energy -111592.767435 kJ/mol
# GULP energy per Si atom -5579.638372 kJ/mol
# Density = 2.157693 g / cm^3
# Si number density = 21.626151 Si / 1000 Ang^3
#
#
#
# Elastic Constant Matrix: (Units=GPa)
#
#
# Indices 1 2 3 4 5 6 
#
# 1 31.4246 10.2066 -0.3860 0.0000 0.0000 0.0000
# 2 10.2066 114.5778 38.9416 0.0000 0.0000 0.0000
# 3 -0.3860 38.9416 38.4391 0.0000 0.0000 0.0000
# 4 0.0000 0.0000 0.0000 30.7482 0.0000 0.0000
# 5 0.0000 0.0000 0.0000 0.0000 13.0460 0.0000
# 6 0.0000 0.0000 0.0000 0.0000 0.0000 6.7989
#
#
#
# Elastic Compliance Matrix: (Units=1/GPa)
#
#
# Indices 1 2 3 4 5 6 
#
# 1 0.033416 -0.004714 0.005111 0.000000 0.000000 0.000000
# 2 -0.004714 0.013976 -0.014206 0.000000 0.000000 0.000000
# 3 0.005111 -0.014206 0.040458 0.000000 0.000000 0.000000
# 4 0.000000 0.000000 0.000000 0.032522 0.000000 0.000000
# 5 0.000000 0.000000 0.000000 0.000000 0.076652 0.000000
# 6 0.000000 0.000000 0.000000 0.000000 0.000000 0.147084
#
#
# Mechanical properties :
#
#
# Convention : Reuss Voigt Hill
#
# Bulk Modulus (GPa) = 16.60236 31.32954 23.96595
# Shear Modulus (GPa) = 12.76156 19.16391 15.96273
#
# Velocity S-wave (km/s) = 2.43183 2.98005 2.71979
# Velocity P-wave (km/s) = 3.94699 5.13413 4.57919
#
# Compressibility (1/GPa) = 0.06023239
#
# Stress axis : x y z
#
# Youngs Moduli (GPa) = 29.92582 71.55282 24.71709
#
# Poissons Ratio (x) = 0.33728 -0.12633
# Poissons Ratio (y) = 0.14106 0.35112
# Poissons Ratio (z) = -0.15295 1.01646
#
# Static dielectric constant tensor:
#      x y z
#    x 1.850390 0.000000 0.000000 
#    y 0.000000 1.742460 0.000000 
#    z 0.000000 0.000000 1.798150 
# 
# From -- ./inp_files/4117.got.cif
#   From: 2010.05.17/outbox.cif.g08.bks.cpg/sg18_3_cif.got.tgz:4117.got - 2010.06.03 22:40:56.
