data_PCOD9312851
_publ_section_title
;
Structure prediction by ZEFSAII (Michael W. Deem and Ramdas Pophale) SiO2 
 PCOD9312851
Probable space group: P 21 21 2
;
_chemical_formula_sum "Si O2"
_cell_formula_units_Z 26
_cell_length_a 22.015766
_cell_length_b 8.868355
_cell_length_c 5.144999
_cell_angle_alpha 90.000000
_cell_angle_beta 90.000000
_cell_angle_gamma 90.000000
_cell_volume 1004.528273
_symmetry_space_group_name_H-M "P 21 21 2"
_symmetry_group_IT_number 18
_symmetry_cell_setting 'orthorhombic'
loop_
_space_group_symop_operation_xyz
x,y,z
-x,-y,z
1/2+x,1/2-y,-z
1/2-x,1/2+y,-z
loop_
_atom_site_type_symbol
_atom_site_label
_atom_site_fract_x
_atom_site_fract_y
_atom_site_fract_z
Si Si1 0.892072 0.348882 0.035448
Si Si2 0.813406 0.110949 0.322596
Si Si3 0.669437 0.100638 0.314135
Si Si4 0.000000 0.500000 0.371305
Si Si5 0.525529 0.307299 0.497937
Si Si6 0.911861 0.076442 0.704306
Si Si7 0.632716 0.293526 0.826927
O O1 0.863538 0.448676 0.797850
O O2 0.923511 0.199425 0.920159
O O3 0.837465 0.270592 0.205030
O O4 0.942676 0.442196 0.198111
O O5 0.742038 0.087240 0.324198
O O6 0.843540 0.094009 0.607523
O O7 0.840946 0.962741 0.182394
O O8 0.652496 0.182282 0.586644
O O9 0.654344 0.215365 0.084082
O O10 0.978711 0.632438 0.560898
O O11 0.457613 0.366417 0.521843
O O12 0.563290 0.407363 0.293730
O O13 0.561901 0.311518 0.764953
#
# Coordination Sequence:
#
# PCOD9312851 Si02
#       7
#     4   4   4   2   4   4   4
#     4  12  28  48  79 114 155 211 264 336 402 475
#     4  11  27  50  76 107 159 209 270 320 401 479
#     4  12  29  48  80 115 160 207 276 325 398 464
#     4  12  24  48  78 114 156 194 266 336 402 476
#     4  10  23  49  73 110 151 199 254 320 395 471
#     4  10  25  47  75 109 150 206 258 317 401 474
#     4  11  28  50  76 115 157 210 260 334 392 477
#
# _framework density 25.882798999999999
#
# number of rings (size 3 to 8) (size 9 to 14) (size 15 to 20)
#    0.000    0.923    3.077    0.923   15.077    0.000 
#    8.308    0.000    0.000    0.000    0.000    0.000 
#    0.000    0.000    0.000    0.000    0.000    0.000 
#
# Total GULP energy -145412.011176 kJ/mol
# GULP energy per Si atom -5592.769661 kJ/mol
# Density = 2.582389 g / cm^3
# Si number density = 25.882799 Si / 1000 Ang^3
#
#
#
# Elastic Constant Matrix: (Units=GPa)
#
#
# Indices 1 2 3 4 5 6 
#
# 1 127.8636 46.4609 18.2823 0.0000 0.0000 0.0000
# 2 46.4609 196.0530 51.0135 0.0000 0.0000 0.0000
# 3 18.2823 51.0135 100.8474 0.0000 0.0000 0.0000
# 4 0.0000 0.0000 0.0000 51.8768 0.0000 0.0000
# 5 0.0000 0.0000 0.0000 0.0000 9.8867 0.0000
# 6 0.0000 0.0000 0.0000 0.0000 0.0000 35.2268
#
#
#
# Elastic Compliance Matrix: (Units=1/GPa)
#
#
# Indices 1 2 3 4 5 6 
#
# 1 0.008590 -0.001878 -0.000607 0.000000 0.000000 0.000000
# 2 -0.001878 0.006284 -0.002838 0.000000 0.000000 0.000000
# 3 -0.000607 -0.002838 0.011462 0.000000 0.000000 0.000000
# 4 0.000000 0.000000 0.000000 0.019276 0.000000 0.000000
# 5 0.000000 0.000000 0.000000 0.000000 0.101146 0.000000
# 6 0.000000 0.000000 0.000000 0.000000 0.000000 0.028387
#
#
# Mechanical properties :
#
#
# Convention : Reuss Voigt Hill
#
# Bulk Modulus (GPa) = 63.73884 72.91968 68.32926
# Shear Modulus (GPa) = 26.17484 39.99855 33.08670
#
# Velocity S-wave (km/s) = 3.18352 3.93539 3.57925
# Velocity P-wave (km/s) = 6.18000 6.99170 6.59835
#
# Compressibility (1/GPa) = 0.01568902
#
# Stress axis : x y z
#
# Youngs Moduli (GPa) = 116.41524 159.12949 87.24533
#
# Poissons Ratio (x) = 0.29878 0.05300
# Poissons Ratio (y) = 0.21858 0.24764
# Poissons Ratio (z) = 0.07072 0.45168
#
# Static dielectric constant tensor:
#      x y z
#    x 2.054610 0.000000 0.000000 
#    y 0.000000 2.184270 0.000000 
#    z 0.000000 0.000000 2.075240 
# 
# From -- ./inp_files/2083.got.cif
#   From: 2010.05.17/outbox.cif.g08.bks.cpg/sg18_2_cif.got.tgz:2083.got - 2010.06.03 22:40:56.
