data_PCOD9312193
_publ_section_title
;
Structure prediction by ZEFSAII (Michael W. Deem and Ramdas Pophale) SiO2 
 PCOD9312193
Probable space group: P 21 21 2
;
_chemical_formula_sum "Si O2"
_cell_formula_units_Z 22
_cell_length_a 8.239667
_cell_length_b 14.224237
_cell_length_c 8.558532
_cell_angle_alpha 90.000000
_cell_angle_beta 90.000000
_cell_angle_gamma 90.000000
_cell_volume 1003.085422
_symmetry_space_group_name_H-M "P 21 21 2"
_symmetry_group_IT_number 18
_symmetry_cell_setting 'orthorhombic'
loop_
_space_group_symop_operation_xyz
x,y,z
-x,-y,z
1/2+x,1/2-y,-z
1/2-x,1/2+y,-z
loop_
_atom_site_type_symbol
_atom_site_label
_atom_site_fract_x
_atom_site_fract_y
_atom_site_fract_z
Si Si1 0.275194 0.848593 0.913413
Si Si2 0.023265 0.808376 0.183939
Si Si3 0.265720 0.950689 0.620129
Si Si4 0.222408 0.059591 0.322094
Si Si5 0.000000 0.500000 0.922425
Si Si6 0.116734 0.644151 0.398940
O O1 0.414583 0.921298 0.970669
O O2 0.147203 0.832807 0.048462
O O3 0.373039 0.754257 0.876916
O O4 0.189152 0.889436 0.757143
O O5 0.939756 0.900608 0.250103
O O6 0.111924 0.742313 0.311733
O O7 0.434578 0.896463 0.587052
O O8 0.199501 0.975816 0.448946
O O9 0.294297 0.056630 0.687505
O O10 0.299369 0.142268 0.432289
O O11 0.355980 0.035344 0.191962
#
# Coordination Sequence:
#
# PCOD9312193 Si02
#       6
#     4   4   4   4   2   4
#     4  11  24  41  69 102 142 179 221 287 354 407
#     4  11  23  40  68 106 138 170 230 287 346 402
#     4   8  16  40  68  89 128 181 223 268 338 406
#     4  10  20  40  71  96 127 179 234 267 332 417
#     4  12  22  40  74  90 142 188 216 272 354 414
#     4   8  16  37  65  97 121 173 226 273 329 397
#
# _framework density 21.93233
#
# number of rings (size 3 to 8) (size 9 to 14) (size 15 to 20)
#    1.091    1.091    1.818    3.273    0.000    2.182 
#    0.000    0.000    8.000    0.000    0.000    0.000 
#    0.000    0.000    0.000    0.000    0.000    0.000 
#
# Total GULP energy -122728.930100 kJ/mol
# GULP energy per Si atom -5578.587732 kJ/mol
# Density = 2.188241 g / cm^3
# Si number density = 21.932330 Si / 1000 Ang^3
#
#
#
# Elastic Constant Matrix: (Units=GPa)
#
#
# Indices 1 2 3 4 5 6 
#
# 1 45.1528 36.6277 34.8799 0.0000 0.0000 0.0000
# 2 36.6277 97.4861 43.0937 0.0000 0.0000 0.0000
# 3 34.8799 43.0937 93.6968 0.0000 0.0000 0.0000
# 4 0.0000 0.0000 0.0000 38.8691 0.0000 0.0000
# 5 0.0000 0.0000 0.0000 0.0000 50.8040 0.0000
# 6 0.0000 0.0000 0.0000 0.0000 0.0000 20.5031
#
#
#
# Elastic Compliance Matrix: (Units=1/GPa)
#
#
# Indices 1 2 3 4 5 6 
#
# 1 0.037436 -0.009922 -0.009373 0.000000 0.000000 0.000000
# 2 -0.009922 0.015506 -0.003438 0.000000 0.000000 0.000000
# 3 -0.009373 -0.003438 0.015743 0.000000 0.000000 0.000000
# 4 0.000000 0.000000 0.000000 0.025727 0.000000 0.000000
# 5 0.000000 0.000000 0.000000 0.000000 0.019683 0.000000
# 6 0.000000 0.000000 0.000000 0.000000 0.000000 0.048773
#
#
# Mechanical properties :
#
#
# Convention : Reuss Voigt Hill
#
# Bulk Modulus (GPa) = 43.06760 51.72648 47.39704
# Shear Modulus (GPa) = 23.14025 30.15086 26.64556
#
# Velocity S-wave (km/s) = 3.25172 3.71175 3.48932
# Velocity P-wave (km/s) = 5.81183 6.48114 6.15559
#
# Compressibility (1/GPa) = 0.02321931
#
# Stress axis : x y z
#
# Youngs Moduli (GPa) = 26.71210 64.49296 63.52087
#
# Poissons Ratio (x) = 0.63993 0.59535
# Poissons Ratio (y) = 0.26505 0.21836
# Poissons Ratio (z) = 0.25036 0.22170
#
# Static dielectric constant tensor:
#      x y z
#    x 1.794120 0.000000 0.000000 
#    y 0.000000 1.833570 0.000000 
#    z 0.000000 0.000000 1.807130 
# 
# From -- ./inp_files/3113.got.cif
#   From: 2010.05.17/outbox.cif.g08.bks.cpg/sg18_2_cif.got.tgz:3113.got - 2010.06.03 22:40:56.
