data_PCOD9312260
_publ_section_title
;
Structure prediction by ZEFSAII (Michael W. Deem and Ramdas Pophale) SiO2 
 PCOD9312260
Probable space group: P 21 21 2
;
_chemical_formula_sum "Si O2"
_cell_formula_units_Z 32
_cell_length_a 13.380092
_cell_length_b 21.685647
_cell_length_c 6.698096
_cell_angle_alpha 90.000000
_cell_angle_beta 90.000000
_cell_angle_gamma 90.000000
_cell_volume 1943.492421
_symmetry_space_group_name_H-M "P 21 21 2"
_symmetry_group_IT_number 18
_symmetry_cell_setting 'orthorhombic'
loop_
_space_group_symop_operation_xyz
x,y,z
-x,-y,z
1/2+x,1/2-y,-z
1/2-x,1/2+y,-z
loop_
_atom_site_type_symbol
_atom_site_label
_atom_site_fract_x
_atom_site_fract_y
_atom_site_fract_z
Si Si1 0.402762 0.649047 0.638220
Si Si2 0.899406 0.738228 0.654199
Si Si3 0.399407 0.238227 0.154199
Si Si4 0.597237 0.649047 0.861780
Si Si5 0.715859 0.679020 0.473112
Si Si6 0.879654 0.071903 0.779767
Si Si7 0.284140 0.679020 0.026888
Si Si8 0.379653 0.571902 0.279767
O O1 0.430615 0.703956 0.485604
O O2 0.500000 0.624351 0.750000
O O3 0.356222 0.595919 0.502214
O O4 0.334014 0.676504 0.809628
O O5 0.831274 0.693832 0.519123
O O6 0.831934 0.768234 0.831110
O O7 1.000000 0.711338 0.750000
O O8 0.331934 0.268234 0.331110
O O9 0.430616 0.296044 0.014396
O O10 0.331274 0.193832 0.019123
O O11 0.665985 0.676504 0.690372
O O12 0.643778 0.595919 0.997786
O O13 0.684190 0.615266 0.366956
O O14 0.000000 0.082174 0.750000
O O15 0.860522 0.000000 0.750000
O O16 0.315809 0.615266 0.133044
#
# Coordination Sequence:
#
# PCOD9312260 Si02
#       8
#     4   4   4   4   4   4   4   4
#     4  11  18  33  54  77 112 145 172 218 271 320
#     4  11  21  32  53  83 114 141 180 216 270 338
#     4  11  21  32  53  83 114 141 180 216 270 338
#     4  11  18  33  54  77 112 145 172 218 271 320
#     4  11  20  33  52  79 113 145 173 223 273 320
#     4  10  21  35  51  78 109 144 187 219 265 333
#     4  11  20  33  52  79 113 145 173 223 273 320
#     4  10  21  35  51  78 109 144 187 219 265 333
#
# _framework density 16.465204
#
# number of rings (size 3 to 8) (size 9 to 14) (size 15 to 20)
#    0.000    1.250    7.500    1.500    0.000    1.000 
#    0.000    0.000    0.000    0.000    0.000    5.250 
#    0.000    0.000    0.000    0.000    0.000    0.000 
#
# Total GULP energy -178361.702719 kJ/mol
# GULP energy per Si atom -5573.803210 kJ/mol
# Density = 1.642773 g / cm^3
# Si number density = 16.465204 Si / 1000 Ang^3
#
#
#
# Elastic Constant Matrix: (Units=GPa)
#
#
# Indices 1 2 3 4 5 6 
#
# 1 87.1709 46.1260 30.8927 0.0000 0.0000 0.0000
# 2 46.1260 87.3649 31.5869 0.0000 0.0000 0.0000
# 3 30.8927 31.5869 100.0530 0.0000 0.0000 0.0000
# 4 0.0000 0.0000 0.0000 5.8245 0.0000 0.0000
# 5 0.0000 0.0000 0.0000 0.0000 33.5041 0.0000
# 6 0.0000 0.0000 0.0000 0.0000 0.0000 20.3403
#
#
#
# Elastic Compliance Matrix: (Units=1/GPa)
#
#
# Indices 1 2 3 4 5 6 
#
# 1 0.016519 -0.007763 -0.002649 0.000000 0.000000 0.000000
# 2 -0.007763 0.016570 -0.002834 0.000000 0.000000 0.000000
# 3 -0.002649 -0.002834 0.011707 0.000000 0.000000 0.000000
# 4 0.000000 0.000000 0.000000 0.171689 0.000000 0.000000
# 5 0.000000 0.000000 0.000000 0.000000 0.029847 0.000000
# 6 0.000000 0.000000 0.000000 0.000000 0.000000 0.049164
#
#
# Mechanical properties :
#
#
# Convention : Reuss Voigt Hill
#
# Bulk Modulus (GPa) = 54.63863 54.64443 54.64153
# Shear Modulus (GPa) = 15.23973 22.99932 19.11953
#
# Velocity S-wave (km/s) = 3.04562 3.74149 3.41135
# Velocity P-wave (km/s) = 6.75456 7.20589 6.98387
#
# Compressibility (1/GPa) = 0.01830207
#
# Stress axis : x y z
#
# Youngs Moduli (GPa) = 60.53771 60.35101 85.41568
#
# Poissons Ratio (x) = 0.46853 0.22630
# Poissons Ratio (y) = 0.46998 0.24207
# Poissons Ratio (z) = 0.16039 0.17104
#
# Static dielectric constant tensor:
#      x y z
#    x 1.591310 0.000000 0.000000 
#    y 0.000000 1.534750 0.000000 
#    z 0.000000 0.000000 1.588350 
# 
# From -- ./inp_files/1327.got.cif
#   From: 2010.05.17/outbox.cif.g08.bks.cpg/sg18_1_cif.got.tgz:1327.got - 2010.06.03 22:40:56.
