data_PCOD9312992
_publ_section_title
;
Structure prediction by ZEFSAII (Michael W. Deem and Ramdas Pophale) SiO2 
 PCOD9312992
Probable space group: P 21 21 2
;
_chemical_formula_sum "Si O2"
_cell_formula_units_Z 22
_cell_length_a 8.137513
_cell_length_b 14.247492
_cell_length_c 8.195054
_cell_angle_alpha 90.000000
_cell_angle_beta 90.000000
_cell_angle_gamma 90.000000
_cell_volume 950.127606
_symmetry_space_group_name_H-M "P 21 21 2"
_symmetry_group_IT_number 18
_symmetry_cell_setting 'orthorhombic'
loop_
_space_group_symop_operation_xyz
x,y,z
-x,-y,z
1/2+x,1/2-y,-z
1/2-x,1/2+y,-z
loop_
_atom_site_type_symbol
_atom_site_label
_atom_site_fract_x
_atom_site_fract_y
_atom_site_fract_z
Si Si1 0.832607 0.348673 0.201323
Si Si2 0.000000 0.500000 0.009932
Si Si3 0.681662 0.603182 0.567754
Si Si4 0.297655 0.789031 0.747565
Si Si5 0.205949 0.110214 0.444723
Si Si6 0.715355 0.169522 0.085393
O O1 0.859493 0.451130 0.121826
O O2 0.790197 0.356450 0.390336
O O3 0.699871 0.282395 0.111990
O O4 0.014220 0.301990 0.194227
O O5 0.924868 0.589083 0.916007
O O6 0.774929 0.655560 0.421743
O O7 0.747343 0.497625 0.583517
O O8 0.489705 0.609845 0.524375
O O9 0.693017 0.645040 0.747806
O O10 0.256045 0.682166 0.701191
O O11 0.204667 0.832032 0.904221
#
# Coordination Sequence:
#
# PCOD9312992 Si02
#       6
#     4   2   4   4   4   4
#     4  11  23  47  73 105 140 187 242 298 359 429
#     4  10  26  44  72 112 144 196 246 292 370 436
#     4  11  25  44  66 102 137 183 232 291 362 430
#     4  11  23  45  69  98 140 182 233 294 357 425
#     4  11  22  44  69  99 140 178 235 294 359 425
#     4  11  24  43  67 103 143 182 241 291 354 433
#
# _framework density 23.154783999999999
#
# number of rings (size 3 to 8) (size 9 to 14) (size 15 to 20)
#    0.000    1.091    3.636    2.182    2.545    4.364 
#    3.273    1.818    0.000    0.000    0.000    0.000 
#    0.000    0.000    0.000    0.000    0.000    0.000 
#
# Total GULP energy -122701.445025 kJ/mol
# GULP energy per Si atom -5577.338410 kJ/mol
# Density = 2.310208 g / cm^3
# Si number density = 23.154784 Si / 1000 Ang^3
#
#
#
# Elastic Constant Matrix: (Units=GPa)
#
#
# Indices 1 2 3 4 5 6 
#
# 1 42.8239 21.1346 32.2583 0.0000 0.0000 0.0000
# 2 21.1346 150.9142 46.9709 0.0000 0.0000 0.0000
# 3 32.2583 46.9709 109.7925 0.0000 0.0000 0.0000
# 4 0.0000 0.0000 0.0000 23.7838 0.0000 0.0000
# 5 0.0000 0.0000 0.0000 0.0000 14.4656 0.0000
# 6 0.0000 0.0000 0.0000 0.0000 0.0000 35.0035
#
#
#
# Elastic Compliance Matrix: (Units=1/GPa)
#
#
# Indices 1 2 3 4 5 6 
#
# 1 0.030363 -0.001702 -0.008193 0.000000 0.000000 0.000000
# 2 -0.001702 0.007740 -0.002811 0.000000 0.000000 0.000000
# 3 -0.008193 -0.002811 0.012718 0.000000 0.000000 0.000000
# 4 0.000000 0.000000 0.000000 0.042045 0.000000 0.000000
# 5 0.000000 0.000000 0.000000 0.000000 0.069130 0.000000
# 6 0.000000 0.000000 0.000000 0.000000 0.000000 0.028569
#
#
# Mechanical properties :
#
#
# Convention : Reuss Voigt Hill
#
# Bulk Modulus (GPa) = 39.35705 56.02872 47.69288
# Shear Modulus (GPa) = 22.27715 28.19503 25.23609
#
# Velocity S-wave (km/s) = 3.10513 3.49331 3.30492
# Velocity P-wave (km/s) = 5.46718 6.36561 5.93342
#
# Compressibility (1/GPa) = 0.02540841
#
# Stress axis : x y z
#
# Youngs Moduli (GPa) = 32.93491 129.20630 78.63007
#
# Poissons Ratio (x) = 0.21994 0.64420
# Poissons Ratio (y) = 0.05606 0.22103
# Poissons Ratio (z) = 0.26983 0.36320
#
# Static dielectric constant tensor:
#      x y z
#    x 1.889720 0.000000 0.000000 
#    y 0.000000 1.926360 0.000000 
#    z 0.000000 0.000000 1.875850 
# 
# From -- ./inp_files/3100.got.cif
#   From: 2010.05.17/outbox.cif.g08.bks.cpg/sg18_2_cif.got.tgz:3100.got - 2010.06.03 22:40:56.
