data_PCOD9312949
_publ_section_title
;
Structure prediction by ZEFSAII (Michael W. Deem and Ramdas Pophale) SiO2 
 PCOD9312949
Probable space group: P 21 21 2
;
_chemical_formula_sum "Si O2"
_cell_formula_units_Z 16
_cell_length_a 10.883321
_cell_length_b 6.641132
_cell_length_c 9.155239
_cell_angle_alpha 90.000000
_cell_angle_beta 90.000000
_cell_angle_gamma 90.000000
_cell_volume 661.718440
_symmetry_space_group_name_H-M "P 21 21 2"
_symmetry_group_IT_number 18
_symmetry_cell_setting 'orthorhombic'
loop_
_space_group_symop_operation_xyz
x,y,z
-x,-y,z
1/2+x,1/2-y,-z
1/2-x,1/2+y,-z
loop_
_atom_site_type_symbol
_atom_site_label
_atom_site_fract_x
_atom_site_fract_y
_atom_site_fract_z
Si Si1 0.464425 0.730345 0.348934
Si Si2 0.500000 0.000000 0.622275
Si Si3 0.500000 0.000000 0.098621
Si Si4 0.117636 0.116123 0.028825
Si Si5 0.200598 0.743299 0.200503
O O1 0.500000 0.500000 0.360330
O O2 0.549757 0.844262 0.226745
O O3 0.326672 0.758041 0.289534
O O4 0.464212 0.825620 0.508641
O O5 0.392604 0.098888 0.716840
O O6 0.433336 0.843250 0.989241
O O7 0.247903 0.140893 0.947855
O O8 0.000000 0.000000 0.959852
O O9 0.145543 0.964794 0.163707
#
# Coordination Sequence:
#
# PCOD9312949 Si02
#       5
#     4   2   2   4   4
#     4  10  24  52  84 113 159 219 272 330 405 479
#     4  11  28  51  80 124 159 207 284 330 398 479
#     4   9  20  47  76 110 153 205 256 320 398 475
#     4  11  27  48  78 118 164 208 264 328 417 483
#     4  11  27  50  80 120 161 208 269 338 405 483
#
# _framework density 24.179470999999999
#
# number of rings (size 3 to 8) (size 9 to 14) (size 15 to 20)
#    0.000    1.500    0.000    3.000   14.000    1.000 
#    0.000    0.000    0.000    0.000    0.000    0.000 
#    0.000    0.000    0.000    0.000    0.000    0.000 
#
# Total GULP energy -89072.126965 kJ/mol
# GULP energy per Si atom -5567.007935 kJ/mol
# Density = 2.412444 g / cm^3
# Si number density = 24.179471 Si / 1000 Ang^3
#
#
#
# Elastic Constant Matrix: (Units=GPa)
#
#
# Indices 1 2 3 4 5 6 
#
# 1 121.9238 101.5164 56.1008 0.0000 0.0000 0.0000
# 2 101.5164 263.9122 97.2430 0.0000 0.0000 0.0000
# 3 56.1008 97.2430 118.3294 0.0000 0.0000 0.0000
# 4 0.0000 0.0000 0.0000 50.8803 0.0000 0.0000
# 5 0.0000 0.0000 0.0000 0.0000 112.3116 0.0000
# 6 0.0000 0.0000 0.0000 0.0000 0.0000 63.0983
#
#
#
# Elastic Compliance Matrix: (Units=1/GPa)
#
#
# Indices 1 2 3 4 5 6 
#
# 1 0.012717 -0.003830 -0.002882 0.000000 0.000000 0.000000
# 2 -0.003830 0.006588 -0.003598 0.000000 0.000000 0.000000
# 3 -0.002882 -0.003598 0.012774 0.000000 0.000000 0.000000
# 4 0.000000 0.000000 0.000000 0.019654 0.000000 0.000000
# 5 0.000000 0.000000 0.000000 0.000000 0.008904 0.000000
# 6 0.000000 0.000000 0.000000 0.000000 0.000000 0.015848
#
#
# Mechanical properties :
#
#
# Convention : Reuss Voigt Hill
#
# Bulk Modulus (GPa) = 87.26519 112.65399 99.95959
# Shear Modulus (GPa) = 49.54179 61.87837 55.71008
#
# Velocity S-wave (km/s) = 4.53141 5.06427 4.80523
# Velocity P-wave (km/s) = 7.97165 8.99376 8.49808
#
# Compressibility (1/GPa) = 0.01145932
#
# Stress axis : x y z
#
# Youngs Moduli (GPa) = 78.63789 151.78659 78.28110
#
# Poissons Ratio (x) = 0.58130 0.22559
# Poissons Ratio (y) = 0.30116 0.28169
# Poissons Ratio (z) = 0.22661 0.54620
#
# Static dielectric constant tensor:
#      x y z
#    x 2.018860 0.000000 0.000000 
#    y 0.000000 1.841600 0.000000 
#    z 0.000000 0.000000 2.015880 
# 
# From -- ./inp_files/3593.got.cif
#   From: 2010.05.17/outbox.cif.g08.bks.cpg/sg18_2_cif.got.tgz:3593.got - 2010.06.03 22:40:56.
