data_PCOD9312076
_publ_section_title
;
Structure prediction by ZEFSAII (Michael W. Deem and Ramdas Pophale) SiO2 
 PCOD9312076
Probable space group: P 21 21 2
;
_chemical_formula_sum "Si O2"
_cell_formula_units_Z 20
_cell_length_a 11.689268
_cell_length_b 5.247594
_cell_length_c 14.744773
_cell_angle_alpha 90.000000
_cell_angle_beta 90.000000
_cell_angle_gamma 90.000000
_cell_volume 904.452229
_symmetry_space_group_name_H-M "P 21 21 2"
_symmetry_group_IT_number 18
_symmetry_cell_setting 'orthorhombic'
loop_
_space_group_symop_operation_xyz
x,y,z
-x,-y,z
1/2+x,1/2-y,-z
1/2-x,1/2+y,-z
loop_
_atom_site_type_symbol
_atom_site_label
_atom_site_fract_x
_atom_site_fract_y
_atom_site_fract_z
Si Si1 0.846889 0.864806 0.305491
Si Si2 0.865682 0.004081 0.913917
Si Si3 0.129986 0.469567 0.609444
Si Si4 0.667954 0.861361 0.596707
Si Si5 0.720007 0.502480 0.881998
O O1 0.709610 0.875415 0.322365
O O2 0.884776 0.093882 0.371494
O O3 0.876540 0.586865 0.339946
O O4 0.862673 0.949377 0.202846
O O5 0.791411 0.766363 0.875226
O O6 0.808350 0.268048 0.884605
O O7 0.847714 0.995572 0.023141
O O8 0.000000 0.000000 0.891753
O O9 0.143990 0.573700 0.507036
O O10 0.000000 0.500000 0.635383
O O11 0.195150 0.195895 0.607002
#
# Coordination Sequence:
#
# PCOD9312076 Si02
#       5
#     4   4   4   4   4
#     4  10  20  38  56  81 118 142 188 241 278 322
#     4  10  21  38  60  84 117 152 188 225 291 350
#     4  10  21  37  60  82 114 155 191 230 288 329
#     4  10  20  39  53  81 118 148 184 240 273 336
#     4  10  21  38  60  86 115 151 184 242 283 333
#
# _framework density 22.112831
#
# number of rings (size 3 to 8) (size 9 to 14) (size 15 to 20)
#    1.200    0.800    2.000    1.800    0.000    2.400 
#    0.000    2.000    0.000    0.000    0.000    0.000 
#    0.000    0.000    0.000    0.000    0.000    0.000 
#
# Total GULP energy -111572.965050 kJ/mol
# GULP energy per Si atom -5578.648252 kJ/mol
# Density = 2.206250 g / cm^3
# Si number density = 22.112831 Si / 1000 Ang^3
#
#
#
# Elastic Constant Matrix: (Units=GPa)
#
#
# Indices 1 2 3 4 5 6 
#
# 1 103.5808 32.4643 -6.9459 0.0000 0.0000 0.0000
# 2 32.4643 120.0415 8.2860 0.0000 0.0000 0.0000
# 3 -6.9459 8.2860 93.8277 0.0000 0.0000 0.0000
# 4 0.0000 0.0000 0.0000 10.3866 0.0000 0.0000
# 5 0.0000 0.0000 0.0000 0.0000 -82.4785 0.0000
# 6 0.0000 0.0000 0.0000 0.0000 0.0000 17.3610
#
#
#
# Elastic Compliance Matrix: (Units=1/GPa)
#
#
# Indices 1 2 3 4 5 6 
#
# 1 0.010650 -0.002953 0.001049 0.000000 0.000000 0.000000
# 2 -0.002953 0.009200 -0.001031 0.000000 0.000000 0.000000
# 3 0.001049 -0.001031 0.010827 0.000000 0.000000 0.000000
# 4 0.000000 0.000000 0.000000 0.096278 0.000000 0.000000
# 5 0.000000 0.000000 0.000000 0.000000 -0.012124 0.000000
# 6 0.000000 0.000000 0.000000 0.000000 0.000000 0.057601
#
#
# Mechanical properties :
#
#
# Convention : Reuss Voigt Hill
#
# Bulk Modulus (GPa) = 40.31009 42.78431 41.54720
# Shear Modulus (GPa) = 26.79966 7.96350 17.38158
#
# Velocity S-wave (km/s) = 3.48509 1.89977 2.80668
# Velocity P-wave (km/s) = 5.87054 4.91959 5.41598
#
# Compressibility (1/GPa) = 0.02480768
#
# Stress axis : x y z
#
# Youngs Moduli (GPa) = 93.89605 108.69398 92.36548
#
# Poissons Ratio (x) = 0.32093 -0.09691
# Poissons Ratio (y) = 0.27724 0.09523
# Poissons Ratio (z) = -0.09851 0.11207
#
# Static dielectric constant tensor:
#      x y z
#    x 1.775010 0.000000 0.000000 
#    y 0.000000 1.855120 0.000000 
#    z 0.000000 0.000000 1.811490 
# 
# From -- ./inp_files/6841.got.cif
#   From: 2010.05.17/outbox.cif.g08.bks.cpg/sg18_4_cif.got.tgz:6841.got - 2010.06.03 22:40:56.
