data_PCOD9312096
_publ_section_title
;
Structure prediction by ZEFSAII (Michael W. Deem and Ramdas Pophale) SiO2 
 PCOD9312096
Probable space group: P 21 21 2
;
_chemical_formula_sum "Si O2"
_cell_formula_units_Z 20
_cell_length_a 6.760422
_cell_length_b 15.361689
_cell_length_c 8.623445
_cell_angle_alpha 90.000000
_cell_angle_beta 90.000000
_cell_angle_gamma 90.000000
_cell_volume 895.557701
_symmetry_space_group_name_H-M "P 21 21 2"
_symmetry_group_IT_number 18
_symmetry_cell_setting 'orthorhombic'
loop_
_space_group_symop_operation_xyz
x,y,z
-x,-y,z
1/2+x,1/2-y,-z
1/2-x,1/2+y,-z
loop_
_atom_site_type_symbol
_atom_site_label
_atom_site_fract_x
_atom_site_fract_y
_atom_site_fract_z
Si Si1 0.679292 0.607897 0.553872
Si Si2 0.775986 0.426532 0.450596
Si Si3 0.833455 0.270653 0.651081
Si Si4 0.173062 0.172635 0.843501
Si Si5 0.537280 0.672710 0.858387
O O1 0.801339 0.528671 0.480113
O O2 0.453656 0.590236 0.498528
O O3 0.724877 0.702308 0.482966
O O4 0.663133 0.612693 0.740401
O O5 0.886975 0.361085 0.567317
O O6 0.782618 0.393301 0.273675
O O7 0.644624 0.289773 0.757614
O O8 0.007485 0.226213 0.747761
O O9 0.327596 0.244846 0.902633
O O10 0.058182 0.130882 0.988805
#
# Coordination Sequence:
#
# PCOD9312096 Si02
#       5
#     4   4   4   4   4
#     4   9  19  37  62  92 118 162 214 245 300 365
#     4   9  19  37  62  92 118 162 214 245 300 365
#     4  10  20  38  62  88 120 164 210 252 300 360
#     4  11  21  37  63  91 124 161 199 255 313 358
#     4  11  21  37  63  91 124 161 199 255 313 358
#
# _framework density 22.332452
#
# number of rings (size 3 to 8) (size 9 to 14) (size 15 to 20)
#    0.000    2.000    4.000    0.000    0.000    0.000 
#    0.000   20.000    0.000    2.400    0.000    0.000 
#    0.000    0.000    0.000    0.000    0.000    0.000 
#
# Total GULP energy -111718.621460 kJ/mol
# GULP energy per Si atom -5585.931073 kJ/mol
# Density = 2.228162 g / cm^3
# Si number density = 22.332452 Si / 1000 Ang^3
#
#
#
# Elastic Constant Matrix: (Units=GPa)
#
#
# Indices 1 2 3 4 5 6 
#
# 1 49.0054 2.2236 3.0369 0.0000 0.0000 0.0000
# 2 2.2236 98.1587 29.9501 0.0000 0.0000 0.0000
# 3 3.0369 29.9501 134.4240 0.0000 0.0000 0.0000
# 4 0.0000 0.0000 0.0000 16.7096 0.0000 0.0000
# 5 0.0000 0.0000 0.0000 0.0000 37.0757 0.0000
# 6 0.0000 0.0000 0.0000 0.0000 0.0000 31.6881
#
#
#
# Elastic Compliance Matrix: (Units=1/GPa)
#
#
# Indices 1 2 3 4 5 6 
#
# 1 0.020445 -0.000346 -0.000385 0.000000 0.000000 0.000000
# 2 -0.000346 0.010937 -0.002429 0.000000 0.000000 0.000000
# 3 -0.000385 -0.002429 0.007989 0.000000 0.000000 0.000000
# 4 0.000000 0.000000 0.000000 0.059846 0.000000 0.000000
# 5 0.000000 0.000000 0.000000 0.000000 0.026972 0.000000
# 6 0.000000 0.000000 0.000000 0.000000 0.000000 0.031558
#
#
# Mechanical properties :
#
#
# Convention : Reuss Voigt Hill
#
# Bulk Modulus (GPa) = 30.25535 39.11214 34.68375
# Shear Modulus (GPa) = 28.55795 33.51985 31.03890
#
# Velocity S-wave (km/s) = 3.57986 3.87841 3.73212
# Velocity P-wave (km/s) = 5.53754 6.13251 5.84260
#
# Compressibility (1/GPa) = 0.03305201
#
# Stress axis : x y z
#
# Youngs Moduli (GPa) = 48.91066 91.43682 125.17207
#
# Poissons Ratio (x) = 0.03161 0.04818
# Poissons Ratio (y) = 0.01691 0.30403
# Poissons Ratio (z) = 0.01882 0.22209
#
# Static dielectric constant tensor:
#      x y z
#    x 1.953350 0.000000 0.000000 
#    y 0.000000 1.824900 0.000000 
#    z 0.000000 0.000000 1.840450 
# 
# From -- ./inp_files/3011.got.cif
#   From: 2010.05.17/outbox.cif.g08.bks.cpg/sg18_2_cif.got.tgz:3011.got - 2010.06.03 22:40:56.
