data_PCOD9312383
_publ_section_title
;
Structure prediction by ZEFSAII (Michael W. Deem and Ramdas Pophale) SiO2 
 PCOD9312383
Probable space group: P 21 21 2
;
_chemical_formula_sum "Si O2"
_cell_formula_units_Z 30
_cell_length_a 17.350150
_cell_length_b 16.081091
_cell_length_c 5.075580
_cell_angle_alpha 90.000000
_cell_angle_beta 90.000000
_cell_angle_gamma 90.000000
_cell_volume 1416.134231
_symmetry_space_group_name_H-M "P 21 21 2"
_symmetry_group_IT_number 18
_symmetry_cell_setting 'orthorhombic'
loop_
_space_group_symop_operation_xyz
x,y,z
-x,-y,z
1/2+x,1/2-y,-z
1/2-x,1/2+y,-z
loop_
_atom_site_type_symbol
_atom_site_label
_atom_site_fract_x
_atom_site_fract_y
_atom_site_fract_z
Si Si1 0.037670 0.648287 0.175217
Si Si2 0.722382 0.359615 0.679437
Si Si3 0.467719 0.268544 0.324966
Si Si4 0.291760 0.859561 0.220577
Si Si5 0.867976 0.821020 0.806809
Si Si6 0.701420 0.678286 0.283463
Si Si7 0.638281 0.968767 0.138499
Si Si8 0.500000 0.000000 0.536172
O O1 0.978183 0.578049 0.278482
O O2 0.039303 0.716075 0.405873
O O3 0.110910 0.588709 0.105872
O O4 0.026618 0.700735 0.910598
O O5 0.684135 0.371955 0.397190
O O6 0.770872 0.273650 0.674525
O O7 0.783580 0.428763 0.754221
O O8 0.655898 0.347494 0.899676
O O9 0.543872 0.323298 0.283731
O O10 0.389958 0.321930 0.311030
O O11 0.342217 0.775565 0.227607
O O12 0.251523 0.872403 0.503430
O O13 0.342298 0.934737 0.112939
O O14 0.224497 0.844891 0.010544
O O15 0.568056 0.968397 0.347363
#
# Coordination Sequence:
#
# PCOD9312383 Si02
#       8
#     4   4   4   4   4   4   4   2
#     4  12  25  37  64  94 129 171 201 257 326 395
#     4  10  22  40  64  87 126 171 215 258 316 392
#     4  12  23  42  68  91 125 167 224 274 312 370
#     4  10  24  37  62  90 129 166 205 261 324 391
#     4  10  23  41  62  93 122 167 218 265 315 374
#     4  10  21  41  61  89 120 169 220 261 315 376
#     4  12  26  43  64  95 141 171 212 259 332 400
#     4  12  26  40  58  96 136 168 202 246 316 412
#
# _framework density 21.184435000000001
#
# number of rings (size 3 to 8) (size 9 to 14) (size 15 to 20)
#    0.000    1.067    2.667    2.800    9.333    1.067 
#    0.000    0.000    0.000    4.800    0.000    0.000 
#    0.000    0.000    0.000    0.000    0.000    0.000 
#
# Total GULP energy -167618.205351 kJ/mol
# GULP energy per Si atom -5587.273512 kJ/mol
# Density = 2.113622 g / cm^3
# Si number density = 21.184435 Si / 1000 Ang^3
#
#
#
# Elastic Constant Matrix: (Units=GPa)
#
#
# Indices 1 2 3 4 5 6 
#
# 1 100.2363 -0.5547 20.2220 0.0000 0.0000 0.0000
# 2 -0.5547 8.4743 -2.3357 0.0000 0.0000 0.0000
# 3 20.2220 -2.3357 57.3673 0.0000 0.0000 0.0000
# 4 0.0000 0.0000 0.0000 14.3757 0.0000 0.0000
# 5 0.0000 0.0000 0.0000 0.0000 14.1466 0.0000
# 6 0.0000 0.0000 0.0000 0.0000 0.0000 19.6207
#
#
#
# Elastic Compliance Matrix: (Units=1/GPa)
#
#
# Indices 1 2 3 4 5 6 
#
# 1 0.010741 -0.000344 -0.003800 0.000000 0.000000 0.000000
# 2 -0.000344 0.119354 0.004981 0.000000 0.000000 0.000000
# 3 -0.003800 0.004981 0.018974 0.000000 0.000000 0.000000
# 4 0.000000 0.000000 0.000000 0.069562 0.000000 0.000000
# 5 0.000000 0.000000 0.000000 0.000000 0.070688 0.000000
# 6 0.000000 0.000000 0.000000 0.000000 0.000000 0.050967
#
#
# Mechanical properties :
#
#
# Convention : Reuss Voigt Hill
#
# Bulk Modulus (GPa) = 6.63388 22.30458 14.46923
# Shear Modulus (GPa) = 12.85808 19.54502 16.20155
#
# Velocity S-wave (km/s) = 2.46633 3.04075 2.76848
# Velocity P-wave (km/s) = 3.35390 4.78329 4.13089
#
# Compressibility (1/GPa) = 0.15074133
#
# Stress axis : x y z
#
# Youngs Moduli (GPa) = 93.09947 8.37844 52.70390
#
# Poissons Ratio (x) = 0.00289 0.20029
# Poissons Ratio (y) = 0.03206 -0.26251
# Poissons Ratio (z) = 0.35381 -0.04173
#
# Static dielectric constant tensor:
#      x y z
#    x 1.784860 0.000000 0.000000 
#    y 0.000000 1.794960 0.000000 
#    z 0.000000 0.000000 1.793130 
# 
# From -- ./inp_files/1627.got.cif
#   From: 2010.05.17/outbox.cif.g08.bks.cpg/sg18_1_cif.got.tgz:1627.got - 2010.06.03 22:40:56.
