data_PCOD9312708
_publ_section_title
;
Structure prediction by ZEFSAII (Michael W. Deem and Ramdas Pophale) SiO2 
 PCOD9312708
Probable space group: P 21 21 2
;
_chemical_formula_sum "Si O2"
_cell_formula_units_Z 16
_cell_length_a 5.127991
_cell_length_b 13.658675
_cell_length_c 8.866555
_cell_angle_alpha 90.000000
_cell_angle_beta 90.000000
_cell_angle_gamma 90.000000
_cell_volume 621.027366
_symmetry_space_group_name_H-M "P 21 21 2"
_symmetry_group_IT_number 18
_symmetry_cell_setting 'orthorhombic'
loop_
_space_group_symop_operation_xyz
x,y,z
-x,-y,z
1/2+x,1/2-y,-z
1/2-x,1/2+y,-z
loop_
_atom_site_type_symbol
_atom_site_label
_atom_site_fract_x
_atom_site_fract_y
_atom_site_fract_z
Si Si1 0.341416 0.091285 0.462510
Si Si2 0.499806 0.754531 0.860044
Si Si3 0.501234 0.290245 0.349715
Si Si4 0.835123 0.407415 0.898082
O O1 0.489055 0.195810 0.459566
O O2 0.073853 0.115596 0.549353
O O3 0.320688 0.076210 0.282709
O O4 0.500000 0.000000 0.527239
O O5 0.751293 0.772960 0.758240
O O6 0.456090 0.640743 0.910153
O O7 0.254018 0.787568 0.755592
O O8 0.524211 0.821381 0.006911
O O9 0.000000 0.500000 0.955118
#
# Coordination Sequence:
#
# PCOD9312708 Si02
#       4
#     4   4   4   4
#     4  10  22  44  71 100 134 180 229 278 337 404
#     4  11  24  46  70  99 141 180 223 283 342 402
#     4  11  24  46  70  99 141 180 223 283 342 402
#     4  10  22  44  71 100 134 180 229 278 337 404
#
# _framework density 25.763757999999999
#
# number of rings (size 3 to 8) (size 9 to 14) (size 15 to 20)
#    0.000    1.500    0.000    6.000    0.000    1.000 
#    0.000   75.000    0.000    0.000    0.000    0.000 
#    0.000    0.000    0.000    0.000    0.000    0.000 
#
# Total GULP energy -89133.421222 kJ/mol
# GULP energy per Si atom -5570.838826 kJ/mol
# Density = 2.570512 g / cm^3
# Si number density = 25.763758 Si / 1000 Ang^3
#
#
#
# Elastic Constant Matrix: (Units=GPa)
#
#
# Indices 1 2 3 4 5 6 
#
# 1 154.8668 -2.4333 58.5724 0.0000 0.0000 0.0000
# 2 -2.4333 38.6909 3.0029 0.0000 0.0000 0.0000
# 3 58.5724 3.0029 110.7150 0.0000 0.0000 0.0000
# 4 0.0000 0.0000 0.0000 25.5676 0.0000 0.0000
# 5 0.0000 0.0000 0.0000 0.0000 3.7862 0.0000
# 6 0.0000 0.0000 0.0000 0.0000 0.0000 26.1744
#
#
#
# Elastic Compliance Matrix: (Units=1/GPa)
#
#
# Indices 1 2 3 4 5 6 
#
# 1 0.008100 0.000844 -0.004308 0.000000 0.000000 0.000000
# 2 0.000844 0.025988 -0.001151 0.000000 0.000000 0.000000
# 3 -0.004308 -0.001151 0.011342 0.000000 0.000000 0.000000
# 4 0.000000 0.000000 0.000000 0.039112 0.000000 0.000000
# 5 0.000000 0.000000 0.000000 0.000000 0.264120 0.000000
# 6 0.000000 0.000000 0.000000 0.000000 0.000000 0.038205
#
#
# Mechanical properties :
#
#
# Convention : Reuss Voigt Hill
#
# Bulk Modulus (GPa) = 27.62464 46.95075 37.28770
# Shear Modulus (GPa) = 12.24995 27.44767 19.84881
#
# Velocity S-wave (km/s) = 2.18290 3.26753 2.77865
# Velocity P-wave (km/s) = 4.13509 5.70077 4.97985
#
# Compressibility (1/GPa) = 0.03619957
#
# Stress axis : x y z
#
# Youngs Moduli (GPa) = 123.46085 38.47892 88.16406
#
# Poissons Ratio (x) = -0.03247 0.37981
# Poissons Ratio (y) = -0.10417 0.10150
# Poissons Ratio (z) = 0.53186 0.04430
#
# Static dielectric constant tensor:
#      x y z
#    x 2.224040 0.000000 0.000000 
#    y 0.000000 2.161670 0.000000 
#    z 0.000000 0.000000 2.046310 
# 
# From -- ./inp_files/2435.got.cif
#   From: 2010.05.17/outbox.cif.g08.bks.cpg/sg18_2_cif.got.tgz:2435.got - 2010.06.03 22:40:56.
