data_PCOD9312563
_publ_section_title
;
Structure prediction by ZEFSAII (Michael W. Deem and Ramdas Pophale) SiO2 
 PCOD9312563
Probable space group: P 21 21 2
;
_chemical_formula_sum "Si O2"
_cell_formula_units_Z 28
_cell_length_a 11.170835
_cell_length_b 22.870714
_cell_length_c 5.230112
_cell_angle_alpha 90.000000
_cell_angle_beta 90.000000
_cell_angle_gamma 90.000000
_cell_volume 1336.215020
_symmetry_space_group_name_H-M "P 21 21 2"
_symmetry_group_IT_number 18
_symmetry_cell_setting 'orthorhombic'
loop_
_space_group_symop_operation_xyz
x,y,z
-x,-y,z
1/2+x,1/2-y,-z
1/2-x,1/2+y,-z
loop_
_atom_site_type_symbol
_atom_site_label
_atom_site_fract_x
_atom_site_fract_y
_atom_site_fract_z
Si Si1 0.196281 0.491179 0.721754
Si Si2 0.867849 0.356033 0.175574
Si Si3 0.589284 0.599899 0.722051
Si Si4 0.313557 0.343621 0.222642
Si Si5 0.815904 0.292639 0.679714
Si Si6 0.904203 0.567015 0.225776
Si Si7 0.178598 0.106257 0.159810
O O1 0.321551 0.455301 0.725912
O O2 0.124042 0.470576 0.475647
O O3 0.229421 0.559210 0.722598
O O4 0.127743 0.470280 0.975230
O O5 0.867974 0.311284 0.408684
O O6 0.964747 0.405885 0.215782
O O7 0.892584 0.320847 0.911900
O O8 0.735062 0.383012 0.122104
O O9 0.602059 0.627933 0.441151
O O10 0.454871 0.584832 0.803777
O O11 0.635966 0.644409 0.939978
O O12 0.300050 0.275491 0.280472
O O13 0.188457 0.378440 0.237045
O O14 0.693737 0.330248 0.710516
#
# Coordination Sequence:
#
# PCOD9312563 Si02
#       7
#     4   4   4   4   4   4   4
#     4  10  22  40  66  91 122 162 207 253 312 368
#     4  10  23  41  57  91 124 158 206 249 309 366
#     4  10  22  40  65  91 124 161 206 260 314 370
#     4  10  22  40  63  89 119 163 211 250 312 372
#     4  10  23  39  58  92 122 161 206 254 308 365
#     4  10  22  42  62  89 120 166 204 256 303 370
#     4  10  25  40  62  96 126 159 207 257 317 370
#
# _framework density 20.954712000000001
#
# number of rings (size 3 to 8) (size 9 to 14) (size 15 to 20)
#    0.857    1.143    0.000    2.143    4.000    2.857 
#    0.000    4.286    0.000    0.000    0.000    0.000 
#    0.000    0.000    0.000    0.000    0.000    0.000 
#
# Total GULP energy -156338.025435 kJ/mol
# GULP energy per Si atom -5583.500908 kJ/mol
# Density = 2.090702 g / cm^3
# Si number density = 20.954712 Si / 1000 Ang^3
#
#
#
# Elastic Constant Matrix: (Units=GPa)
#
#
# Indices 1 2 3 4 5 6 
#
# 1 94.4475 24.0522 17.7893 0.0000 0.0000 0.0000
# 2 24.0522 106.1037 17.8511 0.0000 0.0000 0.0000
# 3 17.7893 17.8511 121.8030 0.0000 0.0000 0.0000
# 4 0.0000 0.0000 0.0000 34.6657 0.0000 0.0000
# 5 0.0000 0.0000 0.0000 0.0000 224.6299 0.0000
# 6 0.0000 0.0000 0.0000 0.0000 0.0000 13.8102
#
#
#
# Elastic Compliance Matrix: (Units=1/GPa)
#
#
# Indices 1 2 3 4 5 6 
#
# 1 0.011441 -0.002371 -0.001323 0.000000 0.000000 0.000000
# 2 -0.002371 0.010154 -0.001142 0.000000 0.000000 0.000000
# 3 -0.001323 -0.001142 0.008571 0.000000 0.000000 0.000000
# 4 0.000000 0.000000 0.000000 0.028847 0.000000 0.000000
# 5 0.000000 0.000000 0.000000 0.000000 0.004452 0.000000
# 6 0.000000 0.000000 0.000000 0.000000 0.000000 0.072410
#
#
# Mechanical properties :
#
#
# Convention : Reuss Voigt Hill
#
# Bulk Modulus (GPa) = 48.79625 49.08216 48.93920
# Shear Modulus (GPa) = 32.81302 72.13194 52.47248
#
# Velocity S-wave (km/s) = 3.96144 5.87346 5.00952
# Velocity P-wave (km/s) = 6.65290 8.33490 7.54094
#
# Compressibility (1/GPa) = 0.02049338
#
# Stress axis : x y z
#
# Youngs Moduli (GPa) = 87.40546 98.48053 116.67758
#
# Poissons Ratio (x) = 0.23348 0.15442
# Poissons Ratio (y) = 0.20722 0.13324
# Poissons Ratio (z) = 0.11568 0.11246
#
# Static dielectric constant tensor:
#      x y z
#    x 1.749590 0.000000 0.000000 
#    y 0.000000 1.718510 0.000000 
#    z 0.000000 0.000000 1.752040 
# 
# From -- ./inp_files/1230.got.cif
#   From: 2010.05.17/outbox.cif.g08.bks.cpg/sg18_1_cif.got.tgz:1230.got - 2010.06.03 22:40:56.
