data_PCOD9312990
_publ_section_title
;
Structure prediction by ZEFSAII (Michael W. Deem and Ramdas Pophale) SiO2 
 PCOD9312990
Probable space group: P 21 21 2
;
_chemical_formula_sum "Si O2"
_cell_formula_units_Z 24
_cell_length_a 9.122820
_cell_length_b 20.370504
_cell_length_c 5.216463
_cell_angle_alpha 90.000000
_cell_angle_beta 90.000000
_cell_angle_gamma 90.000000
_cell_volume 969.408920
_symmetry_space_group_name_H-M "P 21 21 2"
_symmetry_group_IT_number 18
_symmetry_cell_setting 'orthorhombic'
loop_
_space_group_symop_operation_xyz
x,y,z
-x,-y,z
1/2+x,1/2-y,-z
1/2-x,1/2+y,-z
loop_
_atom_site_type_symbol
_atom_site_label
_atom_site_fract_x
_atom_site_fract_y
_atom_site_fract_z
Si Si1 0.245158 0.708928 0.729212
Si Si2 0.302550 0.834973 0.462429
Si Si3 0.466053 0.795505 0.939691
Si Si4 0.500000 0.500000 0.168261
Si Si5 0.746868 0.541982 0.823985
Si Si6 0.750213 0.427311 0.468313
Si Si7 0.500000 0.000000 0.853032
O O1 0.404935 0.724300 0.849069
O O2 0.246623 0.648390 0.537892
O O3 0.925733 0.663528 0.315384
O O4 0.129068 0.699647 0.956176
O O5 0.239119 0.906801 0.408594
O O6 0.203585 0.776098 0.575350
O O7 0.367078 0.813768 0.187523
O O8 0.604851 0.452659 0.328881
O O9 0.606042 0.546372 0.001116
O O10 0.749205 0.466928 0.733968
O O11 0.900618 0.547285 0.971014
O O12 0.887153 0.458126 0.316007
#
# Coordination Sequence:
#
# PCOD9312990 Si02
#       7
#     4   4   4   2   4   4   2
#     4  10  27  52  81 121 162 217 275 343 414 498
#     4  10  27  49  80 114 160 211 273 336 410 487
#     4  10  26  50  81 117 156 211 275 334 413 486
#     4  10  26  50  76 116 164 220 276 342 426 494
#     4  11  25  50  75 116 159 214 276 343 416 497
#     4  11  25  51  78 115 166 212 279 343 420 499
#     4  10  26  42  84 118 154 218 276 352 408 494
#
# _framework density 24.757353999999999
#
# number of rings (size 3 to 8) (size 9 to 14) (size 15 to 20)
#    1.000    0.667    0.000    1.000   11.667    2.667 
#   18.000    0.000    3.667    0.000    0.000    0.000 
#    0.000    0.000    0.000    0.000    0.000    0.000 
#
# Total GULP energy -134280.471381 kJ/mol
# GULP energy per Si atom -5595.019641 kJ/mol
# Density = 2.470100 g / cm^3
# Si number density = 24.757354 Si / 1000 Ang^3
#
#
#
# Elastic Constant Matrix: (Units=GPa)
#
#
# Indices 1 2 3 4 5 6 
#
# 1 135.8403 39.5611 53.7588 0.0000 0.0000 0.0000
# 2 39.5611 114.2740 35.5516 0.0000 0.0000 0.0000
# 3 53.7588 35.5516 121.1095 0.0000 0.0000 0.0000
# 4 0.0000 0.0000 0.0000 48.0704 0.0000 0.0000
# 5 0.0000 0.0000 0.0000 0.0000 36.2639 0.0000
# 6 0.0000 0.0000 0.0000 0.0000 0.0000 19.0537
#
#
#
# Elastic Compliance Matrix: (Units=1/GPa)
#
#
# Indices 1 2 3 4 5 6 
#
# 1 0.009387 -0.002150 -0.003536 0.000000 0.000000 0.000000
# 2 -0.002150 0.010123 -0.002017 0.000000 0.000000 0.000000
# 3 -0.003536 -0.002017 0.010419 0.000000 0.000000 0.000000
# 4 0.000000 0.000000 0.000000 0.020803 0.000000 0.000000
# 5 0.000000 0.000000 0.000000 0.000000 0.027576 0.000000
# 6 0.000000 0.000000 0.000000 0.000000 0.000000 0.052483
#
#
# Mechanical properties :
#
#
# Convention : Reuss Voigt Hill
#
# Bulk Modulus (GPa) = 68.85693 69.88520 69.37106
# Shear Modulus (GPa) = 33.10466 36.83442 34.96954
#
# Velocity S-wave (km/s) = 3.66069 3.86141 3.76239
# Velocity P-wave (km/s) = 6.76318 6.94046 6.85239
#
# Compressibility (1/GPa) = 0.01452287
#
# Stress axis : x y z
#
# Youngs Moduli (GPa) = 106.53151 98.78774 95.98218
#
# Poissons Ratio (x) = 0.21237 0.33936
# Poissons Ratio (y) = 0.22901 0.19362
# Poissons Ratio (z) = 0.37666 0.19928
#
# Static dielectric constant tensor:
#      x y z
#    x 2.042010 0.000000 0.000000 
#    y 0.000000 1.981380 0.000000 
#    z 0.000000 0.000000 1.956470 
# 
# From -- ./inp_files/662.got.cif
#   From: 2010.05.17/outbox.cif.g08.bks.cpg/sg18_1_cif.got.tgz:662.got - 2010.06.03 22:40:56.
