data_PCOD9312283
_publ_section_title
;
Structure prediction by ZEFSAII (Michael W. Deem and Ramdas Pophale) SiO2 
 PCOD9312283
Probable space group: P 21 21 2
;
_chemical_formula_sum "Si O2"
_cell_formula_units_Z 28
_cell_length_a 11.478826
_cell_length_b 7.194957
_cell_length_c 13.483636
_cell_angle_alpha 90.000000
_cell_angle_beta 90.000000
_cell_angle_gamma 90.000000
_cell_volume 1113.608906
_symmetry_space_group_name_H-M "P 21 21 2"
_symmetry_group_IT_number 18
_symmetry_cell_setting 'orthorhombic'
loop_
_space_group_symop_operation_xyz
x,y,z
-x,-y,z
1/2+x,1/2-y,-z
1/2-x,1/2+y,-z
loop_
_atom_site_type_symbol
_atom_site_label
_atom_site_fract_x
_atom_site_fract_y
_atom_site_fract_z
Si Si1 0.720323 0.711346 0.511528
Si Si2 0.002843 0.227932 0.795018
Si Si3 0.257558 0.771451 0.122382
Si Si4 0.776218 0.169309 0.892037
Si Si5 0.600565 0.719451 0.700675
Si Si6 0.844599 0.662849 0.307767
Si Si7 0.488500 0.723089 0.430677
O O1 0.675802 0.617719 0.614657
O O2 0.750855 0.659890 0.397418
O O3 0.595353 0.817339 0.492018
O O4 0.852788 0.755679 0.543056
O O5 0.121126 0.325693 0.827862
O O6 0.987140 0.280884 0.681495
O O7 0.901746 0.259654 0.874171
O O8 0.000000 0.000000 0.790666
O O9 0.270014 0.549702 0.126141
O O10 0.148383 0.834037 0.189984
O O11 0.255815 0.813048 0.006401
O O12 0.702115 0.236554 0.797696
O O13 0.463277 0.719295 0.677984
O O14 0.627984 0.942184 0.698837
O O15 0.500000 0.500000 0.442168
#
# Coordination Sequence:
#
# PCOD9312283 Si02
#       7
#     4   4   4   4   4   4   4
#     4  12  20  36  62  88 118 154 200 256 306 362
#     4   9  18  36  60  81 108 154 203 246 297 364
#     4  10  21  38  61  85 116 154 198 248 303 362
#     4  10  21  38  61  85 116 154 198 248 303 362
#     4  10  21  37  58  84 115 156 200 243 299 366
#     4  10  21  37  58  84 115 156 200 243 299 366
#     4  11  22  38  60  89 122 162 210 254 305 374
#
# _framework density 25.143476
#
# number of rings (size 3 to 8) (size 9 to 14) (size 15 to 20)
#    0.000    1.714    4.286    0.857    2.000    0.000 
#    0.000    2.857    0.000    3.429    0.000    0.000 
#    0.000    0.000    0.000    0.000    0.000    0.000 
#
# Total GULP energy -155954.713891 kJ/mol
# GULP energy per Si atom -5569.811210 kJ/mol
# Density = 2.508625 g / cm^3
# Si number density = 25.143476 Si / 1000 Ang^3
#
#
#
# Elastic Constant Matrix: (Units=GPa)
#
#
# Indices 1 2 3 4 5 6 
#
# 1 108.8979 -4.0020 46.3303 0.0000 0.0000 0.0000
# 2 -4.0020 77.5745 -10.5026 0.0000 0.0000 0.0000
# 3 46.3303 -10.5026 191.8124 0.0000 0.0000 0.0000
# 4 0.0000 0.0000 0.0000 14.2793 0.0000 0.0000
# 5 0.0000 0.0000 0.0000 0.0000 47.9058 0.0000
# 6 0.0000 0.0000 0.0000 0.0000 0.0000 9.0890
#
#
#
# Elastic Compliance Matrix: (Units=1/GPa)
#
#
# Indices 1 2 3 4 5 6 
#
# 1 0.010238 0.000195 -0.002462 0.000000 0.000000 0.000000
# 2 0.000195 0.012991 0.000664 0.000000 0.000000 0.000000
# 3 -0.002462 0.000664 0.005844 0.000000 0.000000 0.000000
# 4 0.000000 0.000000 0.000000 0.070031 0.000000 0.000000
# 5 0.000000 0.000000 0.000000 0.000000 0.020874 0.000000
# 6 0.000000 0.000000 0.000000 0.000000 0.000000 0.110023
#
#
# Mechanical properties :
#
#
# Convention : Reuss Voigt Hill
#
# Bulk Modulus (GPa) = 38.65964 49.10402 43.88183
# Shear Modulus (GPa) = 20.67566 37.35209 29.01387
#
# Velocity S-wave (km/s) = 2.87070 3.85847 3.40064
# Velocity P-wave (km/s) = 5.13779 6.27872 5.73669
#
# Compressibility (1/GPa) = 0.02586677
#
# Stress axis : x y z
#
# Youngs Moduli (GPa) = 97.67943 76.97748 171.10119
#
# Poissons Ratio (x) = -0.01500 0.42127
# Poissons Ratio (y) = -0.01903 -0.11365
# Poissons Ratio (z) = 0.24050 -0.05113
#
# Static dielectric constant tensor:
#      x y z
#    x 2.024410 0.000000 0.000000 
#    y 0.000000 2.169070 0.000000 
#    z 0.000000 0.000000 1.985900 
# 
# From -- ./inp_files/5920.got.cif
#   From: 2010.05.17/outbox.cif.g08.bks.cpg/sg18_3_cif.got.tgz:5920.got - 2010.06.03 22:40:56.
