data_PCOD9312090
_publ_section_title
;
Structure prediction by ZEFSAII (Michael W. Deem and Ramdas Pophale) SiO2 
 PCOD9312090
Probable space group: P 21 21 2
;
_chemical_formula_sum "Si O2"
_cell_formula_units_Z 32
_cell_length_a 16.030485
_cell_length_b 11.769206
_cell_length_c 8.433075
_cell_angle_alpha 90.000000
_cell_angle_beta 90.000000
_cell_angle_gamma 90.000000
_cell_volume 1591.035205
_symmetry_space_group_name_H-M "P 21 21 2"
_symmetry_group_IT_number 18
_symmetry_cell_setting 'orthorhombic'
loop_
_space_group_symop_operation_xyz
x,y,z
-x,-y,z
1/2+x,1/2-y,-z
1/2-x,1/2+y,-z
loop_
_atom_site_type_symbol
_atom_site_label
_atom_site_fract_x
_atom_site_fract_y
_atom_site_fract_z
Si Si1 0.810845 0.022306 0.465106
Si Si2 0.276746 0.166900 0.254720
Si Si3 0.669903 0.339293 0.286641
Si Si4 0.869190 0.619673 0.531787
Si Si5 0.860036 0.726801 0.034577
Si Si6 0.901307 0.501948 0.851967
Si Si7 0.507929 0.128555 0.755822
Si Si8 0.651256 0.761287 0.594141
O O1 0.724938 0.086579 0.509169
O O2 0.864406 0.125893 0.397057
O O3 0.784123 0.929494 0.332949
O O4 0.842680 0.957051 0.620870
O O5 0.214871 0.249829 0.158327
O O6 0.327228 0.212751 0.408874
O O7 0.345082 0.110997 0.136165
O O8 0.623435 0.243133 0.389750
O O9 0.766658 0.302316 0.310005
O O10 0.644937 0.320946 0.104619
O O11 0.894950 0.532241 0.666372
O O12 0.924418 0.614217 0.380397
O O13 0.949491 0.715881 0.121546
O O14 0.855894 0.603954 0.946920
O O15 0.000000 0.500000 0.878765
O O16 0.424878 0.172457 0.672169
O O17 0.500000 0.000000 0.818363
#
# Coordination Sequence:
#
# PCOD9312090 Si02
#       8
#     4   4   4   4   4   4   4   4
#     4   9  17  36  61  82 111 156 204 242 287 349
#     4  10  21  38  61  88 118 159 201 248 297 351
#     4   9  19  37  58  82 119 157 189 237 294 357
#     4   9  18  34  59  87 113 146 197 247 293 346
#     4  11  24  36  55  90 127 159 190 234 308 376
#     4  10  20  38  61  88 123 158 196 251 302 344
#     4  12  22  36  60  91 119 148 194 257 304 345
#     4  10  21  37  62  90 110 149 209 250 285 348
#
# _framework density 20.112693
#
# number of rings (size 3 to 8) (size 9 to 14) (size 15 to 20)
#    0.000    2.000    0.000    6.750    0.000    4.000 
#    0.000    2.500    0.000    4.500    0.000    1.750 
#    0.000    0.000    0.000    0.000    0.000    0.000 
#
# Total GULP energy -178398.697071 kJ/mol
# GULP energy per Si atom -5574.959283 kJ/mol
# Density = 2.006692 g / cm^3
# Si number density = 20.112693 Si / 1000 Ang^3
#
#
#
# Elastic Constant Matrix: (Units=GPa)
#
#
# Indices 1 2 3 4 5 6 
#
# 1 70.5021 38.6660 31.7746 0.0000 0.0000 0.0000
# 2 38.6660 68.0326 38.2846 0.0000 0.0000 0.0000
# 3 31.7746 38.2846 85.8265 0.0000 0.0000 0.0000
# 4 0.0000 0.0000 0.0000 -317.8204 0.0000 0.0000
# 5 0.0000 0.0000 0.0000 0.0000 -142.6663 0.0000
# 6 0.0000 0.0000 0.0000 0.0000 0.0000 24.8234
#
#
#
# Elastic Compliance Matrix: (Units=1/GPa)
#
#
# Indices 1 2 3 4 5 6 
#
# 1 0.021292 -0.010234 -0.003317 0.000000 0.000000 0.000000
# 2 -0.010234 0.024544 -0.007160 0.000000 0.000000 0.000000
# 3 -0.003317 -0.007160 0.016073 0.000000 0.000000 0.000000
# 4 0.000000 0.000000 0.000000 -0.003146 0.000000 0.000000
# 5 0.000000 0.000000 0.000000 0.000000 -0.007009 0.000000
# 6 0.000000 0.000000 0.000000 0.000000 0.000000 0.040285
#
#
# Mechanical properties :
#
#
# Convention : Reuss Voigt Hill
#
# Bulk Modulus (GPa) = 48.81157 49.09016 48.95087
# Shear Modulus (GPa) = 35.64038 -79.42359 -21.89160
#
# Velocity S-wave (km/s) = 4.21412 -6.29087 -3.30274
# Velocity P-wave (km/s) = 6.92821 5.32035 3.13799
#
# Compressibility (1/GPa) = 0.02048694
#
# Stress axis : x y z
#
# Youngs Moduli (GPa) = 46.96597 40.74244 62.21512
#
# Poissons Ratio (x) = 0.41697 0.20640
# Poissons Ratio (y) = 0.48067 0.44543
# Poissons Ratio (z) = 0.15581 0.29170
#
# Static dielectric constant tensor:
#      x y z
#    x 1.721440 0.000000 0.000000 
#    y 0.000000 1.822010 0.000000 
#    z 0.000000 0.000000 1.745500 
# 
# From -- ./inp_files/4321.got.cif
#   From: 2010.05.17/outbox.cif.g08.bks.cpg/sg18_3_cif.got.tgz:4321.got - 2010.06.03 22:40:56.
