data_PCOD9312634
_publ_section_title
;
Structure prediction by ZEFSAII (Michael W. Deem and Ramdas Pophale) SiO2 
 PCOD9312634
Probable space group: P 21 21 2
;
_chemical_formula_sum "Si O2"
_cell_formula_units_Z 32
_cell_length_a 28.516412
_cell_length_b 5.560101
_cell_length_c 8.957236
_cell_angle_alpha 90.000000
_cell_angle_beta 90.000000
_cell_angle_gamma 90.000000
_cell_volume 1420.206769
_symmetry_space_group_name_H-M "P 21 21 2"
_symmetry_group_IT_number 18
_symmetry_cell_setting 'orthorhombic'
loop_
_space_group_symop_operation_xyz
x,y,z
-x,-y,z
1/2+x,1/2-y,-z
1/2-x,1/2+y,-z
loop_
_atom_site_type_symbol
_atom_site_label
_atom_site_fract_x
_atom_site_fract_y
_atom_site_fract_z
Si Si1 0.346654 0.026696 0.577973
Si Si2 0.399244 0.984579 0.117689
Si Si3 0.898024 0.850323 0.631486
Si Si4 0.179035 0.755284 0.703844
Si Si5 0.926495 0.097279 0.352191
Si Si6 0.473940 0.256584 0.943629
Si Si7 0.240977 0.120767 0.078159
Si Si8 0.856072 0.780788 0.160846
O O1 0.366797 0.814276 0.477081
O O2 0.331276 0.919654 0.734658
O O3 0.313669 0.178972 0.469006
O O4 0.391260 0.188204 0.613669
O O5 0.422705 0.809952 0.241297
O O6 0.353567 0.072353 0.204466
O O7 0.382215 0.832734 0.977714
O O8 0.428923 0.204244 0.048556
O O9 0.857160 0.020086 0.700547
O O10 0.933956 0.984062 0.517218
O O11 0.227880 0.735907 0.788951
O O12 0.963553 0.198201 0.233041
O O13 0.896321 0.909187 0.255161
O O14 0.500000 0.500000 0.993235
O O15 0.500000 0.000000 0.955261
O O16 0.187060 0.053648 0.114651
O O17 0.238212 0.359229 0.970589
#
# Coordination Sequence:
#
# PCOD9312634 Si02
#       8
#     4   4   4   4   4   4   4   4
#     4   9  20  41  64  98 128 185 237 277 348 418
#     4  11  22  42  74  99 138 184 233 287 360 423
#     4   9  21  40  74  98 132 191 233 278 352 436
#     4  10  22  42  66  97 143 189 231 289 348 419
#     4  10  22  44  73  97 137 184 239 285 358 435
#     4  12  28  45  75 111 141 174 234 303 363 433
#     4  12  27  42  63 104 144 181 246 292 344 404
#     4  11  22  40  71 100 137 188 239 287 347 417
#
# _framework density 22.531928000000001
#
# number of rings (size 3 to 8) (size 9 to 14) (size 15 to 20)
#    0.000    1.500    2.500    1.500   10.500    0.000 
#    6.750    0.000    8.250    0.000    0.000    0.000 
#    0.000    0.000    0.000    0.000    0.000    0.000 
#
# Total GULP energy -178308.140792 kJ/mol
# GULP energy per Si atom -5572.129400 kJ/mol
# Density = 2.248064 g / cm^3
# Si number density = 22.531928 Si / 1000 Ang^3
#
#
#
# Elastic Constant Matrix: (Units=GPa)
#
#
# Indices 1 2 3 4 5 6 
#
# 1 36.1653 4.2354 11.1211 0.0000 0.0000 0.0000
# 2 4.2354 79.6553 24.7166 0.0000 0.0000 0.0000
# 3 11.1211 24.7166 84.3455 0.0000 0.0000 0.0000
# 4 0.0000 0.0000 0.0000 35.7148 0.0000 0.0000
# 5 0.0000 0.0000 0.0000 0.0000 27.5644 0.0000
# 6 0.0000 0.0000 0.0000 0.0000 0.0000 26.6852
#
#
#
# Elastic Compliance Matrix: (Units=1/GPa)
#
#
# Indices 1 2 3 4 5 6 
#
# 1 0.028830 -0.000389 -0.003687 0.000000 0.000000 0.000000
# 2 -0.000389 0.013815 -0.003997 0.000000 0.000000 0.000000
# 3 -0.003687 -0.003997 0.013514 0.000000 0.000000 0.000000
# 4 0.000000 0.000000 0.000000 0.028000 0.000000 0.000000
# 5 0.000000 0.000000 0.000000 0.000000 0.036279 0.000000
# 6 0.000000 0.000000 0.000000 0.000000 0.000000 0.037474
#
#
# Mechanical properties :
#
#
# Convention : Reuss Voigt Hill
#
# Bulk Modulus (GPa) = 24.99232 31.14580 28.06906
# Shear Modulus (GPa) = 26.68161 28.66575 27.67368
#
# Velocity S-wave (km/s) = 3.44491 3.57070 3.50837
# Velocity P-wave (km/s) = 5.19030 5.55453 5.37550
#
# Compressibility (1/GPa) = 0.04001229
#
# Stress axis : x y z
#
# Youngs Moduli (GPa) = 34.68574 72.38484 74.00004
#
# Poissons Ratio (x) = 0.02814 0.27287
# Poissons Ratio (y) = 0.01348 0.29579
# Poissons Ratio (z) = 0.12790 0.28933
#
# Static dielectric constant tensor:
#      x y z
#    x 1.857080 0.000000 0.000000 
#    y 0.000000 1.887600 0.000000 
#    z 0.000000 0.000000 1.854720 
# 
# From -- ./inp_files/4871.got.cif
#   From: 2010.05.17/outbox.cif.g08.bks.cpg/sg18_3_cif.got.tgz:4871.got - 2010.06.03 22:40:56.
