data_PCOD9312501
_publ_section_title
;
Structure prediction by ZEFSAII (Michael W. Deem and Ramdas Pophale) SiO2 
 PCOD9312501
Probable space group: P 21 21 2
;
_chemical_formula_sum "Si O2"
_cell_formula_units_Z 18
_cell_length_a 4.977186
_cell_length_b 11.209358
_cell_length_c 13.316532
_cell_angle_alpha 90.000000
_cell_angle_beta 90.000000
_cell_angle_gamma 90.000000
_cell_volume 742.943432
_symmetry_space_group_name_H-M "P 21 21 2"
_symmetry_group_IT_number 18
_symmetry_cell_setting 'orthorhombic'
loop_
_space_group_symop_operation_xyz
x,y,z
-x,-y,z
1/2+x,1/2-y,-z
1/2-x,1/2+y,-z
loop_
_atom_site_type_symbol
_atom_site_label
_atom_site_fract_x
_atom_site_fract_y
_atom_site_fract_z
Si Si1 0.176561 0.359196 0.692371
Si Si2 0.188603 0.833431 0.514744
Si Si3 0.000000 0.000000 0.149126
Si Si4 0.759081 0.264680 0.937772
Si Si5 0.824077 0.700690 0.278367
O O1 0.242495 0.411085 0.582496
O O2 0.274689 0.444165 0.779138
O O3 0.371287 0.243646 0.707531
O O4 0.875195 0.313029 0.701392
O O5 0.393417 0.721345 0.498049
O O6 0.245714 0.881981 0.626616
O O7 0.134586 0.106730 0.088389
O O8 0.728004 0.179413 0.839569
O O9 0.564534 0.221569 0.027130
#
# Coordination Sequence:
#
# PCOD9312501 Si02
#       5
#     4   4   2   4   4
#     4   9  17  29  51  79 106 139 173 225 290 334
#     4   8  14  26  46  74 103 130 164 209 271 338
#     4  10  22  38  58  84 116 146 196 254 286 346
#     4  11  23  37  56  84 114 156 203 243 291 336
#     4   9  17  31  50  76 109 142 182 226 275 340
#
# _framework density 24.227957
#
# number of rings (size 3 to 8) (size 9 to 14) (size 15 to 20)
#    0.000    2.667    0.000    2.667    0.000    8.000 
#    0.000    0.000    0.000    1.333    0.000   34.222 
#    0.000    0.000    0.000    0.000    0.000    0.000 
#
# Total GULP energy -100498.661924 kJ/mol
# GULP energy per Si atom -5583.258996 kJ/mol
# Density = 2.417281 g / cm^3
# Si number density = 24.227957 Si / 1000 Ang^3
#
#
#
# Elastic Constant Matrix: (Units=GPa)
#
#
# Indices 1 2 3 4 5 6 
#
# 1 104.2704 5.1356 7.0046 0.0000 0.0000 0.0000
# 2 5.1356 32.6861 -0.5539 0.0000 0.0000 0.0000
# 3 7.0046 -0.5539 148.2283 0.0000 0.0000 0.0000
# 4 0.0000 0.0000 0.0000 -3.6628 0.0000 0.0000
# 5 0.0000 0.0000 0.0000 0.0000 120.2960 0.0000
# 6 0.0000 0.0000 0.0000 0.0000 0.0000 24.6051
#
#
#
# Elastic Compliance Matrix: (Units=1/GPa)
#
#
# Indices 1 2 3 4 5 6 
#
# 1 0.009697 -0.001531 -0.000464 0.000000 0.000000 0.000000
# 2 -0.001531 0.030838 0.000188 0.000000 0.000000 0.000000
# 3 -0.000464 0.000188 0.006769 0.000000 0.000000 0.000000
# 4 0.000000 0.000000 0.000000 -0.273018 0.000000 0.000000
# 5 0.000000 0.000000 0.000000 0.000000 0.008313 0.000000
# 6 0.000000 0.000000 0.000000 0.000000 0.000000 0.040642
#
#
# Mechanical properties :
#
#
# Convention : Reuss Voigt Hill
#
# Bulk Modulus (GPa) = 22.88945 34.26194 28.57569
# Shear Modulus (GPa) = -31.52957 46.48756 7.47900
#
# Velocity S-wave (km/s) = -3.61137 4.38511 1.75887
# Velocity P-wave (km/s) = 2.81447 6.30961 3.99311
#
# Compressibility (1/GPa) = 0.04368825
#
# Stress axis : x y z
#
# Youngs Moduli (GPa) = 103.12421 32.42769 147.73284
#
# Poissons Ratio (x) = 0.04966 0.06854
# Poissons Ratio (y) = 0.15793 -0.02772
# Poissons Ratio (z) = 0.04785 -0.00608
#
# Static dielectric constant tensor:
#      x y z
#    x 1.877590 0.000000 0.000000 
#    y 0.000000 0.933440 0.000000 
#    z 0.000000 0.000000 2.078100 
# 
# From -- ./inp_files/5026.got.cif
#   From: 2010.05.17/outbox.cif.g08.bks.cpg/sg18_3_cif.got.tgz:5026.got - 2010.06.03 22:40:56.
