data_PCOD9312936
_publ_section_title
;
Structure prediction by ZEFSAII (Michael W. Deem and Ramdas Pophale) SiO2 
 PCOD9312936
Probable space group: P 21 21 2
;
_chemical_formula_sum "Si O2"
_cell_formula_units_Z 14
_cell_length_a 9.501612
_cell_length_b 7.339091
_cell_length_c 8.564803
_cell_angle_alpha 90.000000
_cell_angle_beta 90.000000
_cell_angle_gamma 90.000000
_cell_volume 597.251079
_symmetry_space_group_name_H-M "P 21 21 2"
_symmetry_group_IT_number 18
_symmetry_cell_setting 'orthorhombic'
loop_
_space_group_symop_operation_xyz
x,y,z
-x,-y,z
1/2+x,1/2-y,-z
1/2-x,1/2+y,-z
loop_
_atom_site_type_symbol
_atom_site_label
_atom_site_fract_x
_atom_site_fract_y
_atom_site_fract_z
Si Si1 0.144443 0.748816 0.663253
Si Si2 0.500000 0.500000 0.130341
Si Si3 0.842575 0.040944 0.173400
Si Si4 0.857112 0.414043 0.324882
O O1 0.230151 0.595766 0.756124
O O2 0.108465 0.673192 0.493751
O O3 0.012808 0.823317 0.761062
O O4 0.244260 0.926801 0.649730
O O5 0.368929 0.488428 0.010620
O O6 0.810510 0.247467 0.217067
O O7 0.000000 0.000000 0.241962
O O8 0.000000 0.500000 0.258152
#
# Coordination Sequence:
#
# PCOD9312936 Si02
#       4
#     4   2   4   4
#     4  12  26  45  73 107 144 184 243 296 359 430
#     4  10  28  42  74 104 142 188 238 286 374 428
#     4  10  24  48  67 102 145 186 233 294 356 428
#     4  12  25  45  74 103 141 188 239 299 354 428
#
# _framework density 23.440731
#
# number of rings (size 3 to 8) (size 9 to 14) (size 15 to 20)
#    0.857    0.000    5.714    0.000   10.000    0.000 
#    0.000    1.429    0.000    0.000    0.000    0.000 
#    0.000    0.000    0.000    0.000    0.000    0.000 
#
# Total GULP energy -78356.176161 kJ/mol
# GULP energy per Si atom -5596.869726 kJ/mol
# Density = 2.338738 g / cm^3
# Si number density = 23.440731 Si / 1000 Ang^3
#
#
#
# Elastic Constant Matrix: (Units=GPa)
#
#
# Indices 1 2 3 4 5 6 
#
# 1 76.3009 53.0033 14.0190 0.0000 0.0000 0.0000
# 2 53.0033 185.7772 57.7478 0.0000 0.0000 0.0000
# 3 14.0190 57.7478 114.8954 0.0000 0.0000 0.0000
# 4 0.0000 0.0000 0.0000 23.8102 0.0000 0.0000
# 5 0.0000 0.0000 0.0000 0.0000 26.2205 0.0000
# 6 0.0000 0.0000 0.0000 0.0000 0.0000 59.6994
#
#
#
# Elastic Compliance Matrix: (Units=1/GPa)
#
#
# Indices 1 2 3 4 5 6 
#
# 1 0.016362 -0.004797 0.000415 0.000000 0.000000 0.000000
# 2 -0.004797 0.007786 -0.003328 0.000000 0.000000 0.000000
# 3 0.000415 -0.003328 0.010326 0.000000 0.000000 0.000000
# 4 0.000000 0.000000 0.000000 0.041999 0.000000 0.000000
# 5 0.000000 0.000000 0.000000 0.000000 0.038138 0.000000
# 6 0.000000 0.000000 0.000000 0.000000 0.000000 0.016751
#
#
# Mechanical properties :
#
#
# Convention : Reuss Voigt Hill
#
# Bulk Modulus (GPa) = 52.48549 69.61261 61.04905
# Shear Modulus (GPa) = 32.65133 38.75958 35.70545
#
# Velocity S-wave (km/s) = 3.73625 4.07075 3.90708
# Velocity P-wave (km/s) = 6.40719 7.20114 6.81574
#
# Compressibility (1/GPa) = 0.01905289
#
# Stress axis : x y z
#
# Youngs Moduli (GPa) = 61.11654 128.43701 96.84616
#
# Poissons Ratio (x) = 0.61613 -0.04016
# Poissons Ratio (y) = 0.29318 0.32230
# Poissons Ratio (z) = -0.02534 0.42744
#
# Static dielectric constant tensor:
#      x y z
#    x 1.918170 0.000000 0.000000 
#    y 0.000000 1.830480 0.000000 
#    z 0.000000 0.000000 1.871720 
# 
# From -- ./inp_files/3556.got.cif
#   From: 2010.05.17/outbox.cif.g08.bks.cpg/sg18_2_cif.got.tgz:3556.got - 2010.06.03 22:40:56.
