data_PCOD9312854
_publ_section_title
;
Structure prediction by ZEFSAII (Michael W. Deem and Ramdas Pophale) SiO2 
 PCOD9312854
Probable space group: P 21 21 2
;
_chemical_formula_sum "Si O2"
_cell_formula_units_Z 28
_cell_length_a 6.446402
_cell_length_b 19.245672
_cell_length_c 11.388359
_cell_angle_alpha 90.000000
_cell_angle_beta 90.000000
_cell_angle_gamma 90.000000
_cell_volume 1412.900614
_symmetry_space_group_name_H-M "P 21 21 2"
_symmetry_group_IT_number 18
_symmetry_cell_setting 'orthorhombic'
loop_
_space_group_symop_operation_xyz
x,y,z
-x,-y,z
1/2+x,1/2-y,-z
1/2-x,1/2+y,-z
loop_
_atom_site_type_symbol
_atom_site_label
_atom_site_fract_x
_atom_site_fract_y
_atom_site_fract_z
Si Si1 0.250315 0.318699 0.611804
Si Si2 0.518184 0.424124 0.463424
Si Si3 0.091125 0.164461 0.925884
Si Si4 0.250000 0.384276 0.250000
Si Si5 0.981816 0.424124 0.036576
Si Si6 0.091125 0.664461 0.425884
Si Si7 0.750316 0.681301 0.888197
O O1 0.424586 0.365210 0.548298
O O2 0.293470 0.237575 0.587764
O O3 0.250000 0.331039 0.750000
O O4 0.035668 0.336931 0.547254
O O5 0.500000 0.500000 0.519369
O O6 0.372039 0.426689 0.348481
O O7 0.744958 0.398171 0.425099
O O8 0.255041 0.101829 0.925099
O O9 0.206530 0.237575 0.912236
O O10 0.922359 0.159097 0.821422
O O11 0.964332 0.163069 0.047254
O O12 0.127960 0.426688 0.151519
O O13 0.077641 0.340903 0.321422
O O14 0.000000 0.500000 0.980631
O O15 0.075414 0.365210 0.951702
#
# Coordination Sequence:
#
# PCOD9312854 Si02
#       7
#     4   4   4   4   4   4   4
#     4  11  24  42  69  97 132 179 222 274 324 401
#     4  11  25  43  65 100 135 174 220 276 339 395
#     4  11  23  43  68 102 130 173 228 268 335 393
#     4  10  24  38  72  98 136 170 214 280 334 394
#     4  11  25  43  65 100 135 174 220 276 339 395
#     4  11  23  43  68 102 130 173 228 268 335 393
#     4  11  24  42  69  97 132 179 222 274 324 401
#
# _framework density 19.81739
#
# number of rings (size 3 to 8) (size 9 to 14) (size 15 to 20)
#    0.000    1.143    2.857    2.571    8.000    4.571 
#    5.143    0.000    0.000    0.000    0.000    0.000 
#    0.000    0.000    0.000    0.000    0.000    0.000 
#
# Total GULP energy -156492.236576 kJ/mol
# GULP energy per Si atom -5589.008449 kJ/mol
# Density = 1.977228 g / cm^3
# Si number density = 19.817390 Si / 1000 Ang^3
#
#
#
# Elastic Constant Matrix: (Units=GPa)
#
#
# Indices 1 2 3 4 5 6 
#
# 1 109.8557 34.6903 26.9073 0.0000 0.0000 0.0000
# 2 34.6903 104.7933 1.7541 0.0000 0.0000 0.0000
# 3 26.9073 1.7541 111.4790 0.0000 0.0000 0.0000
# 4 0.0000 0.0000 0.0000 6.7688 0.0000 0.0000
# 5 0.0000 0.0000 0.0000 0.0000 20.1971 0.0000
# 6 0.0000 0.0000 0.0000 0.0000 0.0000 21.0469
#
#
#
# Elastic Compliance Matrix: (Units=1/GPa)
#
#
# Indices 1 2 3 4 5 6 
#
# 1 0.010851 -0.003549 -0.002563 0.000000 0.000000 0.000000
# 2 -0.003549 0.010706 0.000688 0.000000 0.000000 0.000000
# 3 -0.002563 0.000688 0.009578 0.000000 0.000000 0.000000
# 4 0.000000 0.000000 0.000000 0.147738 0.000000 0.000000
# 5 0.000000 0.000000 0.000000 0.000000 0.049512 0.000000
# 6 0.000000 0.000000 0.000000 0.000000 0.000000 0.047513
#
#
# Mechanical properties :
#
#
# Convention : Reuss Voigt Hill
#
# Bulk Modulus (GPa) = 49.29306 50.31460 49.80383
# Shear Modulus (GPa) = 17.03523 27.12099 22.07811
#
# Velocity S-wave (km/s) = 2.93509 3.70340 3.34140
# Velocity P-wave (km/s) = 6.03440 6.61295 6.33029
#
# Compressibility (1/GPa) = 0.02028683
#
# Stress axis : x y z
#
# Youngs Moduli (GPa) = 92.15319 93.40538 104.40407
#
# Poissons Ratio (x) = 0.33153 0.26762
# Poissons Ratio (y) = 0.32708 -0.07185
# Poissons Ratio (z) = 0.23622 -0.06428
#
# Static dielectric constant tensor:
#      x y z
#    x 1.715480 0.000000 0.000000 
#    y 0.000000 1.681150 0.000000 
#    z 0.000000 0.000000 1.686550 
# 
# From -- ./inp_files/5206.got.cif
#   From: 2010.05.17/outbox.cif.g08.bks.cpg/sg18_3_cif.got.tgz:5206.got - 2010.06.03 22:40:56.
