data_PCOD9312556
_publ_section_title
;
Structure prediction by ZEFSAII (Michael W. Deem and Ramdas Pophale) SiO2 
 PCOD9312556
Probable space group: P 21 21 2
;
_chemical_formula_sum "Si O2"
_cell_formula_units_Z 24
_cell_length_a 14.036020
_cell_length_b 8.133772
_cell_length_c 9.715445
_cell_angle_alpha 90.000000
_cell_angle_beta 90.000000
_cell_angle_gamma 90.000000
_cell_volume 1109.171419
_symmetry_space_group_name_H-M "P 21 21 2"
_symmetry_group_IT_number 18
_symmetry_cell_setting 'orthorhombic'
loop_
_space_group_symop_operation_xyz
x,y,z
-x,-y,z
1/2+x,1/2-y,-z
1/2-x,1/2+y,-z
loop_
_atom_site_type_symbol
_atom_site_label
_atom_site_fract_x
_atom_site_fract_y
_atom_site_fract_z
Si Si1 0.975361 0.692666 0.028580
Si Si2 0.664291 0.690948 0.834177
Si Si3 0.773558 0.831825 0.066898
Si Si4 0.025338 0.303631 0.706523
Si Si5 0.177188 0.750862 0.664462
Si Si6 0.778876 0.622454 0.579068
O O1 0.870341 0.730429 0.081960
O O2 0.000000 0.500000 0.032394
O O3 0.056005 0.782864 0.118669
O O4 0.970303 0.743592 0.867472
O O5 0.702469 0.517061 0.891644
O O6 0.692131 0.688094 0.674342
O O7 0.728219 0.822353 0.916454
O O8 0.697238 0.757451 0.173238
O O9 0.934001 0.214621 0.641808
O O10 0.000000 0.500000 0.704820
O O11 0.124765 0.284930 0.627152
O O12 0.201708 0.567051 0.613144
O O13 0.248306 0.862072 0.578145
#
# Coordination Sequence:
#
# PCOD9312556 Si02
#       6
#     4   4   4   4   4   4
#     4  11  21  38  63  90 122 160 203 251 304 359
#     4  11  22  38  61  91 123 156 200 253 302 356
#     4  11  22  38  61  91 123 156 200 253 302 356
#     4   9  18  38  61  82 114 158 197 241 300 355
#     4  10  22  40  61  86 121 158 199 249 300 358
#     4  10  22  40  61  86 121 158 199 249 300 358
#
# _framework density 21.637772999999999
#
# number of rings (size 3 to 8) (size 9 to 14) (size 15 to 20)
#    0.000    1.667    3.333    1.500    0.000    4.000 
#    0.000    4.167    0.000    0.000    0.000    0.000 
#    0.000    0.000    0.000    0.000    0.000    0.000 
#
# Total GULP energy -134091.551539 kJ/mol
# GULP energy per Si atom -5587.147981 kJ/mol
# Density = 2.158852 g / cm^3
# Si number density = 21.637773 Si / 1000 Ang^3
#
#
#
# Elastic Constant Matrix: (Units=GPa)
#
#
# Indices 1 2 3 4 5 6 
#
# 1 84.5235 -0.0630 -21.5147 0.0000 0.0000 0.0000
# 2 -0.0630 18.0427 1.4260 0.0000 0.0000 0.0000
# 3 -21.5147 1.4260 27.3168 0.0000 0.0000 0.0000
# 4 0.0000 0.0000 0.0000 26.7863 0.0000 0.0000
# 5 0.0000 0.0000 0.0000 0.0000 28.7588 0.0000
# 6 0.0000 0.0000 0.0000 0.0000 0.0000 24.1619
#
#
#
# Elastic Compliance Matrix: (Units=1/GPa)
#
#
# Indices 1 2 3 4 5 6 
#
# 1 0.014811 -0.000874 0.011711 0.000000 0.000000 0.000000
# 2 -0.000874 0.055705 -0.003596 0.000000 0.000000 0.000000
# 3 0.011711 -0.003596 0.046019 0.000000 0.000000 0.000000
# 4 0.000000 0.000000 0.000000 0.037332 0.000000 0.000000
# 5 0.000000 0.000000 0.000000 0.000000 0.034772 0.000000
# 6 0.000000 0.000000 0.000000 0.000000 0.000000 0.041387
#
#
# Mechanical properties :
#
#
# Convention : Reuss Voigt Hill
#
# Bulk Modulus (GPa) = 7.63259 9.95329 8.79294
# Shear Modulus (GPa) = 19.28879 25.94371 22.61625
#
# Velocity S-wave (km/s) = 2.98894 3.46642 3.23649
# Velocity P-wave (km/s) = 3.93024 4.54217 4.24724
#
# Compressibility (1/GPa) = 0.13101715
#
# Stress axis : x y z
#
# Youngs Moduli (GPa) = 67.51603 17.95163 21.73023
#
# Poissons Ratio (x) = 0.01569 -0.25448
# Poissons Ratio (y) = 0.05900 0.07815
# Poissons Ratio (z) = -0.79068 0.06456
#
# Static dielectric constant tensor:
#      x y z
#    x 1.778390 0.000000 0.000000 
#    y 0.000000 1.853910 0.000000 
#    z 0.000000 0.000000 1.757390 
# 
# From -- ./inp_files/3163.got.cif
#   From: 2010.05.17/outbox.cif.g08.bks.cpg/sg18_2_cif.got.tgz:3163.got - 2010.06.03 22:40:56.
