data_PCOD9312326
_publ_section_title
;
Structure prediction by ZEFSAII (Michael W. Deem and Ramdas Pophale) SiO2 
 PCOD9312326
Probable space group: P 21 21 2
;
_chemical_formula_sum "Si O2"
_cell_formula_units_Z 22
_cell_length_a 14.740277
_cell_length_b 6.500821
_cell_length_c 11.562109
_cell_angle_alpha 90.000000
_cell_angle_beta 90.000000
_cell_angle_gamma 90.000000
_cell_volume 1107.926403
_symmetry_space_group_name_H-M "P 21 21 2"
_symmetry_group_IT_number 18
_symmetry_cell_setting 'orthorhombic'
loop_
_space_group_symop_operation_xyz
x,y,z
-x,-y,z
1/2+x,1/2-y,-z
1/2-x,1/2+y,-z
loop_
_atom_site_type_symbol
_atom_site_label
_atom_site_fract_x
_atom_site_fract_y
_atom_site_fract_z
Si Si1 0.500000 0.500000 0.725899
Si Si2 0.087095 0.653750 0.428083
Si Si3 0.654115 0.459929 0.889357
Si Si4 0.817859 0.161597 0.879034
Si Si5 0.745921 0.288850 0.276565
Si Si6 0.395424 0.054384 0.318657
O O1 0.553329 0.648335 0.640697
O O2 0.569230 0.385902 0.812980
O O3 0.181294 0.604293 0.362223
O O4 0.110916 0.683129 0.562554
O O5 0.000000 0.500000 0.422400
O O6 0.724168 0.275877 0.915383
O O7 0.702661 0.629042 0.807996
O O8 0.631264 0.579813 0.007329
O O9 0.866853 0.322850 0.795458
O O10 0.797031 0.964748 0.801215
O O11 0.668180 0.147093 0.334401
O O12 0.500000 0.000000 0.305516
#
# Coordination Sequence:
#
# PCOD9312326 Si02
#       6
#     2   4   4   4   4   4
#     4  10  22  40  64  90 122 164 214 260 324 368
#     4  10  22  42  63  93 126 161 217 266 312 388
#     4  10  21  39  61  95 120 164 213 256 312 389
#     4  11  21  40  64  87 131 167 203 264 319 375
#     4  10  22  39  64  89 124 169 209 257 323 373
#     4  10  25  41  58  96 130 165 218 260 317 391
#
# _framework density 19.856914
#
# number of rings (size 3 to 8) (size 9 to 14) (size 15 to 20)
#    0.000    1.818    1.818    1.091    2.545    5.091 
#    3.273    0.909    0.000    0.000    0.000    0.000 
#    0.000    0.000    0.000    0.000    0.000    0.000 
#
# Total GULP energy -122659.602060 kJ/mol
# GULP energy per Si atom -5575.436457 kJ/mol
# Density = 1.981172 g / cm^3
# Si number density = 19.856914 Si / 1000 Ang^3
#
#
#
# Elastic Constant Matrix: (Units=GPa)
#
#
# Indices 1 2 3 4 5 6 
#
# 1 68.9475 7.9992 39.7182 0.0000 0.0000 0.0000
# 2 7.9992 40.8389 19.0662 0.0000 0.0000 0.0000
# 3 39.7182 19.0662 121.8844 0.0000 0.0000 0.0000
# 4 0.0000 0.0000 0.0000 29.0580 0.0000 0.0000
# 5 0.0000 0.0000 0.0000 0.0000 27.1922 0.0000
# 6 0.0000 0.0000 0.0000 0.0000 0.0000 26.0764
#
#
#
# Elastic Compliance Matrix: (Units=1/GPa)
#
#
# Indices 1 2 3 4 5 6 
#
# 1 0.017883 -0.000844 -0.005695 0.000000 0.000000 0.000000
# 2 -0.000844 0.026455 -0.003863 0.000000 0.000000 0.000000
# 3 -0.005695 -0.003863 0.010665 0.000000 0.000000 0.000000
# 4 0.000000 0.000000 0.000000 0.034414 0.000000 0.000000
# 5 0.000000 0.000000 0.000000 0.000000 0.036775 0.000000
# 6 0.000000 0.000000 0.000000 0.000000 0.000000 0.038349
#
#
# Mechanical properties :
#
#
# Convention : Reuss Voigt Hill
#
# Bulk Modulus (GPa) = 29.24176 40.58201 34.91188
# Shear Modulus (GPa) = 25.41360 27.45781 26.43570
#
# Velocity S-wave (km/s) = 3.58136 3.72261 3.65267
# Velocity P-wave (km/s) = 5.64444 6.24169 5.95057
#
# Compressibility (1/GPa) = 0.03419767
#
# Stress axis : x y z
#
# Youngs Moduli (GPa) = 55.92035 37.79949 93.76654
#
# Poissons Ratio (x) = 0.03189 0.53404
# Poissons Ratio (y) = 0.04718 0.36226
# Poissons Ratio (z) = 0.31849 0.14604
#
# Static dielectric constant tensor:
#      x y z
#    x 1.746400 0.000000 0.000000 
#    y 0.000000 1.671430 0.000000 
#    z 0.000000 0.000000 1.695550 
# 
# From -- ./inp_files/5099.got.cif
#   From: 2010.05.17/outbox.cif.g08.bks.cpg/sg18_3_cif.got.tgz:5099.got - 2010.06.03 22:40:56.
