data_PCOD9312344
_publ_section_title
;
Structure prediction by ZEFSAII (Michael W. Deem and Ramdas Pophale) SiO2 
 PCOD9312344
Probable space group: P 21 21 2
;
_chemical_formula_sum "Si O2"
_cell_formula_units_Z 28
_cell_length_a 12.882745
_cell_length_b 5.312844
_cell_length_c 20.413481
_cell_angle_alpha 90.000000
_cell_angle_beta 90.000000
_cell_angle_gamma 90.000000
_cell_volume 1397.180589
_symmetry_space_group_name_H-M "P 21 21 2"
_symmetry_group_IT_number 18
_symmetry_cell_setting 'orthorhombic'
loop_
_space_group_symop_operation_xyz
x,y,z
-x,-y,z
1/2+x,1/2-y,-z
1/2-x,1/2+y,-z
loop_
_atom_site_type_symbol
_atom_site_label
_atom_site_fract_x
_atom_site_fract_y
_atom_site_fract_z
Si Si1 0.377424 0.517203 0.286842
Si Si2 0.620704 0.518408 0.647232
Si Si3 0.622927 0.467267 0.036494
Si Si4 0.233380 0.534111 0.913095
Si Si5 0.391599 0.142565 0.516208
Si Si6 0.724396 0.612205 0.412877
Si Si7 0.774989 0.508239 0.763124
O O1 0.500000 0.500000 0.295357
O O2 0.321018 0.566828 0.356920
O O3 0.352236 0.754325 0.241187
O O4 0.330617 0.251617 0.260456
O O5 0.500000 0.500000 0.664940
O O6 0.616188 0.692220 0.582284
O O7 0.686779 0.278703 0.622017
O O8 0.682637 0.582325 0.713263
O O9 0.500000 0.500000 0.037017
O O10 0.661319 0.205130 0.068217
O O11 0.673556 0.705177 0.073409
O O12 0.669883 0.473306 0.962969
O O13 0.262404 0.522446 0.837154
O O14 0.377174 0.265357 0.445404
O O15 0.500000 0.000000 0.519045
O O16 0.287206 0.981236 0.523993
#
# Coordination Sequence:
#
# PCOD9312344 Si02
#       7
#     4   4   4   4   4   4   4
#     4  11  25  42  63  89 128 165 212 262 318 376
#     4  11  23  40  61  86 117 160 204 258 314 380
#     4  10  21  39  65  94 131 167 206 261 306 363
#     4  10  22  39  62  96 129 165 213 254 308 368
#     4  12  23  39  65  87 116 157 209 259 327 381
#     4  11  24  39  61  88 119 155 207 265 321 375
#     4  11  24  42  64  93 128 168 209 259 308 377
#
# _framework density 20.04036
#
# number of rings (size 3 to 8) (size 9 to 14) (size 15 to 20)
#    0.000    1.143    4.286    1.714    0.000    8.000 
#    0.000    0.000    0.000    5.143    0.000    0.000 
#    0.000    0.000    0.000    0.000    0.000    0.000 
#
# Total GULP energy -156150.310085 kJ/mol
# GULP energy per Si atom -5576.796789 kJ/mol
# Density = 1.999475 g / cm^3
# Si number density = 20.040360 Si / 1000 Ang^3
#
#
#
# Elastic Constant Matrix: (Units=GPa)
#
#
# Indices 1 2 3 4 5 6 
#
# 1 92.5813 15.7606 34.1971 0.0000 0.0000 0.0000
# 2 15.7606 72.5021 10.3152 0.0000 0.0000 0.0000
# 3 34.1971 10.3152 111.6127 0.0000 0.0000 0.0000
# 4 0.0000 0.0000 0.0000 18.9327 0.0000 0.0000
# 5 0.0000 0.0000 0.0000 0.0000 8.2565 0.0000
# 6 0.0000 0.0000 0.0000 0.0000 0.0000 20.1028
#
#
#
# Elastic Compliance Matrix: (Units=1/GPa)
#
#
# Indices 1 2 3 4 5 6 
#
# 1 0.012518 -0.002204 -0.003632 0.000000 0.000000 0.000000
# 2 -0.002204 0.014365 -0.000652 0.000000 0.000000 0.000000
# 3 -0.003632 -0.000652 0.010133 0.000000 0.000000 0.000000
# 4 0.000000 0.000000 0.000000 0.052819 0.000000 0.000000
# 5 0.000000 0.000000 0.000000 0.000000 0.121116 0.000000
# 6 0.000000 0.000000 0.000000 0.000000 0.000000 0.049744
#
#
# Mechanical properties :
#
#
# Convention : Reuss Voigt Hill
#
# Bulk Modulus (GPa) = 41.59964 44.13797 42.86881
# Shear Modulus (GPa) = 17.75037 23.88660 20.81849
#
# Velocity S-wave (km/s) = 2.97935 3.45617 3.22658
# Velocity P-wave (km/s) = 5.71300 6.16435 5.94296
#
# Compressibility (1/GPa) = 0.02403867
#
# Stress axis : x y z
#
# Youngs Moduli (GPa) = 79.88465 69.61508 98.69191
#
# Poissons Ratio (x) = 0.15347 0.35842
# Poissons Ratio (y) = 0.17610 0.06436
# Poissons Ratio (z) = 0.29012 0.04540
#
# Static dielectric constant tensor:
#      x y z
#    x 1.677380 0.000000 0.000000 
#    y 0.000000 1.852380 0.000000 
#    z 0.000000 0.000000 1.710170 
# 
# From -- ./inp_files/7553.got.cif
#   From: 2010.05.17/outbox.cif.g08.bks.cpg/sg18_4_cif.got.tgz:7553.got - 2010.06.03 22:40:56.
