data_PCOD9312037
_publ_section_title
;
Structure prediction by ZEFSAII (Michael W. Deem and Ramdas Pophale) SiO2 
 PCOD9312037
Probable space group: P 21 21 2
;
_chemical_formula_sum "Si O2"
_cell_formula_units_Z 20
_cell_length_a 9.912174
_cell_length_b 13.566629
_cell_length_c 5.964632
_cell_angle_alpha 90.000000
_cell_angle_beta 90.000000
_cell_angle_gamma 90.000000
_cell_volume 802.092619
_symmetry_space_group_name_H-M "P 21 21 2"
_symmetry_group_IT_number 18
_symmetry_cell_setting 'orthorhombic'
loop_
_space_group_symop_operation_xyz
x,y,z
-x,-y,z
1/2+x,1/2-y,-z
1/2-x,1/2+y,-z
loop_
_atom_site_type_symbol
_atom_site_label
_atom_site_fract_x
_atom_site_fract_y
_atom_site_fract_z
Si Si1 0.305573 0.745358 0.504470
Si Si2 0.000000 0.000000 0.516258
Si Si3 0.382513 0.155746 0.877946
Si Si4 0.253317 0.543694 0.735848
Si Si5 0.551142 0.697954 0.265272
Si Si6 0.500000 0.000000 0.581803
O O1 0.311785 0.649814 0.662401
O O2 0.454530 0.767944 0.417050
O O3 0.203372 0.812662 0.643295
O O4 0.221656 0.709173 0.287183
O O5 0.013675 0.091643 0.688714
O O6 0.122052 0.977018 0.342125
O O7 0.304970 0.070312 0.021455
O O8 0.441083 0.242263 0.034895
O O9 0.494616 0.094207 0.745459
O O10 0.129341 0.511246 0.578715
#
# Coordination Sequence:
#
# PCOD9312037 Si02
#       6
#     4   2   4   4   4   2
#     4   9  21  39  59  86 120 161 206 255 305 363
#     4  10  22  40  62  90 130 166 198 256 318 368
#     4  10  21  38  63  91 124 164 213 258 307 372
#     4   9  20  39  59  85 122 159 205 256 308 368
#     4  10  22  40  62  91 127 167 210 258 309 371
#     4  10  20  36  62  92 120 162 216 264 306 360
#
# _framework density 24.934777
#
# number of rings (size 3 to 8) (size 9 to 14) (size 15 to 20)
#    0.000    2.400    0.000    0.600    0.000   12.800 
#    0.000   14.000    0.000    2.400    0.000    0.000 
#    0.000    0.000    0.000    0.000    0.000    0.000 
#
# Total GULP energy -111558.192658 kJ/mol
# GULP energy per Si atom -5577.909633 kJ/mol
# Density = 2.487802 g / cm^3
# Si number density = 24.934777 Si / 1000 Ang^3
#
#
#
# Elastic Constant Matrix: (Units=GPa)
#
#
# Indices 1 2 3 4 5 6 
#
# 1 100.2989 -7.9020 7.9125 0.0000 0.0000 0.0000
# 2 -7.9020 76.5035 33.5548 0.0000 0.0000 0.0000
# 3 7.9125 33.5548 77.0954 0.0000 0.0000 0.0000
# 4 0.0000 0.0000 0.0000 29.9442 0.0000 0.0000
# 5 0.0000 0.0000 0.0000 0.0000 28.7373 0.0000
# 6 0.0000 0.0000 0.0000 0.0000 0.0000 22.3590
#
#
#
# Elastic Compliance Matrix: (Units=1/GPa)
#
#
# Indices 1 2 3 4 5 6 
#
# 1 0.010266 0.001882 -0.001873 0.000000 0.000000 0.000000
# 2 0.001882 0.016500 -0.007375 0.000000 0.000000 0.000000
# 3 -0.001873 -0.007375 0.016373 0.000000 0.000000 0.000000
# 4 0.000000 0.000000 0.000000 0.033395 0.000000 0.000000
# 5 0.000000 0.000000 0.000000 0.000000 0.034798 0.000000
# 6 0.000000 0.000000 0.000000 0.000000 0.000000 0.044725
#
#
# Mechanical properties :
#
#
# Convention : Reuss Voigt Hill
#
# Bulk Modulus (GPa) = 35.20115 35.66982 35.43549
# Shear Modulus (GPa) = 27.73802 30.89692 29.31747
#
# Velocity S-wave (km/s) = 3.33892 3.52392 3.43266
# Velocity P-wave (km/s) = 5.38632 5.55820 5.47294
#
# Compressibility (1/GPa) = 0.02840816
#
# Stress axis : x y z
#
# Youngs Moduli (GPa) = 97.40714 60.60525 61.07663
#
# Poissons Ratio (x) = -0.11404 0.11438
# Poissons Ratio (y) = -0.18330 0.45042
# Poissons Ratio (z) = 0.18241 0.44694
#
# Static dielectric constant tensor:
#      x y z
#    x 2.053810 0.000000 0.000000 
#    y 0.000000 2.109870 0.000000 
#    z 0.000000 0.000000 2.004830 
# 
# From -- ./inp_files/560.got.cif
#   From: 2010.05.17/outbox.cif.g08.bks.cpg/sg18_1_cif.got.tgz:560.got - 2010.06.03 22:40:56.
