data_PCOD9312052
_publ_section_title
;
Structure prediction by ZEFSAII (Michael W. Deem and Ramdas Pophale) SiO2 
 PCOD9312052
Probable space group: P 21 21 2
;
_chemical_formula_sum "Si O2"
_cell_formula_units_Z 20
_cell_length_a 11.947686
_cell_length_b 12.928567
_cell_length_c 5.124409
_cell_angle_alpha 90.000000
_cell_angle_beta 90.000000
_cell_angle_gamma 90.000000
_cell_volume 791.549312
_symmetry_space_group_name_H-M "P 21 21 2"
_symmetry_group_IT_number 18
_symmetry_cell_setting 'orthorhombic'
loop_
_space_group_symop_operation_xyz
x,y,z
-x,-y,z
1/2+x,1/2-y,-z
1/2-x,1/2+y,-z
loop_
_atom_site_type_symbol
_atom_site_label
_atom_site_fract_x
_atom_site_fract_y
_atom_site_fract_z
Si Si1 0.372725 0.982132 0.600812
Si Si2 0.213665 0.245637 0.444009
Si Si3 0.339242 0.291484 0.946798
Si Si4 0.950685 0.888821 0.778587
Si Si5 0.250881 0.024434 0.098272
O O1 0.340160 0.860957 0.586471
O O2 0.500000 0.000000 0.524934
O O3 0.349646 0.030324 0.884940
O O4 0.291521 0.036594 0.392552
O O5 0.271498 0.227426 0.164220
O O6 0.113996 0.174885 0.556383
O O7 0.313976 0.248039 0.659682
O O8 0.459491 0.316535 0.072651
O O9 0.283173 0.403575 0.923515
O O10 0.860496 0.922966 0.991949
O O11 0.000000 0.000000 0.679502
#
# Coordination Sequence:
#
# PCOD9312052 Si02
#       5
#     4   4   4   4   4
#     4  10  20  37  58  85 120 158 195 242 301 361
#     4  10  22  38  58  86 118 152 196 245 301 364
#     4   9  21  40  57  82 117 151 194 249 301 351
#     4  10  22  41  65  92 124 164 209 260 310 369
#     4   9  20  36  57  83 114 153 201 244 291 357
#
# _framework density 25.266905000000001
#
# number of rings (size 3 to 8) (size 9 to 14) (size 15 to 20)
#    0.000    2.400    0.000    0.600    0.000    8.000 
#    0.000   13.000    0.000    0.000    0.000    0.000 
#    0.000    0.000    0.000    0.000    0.000    0.000 
#
# Total GULP energy -111943.237168 kJ/mol
# GULP energy per Si atom -5597.161858 kJ/mol
# Density = 2.520940 g / cm^3
# Si number density = 25.266905 Si / 1000 Ang^3
#
#
#
# Elastic Constant Matrix: (Units=GPa)
#
#
# Indices 1 2 3 4 5 6 
#
# 1 95.4940 14.9045 28.2825 0.0000 0.0000 0.0000
# 2 14.9045 80.9869 22.6729 0.0000 0.0000 0.0000
# 3 28.2825 22.6729 149.2520 0.0000 0.0000 0.0000
# 4 0.0000 0.0000 0.0000 43.4216 0.0000 0.0000
# 5 0.0000 0.0000 0.0000 0.0000 12.1420 0.0000
# 6 0.0000 0.0000 0.0000 0.0000 0.0000 48.5247
#
#
#
# Elastic Compliance Matrix: (Units=1/GPa)
#
#
# Indices 1 2 3 4 5 6 
#
# 1 0.011276 -0.001543 -0.001902 0.000000 0.000000 0.000000
# 2 -0.001543 0.013107 -0.001699 0.000000 0.000000 0.000000
# 3 -0.001902 -0.001699 0.007319 0.000000 0.000000 0.000000
# 4 0.000000 0.000000 0.000000 0.023030 0.000000 0.000000
# 5 0.000000 0.000000 0.000000 0.000000 0.082359 0.000000
# 6 0.000000 0.000000 0.000000 0.000000 0.000000 0.020608
#
#
# Mechanical properties :
#
#
# Convention : Reuss Voigt Hill
#
# Bulk Modulus (GPa) = 46.69793 50.82807 48.76300
# Shear Modulus (GPa) = 28.55110 38.14253 33.34681
#
# Velocity S-wave (km/s) = 3.36516 3.88955 3.63682
# Velocity P-wave (km/s) = 5.79837 6.35072 6.08082
#
# Compressibility (1/GPa) = 0.02141423
#
# Stress axis : x y z
#
# Youngs Moduli (GPa) = 88.68334 76.29420 136.63743
#
# Poissons Ratio (x) = 0.11769 0.25994
# Poissons Ratio (y) = 0.13680 0.23212
# Poissons Ratio (z) = 0.16871 0.12961
#
# Static dielectric constant tensor:
#      x y z
#    x 1.917810 0.000000 0.000000 
#    y 0.000000 2.258480 0.000000 
#    z 0.000000 0.000000 1.962500 
# 
# From -- ./inp_files/970.got.cif
#   From: 2010.05.17/outbox.cif.g08.bks.cpg/sg18_1_cif.got.tgz:970.got - 2010.06.03 22:40:56.
