data_PCOD9312118
_publ_section_title
;
Structure prediction by ZEFSAII (Michael W. Deem and Ramdas Pophale) SiO2 
 PCOD9312118
Probable space group: P 21 21 2
;
_chemical_formula_sum "Si O2"
_cell_formula_units_Z 30
_cell_length_a 9.868976
_cell_length_b 21.859313
_cell_length_c 5.482296
_cell_angle_alpha 90.000000
_cell_angle_beta 90.000000
_cell_angle_gamma 90.000000
_cell_volume 1182.690428
_symmetry_space_group_name_H-M "P 21 21 2"
_symmetry_group_IT_number 18
_symmetry_cell_setting 'orthorhombic'
loop_
_space_group_symop_operation_xyz
x,y,z
-x,-y,z
1/2+x,1/2-y,-z
1/2-x,1/2+y,-z
loop_
_atom_site_type_symbol
_atom_site_label
_atom_site_fract_x
_atom_site_fract_y
_atom_site_fract_z
Si Si1 0.266325 0.363950 0.278991
Si Si2 0.247236 0.294052 0.778769
Si Si3 0.022298 0.723163 0.013541
Si Si4 0.000000 0.000000 0.165944
Si Si5 0.944600 0.891610 0.523321
Si Si6 0.244137 0.047297 0.908987
Si Si7 0.799202 0.348796 0.695633
Si Si8 0.996337 0.405594 0.300019
O O1 0.223155 0.318764 0.506062
O O2 0.423755 0.374283 0.328619
O O3 0.156135 0.417933 0.325544
O O4 0.259070 0.344306 0.995827
O O5 0.117685 0.256630 0.888304
O O6 0.393966 0.262197 0.792550
O O7 0.131432 0.711289 0.799752
O O8 0.003650 0.656367 0.135335
O O9 0.995688 0.936933 0.313713
O O10 0.854796 0.001987 0.028964
O O11 0.841428 0.837880 0.445264
O O12 0.843166 0.933337 0.677537
O O13 0.251636 0.105259 0.092558
O O14 0.399401 0.045085 0.826430
O O15 0.915142 0.384342 0.541821
#
# Coordination Sequence:
#
# PCOD9312118 Si02
#       8
#     4   4   4   2   4   4   4   4
#     4  11  25  42  62  96 129 173 214 263 324 378
#     4  11  26  39  62  91 132 170 222 270 315 373
#     4  10  22  38  58  90 128 169 218 271 310 371
#     4  10  20  38  66  96 124 152 214 268 320 386
#     4  10  22  37  65  93 126 162 209 266 320 390
#     4   9  19  36  63  92 118 161 204 255 318 385
#     4   9  18  36  60  84 122 168 207 252 319 374
#     4   9  19  40  61  87 125 171 208 256 323 379
#
# _framework density 25.365893
#
# number of rings (size 3 to 8) (size 9 to 14) (size 15 to 20)
#    0.000    2.133    1.333    0.400    7.467    2.133 
#    0.000    0.000    0.000   19.200    0.000    0.000 
#    0.000    0.000    0.000    0.000    0.000    0.000 
#
# Total GULP energy -167377.704902 kJ/mol
# GULP energy per Si atom -5579.256830 kJ/mol
# Density = 2.530816 g / cm^3
# Si number density = 25.365893 Si / 1000 Ang^3
#
#
#
# Elastic Constant Matrix: (Units=GPa)
#
#
# Indices 1 2 3 4 5 6 
#
# 1 134.5643 6.1387 -7.4377 0.0000 0.0000 0.0000
# 2 6.1387 27.2663 8.4637 0.0000 0.0000 0.0000
# 3 -7.4377 8.4637 64.2677 0.0000 0.0000 0.0000
# 4 0.0000 0.0000 0.0000 26.2809 0.0000 0.0000
# 5 0.0000 0.0000 0.0000 0.0000 9.4295 0.0000
# 6 0.0000 0.0000 0.0000 0.0000 0.0000 38.4417
#
#
#
# Elastic Compliance Matrix: (Units=1/GPa)
#
#
# Indices 1 2 3 4 5 6 
#
# 1 0.007589 -0.002066 0.001150 0.000000 0.000000 0.000000
# 2 -0.002066 0.038801 -0.005349 0.000000 0.000000 0.000000
# 3 0.001150 -0.005349 0.016397 0.000000 0.000000 0.000000
# 4 0.000000 0.000000 0.000000 0.038050 0.000000 0.000000
# 5 0.000000 0.000000 0.000000 0.000000 0.106050 0.000000
# 6 0.000000 0.000000 0.000000 0.000000 0.000000 0.026013
#
#
# Mechanical properties :
#
#
# Convention : Reuss Voigt Hill
#
# Bulk Modulus (GPa) = 19.89700 26.71420 23.30560
# Shear Modulus (GPa) = 19.07066 29.42600 24.24833
#
# Velocity S-wave (km/s) = 2.74491 3.40966 3.09519
# Velocity P-wave (km/s) = 4.23168 5.10446 4.68842
#
# Compressibility (1/GPa) = 0.05025882
#
# Stress axis : x y z
#
# Youngs Moduli (GPa) = 131.76602 25.77272 60.98502
#
# Poissons Ratio (x) = 0.05324 -0.07015
# Poissons Ratio (y) = 0.27219 0.32620
# Poissons Ratio (z) = -0.15158 0.13786
#
# Static dielectric constant tensor:
#      x y z
#    x 2.111250 0.000000 0.000000 
#    y 0.000000 2.113190 0.000000 
#    z 0.000000 0.000000 2.057480 
# 
# From -- ./inp_files/757.got.cif
#   From: 2010.05.17/outbox.cif.g08.bks.cpg/sg18_1_cif.got.tgz:757.got - 2010.06.03 22:40:56.
