data_PCOD9312793
_publ_section_title
;
Structure prediction by ZEFSAII (Michael W. Deem and Ramdas Pophale) SiO2 
 PCOD9312793
Probable space group: P 21 21 2
;
_chemical_formula_sum "Si O2"
_cell_formula_units_Z 24
_cell_length_a 11.004924
_cell_length_b 8.874681
_cell_length_c 11.772504
_cell_angle_alpha 90.000000
_cell_angle_beta 90.000000
_cell_angle_gamma 90.000000
_cell_volume 1149.763839
_symmetry_space_group_name_H-M "P 21 21 2"
_symmetry_group_IT_number 18
_symmetry_cell_setting 'orthorhombic'
loop_
_space_group_symop_operation_xyz
x,y,z
-x,-y,z
1/2+x,1/2-y,-z
1/2-x,1/2+y,-z
loop_
_atom_site_type_symbol
_atom_site_label
_atom_site_fract_x
_atom_site_fract_y
_atom_site_fract_z
Si Si1 0.694631 0.778850 0.093091
Si Si2 0.289417 0.388909 0.856945
Si Si3 0.469279 0.832853 0.250216
Si Si4 0.933036 0.269814 0.319229
Si Si5 0.083699 0.864344 0.554666
Si Si6 0.687120 0.086983 0.711036
O O1 0.560179 0.803948 0.144783
O O2 0.758292 0.655807 0.173946
O O3 0.764378 0.938409 0.106426
O O4 0.690517 0.713740 0.967256
O O5 0.396721 0.361827 0.767307
O O6 0.167667 0.332667 0.792617
O O7 0.503605 0.719037 0.349518
O O8 0.500000 0.000000 0.293869
O O9 0.887924 0.236806 0.446028
O O10 0.867437 0.421147 0.274695
O O11 0.075697 0.305558 0.324571
O O12 0.206918 0.912758 0.617363
O O13 0.000000 0.000000 0.511937
#
# Coordination Sequence:
#
# PCOD9312793 Si02
#       6
#     4   4   4   4   4   4
#     4  10  23  43  67  98 130 178 223 283 334 408
#     4  11  23  41  69  95 135 172 228 280 338 407
#     4   9  22  43  65  91 128 176 221 270 342 401
#     4  11  26  41  66  97 134 177 217 284 338 397
#     4  11  25  41  69  96 133 172 230 272 334 410
#     4  10  25  45  63  96 136 175 225 274 345 394
#
# _framework density 20.873850000000001
#
# number of rings (size 3 to 8) (size 9 to 14) (size 15 to 20)
#    0.000    1.667    0.000    2.000   11.667    2.667 
#    0.000    0.000    0.000    0.000    0.000    0.000 
#    0.000    0.000    0.000    0.000    0.000    0.000 
#
# Total GULP energy -134212.602268 kJ/mol
# GULP energy per Si atom -5592.191761 kJ/mol
# Density = 2.082634 g / cm^3
# Si number density = 20.873850 Si / 1000 Ang^3
#
#
#
# Elastic Constant Matrix: (Units=GPa)
#
#
# Indices 1 2 3 4 5 6 
#
# 1 77.9913 29.8165 15.1271 0.0000 0.0000 0.0000
# 2 29.8165 66.2575 22.5420 0.0000 0.0000 0.0000
# 3 15.1271 22.5420 80.8994 0.0000 0.0000 0.0000
# 4 0.0000 0.0000 0.0000 26.7023 0.0000 0.0000
# 5 0.0000 0.0000 0.0000 0.0000 4.3342 0.0000
# 6 0.0000 0.0000 0.0000 0.0000 0.0000 29.1950
#
#
#
# Elastic Compliance Matrix: (Units=1/GPa)
#
#
# Indices 1 2 3 4 5 6 
#
# 1 0.015568 -0.006645 -0.001059 0.000000 0.000000 0.000000
# 2 -0.006645 0.019510 -0.004194 0.000000 0.000000 0.000000
# 3 -0.001059 -0.004194 0.013728 0.000000 0.000000 0.000000
# 4 0.000000 0.000000 0.000000 0.037450 0.000000 0.000000
# 5 0.000000 0.000000 0.000000 0.000000 0.230726 0.000000
# 6 0.000000 0.000000 0.000000 0.000000 0.000000 0.034252
#
#
# Mechanical properties :
#
#
# Convention : Reuss Voigt Hill
#
# Bulk Modulus (GPa) = 39.98596 40.01327 39.99962
# Shear Modulus (GPa) = 13.04235 22.55714 17.79975
#
# Velocity S-wave (km/s) = 2.50235 3.29088 2.92332
# Velocity P-wave (km/s) = 5.24848 5.80091 5.53160
#
# Compressibility (1/GPa) = 0.02500878
#
# Stress axis : x y z
#
# Youngs Moduli (GPa) = 64.23460 51.25619 72.84570
#
# Poissons Ratio (x) = 0.34061 0.07717
# Poissons Ratio (y) = 0.42686 0.30549
# Poissons Ratio (z) = 0.06805 0.21495
#
# Static dielectric constant tensor:
#      x y z
#    x 1.739430 0.000000 0.000000 
#    y 0.000000 1.759670 0.000000 
#    z 0.000000 0.000000 1.700030 
# 
# From -- ./inp_files/5487.got.cif
#   From: 2010.05.17/outbox.cif.g08.bks.cpg/sg18_3_cif.got.tgz:5487.got - 2010.06.03 22:40:56.
