data_PCOD9312097
_publ_section_title
;
Structure prediction by ZEFSAII (Michael W. Deem and Ramdas Pophale) SiO2 
 PCOD9312097
Probable space group: P 21 21 2
;
_chemical_formula_sum "Si O2"
_cell_formula_units_Z 14
_cell_length_a 5.124019
_cell_length_b 8.719610
_cell_length_c 14.350311
_cell_angle_alpha 90.000000
_cell_angle_beta 90.000000
_cell_angle_gamma 90.000000
_cell_volume 641.163964
_symmetry_space_group_name_H-M "P 21 21 2"
_symmetry_group_IT_number 18
_symmetry_cell_setting 'orthorhombic'
loop_
_space_group_symop_operation_xyz
x,y,z
-x,-y,z
1/2+x,1/2-y,-z
1/2-x,1/2+y,-z
loop_
_atom_site_type_symbol
_atom_site_label
_atom_site_fract_x
_atom_site_fract_y
_atom_site_fract_z
Si Si1 0.015029 0.185360 0.048486
Si Si2 0.361244 0.709186 0.556963
Si Si3 0.000000 0.500000 0.652834
Si Si4 0.892248 0.176596 0.255434
O O1 0.941485 0.238952 0.153295
O O2 0.801141 0.258138 0.979813
O O3 0.000000 0.000000 0.044185
O O4 0.600127 0.712867 0.484909
O O5 0.233342 0.547482 0.585831
O O6 0.476802 0.763170 0.657147
O O7 0.092532 0.358486 0.716320
O O8 0.000000 0.000000 0.250254
#
# Coordination Sequence:
#
# PCOD9312097 Si02
#       4
#     4   4   2   4
#     4  11  25  43  73 100 136 177 229 282 345 401
#     4  11  21  35  60  89 121 157 209 267 315 372
#     4  10  20  38  62  88 122 164 228 256 318 392
#     4   9  21  37  65  90 120 164 221 270 324 404
#
# _framework density 21.835287000000001
#
# number of rings (size 3 to 8) (size 9 to 14) (size 15 to 20)
#    0.000    1.714    2.857    0.857   12.000    0.000 
#    0.000    0.000   12.571    1.714    0.000    0.000 
#    0.000    0.000    0.000    0.000    0.000    0.000 
#
# Total GULP energy -77970.845324 kJ/mol
# GULP energy per Si atom -5569.346095 kJ/mol
# Density = 2.178559 g / cm^3
# Si number density = 21.835287 Si / 1000 Ang^3
#
#
#
# Elastic Constant Matrix: (Units=GPa)
#
#
# Indices 1 2 3 4 5 6 
#
# 1 102.1535 -7.7137 18.1851 0.0000 0.0000 0.0000
# 2 -7.7137 18.9924 2.2190 0.0000 0.0000 0.0000
# 3 18.1851 2.2190 125.0330 0.0000 0.0000 0.0000
# 4 0.0000 0.0000 0.0000 22.6156 0.0000 0.0000
# 5 0.0000 0.0000 0.0000 0.0000 33.6186 0.0000
# 6 0.0000 0.0000 0.0000 0.0000 0.0000 39.8969
#
#
#
# Elastic Compliance Matrix: (Units=1/GPa)
#
#
# Indices 1 2 3 4 5 6 
#
# 1 0.010406 0.004412 -0.001592 0.000000 0.000000 0.000000
# 2 0.004412 0.054633 -0.001611 0.000000 0.000000 0.000000
# 3 -0.001592 -0.001611 0.008258 0.000000 0.000000 0.000000
# 4 0.000000 0.000000 0.000000 0.044217 0.000000 0.000000
# 5 0.000000 0.000000 0.000000 0.000000 0.029745 0.000000
# 6 0.000000 0.000000 0.000000 0.000000 0.000000 0.025065
#
#
# Mechanical properties :
#
#
# Convention : Reuss Voigt Hill
#
# Bulk Modulus (GPa) = 13.20747 30.17331 21.69039
# Shear Modulus (GPa) = 25.62215 34.79213 30.20714
#
# Velocity S-wave (km/s) = 3.42925 3.99606 3.72346
# Velocity P-wave (km/s) = 4.66278 5.92789 5.33298
#
# Compressibility (1/GPa) = 0.07571474
#
# Stress axis : x y z
#
# Youngs Moduli (GPa) = 96.10107 18.30404 121.09487
#
# Poissons Ratio (x) = -0.08076 0.19275
# Poissons Ratio (y) = -0.42402 0.19512
# Poissons Ratio (z) = 0.15297 0.02949
#
# Static dielectric constant tensor:
#      x y z
#    x 1.968660 0.000000 0.000000 
#    y 0.000000 1.874660 0.000000 
#    z 0.000000 0.000000 1.844700 
# 
# From -- ./inp_files/4921.got.cif
#   From: 2010.05.17/outbox.cif.g08.bks.cpg/sg18_3_cif.got.tgz:4921.got - 2010.06.03 22:40:56.
