data_PCOD9312054
_publ_section_title
;
Structure prediction by ZEFSAII (Michael W. Deem and Ramdas Pophale) SiO2 
 PCOD9312054
Probable space group: P 21 21 2
;
_chemical_formula_sum "Si O2"
_cell_formula_units_Z 28
_cell_length_a 5.381255
_cell_length_b 20.009691
_cell_length_c 12.809535
_cell_angle_alpha 90.000000
_cell_angle_beta 90.000000
_cell_angle_gamma 90.000000
_cell_volume 1379.295499
_symmetry_space_group_name_H-M "P 21 21 2"
_symmetry_group_IT_number 18
_symmetry_cell_setting 'orthorhombic'
loop_
_space_group_symop_operation_xyz
x,y,z
-x,-y,z
1/2+x,1/2-y,-z
1/2-x,1/2+y,-z
loop_
_atom_site_type_symbol
_atom_site_label
_atom_site_fract_x
_atom_site_fract_y
_atom_site_fract_z
Si Si1 0.755708 0.540324 0.036220
Si Si2 0.682403 0.789720 0.744619
Si Si3 0.749078 0.039368 0.213662
Si Si4 0.006195 0.833178 0.916667
Si Si5 0.709316 0.299345 0.871288
Si Si6 0.982939 0.292415 0.481088
Si Si7 0.472142 0.840787 0.307779
O O1 0.500000 0.500000 0.057322
O O2 0.725768 0.613288 0.087081
O O3 0.000000 0.500000 0.069029
O O4 0.771509 0.550001 0.910905
O O5 0.499938 0.745950 0.816910
O O6 0.552067 0.814380 0.638993
O O7 0.885743 0.735918 0.704846
O O8 0.821211 0.841252 0.819685
O O9 0.742550 0.109384 0.273545
O O10 0.500000 0.000000 0.246718
O O11 0.000000 0.000000 0.235009
O O12 0.095458 0.756077 0.912990
O O13 0.877663 0.841062 0.029149
O O14 0.820682 0.346489 0.781772
O O15 0.755080 0.241488 0.507506
O O16 0.958291 0.347869 0.571693
#
# Coordination Sequence:
#
# PCOD9312054 Si02
#       7
#     4   4   4   4   4   4   4
#     4  10  24  40  58  83 122 170 210 248 295 369
#     4  10  21  36  56  89 126 160 204 252 317 381
#     4  10  23  37  57  87 122 161 209 256 306 370
#     4  11  23  34  58  90 130 163 206 255 317 376
#     4  11  21  34  57  92 127 166 195 259 323 381
#     4  10  20  37  58  88 122 159 202 243 305 377
#     4  10  22  36  60  86 126 164 199 258 315 376
#
# _framework density 20.300218000000001
#
# number of rings (size 3 to 8) (size 9 to 14) (size 15 to 20)
#    0.000    1.714    2.857    0.857   12.000    0.000 
#    0.000    0.000    0.000    0.000    3.714    0.000 
#    0.000    0.000    0.000    0.000    0.000    0.000 
#
# Total GULP energy -156333.641337 kJ/mol
# GULP energy per Si atom -5583.344333 kJ/mol
# Density = 2.025401 g / cm^3
# Si number density = 20.300218 Si / 1000 Ang^3
#
#
#
# Elastic Constant Matrix: (Units=GPa)
#
#
# Indices 1 2 3 4 5 6 
#
# 1 81.3443 18.0785 31.3234 0.0000 0.0000 0.0000
# 2 18.0785 56.7332 20.0208 0.0000 0.0000 0.0000
# 3 31.3234 20.0208 109.6150 0.0000 0.0000 0.0000
# 4 0.0000 0.0000 0.0000 6.7252 0.0000 0.0000
# 5 0.0000 0.0000 0.0000 0.0000 26.5197 0.0000
# 6 0.0000 0.0000 0.0000 0.0000 0.0000 25.9007
#
#
#
# Elastic Compliance Matrix: (Units=1/GPa)
#
#
# Indices 1 2 3 4 5 6 
#
# 1 0.014385 -0.003349 -0.003499 0.000000 0.000000 0.000000
# 2 -0.003349 0.019620 -0.002627 0.000000 0.000000 0.000000
# 3 -0.003499 -0.002627 0.010602 0.000000 0.000000 0.000000
# 4 0.000000 0.000000 0.000000 0.148693 0.000000 0.000000
# 5 0.000000 0.000000 0.000000 0.000000 0.037708 0.000000
# 6 0.000000 0.000000 0.000000 0.000000 0.000000 0.038609
#
#
# Mechanical properties :
#
#
# Convention : Reuss Voigt Hill
#
# Bulk Modulus (GPa) = 38.97321 42.94867 40.96094
# Shear Modulus (GPa) = 16.82818 23.71377 20.27098
#
# Velocity S-wave (km/s) = 2.88230 3.42153 3.16343
# Velocity P-wave (km/s) = 5.50608 6.06728 5.79348
#
# Compressibility (1/GPa) = 0.02565865
#
# Stress axis : x y z
#
# Youngs Moduli (GPa) = 69.51626 50.96712 94.31804
#
# Poissons Ratio (x) = 0.17070 0.33001
# Poissons Ratio (y) = 0.23282 0.24773
# Poissons Ratio (z) = 0.24323 0.13387
#
# Static dielectric constant tensor:
#      x y z
#    x 1.809380 0.000000 0.000000 
#    y 0.000000 1.726150 0.000000 
#    z 0.000000 0.000000 1.753500 
# 
# From -- ./inp_files/5208.got.cif
#   From: 2010.05.17/outbox.cif.g08.bks.cpg/sg18_3_cif.got.tgz:5208.got - 2010.06.03 22:40:56.
