data_PCOD9312308
_publ_section_title
;
Structure prediction by ZEFSAII (Michael W. Deem and Ramdas Pophale) SiO2 
 PCOD9312308
Probable space group: P 21 21 2
;
_chemical_formula_sum "Si O2"
_cell_formula_units_Z 32
_cell_length_a 8.232359
_cell_length_b 13.265916
_cell_length_c 14.576253
_cell_angle_alpha 90.000000
_cell_angle_beta 90.000000
_cell_angle_gamma 90.000000
_cell_volume 1591.869427
_symmetry_space_group_name_H-M "P 21 21 2"
_symmetry_group_IT_number 18
_symmetry_cell_setting 'orthorhombic'
loop_
_space_group_symop_operation_xyz
x,y,z
-x,-y,z
1/2+x,1/2-y,-z
1/2-x,1/2+y,-z
loop_
_atom_site_type_symbol
_atom_site_label
_atom_site_fract_x
_atom_site_fract_y
_atom_site_fract_z
Si Si1 0.311494 0.501937 0.969003
Si Si2 0.680797 0.137148 0.691624
Si Si3 0.502126 0.241123 0.332694
Si Si4 0.126172 0.701670 0.961257
Si Si5 0.110545 0.399521 0.823728
Si Si6 0.348754 0.559185 0.390088
Si Si7 0.459266 0.117190 0.515286
Si Si8 0.624733 0.134778 0.902354
O O1 0.500000 0.500000 0.995916
O O2 0.261712 0.616172 0.949331
O O3 0.271697 0.436124 0.877242
O O4 0.177171 0.467546 0.044933
O O5 0.816183 0.226544 0.692067
O O6 0.552638 0.149189 0.608656
O O7 0.611651 0.128253 0.793612
O O8 0.760416 0.028539 0.667037
O O9 0.598205 0.160611 0.270708
O O10 0.589934 0.348923 0.328878
O O11 0.497845 0.193294 0.433955
O O12 0.215835 0.802141 0.933299
O O13 0.980450 0.676246 0.892476
O O14 0.035729 0.688679 0.057912
O O15 0.000000 0.500000 0.815840
O O16 0.500000 0.500000 0.434275
O O17 0.230432 0.609982 0.462687
O O18 0.500000 0.000000 0.492552
#
# Coordination Sequence:
#
# PCOD9312308 Si02
#       8
#     4   4   4   4   4   4   4   4
#     4  10  22  39  59  86 124 159 204 262 307 370
#     4  10  22  39  61  89 125 160 205 262 306 373
#     4  11  19  38  63  89 119 167 200 253 315 373
#     4  10  21  39  60  87 119 161 203 259 305 376
#     4   9  19  37  59  82 117 158 204 249 312 365
#     4   9  21  38  57  88 127 158 203 256 303 365
#     4  10  21  38  61  91 124 162 205 257 305 367
#     4  11  21  40  61  90 119 167 207 255 323 372
#
# _framework density 20.102150000000002
#
# number of rings (size 3 to 8) (size 9 to 14) (size 15 to 20)
#    0.000    2.000    1.250    3.000    0.000    4.500 
#   11.250    0.000    0.000    6.000    0.000    0.000 
#    0.000    0.000    0.000    0.000    0.000    0.000 
#
# Total GULP energy -178350.400283 kJ/mol
# GULP energy per Si atom -5573.450009 kJ/mol
# Density = 2.005640 g / cm^3
# Si number density = 20.102150 Si / 1000 Ang^3
#
#
#
# Elastic Constant Matrix: (Units=GPa)
#
#
# Indices 1 2 3 4 5 6 
#
# 1 66.6821 5.3218 28.2712 0.0000 0.0000 0.0000
# 2 5.3218 52.9618 21.4969 0.0000 0.0000 0.0000
# 3 28.2712 21.4969 130.0860 0.0000 0.0000 0.0000
# 4 0.0000 0.0000 0.0000 10.8760 0.0000 0.0000
# 5 0.0000 0.0000 0.0000 0.0000 15.0236 0.0000
# 6 0.0000 0.0000 0.0000 0.0000 0.0000 18.5614
#
#
#
# Elastic Compliance Matrix: (Units=1/GPa)
#
#
# Indices 1 2 3 4 5 6 
#
# 1 0.016521 -0.000217 -0.003555 0.000000 0.000000 0.000000
# 2 -0.000217 0.020242 -0.003298 0.000000 0.000000 0.000000
# 3 -0.003555 -0.003298 0.009005 0.000000 0.000000 0.000000
# 4 0.000000 0.000000 0.000000 0.091946 0.000000 0.000000
# 5 0.000000 0.000000 0.000000 0.000000 0.066562 0.000000
# 6 0.000000 0.000000 0.000000 0.000000 0.000000 0.053875
#
#
# Mechanical properties :
#
#
# Convention : Reuss Voigt Hill
#
# Bulk Modulus (GPa) = 31.61731 39.98997 35.80364
# Shear Modulus (GPa) = 17.67833 21.86820 19.77327
#
# Velocity S-wave (km/s) = 2.96873 3.30184 3.13971
# Velocity P-wave (km/s) = 5.24534 5.87135 5.56715
#
# Compressibility (1/GPa) = 0.03162825
#
# Stress axis : x y z
#
# Youngs Moduli (GPa) = 60.52943 49.40246 111.05335
#
# Poissons Ratio (x) = 0.01074 0.39474
# Poissons Ratio (y) = 0.01315 0.36623
# Poissons Ratio (z) = 0.21515 0.16292
#
# Static dielectric constant tensor:
#      x y z
#    x 1.751620 0.000000 0.000000 
#    y 0.000000 1.737530 0.000000 
#    z 0.000000 0.000000 1.728630 
# 
# From -- ./inp_files/5656.got.cif
#   From: 2010.05.17/outbox.cif.g08.bks.cpg/sg18_3_cif.got.tgz:5656.got - 2010.06.03 22:40:56.
