data_PCOD9312048
_publ_section_title
;
Structure prediction by ZEFSAII (Michael W. Deem and Ramdas Pophale) SiO2 
 PCOD9312048
Probable space group: P 21 21 2
;
_chemical_formula_sum "Si O2"
_cell_formula_units_Z 20
_cell_length_a 14.801815
_cell_length_b 8.986091
_cell_length_c 6.923123
_cell_angle_alpha 90.000000
_cell_angle_beta 90.000000
_cell_angle_gamma 90.000000
_cell_volume 920.847751
_symmetry_space_group_name_H-M "P 21 21 2"
_symmetry_group_IT_number 18
_symmetry_cell_setting 'orthorhombic'
loop_
_space_group_symop_operation_xyz
x,y,z
-x,-y,z
1/2+x,1/2-y,-z
1/2-x,1/2+y,-z
loop_
_atom_site_type_symbol
_atom_site_label
_atom_site_fract_x
_atom_site_fract_y
_atom_site_fract_z
Si Si1 0.783414 0.115458 0.355934
Si Si2 0.071053 0.294897 0.254230
Si Si3 0.307360 0.590707 0.998559
Si Si4 0.136118 0.143925 0.602278
Si Si5 0.880146 0.371051 0.221877
O O1 0.688466 0.199185 0.368854
O O2 0.851894 0.252503 0.384489
O O3 0.874207 0.919611 0.817218
O O4 0.801523 0.980760 0.499797
O O5 0.151070 0.222870 0.129663
O O6 0.061913 0.190067 0.444056
O O7 0.099628 0.464035 0.297353
O O8 0.975651 0.309107 0.143831
O O9 0.301845 0.450831 0.856597
O O10 0.206304 0.618874 0.080247
#
# Coordination Sequence:
#
# PCOD9312048 Si02
#       5
#     4   4   4   4   4
#     4  10  21  36  60  86 116 155 201 249 305 364
#     4  10  22  40  61  88 123 162 210 253 306 370
#     4  10  21  39  62  88 121 161 205 254 307 365
#     4  10  20  37  58  84 114 153 196 245 301 358
#     4  10  20  39  61  86 124 163 202 262 307 356
#
# _framework density 21.719117000000001
#
# number of rings (size 3 to 8) (size 9 to 14) (size 15 to 20)
#    0.000    2.000    0.000    4.800    0.000    6.400 
#    0.000   22.000    0.000    0.000    0.000    0.000 
#    0.000    0.000    0.000    0.000    0.000    0.000 
#
# Total GULP energy -111349.736179 kJ/mol
# GULP energy per Si atom -5567.486809 kJ/mol
# Density = 2.166968 g / cm^3
# Si number density = 21.719117 Si / 1000 Ang^3
#
#
#
# Elastic Constant Matrix: (Units=GPa)
#
#
# Indices 1 2 3 4 5 6 
#
# 1 68.6666 -6.9965 -5.7191 0.0000 0.0000 0.0000
# 2 -6.9965 74.0834 26.9266 0.0000 0.0000 0.0000
# 3 -5.7191 26.9266 89.5073 0.0000 0.0000 0.0000
# 4 0.0000 0.0000 0.0000 25.5146 0.0000 0.0000
# 5 0.0000 0.0000 0.0000 0.0000 17.3347 0.0000
# 6 0.0000 0.0000 0.0000 0.0000 0.0000 25.3471
#
#
#
# Elastic Compliance Matrix: (Units=1/GPa)
#
#
# Indices 1 2 3 4 5 6 
#
# 1 0.014732 0.001178 0.000587 0.000000 0.000000 0.000000
# 2 0.001178 0.015250 -0.004512 0.000000 0.000000 0.000000
# 3 0.000587 -0.004512 0.012567 0.000000 0.000000 0.000000
# 4 0.000000 0.000000 0.000000 0.039193 0.000000 0.000000
# 5 0.000000 0.000000 0.000000 0.000000 0.057688 0.000000
# 6 0.000000 0.000000 0.000000 0.000000 0.000000 0.039452
#
#
# Mechanical properties :
#
#
# Convention : Reuss Voigt Hill
#
# Bulk Modulus (GPa) = 26.98757 28.96436 27.97596
# Shear Modulus (GPa) = 25.41579 28.17571 26.79575
#
# Velocity S-wave (km/s) = 3.42454 3.60568 3.51627
# Velocity P-wave (km/s) = 5.29993 5.54070 5.42166
#
# Compressibility (1/GPa) = 0.03705410
#
# Stress axis : x y z
#
# Youngs Moduli (GPa) = 67.87932 65.57547 79.57213
#
# Poissons Ratio (x) = -0.07725 -0.04670
# Poissons Ratio (y) = -0.07996 0.35905
# Poissons Ratio (z) = -0.03984 0.29590
#
# Static dielectric constant tensor:
#      x y z
#    x 1.863020 0.000000 0.000000 
#    y 0.000000 1.806230 0.000000 
#    z 0.000000 0.000000 1.817780 
# 
# From -- ./inp_files/4125.got.cif
#   From: 2010.05.17/outbox.cif.g08.bks.cpg/sg18_3_cif.got.tgz:4125.got - 2010.06.03 22:40:56.
