data_PCOD9312812
_publ_section_title
;
Structure prediction by ZEFSAII (Michael W. Deem and Ramdas Pophale) SiO2 
 PCOD9312812
Probable space group: P 21 21 2
;
_chemical_formula_sum "Si O2"
_cell_formula_units_Z 32
_cell_length_a 15.498316
_cell_length_b 11.446242
_cell_length_c 9.374862
_cell_angle_alpha 90.000000
_cell_angle_beta 90.000000
_cell_angle_gamma 90.000000
_cell_volume 1663.076852
_symmetry_space_group_name_H-M "P 21 21 2"
_symmetry_group_IT_number 18
_symmetry_cell_setting 'orthorhombic'
loop_
_space_group_symop_operation_xyz
x,y,z
-x,-y,z
1/2+x,1/2-y,-z
1/2-x,1/2+y,-z
loop_
_atom_site_type_symbol
_atom_site_label
_atom_site_fract_x
_atom_site_fract_y
_atom_site_fract_z
Si Si1 0.244159 0.657936 0.339990
Si Si2 0.399797 0.491588 0.290513
Si Si3 0.903589 0.539960 0.353068
Si Si4 0.241773 0.375344 0.862660
Si Si5 0.170506 0.270369 0.146891
Si Si6 0.319460 0.242725 0.362534
Si Si7 0.402360 0.526965 0.949051
Si Si8 0.095378 0.501592 0.678643
O O1 0.335924 0.592165 0.346666
O O2 0.169627 0.558955 0.324635
O O3 0.243082 0.750222 0.211817
O O4 0.226315 0.728258 0.485263
O O5 0.500000 0.500000 0.333209
O O6 0.361840 0.368431 0.342115
O O7 0.396104 0.500697 0.118258
O O8 0.881462 0.652200 0.259782
O O9 0.903468 0.560791 0.523764
O O10 0.000000 0.500000 0.316177
O O11 0.330304 0.447728 0.872618
O O12 0.169368 0.444944 0.774115
O O13 0.205128 0.351618 0.020030
O O14 0.252016 0.224023 0.235394
O O15 0.119073 0.161783 0.082001
O O16 0.386026 0.137003 0.352562
O O17 0.500000 0.500000 0.903004
O O18 0.000000 0.500000 0.743818
#
# Coordination Sequence:
#
# PCOD9312812 Si02
#       8
#     4   4   4   4   4   4   4   4
#     4  11  24  42  65  97 130 175 219 274 335 399
#     4  11  24  46  67  99 135 179 225 277 338 398
#     4  10  23  44  68  95 133 171 220 275 336 387
#     4  12  24  41  66  95 134 173 223 270 336 395
#     4  12  23  43  67  93 133 179 215 277 334 392
#     4  11  23  42  69  90 134 174 217 276 338 392
#     4  11  25  43  65 101 139 177 226 278 334 402
#     4  10  24  43  67 100 128 172 227 275 327 403
#
# _framework density 19.241444000000001
#
# number of rings (size 3 to 8) (size 9 to 14) (size 15 to 20)
#    0.000    1.000    5.000    0.750    5.250    0.500 
#    2.250    1.250    0.000    0.000    0.000    0.000 
#    0.000    0.000    0.000    0.000    0.000    0.000 
#
# Total GULP energy -178840.878844 kJ/mol
# GULP energy per Si atom -5588.777464 kJ/mol
# Density = 1.919765 g / cm^3
# Si number density = 19.241444 Si / 1000 Ang^3
#
#
#
# Elastic Constant Matrix: (Units=GPa)
#
#
# Indices 1 2 3 4 5 6 
#
# 1 167.1170 60.1960 42.1038 0.0000 0.0000 0.0000
# 2 60.1960 91.0965 30.9443 0.0000 0.0000 0.0000
# 3 42.1038 30.9443 68.0322 0.0000 0.0000 0.0000
# 4 0.0000 0.0000 0.0000 -141.0466 0.0000 0.0000
# 5 0.0000 0.0000 0.0000 0.0000 27.9093 0.0000
# 6 0.0000 0.0000 0.0000 0.0000 0.0000 24.5347
#
#
#
# Elastic Compliance Matrix: (Units=1/GPa)
#
#
# Indices 1 2 3 4 5 6 
#
# 1 0.008390 -0.004471 -0.003159 0.000000 0.000000 0.000000
# 2 -0.004471 0.015366 -0.004222 0.000000 0.000000 0.000000
# 3 -0.003159 -0.004222 0.018574 0.000000 0.000000 0.000000
# 4 0.000000 0.000000 0.000000 -0.007090 0.000000 0.000000
# 5 0.000000 0.000000 0.000000 0.000000 0.035830 0.000000
# 6 0.000000 0.000000 0.000000 0.000000 0.000000 0.040759
#
#
# Mechanical properties :
#
#
# Convention : Reuss Voigt Hill
#
# Bulk Modulus (GPa) = 53.68738 65.85930 59.77334
# Shear Modulus (GPa) = 35.27520 -4.85373 15.21073
#
# Velocity S-wave (km/s) = 4.28634 -1.58997 2.81467
# Velocity P-wave (km/s) = 7.24289 5.56161 6.45720
#
# Compressibility (1/GPa) = 0.01862635
#
# Stress axis : x y z
#
# Youngs Moduli (GPa) = 119.18654 65.07833 53.83792
#
# Poissons Ratio (x) = 0.29098 0.17006
# Poissons Ratio (y) = 0.53291 0.22731
# Poissons Ratio (z) = 0.37649 0.27477
#
# Static dielectric constant tensor:
#      x y z
#    x 1.877470 0.000000 0.000000 
#    y 0.000000 1.668740 0.000000 
#    z 0.000000 0.000000 1.659750 
# 
# From -- ./inp_files/4311.got.cif
#   From: 2010.05.17/outbox.cif.g08.bks.cpg/sg18_3_cif.got.tgz:4311.got - 2010.06.03 22:40:56.
