data_PCOD9312297
_publ_section_title
;
Structure prediction by ZEFSAII (Michael W. Deem and Ramdas Pophale) SiO2 
 PCOD9312297
Probable space group: P 21 21 2
;
_chemical_formula_sum "Si O2"
_cell_formula_units_Z 32
_cell_length_a 5.403360
_cell_length_b 30.362618
_cell_length_c 8.519030
_cell_angle_alpha 90.000000
_cell_angle_beta 90.000000
_cell_angle_gamma 90.000000
_cell_volume 1397.633387
_symmetry_space_group_name_H-M "P 21 21 2"
_symmetry_group_IT_number 18
_symmetry_cell_setting 'orthorhombic'
loop_
_space_group_symop_operation_xyz
x,y,z
-x,-y,z
1/2+x,1/2-y,-z
1/2-x,1/2+y,-z
loop_
_atom_site_type_symbol
_atom_site_label
_atom_site_fract_x
_atom_site_fract_y
_atom_site_fract_z
Si Si1 0.904271 0.344937 0.474831
Si Si2 0.464031 0.880729 0.187950
Si Si3 0.805214 0.204175 0.046160
Si Si4 0.752094 0.525623 0.243574
Si Si5 0.601583 0.617125 0.337768
Si Si6 0.041996 0.713722 0.231417
Si Si7 0.683240 0.358094 0.046325
Si Si8 0.752624 0.527432 0.865576
O O1 0.932314 0.361748 0.651286
O O2 0.656665 0.371495 0.421542
O O3 0.892184 0.293759 0.415344
O O4 0.179053 0.353504 0.403105
O O5 0.349481 0.837081 0.109406
O O6 0.284954 0.922892 0.203005
O O7 0.682841 0.892809 0.064329
O O8 0.802981 0.245916 0.159572
O O9 0.715298 0.217034 0.869354
O O10 0.076107 0.182752 0.050205
O O11 0.500000 0.500000 0.271656
O O12 0.718815 0.569146 0.344941
O O13 0.000000 0.500000 0.287685
O O14 0.763118 0.533039 0.055335
O O15 0.534580 0.622992 0.153528
O O16 0.138600 0.666460 0.167391
O O17 0.500000 0.500000 0.828103
O O18 0.000000 0.500000 0.819352
#
# Coordination Sequence:
#
# PCOD9312297 Si02
#       8
#     4   4   4   4   4   4   4   4
#     4  11  26  45  65 100 146 188 235 292 357 437
#     4  11  27  43  68 106 137 193 241 294 367 441
#     4  11  20  40  68  98 139 178 248 293 347 431
#     4  10  21  37  65 105 128 158 223 293 349 409
#     4  11  23  43  69  96 136 184 228 291 360 419
#     4  10  21  40  64 101 135 188 238 296 353 407
#     4  10  22  38  71  96 134 181 243 290 341 428
#     4  10  24  42  70 103 137 172 228 299 354 425
#
# _framework density 22.895845999999999
#
# number of rings (size 3 to 8) (size 9 to 14) (size 15 to 20)
#    0.000    1.500    2.500    1.500   12.250    0.000 
#    2.250    2.500    0.000    0.000    0.000    0.000 
#    0.000    0.000    0.000    0.000    0.000    0.000 
#
# Total GULP energy -178203.610879 kJ/mol
# GULP energy per Si atom -5568.862840 kJ/mol
# Density = 2.284373 g / cm^3
# Si number density = 22.895846 Si / 1000 Ang^3
#
#
#
# Elastic Constant Matrix: (Units=GPa)
#
#
# Indices 1 2 3 4 5 6 
#
# 1 123.0710 27.8261 39.5732 0.0000 0.0000 0.0000
# 2 27.8261 68.5586 14.6529 0.0000 0.0000 0.0000
# 3 39.5732 14.6529 43.3373 0.0000 0.0000 0.0000
# 4 0.0000 0.0000 0.0000 4.4676 0.0000 0.0000
# 5 0.0000 0.0000 0.0000 0.0000 21.0023 0.0000
# 6 0.0000 0.0000 0.0000 0.0000 0.0000 35.1266
#
#
#
# Elastic Compliance Matrix: (Units=1/GPa)
#
#
# Indices 1 2 3 4 5 6 
#
# 1 0.011954 -0.002715 -0.009998 0.000000 0.000000 0.000000
# 2 -0.002715 0.016339 -0.003045 0.000000 0.000000 0.000000
# 3 -0.009998 -0.003045 0.033234 0.000000 0.000000 0.000000
# 4 0.000000 0.000000 0.000000 0.223832 0.000000 0.000000
# 5 0.000000 0.000000 0.000000 0.000000 0.047614 0.000000
# 6 0.000000 0.000000 0.000000 0.000000 0.000000 0.028468
#
#
# Mechanical properties :
#
#
# Convention : Reuss Voigt Hill
#
# Bulk Modulus (GPa) = 33.32135 44.34125 38.83130
# Shear Modulus (GPa) = 12.40816 22.31362 17.36089
#
# Velocity S-wave (km/s) = 2.33049 3.12520 2.75663
# Velocity P-wave (km/s) = 4.67189 5.69483 5.20853
#
# Compressibility (1/GPa) = 0.03001079
#
# Stress axis : x y z
#
# Youngs Moduli (GPa) = 83.65403 61.20385 30.08987
#
# Poissons Ratio (x) = 0.16617 0.30083
# Poissons Ratio (y) = 0.22712 0.09163
# Poissons Ratio (z) = 0.83635 0.18638
#
# Static dielectric constant tensor:
#      x y z
#    x 1.967600 0.000000 0.000000 
#    y 0.000000 1.997490 0.000000 
#    z 0.000000 0.000000 2.000390 
# 
# From -- ./inp_files/2674.got.cif
#   From: 2010.05.17/outbox.cif.g08.bks.cpg/sg18_2_cif.got.tgz:2674.got - 2010.06.03 22:40:56.
