data_PCOD9312578
_publ_section_title
;
Structure prediction by ZEFSAII (Michael W. Deem and Ramdas Pophale) SiO2 
 PCOD9312578
Probable space group: P 21 21 2
;
_chemical_formula_sum "Si O2"
_cell_formula_units_Z 32
_cell_length_a 27.631815
_cell_length_b 5.588930
_cell_length_c 8.405743
_cell_angle_alpha 90.000000
_cell_angle_beta 90.000000
_cell_angle_gamma 90.000000
_cell_volume 1298.118055
_symmetry_space_group_name_H-M "P 21 21 2"
_symmetry_group_IT_number 18
_symmetry_cell_setting 'orthorhombic'
loop_
_space_group_symop_operation_xyz
x,y,z
-x,-y,z
1/2+x,1/2-y,-z
1/2-x,1/2+y,-z
loop_
_atom_site_type_symbol
_atom_site_label
_atom_site_fract_x
_atom_site_fract_y
_atom_site_fract_z
Si Si1 0.384448 0.697265 0.452142
Si Si2 0.001904 0.751389 0.954271
Si Si3 0.295569 0.935604 0.639322
Si Si4 0.891513 0.261994 0.098782
Si Si5 0.345749 0.977161 0.191730
Si Si6 0.416440 0.735806 0.779671
Si Si7 0.811807 0.172936 0.560685
Si Si8 0.723103 0.278276 0.979713
O O1 0.333950 0.782360 0.537767
O O2 0.388902 0.866823 0.299040
O O3 0.424279 0.700689 0.590003
O O4 0.364400 0.439341 0.402955
O O5 0.961448 0.755564 0.096171
O O6 0.000000 0.500000 0.864950
O O7 0.053485 0.752097 0.038132
O O8 0.000000 0.000000 0.860035
O O9 0.239670 0.952779 0.581525
O O10 0.293568 0.815841 0.809438
O O11 0.312716 0.208244 0.613726
O O12 0.892300 0.501757 0.206451
O O13 0.884848 0.996863 0.169296
O O14 0.860242 0.342243 0.947526
O O15 0.309804 0.114118 0.309239
O O16 0.318996 0.753702 0.109961
O O17 0.741125 0.552265 0.975312
#
# Coordination Sequence:
#
# PCOD9312578 Si02
#       8
#     4   4   4   4   4   4   4   4
#     4  11  25  40  63  90 131 178 221 280 331 396
#     4   8  16  36  65  96 121 156 202 262 316 392
#     4  11  23  40  61  83 121 175 231 266 326 390
#     4  10  22  41  68  99 128 166 214 276 330 395
#     4  11  26  41  59  96 132 173 222 282 337 392
#     4  10  22  40  68 101 124 168 220 265 328 407
#     4  11  23  41  60  84 125 180 219 274 331 392
#     4  12  27  41  62  89 125 171 226 280 327 380
#
# _framework density 24.651071000000002
#
# number of rings (size 3 to 8) (size 9 to 14) (size 15 to 20)
#    0.000    1.500    2.500    1.500   10.500    0.000 
#    0.000    0.000    0.000    6.750    0.000    0.000 
#    0.000    0.000    0.000    0.000    0.000    0.000 
#
# Total GULP energy -178466.091757 kJ/mol
# GULP energy per Si atom -5577.065367 kJ/mol
# Density = 2.459496 g / cm^3
# Si number density = 24.651071 Si / 1000 Ang^3
#
#
#
# Elastic Constant Matrix: (Units=GPa)
#
#
# Indices 1 2 3 4 5 6 
#
# 1 46.8159 6.1745 -5.4013 0.0000 0.0000 0.0000
# 2 6.1745 123.1752 -4.1894 0.0000 0.0000 0.0000
# 3 -5.4013 -4.1894 36.7360 0.0000 0.0000 0.0000
# 4 0.0000 0.0000 0.0000 32.6943 0.0000 0.0000
# 5 0.0000 0.0000 0.0000 0.0000 14.2577 0.0000
# 6 0.0000 0.0000 0.0000 0.0000 0.0000 27.5647
#
#
#
# Elastic Compliance Matrix: (Units=1/GPa)
#
#
# Indices 1 2 3 4 5 6 
#
# 1 0.021848 -0.000990 0.003099 0.000000 0.000000 0.000000
# 2 -0.000990 0.008195 0.000789 0.000000 0.000000 0.000000
# 3 0.003099 0.000789 0.027767 0.000000 0.000000 0.000000
# 4 0.000000 0.000000 0.000000 0.030586 0.000000 0.000000
# 5 0.000000 0.000000 0.000000 0.000000 0.070137 0.000000
# 6 0.000000 0.000000 0.000000 0.000000 0.000000 0.036278
#
#
# Mechanical properties :
#
#
# Convention : Reuss Voigt Hill
#
# Bulk Modulus (GPa) = 15.72135 22.21052 18.96593
# Shear Modulus (GPa) = 23.78489 28.91289 26.34889
#
# Velocity S-wave (km/s) = 3.10959 3.42846 3.27291
# Velocity P-wave (km/s) = 4.39137 4.97011 4.68967
#
# Compressibility (1/GPa) = 0.06360778
#
# Stress axis : x y z
#
# Youngs Moduli (GPa) = 45.76992 122.02606 36.01404
#
# Poissons Ratio (x) = 0.12078 -0.11162
# Poissons Ratio (y) = 0.04530 -0.02842
# Poissons Ratio (z) = -0.14186 -0.09628
#
# Static dielectric constant tensor:
#      x y z
#    x 1.998490 0.000000 0.000000 
#    y 0.000000 2.158000 0.000000 
#    z 0.000000 0.000000 2.043600 
# 
# From -- ./inp_files/2686.got.cif
#   From: 2010.05.17/outbox.cif.g08.bks.cpg/sg18_2_cif.got.tgz:2686.got - 2010.06.03 22:40:56.
