data_PCOD9312455
_publ_section_title
;
Structure prediction by ZEFSAII (Michael W. Deem and Ramdas Pophale) SiO2 
 PCOD9312455
Probable space group: P 21 21 2
;
_chemical_formula_sum "Si O2"
_cell_formula_units_Z 18
_cell_length_a 5.010837
_cell_length_b 24.097107
_cell_length_c 6.106526
_cell_angle_alpha 90.000000
_cell_angle_beta 90.000000
_cell_angle_gamma 90.000000
_cell_volume 737.342712
_symmetry_space_group_name_H-M "P 21 21 2"
_symmetry_group_IT_number 18
_symmetry_cell_setting 'orthorhombic'
loop_
_space_group_symop_operation_xyz
x,y,z
-x,-y,z
1/2+x,1/2-y,-z
1/2-x,1/2+y,-z
loop_
_atom_site_type_symbol
_atom_site_label
_atom_site_fract_x
_atom_site_fract_y
_atom_site_fract_z
Si Si1 0.167123 0.429835 0.637372
Si Si2 0.625161 0.187255 0.146424
Si Si3 0.000000 0.000000 0.019607
Si Si4 0.166852 0.073531 0.642624
Si Si5 0.127002 0.189677 0.841297
O O1 0.171251 0.365054 0.701350
O O2 0.298297 0.462953 0.837351
O O3 0.369759 0.438277 0.438504
O O4 0.874971 0.443400 0.544895
O O5 0.661718 0.248199 0.250777
O O6 0.330570 0.184823 0.044764
O O7 0.832556 0.183602 0.943442
O O8 0.819815 0.958993 0.870593
O O9 0.192664 0.139138 0.683033
#
# Coordination Sequence:
#
# PCOD9312455 Si02
#       5
#     4   4   2   4   4
#     4  12  28  48  76 110 141 198 253 297 374 440
#     4  10  21  43  74 106 147 190 232 300 375 432
#     4  12  30  54  72 104 164 194 246 328 352 436
#     4  12  28  48  76 110 141 198 253 297 374 440
#     4  10  21  43  74 106 147 190 232 300 375 432
#
# _framework density 24.411985999999999
#
# number of rings (size 3 to 8) (size 9 to 14) (size 15 to 20)
#    0.000    0.889    2.222    3.333    0.000    7.111 
#    0.000    0.000    0.000    0.000    0.000    0.000 
#    0.000    0.000    0.000    0.000    0.000    0.000 
#
# Total GULP energy -100909.138028 kJ/mol
# GULP energy per Si atom -5606.063224 kJ/mol
# Density = 2.435642 g / cm^3
# Si number density = 24.411986 Si / 1000 Ang^3
#
#
#
# Elastic Constant Matrix: (Units=GPa)
#
#
# Indices 1 2 3 4 5 6 
#
# 1 70.5606 26.5929 9.7840 0.0000 0.0000 0.0000
# 2 26.5929 172.9389 56.1582 0.0000 0.0000 0.0000
# 3 9.7840 56.1582 68.8277 0.0000 0.0000 0.0000
# 4 0.0000 0.0000 0.0000 47.7901 0.0000 0.0000
# 5 0.0000 0.0000 0.0000 0.0000 35.4369 0.0000
# 6 0.0000 0.0000 0.0000 0.0000 0.0000 34.5849
#
#
#
# Elastic Compliance Matrix: (Units=1/GPa)
#
#
# Indices 1 2 3 4 5 6 
#
# 1 0.015050 -0.002203 -0.000342 0.000000 0.000000 0.000000
# 2 -0.002203 0.008189 -0.006369 0.000000 0.000000 0.000000
# 3 -0.000342 -0.006369 0.019774 0.000000 0.000000 0.000000
# 4 0.000000 0.000000 0.000000 0.020925 0.000000 0.000000
# 5 0.000000 0.000000 0.000000 0.000000 0.028219 0.000000
# 6 0.000000 0.000000 0.000000 0.000000 0.000000 0.028914
#
#
# Mechanical properties :
#
#
# Convention : Reuss Voigt Hill
#
# Bulk Modulus (GPa) = 39.70462 55.26639 47.48550
# Shear Modulus (GPa) = 33.94573 38.21520 36.08046
#
# Velocity S-wave (km/s) = 3.73303 3.96084 3.84862
# Velocity P-wave (km/s) = 5.90597 6.60347 6.26444
#
# Compressibility (1/GPa) = 0.02518599
#
# Stress axis : x y z
#
# Youngs Moduli (GPa) = 66.44531 122.11116 50.57169
#
# Poissons Ratio (x) = 0.26905 0.01728
# Poissons Ratio (y) = 0.14640 0.32207
# Poissons Ratio (z) = 0.02270 0.77768
#
# Static dielectric constant tensor:
#      x y z
#    x 1.869990 0.000000 0.000000 
#    y 0.000000 1.984380 0.000000 
#    z 0.000000 0.000000 1.886780 
# 
# From -- ./inp_files/223.got.cif
#   From: 2010.05.17/outbox.cif.g08.bks.cpg/sg18_1_cif.got.tgz:223.got - 2010.06.03 22:40:56.
