data_PCOD9312504
_publ_section_title
;
Structure prediction by ZEFSAII (Michael W. Deem and Ramdas Pophale) SiO2 
 PCOD9312504
Probable space group: P 21 21 2
;
_chemical_formula_sum "Si O2"
_cell_formula_units_Z 20
_cell_length_a 5.405382
_cell_length_b 13.481079
_cell_length_c 13.311218
_cell_angle_alpha 90.000000
_cell_angle_beta 90.000000
_cell_angle_gamma 90.000000
_cell_volume 969.993537
_symmetry_space_group_name_H-M "P 21 21 2"
_symmetry_group_IT_number 18
_symmetry_cell_setting 'orthorhombic'
loop_
_space_group_symop_operation_xyz
x,y,z
-x,-y,z
1/2+x,1/2-y,-z
1/2-x,1/2+y,-z
loop_
_atom_site_type_symbol
_atom_site_label
_atom_site_fract_x
_atom_site_fract_y
_atom_site_fract_z
Si Si1 0.958699 0.115955 0.101688
Si Si2 0.187108 0.801337 0.891611
Si Si3 0.688502 0.227902 0.259423
Si Si4 0.390483 0.263631 0.438500
Si Si5 0.087373 0.389518 0.301171
O O1 0.820042 0.136457 0.206459
O O2 0.190408 0.192047 0.105834
O O3 0.819006 0.153367 0.001581
O O4 0.000000 0.000000 0.090181
O O5 0.327386 0.872311 0.813425
O O6 0.927018 0.786552 0.835488
O O7 0.484083 0.199716 0.342171
O O8 0.877616 0.304684 0.310849
O O9 0.637346 0.272458 0.507128
O O10 0.302563 0.363090 0.380545
O O11 0.000000 0.500000 0.317240
#
# Coordination Sequence:
#
# PCOD9312504 Si02
#       5
#     4   4   4   4   4
#     4  11  23  39  65  97 142 193 236 277 354 423
#     4  10  22  38  61  96 140 184 230 290 336 414
#     4  10  22  43  65  95 142 180 231 286 348 411
#     4  11  22  44  76  97 136 187 228 297 361 408
#     4  10  23  40  71 103 138 177 236 293 355 418
#
# _framework density 20.618693
#
# number of rings (size 3 to 8) (size 9 to 14) (size 15 to 20)
#    0.000    1.600    4.000    0.000    2.800    3.200 
#    0.000    0.000   17.600    0.000    0.000    0.000 
#    0.000    0.000    0.000    0.000    0.000    0.000 
#
# Total GULP energy -111422.824166 kJ/mol
# GULP energy per Si atom -5571.141208 kJ/mol
# Density = 2.057176 g / cm^3
# Si number density = 20.618693 Si / 1000 Ang^3
#
#
#
# Elastic Constant Matrix: (Units=GPa)
#
#
# Indices 1 2 3 4 5 6 
#
# 1 99.2781 37.8869 68.4201 0.0000 0.0000 0.0000
# 2 37.8869 102.9432 63.2968 0.0000 0.0000 0.0000
# 3 68.4201 63.2968 137.4718 0.0000 0.0000 0.0000
# 4 0.0000 0.0000 0.0000 2.7344 0.0000 0.0000
# 5 0.0000 0.0000 0.0000 0.0000 -162.3889 0.0000
# 6 0.0000 0.0000 0.0000 0.0000 0.0000 0.5671
#
#
#
# Elastic Compliance Matrix: (Units=1/GPa)
#
#
# Indices 1 2 3 4 5 6 
#
# 1 0.015462 -0.001338 -0.007080 0.000000 0.000000 0.000000
# 2 -0.001338 0.013666 -0.005627 0.000000 0.000000 0.000000
# 3 -0.007080 -0.005627 0.013389 0.000000 0.000000 0.000000
# 4 0.000000 0.000000 0.000000 0.365709 0.000000 0.000000
# 5 0.000000 0.000000 0.000000 0.000000 -0.006158 0.000000
# 6 0.000000 0.000000 0.000000 0.000000 0.000000 1.763400
#
#
# Mechanical properties :
#
#
# Convention : Reuss Voigt Hill
#
# Bulk Modulus (GPa) = 69.30487 75.43341 72.36914
# Shear Modulus (GPa) = 2.27442 -20.47820 -9.10189
#
# Velocity S-wave (km/s) = 1.05142 -3.15490 -2.10332
# Velocity P-wave (km/s) = 5.92955 4.83665 5.41076
#
# Compressibility (1/GPa) = 0.01442900
#
# Stress axis : x y z
#
# Youngs Moduli (GPa) = 64.67293 73.17433 74.69062
#
# Poissons Ratio (x) = 0.09787 0.52880
# Poissons Ratio (y) = 0.08650 0.42025
# Poissons Ratio (z) = 0.45787 0.41172
#
# Static dielectric constant tensor:
#      x y z
#    x 1.869700 0.000000 0.000000 
#    y 0.000000 1.857150 0.000000 
#    z 0.000000 0.000000 1.801200 
# 
# From -- ./inp_files/6416.got.cif
#   From: 2010.05.17/outbox.cif.g08.bks.cpg/sg18_4_cif.got.tgz:6416.got - 2010.06.03 22:40:56.
