data_PCOD9312534
_publ_section_title
;
Structure prediction by ZEFSAII (Michael W. Deem and Ramdas Pophale) SiO2 
 PCOD9312534
Probable space group: P 21 21 2
;
_chemical_formula_sum "Si O2"
_cell_formula_units_Z 30
_cell_length_a 7.295572
_cell_length_b 16.431219
_cell_length_c 12.176183
_cell_angle_alpha 90.000000
_cell_angle_beta 90.000000
_cell_angle_gamma 90.000000
_cell_volume 1459.621657
_symmetry_space_group_name_H-M "P 21 21 2"
_symmetry_group_IT_number 18
_symmetry_cell_setting 'orthorhombic'
loop_
_space_group_symop_operation_xyz
x,y,z
-x,-y,z
1/2+x,1/2-y,-z
1/2-x,1/2+y,-z
loop_
_atom_site_type_symbol
_atom_site_label
_atom_site_fract_x
_atom_site_fract_y
_atom_site_fract_z
Si Si1 0.843224 0.148068 0.575758
Si Si2 0.979585 0.769517 0.376297
Si Si3 0.611514 0.332693 0.853668
Si Si4 0.287062 0.490142 0.272791
Si Si5 0.735535 0.237029 0.042683
Si Si6 0.684610 0.324856 0.266545
Si Si7 0.000000 0.000000 0.070725
Si Si8 0.848045 0.567642 0.053216
O O1 0.955960 0.163444 0.464359
O O2 0.662112 0.204046 0.573855
O O3 0.990311 0.173132 0.670507
O O4 0.785926 0.056712 0.611178
O O5 0.876062 0.805069 0.270649
O O6 0.166304 0.729318 0.330240
O O7 0.423270 0.297448 0.906441
O O8 0.593540 0.429072 0.859843
O O9 0.757520 0.294583 0.936725
O O10 0.500000 0.500000 0.240458
O O11 0.229261 0.584098 0.268337
O O12 0.180782 0.435218 0.184525
O O13 0.656707 0.291103 0.143042
O O14 0.629589 0.157143 0.997013
O O15 0.842668 0.036831 0.995687
O O16 0.000000 0.500000 0.025726
#
# Coordination Sequence:
#
# PCOD9312534 Si02
#       8
#     4   4   4   4   4   4   2   4
#     4  11  23  41  65  88 125 162 216 268 324 367
#     4  11  23  42  64  92 121 168 212 263 321 386
#     4  10  23  39  62  90 124 166 208 252 322 385
#     4  10  22  39  62  91 123 165 213 272 316 366
#     4  10  23  37  61  95 128 166 207 252 325 388
#     4  10  23  42  64  94 127 164 217 272 313 383
#     4  10  22  42  54  86 130 164 202 264 312 386
#     4  11  23  36  61  93 132 169 207 261 319 387
#
# _framework density 20.553272
#
# number of rings (size 3 to 8) (size 9 to 14) (size 15 to 20)
#    0.000    1.600    2.000    1.600   14.933    0.000 
#    3.600    0.000    0.000    0.000    0.000    0.000 
#    0.000    0.000    0.000    0.000    0.000    0.000 
#
# Total GULP energy -167433.223864 kJ/mol
# GULP energy per Si atom -5581.107462 kJ/mol
# Density = 2.050649 g / cm^3
# Si number density = 20.553272 Si / 1000 Ang^3
#
#
#
# Elastic Constant Matrix: (Units=GPa)
#
#
# Indices 1 2 3 4 5 6 
#
# 1 57.0579 17.6187 11.3363 0.0000 0.0000 0.0000
# 2 17.6187 114.1360 60.2034 0.0000 0.0000 0.0000
# 3 11.3363 60.2034 119.0470 0.0000 0.0000 0.0000
# 4 0.0000 0.0000 0.0000 26.4283 0.0000 0.0000
# 5 0.0000 0.0000 0.0000 0.0000 23.6351 0.0000
# 6 0.0000 0.0000 0.0000 0.0000 0.0000 22.4076
#
#
#
# Elastic Compliance Matrix: (Units=1/GPa)
#
#
# Indices 1 2 3 4 5 6 
#
# 1 0.018419 -0.002616 -0.000431 0.000000 0.000000 0.000000
# 2 -0.002616 0.012320 -0.005981 0.000000 0.000000 0.000000
# 3 -0.000431 -0.005981 0.011466 0.000000 0.000000 0.000000
# 4 0.000000 0.000000 0.000000 0.037838 0.000000 0.000000
# 5 0.000000 0.000000 0.000000 0.000000 0.042310 0.000000
# 6 0.000000 0.000000 0.000000 0.000000 0.000000 0.044628
#
#
# Mechanical properties :
#
#
# Convention : Reuss Voigt Hill
#
# Bulk Modulus (GPa) = 41.40987 52.06197 46.73592
# Shear Modulus (GPa) = 25.89492 27.89970 26.89731
#
# Velocity S-wave (km/s) = 3.55335 3.68833 3.62147
# Velocity P-wave (km/s) = 6.08493 6.59725 6.34626
#
# Compressibility (1/GPa) = 0.02414883
#
# Stress axis : x y z
#
# Youngs Moduli (GPa) = 54.29038 81.16675 87.21465
#
# Poissons Ratio (x) = 0.21233 0.03760
# Poissons Ratio (y) = 0.14202 0.52167
# Poissons Ratio (z) = 0.02340 0.48549
#
# Static dielectric constant tensor:
#      x y z
#    x 1.772170 0.000000 0.000000 
#    y 0.000000 1.776220 0.000000 
#    z 0.000000 0.000000 1.733580 
# 
# From -- ./inp_files/5636.got.cif
#   From: 2010.05.17/outbox.cif.g08.bks.cpg/sg18_3_cif.got.tgz:5636.got - 2010.06.03 22:40:56.
