data_PCOD9312937
_publ_section_title
;
Structure prediction by ZEFSAII (Michael W. Deem and Ramdas Pophale) SiO2 
 PCOD9312937
Probable space group: P 21 21 2
;
_chemical_formula_sum "Si O2"
_cell_formula_units_Z 16
_cell_length_a 7.613731
_cell_length_b 7.503875
_cell_length_c 11.739507
_cell_angle_alpha 90.000000
_cell_angle_beta 90.000000
_cell_angle_gamma 90.000000
_cell_volume 670.707216
_symmetry_space_group_name_H-M "P 21 21 2"
_symmetry_group_IT_number 18
_symmetry_cell_setting 'orthorhombic'
loop_
_space_group_symop_operation_xyz
x,y,z
-x,-y,z
1/2+x,1/2-y,-z
1/2-x,1/2+y,-z
loop_
_atom_site_type_symbol
_atom_site_label
_atom_site_fract_x
_atom_site_fract_y
_atom_site_fract_z
Si Si1 0.301473 0.283159 0.126793
Si Si2 0.807713 0.937211 0.422731
Si Si3 0.704315 0.039003 0.661133
Si Si4 0.000000 0.000000 0.062441
Si Si5 0.000000 0.500000 0.731342
O O1 0.267448 0.452171 0.209904
O O2 0.450186 0.162716 0.186532
O O3 0.133213 0.146497 0.120544
O O4 0.370985 0.371300 0.011098
O O5 0.772267 0.740143 0.380919
O O6 0.792892 0.933336 0.558966
O O7 0.660168 0.045819 0.354035
O O8 0.000000 0.000000 0.389839
O O9 0.500000 0.000000 0.659415
#
# Coordination Sequence:
#
# PCOD9312937 Si02
#       5
#     4   4   4   2   2
#     4  11  28  47  80 104 151 195 262 317 388 442
#     4  11  24  42  71 106 156 190 236 293 371 463
#     4  11  25  44  70 107 146 198 238 305 369 461
#     4  12  28  52  74 110 144 208 260 342 372 448
#     4  10  24  48  70 118 142 202 232 316 366 472
#
# _framework density 23.855416000000002
#
# number of rings (size 3 to 8) (size 9 to 14) (size 15 to 20)
#    0.000    1.000    1.250    3.000   15.750    2.000 
#    0.000    0.000    0.000    0.000    0.000    0.000 
#    0.000    0.000    0.000    0.000    0.000    0.000 
#
# Total GULP energy -89407.049750 kJ/mol
# GULP energy per Si atom -5587.940609 kJ/mol
# Density = 2.380112 g / cm^3
# Si number density = 23.855416 Si / 1000 Ang^3
#
#
#
# Elastic Constant Matrix: (Units=GPa)
#
#
# Indices 1 2 3 4 5 6 
#
# 1 109.1082 -6.5586 28.0608 0.0000 0.0000 0.0000
# 2 -6.5586 38.7939 17.4365 0.0000 0.0000 0.0000
# 3 28.0608 17.4365 84.7511 0.0000 0.0000 0.0000
# 4 0.0000 0.0000 0.0000 42.6097 0.0000 0.0000
# 5 0.0000 0.0000 0.0000 0.0000 24.2417 0.0000
# 6 0.0000 0.0000 0.0000 0.0000 0.0000 43.2210
#
#
#
# Elastic Compliance Matrix: (Units=1/GPa)
#
#
# Indices 1 2 3 4 5 6 
#
# 1 0.010471 0.003668 -0.004222 0.000000 0.000000 0.000000
# 2 0.003668 0.029689 -0.007322 0.000000 0.000000 0.000000
# 3 -0.004222 -0.007322 0.014704 0.000000 0.000000 0.000000
# 4 0.000000 0.000000 0.000000 0.023469 0.000000 0.000000
# 5 0.000000 0.000000 0.000000 0.000000 0.041251 0.000000
# 6 0.000000 0.000000 0.000000 0.000000 0.000000 0.023137
#
#
# Mechanical properties :
#
#
# Convention : Reuss Voigt Hill
#
# Bulk Modulus (GPa) = 25.56830 34.50340 30.03585
# Shear Modulus (GPa) = 29.15282 34.92879 32.04080
#
# Velocity S-wave (km/s) = 3.49959 3.83062 3.66884
# Velocity P-wave (km/s) = 5.20296 5.83608 5.52859
#
# Compressibility (1/GPa) = 0.03911093
#
# Stress axis : x y z
#
# Youngs Moduli (GPa) = 95.49786 33.68302 68.01084
#
# Poissons Ratio (x) = -0.12354 0.28712
# Poissons Ratio (y) = -0.35027 0.49801
# Poissons Ratio (z) = 0.40316 0.24664
#
# Static dielectric constant tensor:
#      x y z
#    x 1.938140 0.000000 0.000000 
#    y 0.000000 1.867580 0.000000 
#    z 0.000000 0.000000 2.004820 
# 
# From -- ./inp_files/2791.got.cif
#   From: 2010.05.17/outbox.cif.g08.bks.cpg/sg18_2_cif.got.tgz:2791.got - 2010.06.03 22:40:56.
