data_PCOD9312861
_publ_section_title
;
Structure prediction by ZEFSAII (Michael W. Deem and Ramdas Pophale) SiO2 
 PCOD9312861
Probable space group: P 21 21 2
;
_chemical_formula_sum "Si O2"
_cell_formula_units_Z 32
_cell_length_a 23.407642
_cell_length_b 10.195595
_cell_length_c 5.429783
_cell_angle_alpha 90.000000
_cell_angle_beta 90.000000
_cell_angle_gamma 90.000000
_cell_volume 1295.843981
_symmetry_space_group_name_H-M "P 21 21 2"
_symmetry_group_IT_number 18
_symmetry_cell_setting 'orthorhombic'
loop_
_space_group_symop_operation_xyz
x,y,z
-x,-y,z
1/2+x,1/2-y,-z
1/2-x,1/2+y,-z
loop_
_atom_site_type_symbol
_atom_site_label
_atom_site_fract_x
_atom_site_fract_y
_atom_site_fract_z
Si Si1 0.159604 0.639206 0.188528
Si Si2 0.176745 0.044675 0.216633
Si Si3 0.093850 0.443648 0.504550
Si Si4 0.479485 0.752402 0.833826
Si Si5 0.130394 0.244121 0.887324
Si Si6 0.582149 0.629160 0.587179
Si Si7 0.783618 0.939704 0.713642
Si Si8 0.072731 0.681413 0.802390
O O1 0.138458 0.502709 0.309026
O O2 0.127217 0.756521 0.329703
O O3 0.226921 0.637949 0.216274
O O4 0.134824 0.654048 0.915622
O O5 0.115356 0.995057 0.311215
O O6 0.219929 0.007753 0.436447
O O7 0.198063 0.978963 0.957435
O O8 0.169047 0.196351 0.122152
O O9 0.055227 0.337820 0.364490
O O10 0.122019 0.380623 0.748573
O O11 0.060589 0.572823 0.597100
O O12 0.520485 0.647758 0.707081
O O13 0.433032 0.704461 0.030539
O O14 0.525638 0.836732 0.987674
O O15 0.161791 0.155740 0.685481
O O16 0.572518 0.670674 0.303590
#
# Coordination Sequence:
#
# PCOD9312861 Si02
#       8
#     4   4   4   4   4   4   4   4
#     4  10  24  43  68 101 144 190 243 301 377 447
#     4  10  25  47  72 103 138 189 244 300 364 443
#     4  11  23  41  66 106 144 189 246 306 385 444
#     4  11  23  42  64 103 139 190 237 313 365 451
#     4  10  24  42  69  97 142 182 245 300 367 440
#     4  10  24  42  68  99 140 190 246 298 372 442
#     4  10  25  47  72  99 145 185 247 305 362 450
#     4  10  24  40  68 101 149 188 250 301 376 458
#
# _framework density 24.694331999999999
#
# number of rings (size 3 to 8) (size 9 to 14) (size 15 to 20)
#    0.750    1.000    0.000    2.250    7.000   13.500 
#    2.250    0.000    0.000    0.000    0.000    0.000 
#    0.000    0.000    0.000    0.000    0.000    0.000 
#
# Total GULP energy -178357.070423 kJ/mol
# GULP energy per Si atom -5573.658451 kJ/mol
# Density = 2.463813 g / cm^3
# Si number density = 24.694332 Si / 1000 Ang^3
#
#
#
# Elastic Constant Matrix: (Units=GPa)
#
#
# Indices 1 2 3 4 5 6 
#
# 1 87.8095 16.6045 33.8453 0.0000 0.0000 0.0000
# 2 16.6045 60.9356 26.3565 0.0000 0.0000 0.0000
# 3 33.8453 26.3565 109.7951 0.0000 0.0000 0.0000
# 4 0.0000 0.0000 0.0000 21.4051 0.0000 0.0000
# 5 0.0000 0.0000 0.0000 0.0000 28.7172 0.0000
# 6 0.0000 0.0000 0.0000 0.0000 0.0000 -46.9140
#
#
#
# Elastic Compliance Matrix: (Units=1/GPa)
#
#
# Indices 1 2 3 4 5 6 
#
# 1 0.013148 -0.002042 -0.003563 0.000000 0.000000 0.000000
# 2 -0.002042 0.018629 -0.003843 0.000000 0.000000 0.000000
# 3 -0.003563 -0.003843 0.011129 0.000000 0.000000 0.000000
# 4 0.000000 0.000000 0.000000 0.046718 0.000000 0.000000
# 5 0.000000 0.000000 0.000000 0.000000 0.034822 0.000000
# 6 0.000000 0.000000 0.000000 0.000000 0.000000 -0.021316
#
#
# Mechanical properties :
#
#
# Convention : Reuss Voigt Hill
#
# Bulk Modulus (GPa) = 41.64707 45.79475 43.72091
# Shear Modulus (GPa) = 38.45335 12.75724 25.60530
#
# Velocity S-wave (km/s) = 3.95038 2.27536 3.22357
# Velocity P-wave (km/s) = 6.14077 5.04856 5.62125
#
# Compressibility (1/GPa) = 0.02401130
#
# Stress axis : x y z
#
# Youngs Moduli (GPa) = 76.05962 53.67935 89.85903
#
# Poissons Ratio (x) = 0.10959 0.32015
# Poissons Ratio (y) = 0.15529 0.34529
# Poissons Ratio (z) = 0.27098 0.20627
#
# Static dielectric constant tensor:
#      x y z
#    x 1.915710 0.000000 0.000000 
#    y 0.000000 2.030100 0.000000 
#    z 0.000000 0.000000 2.239910 
# 
# From -- ./inp_files/2130.got.cif
#   From: 2010.05.17/outbox.cif.g08.bks.cpg/sg18_2_cif.got.tgz:2130.got - 2010.06.03 22:40:56.
