data_PCOD9312357
_publ_section_title
;
Structure prediction by ZEFSAII (Michael W. Deem and Ramdas Pophale) SiO2 
 PCOD9312357
Probable space group: P 21 21 2
;
_chemical_formula_sum "Si O2"
_cell_formula_units_Z 24
_cell_length_a 15.260064
_cell_length_b 9.049626
_cell_length_c 8.930457
_cell_angle_alpha 90.000000
_cell_angle_beta 90.000000
_cell_angle_gamma 90.000000
_cell_volume 1233.277107
_symmetry_space_group_name_H-M "P 21 21 2"
_symmetry_group_IT_number 18
_symmetry_cell_setting 'orthorhombic'
loop_
_space_group_symop_operation_xyz
x,y,z
-x,-y,z
1/2+x,1/2-y,-z
1/2-x,1/2+y,-z
loop_
_atom_site_type_symbol
_atom_site_label
_atom_site_fract_x
_atom_site_fract_y
_atom_site_fract_z
Si Si1 0.201151 0.361402 0.171919
Si Si2 0.503972 0.175303 0.858022
Si Si3 0.647157 0.834400 0.319207
Si Si4 0.489816 0.674776 0.172479
Si Si5 0.333218 0.172108 0.671928
Si Si6 0.314169 0.852644 0.181706
O O1 0.276052 0.262561 0.244293
O O2 0.199931 0.523563 0.244964
O O3 0.103102 0.296502 0.195487
O O4 0.211916 0.369151 0.992463
O O5 0.430571 0.201358 0.734311
O O6 0.500000 0.000000 0.898502
O O7 0.484736 0.269031 0.006014
O O8 0.555372 0.754541 0.286510
O O9 0.664291 0.849159 0.495088
O O10 0.648159 0.993570 0.240978
O O11 0.500000 0.500000 0.183558
O O12 0.390710 0.730690 0.194214
O O13 0.268440 0.301953 0.721557
#
# Coordination Sequence:
#
# PCOD9312357 Si02
#       6
#     4   4   4   4   4   4
#     4  10  21  40  62  88 121 162 208 248 294 361
#     4   9  20  40  64  87 115 157 205 250 300 360
#     4  12  24  39  61  91 127 160 198 253 310 361
#     4  11  23  40  63  89 118 158 208 254 298 359
#     4  11  23  39  62  93 125 158 198 251 310 360
#     4  11  23  40  64  88 120 165 207 248 298 361
#
# _framework density 19.460345
#
# number of rings (size 3 to 8) (size 9 to 14) (size 15 to 20)
#    0.000    1.333    0.000    7.500    0.000    9.333 
#    0.000    0.833    0.000    0.000    0.000    0.000 
#    0.000    0.000    0.000    0.000    0.000    0.000 
#
# Total GULP energy -134227.528340 kJ/mol
# GULP energy per Si atom -5592.813681 kJ/mol
# Density = 1.941605 g / cm^3
# Si number density = 19.460345 Si / 1000 Ang^3
#
#
#
# Elastic Constant Matrix: (Units=GPa)
#
#
# Indices 1 2 3 4 5 6 
#
# 1 41.0319 0.9688 28.9632 0.0000 0.0000 0.0000
# 2 0.9688 57.9613 17.2219 0.0000 0.0000 0.0000
# 3 28.9632 17.2219 92.3250 0.0000 0.0000 0.0000
# 4 0.0000 0.0000 0.0000 23.4236 0.0000 0.0000
# 5 0.0000 0.0000 0.0000 0.0000 -5.8626 0.0000
# 6 0.0000 0.0000 0.0000 0.0000 0.0000 21.7531
#
#
#
# Elastic Compliance Matrix: (Units=1/GPa)
#
#
# Indices 1 2 3 4 5 6 
#
# 1 0.031659 0.002564 -0.010410 0.000000 0.000000 0.000000
# 2 0.002564 0.018473 -0.004250 0.000000 0.000000 0.000000
# 3 -0.010410 -0.004250 0.014890 0.000000 0.000000 0.000000
# 4 0.000000 0.000000 0.000000 0.042692 0.000000 0.000000
# 5 0.000000 0.000000 0.000000 0.000000 -0.170573 0.000000
# 6 0.000000 0.000000 0.000000 0.000000 0.000000 0.045970
#
#
# Mechanical properties :
#
#
# Convention : Reuss Voigt Hill
#
# Bulk Modulus (GPa) = 24.49235 31.73622 28.11429
# Shear Modulus (GPa) = 239.09386 17.47379 128.28383
#
# Velocity S-wave (km/s) = 11.09634 2.99978 8.12796
# Velocity P-wave (km/s) = 13.29605 5.32370 10.12735
#
# Compressibility (1/GPa) = 0.04082908
#
# Stress axis : x y z
#
# Youngs Moduli (GPa) = 31.58686 54.13339 67.16017
#
# Poissons Ratio (x) = -0.13879 0.69913
# Poissons Ratio (y) = -0.08098 0.28544
# Poissons Ratio (z) = 0.32882 0.23008
#
# Static dielectric constant tensor:
#      x y z
#    x 1.688160 0.000000 0.000000 
#    y 0.000000 1.666010 0.000000 
#    z 0.000000 0.000000 1.639730 
# 
# From -- ./inp_files/4169.got.cif
#   From: 2010.05.17/outbox.cif.g08.bks.cpg/sg18_3_cif.got.tgz:4169.got - 2010.06.03 22:40:56.
