data_PCOD9312878
_publ_section_title
;
Structure prediction by ZEFSAII (Michael W. Deem and Ramdas Pophale) SiO2 
 PCOD9312878
Probable space group: P 21 21 2
;
_chemical_formula_sum "Si O2"
_cell_formula_units_Z 20
_cell_length_a 6.088135
_cell_length_b 29.579631
_cell_length_c 3.354657
_cell_angle_alpha 90.000000
_cell_angle_beta 90.000000
_cell_angle_gamma 90.000000
_cell_volume 604.122691
_symmetry_space_group_name_H-M "P 21 21 2"
_symmetry_group_IT_number 18
_symmetry_cell_setting 'orthorhombic'
loop_
_space_group_symop_operation_xyz
x,y,z
-x,-y,z
1/2+x,1/2-y,-z
1/2-x,1/2+y,-z
loop_
_atom_site_type_symbol
_atom_site_label
_atom_site_fract_x
_atom_site_fract_y
_atom_site_fract_z
Si Si1 0.247273 0.731001 0.749986
Si Si2 0.250834 0.080236 0.753564
Si Si3 0.000000 0.000000 0.483911
Si Si4 0.723399 0.694700 0.750020
Si Si5 0.500000 0.000000 0.472939
Si Si6 0.442784 0.139181 0.250323
O O1 0.450519 0.695876 0.749996
O O2 0.239441 0.790050 0.749990
O O3 0.241602 0.742324 0.249984
O O4 0.040174 0.695752 0.749951
O O5 0.041455 0.046771 0.730613
O O6 0.459834 0.045471 0.733298
O O7 0.385688 0.132982 0.749960
O O8 0.256320 0.095201 0.248159
O O9 0.249062 0.994859 0.309481
O O10 0.790190 0.640154 0.750009
#
# Coordination Sequence:
#
# PCOD9312878 Si02
#       6
#     4   4   2   4   2   4
#     4  12  23  41  64  90 134 177 216 271 332 383
#     4  10  24  42  68  99 130 169 222 280 338 400
#     4   8  20  46  70  96 138 176 212 282 354 402
#     4  12  23  41  64  90 134 177 216 271 332 383
#     4   8  20  46  70  96 138 176 212 282 354 402
#     4  12  24  40  68 101 124 169 238 266 316 414
#
# _framework density 33.105860999999997
#
# number of rings (size 3 to 8) (size 9 to 14) (size 15 to 20)
#    1.200    0.000    4.000    2.400    0.000    4.800 
#    0.000    0.000    0.000    0.000    0.000    0.000 
#    0.000    0.000    0.000    0.000    0.000    0.000 
#
# Total GULP energy -111469.651076 kJ/mol
# GULP energy per Si atom -5573.482554 kJ/mol
# Density = 3.303051 g / cm^3
# Si number density = 33.105861 Si / 1000 Ang^3
#
#
#
# Elastic Constant Matrix: (Units=GPa)
#
#
# Indices 1 2 3 4 5 6 
#
# 1 193.1259 38.3903 46.5736 0.0000 0.0000 0.0000
# 2 38.3903 163.5235 46.3229 0.0000 0.0000 0.0000
# 3 46.5736 46.3229 338.3061 0.0000 0.0000 0.0000
# 4 0.0000 0.0000 0.0000 116.1516 0.0000 0.0000
# 5 0.0000 0.0000 0.0000 0.0000 90.4200 0.0000
# 6 0.0000 0.0000 0.0000 0.0000 0.0000 82.8759
#
#
#
# Elastic Compliance Matrix: (Units=1/GPa)
#
#
# Indices 1 2 3 4 5 6 
#
# 1 0.005550 -0.001130 -0.000609 0.000000 0.000000 0.000000
# 2 -0.001130 0.006592 -0.000747 0.000000 0.000000 0.000000
# 3 -0.000609 -0.000747 0.003142 0.000000 0.000000 0.000000
# 4 0.000000 0.000000 0.000000 0.008609 0.000000 0.000000
# 5 0.000000 0.000000 0.000000 0.000000 0.011060 0.000000
# 6 0.000000 0.000000 0.000000 0.000000 0.000000 0.012066
#
#
# Mechanical properties :
#
#
# Convention : Reuss Voigt Hill
#
# Bulk Modulus (GPa) = 96.98562 106.39211 101.68887
# Shear Modulus (GPa) = 90.20514 95.46739 92.83627
#
# Velocity S-wave (km/s) = 5.22558 5.37584 5.30124
# Velocity P-wave (km/s) = 8.10975 8.41068 8.26158
#
# Compressibility (1/GPa) = 0.01031081
#
# Stress axis : x y z
#
# Youngs Moduli (GPa) = 180.19404 151.69183 318.26202
#
# Poissons Ratio (x) = 0.17146 0.19389
# Poissons Ratio (y) = 0.20367 0.23776
# Poissons Ratio (z) = 0.10978 0.11332
#
# Static dielectric constant tensor:
#      x y z
#    x 2.301670 0.000000 0.000000 
#    y 0.000000 1.842640 0.000000 
#    z 0.000000 0.000000 2.772330 
# 
# From -- ./inp_files/305.got.cif
#   From: 2010.05.17/outbox.cif.g08.bks.cpg/sg18_1_cif.got.tgz:305.got - 2010.06.03 22:40:56.
