data_PCOD9312588
_publ_section_title
;
Structure prediction by ZEFSAII (Michael W. Deem and Ramdas Pophale) SiO2 
 PCOD9312588
Probable space group: P 21 21 2
;
_chemical_formula_sum "Si O2"
_cell_formula_units_Z 14
_cell_length_a 9.402519
_cell_length_b 5.475500
_cell_length_c 7.821126
_cell_angle_alpha 90.000000
_cell_angle_beta 90.000000
_cell_angle_gamma 90.000000
_cell_volume 402.658884
_symmetry_space_group_name_H-M "P 21 21 2"
_symmetry_group_IT_number 18
_symmetry_cell_setting 'orthorhombic'
loop_
_space_group_symop_operation_xyz
x,y,z
-x,-y,z
1/2+x,1/2-y,-z
1/2-x,1/2+y,-z
loop_
_atom_site_type_symbol
_atom_site_label
_atom_site_fract_x
_atom_site_fract_y
_atom_site_fract_z
Si Si1 0.829579 0.042683 0.226767
Si Si2 0.500000 0.000000 0.196913
Si Si3 0.665971 0.883009 0.496556
Si Si4 0.500000 0.000000 0.774279
Si Si5 0.000000 0.000000 0.904140
O O1 0.671585 0.930309 0.274285
O O2 0.923885 0.795108 0.259979
O O3 0.848463 0.339845 0.282216
O O4 0.863298 0.056352 0.024595
O O5 0.543649 0.285233 0.217128
O O6 0.500000 0.000000 0.502824
O O7 0.500000 0.000000 0.983693
O O8 0.705524 0.589399 0.501029
#
# Coordination Sequence:
#
# PCOD9312588 Si02
#       5
#     4   2   4   2   2
#     4  10  22  40  73 106 139 194 255 316 362 449
#     4  11  27  50  66 109 151 204 222 321 369 470
#     4   9  22  42  70 106 143 190 262 306 376 431
#     4   7  19  40  62 109 139 176 250 309 381 406
#     4  12  28  44  74 100 162 186 248 296 394 438
#
# _framework density 34.768886999999999
#
# number of rings (size 3 to 8) (size 9 to 14) (size 15 to 20)
#    1.714    0.571    0.000    0.857    4.000    5.714 
#    0.000    0.000    0.000    0.000    0.000    0.000 
#    0.000    0.000    0.000    0.000    0.000    0.000 
#
# Total GULP energy -78156.541871 kJ/mol
# GULP energy per Si atom -5582.610134 kJ/mol
# Density = 3.468975 g / cm^3
# Si number density = 34.768887 Si / 1000 Ang^3
#
#
#
# Elastic Constant Matrix: (Units=GPa)
#
#
# Indices 1 2 3 4 5 6 
#
# 1 177.5675 161.5703 91.0949 0.0000 0.0000 0.0000
# 2 161.5703 356.0260 140.6749 0.0000 0.0000 0.0000
# 3 91.0949 140.6749 190.4699 0.0000 0.0000 0.0000
# 4 0.0000 0.0000 0.0000 140.9471 0.0000 0.0000
# 5 0.0000 0.0000 0.0000 0.0000 73.0722 0.0000
# 6 0.0000 0.0000 0.0000 0.0000 0.0000 102.7988
#
#
#
# Elastic Compliance Matrix: (Units=1/GPa)
#
#
# Indices 1 2 3 4 5 6 
#
# 1 0.010128 -0.003788 -0.002046 0.000000 0.000000 0.000000
# 2 -0.003788 0.005383 -0.002164 0.000000 0.000000 0.000000
# 3 -0.002046 -0.002164 0.007827 0.000000 0.000000 0.000000
# 4 0.000000 0.000000 0.000000 0.007095 0.000000 0.000000
# 5 0.000000 0.000000 0.000000 0.000000 0.013685 0.000000
# 6 0.000000 0.000000 0.000000 0.000000 0.000000 0.009728
#
#
# Mechanical properties :
#
#
# Convention : Reuss Voigt Hill
#
# Bulk Modulus (GPa) = 136.20811 167.86040 152.03425
# Shear Modulus (GPa) = 69.16706 85.41183 77.28945
#
# Velocity S-wave (km/s) = 4.46504 4.96175 4.71993
# Velocity P-wave (km/s) = 8.11433 9.01160 8.57471
#
# Compressibility (1/GPa) = 0.00734171
#
# Stress axis : x y z
#
# Youngs Moduli (GPa) = 98.73747 185.77965 127.76016
#
# Poissons Ratio (x) = 0.70366 0.26145
# Poissons Ratio (y) = 0.37398 0.27648
# Poissons Ratio (z) = 0.20206 0.40203
#
# Static dielectric constant tensor:
#      x y z
#    x 3.128150 0.000000 0.000000 
#    y 0.000000 2.735070 0.000000 
#    z 0.000000 0.000000 3.525980 
# 
# From -- ./inp_files/819.got.cif
#   From: 2010.05.17/outbox.cif.g08.bks.cpg/sg18_1_cif.got.tgz:819.got - 2010.06.03 22:40:56.
