data_PCOD9312278
_publ_section_title
;
Structure prediction by ZEFSAII (Michael W. Deem and Ramdas Pophale) SiO2 
 PCOD9312278
Probable space group: P 21 21 2
;
_chemical_formula_sum "Si O2"
_cell_formula_units_Z 20
_cell_length_a 14.010318
_cell_length_b 5.137948
_cell_length_c 13.857456
_cell_angle_alpha 90.000000
_cell_angle_beta 90.000000
_cell_angle_gamma 90.000000
_cell_volume 997.519067
_symmetry_space_group_name_H-M "P 21 21 2"
_symmetry_group_IT_number 18
_symmetry_cell_setting 'orthorhombic'
loop_
_space_group_symop_operation_xyz
x,y,z
-x,-y,z
1/2+x,1/2-y,-z
1/2-x,1/2+y,-z
loop_
_atom_site_type_symbol
_atom_site_label
_atom_site_fract_x
_atom_site_fract_y
_atom_site_fract_z
Si Si1 0.500000 0.500000 0.624310
Si Si2 0.000000 0.500000 0.183628
Si Si3 0.201764 0.133238 0.035340
Si Si4 0.000000 0.000000 0.048800
Si Si5 0.788586 0.355622 0.557042
Si Si6 0.335681 0.669524 0.741250
Si Si7 0.500000 0.000000 0.492611
O O1 0.408653 0.464972 0.692682
O O2 0.480214 0.748415 0.558505
O O3 0.906866 0.585378 0.243210
O O4 0.981989 0.252395 0.115170
O O5 0.198585 0.100662 0.151428
O O6 0.225676 0.428808 0.010155
O O7 0.097431 0.060312 0.994780
O O8 0.733615 0.602323 0.508899
O O9 0.746791 0.296209 0.663058
O O10 0.900891 0.428596 0.560480
#
# Coordination Sequence:
#
# PCOD9312278 Si02
#       7
#     2   2   4   2   4   4   2
#     4  12  23  38  70  91 126 162 219 288 322 361
#     4  10  21  36  66  99 128 158 225 280 328 365
#     4  11  24  41  65  98 132 170 221 271 330 394
#     4  10  21  42  64  95 132 166 215 292 318 371
#     4  12  25  41  65  93 135 176 213 270 332 394
#     4  11  23  41  67 100 131 172 216 275 334 380
#     4  12  23  44  58 101 130 168 219 266 324 391
#
# _framework density 20.049742999999999
#
# number of rings (size 3 to 8) (size 9 to 14) (size 15 to 20)
#    0.000    0.800    4.000    5.400    0.000    6.400 
#    0.000    2.000    0.000    0.000    0.000    0.000 
#    0.000    0.000    0.000    0.000    0.000    0.000 
#
# Total GULP energy -111700.409476 kJ/mol
# GULP energy per Si atom -5585.020474 kJ/mol
# Density = 2.000411 g / cm^3
# Si number density = 20.049743 Si / 1000 Ang^3
#
#
#
# Elastic Constant Matrix: (Units=GPa)
#
#
# Indices 1 2 3 4 5 6 
#
# 1 110.4143 9.3419 34.4706 0.0000 0.0000 0.0000
# 2 9.3419 110.6571 8.0308 0.0000 0.0000 0.0000
# 3 34.4706 8.0308 80.2815 0.0000 0.0000 0.0000
# 4 0.0000 0.0000 0.0000 18.5043 0.0000 0.0000
# 5 0.0000 0.0000 0.0000 0.0000 36.3040 0.0000
# 6 0.0000 0.0000 0.0000 0.0000 0.0000 40.9795
#
#
#
# Elastic Compliance Matrix: (Units=1/GPa)
#
#
# Indices 1 2 3 4 5 6 
#
# 1 0.010493 -0.000563 -0.004449 0.000000 0.000000 0.000000
# 2 -0.000563 0.009133 -0.000672 0.000000 0.000000 0.000000
# 3 -0.004449 -0.000672 0.014434 0.000000 0.000000 0.000000
# 4 0.000000 0.000000 0.000000 0.054041 0.000000 0.000000
# 5 0.000000 0.000000 0.000000 0.000000 0.027545 0.000000
# 6 0.000000 0.000000 0.000000 0.000000 0.000000 0.024402
#
#
# Mechanical properties :
#
#
# Convention : Reuss Voigt Hill
#
# Bulk Modulus (GPa) = 44.06811 45.00439 44.53625
# Shear Modulus (GPa) = 31.45012 35.79154 33.62083
#
# Velocity S-wave (km/s) = 3.96486 4.22967 4.09940
# Velocity P-wave (km/s) = 6.55647 6.80798 6.68341
#
# Compressibility (1/GPa) = 0.02269215
#
# Stress axis : x y z
#
# Youngs Moduli (GPa) = 95.29741 109.49044 69.28199
#
# Poissons Ratio (x) = 0.06164 0.30825
# Poissons Ratio (y) = 0.05365 0.04655
# Poissons Ratio (z) = 0.42400 0.07357
#
# Static dielectric constant tensor:
#      x y z
#    x 1.767730 0.000000 0.000000 
#    y 0.000000 1.727850 0.000000 
#    z 0.000000 0.000000 1.713580 
# 
# From -- ./inp_files/5076.got.cif
#   From: 2010.05.17/outbox.cif.g08.bks.cpg/sg18_3_cif.got.tgz:5076.got - 2010.06.03 22:40:56.
