data_PCOD9312046
_publ_section_title
;
Structure prediction by ZEFSAII (Michael W. Deem and Ramdas Pophale) SiO2 
 PCOD9312046
Probable space group: P 21 21 2
;
_chemical_formula_sum "Si O2"
_cell_formula_units_Z 30
_cell_length_a 7.118930
_cell_length_b 23.973009
_cell_length_c 6.572823
_cell_angle_alpha 90.000000
_cell_angle_beta 90.000000
_cell_angle_gamma 90.000000
_cell_volume 1121.732256
_symmetry_space_group_name_H-M "P 21 21 2"
_symmetry_group_IT_number 18
_symmetry_cell_setting 'orthorhombic'
loop_
_space_group_symop_operation_xyz
x,y,z
-x,-y,z
1/2+x,1/2-y,-z
1/2-x,1/2+y,-z
loop_
_atom_site_type_symbol
_atom_site_label
_atom_site_fract_x
_atom_site_fract_y
_atom_site_fract_z
Si Si1 0.527698 0.099186 0.789603
Si Si2 0.751026 0.457125 0.901732
Si Si3 0.099723 0.930591 0.910104
Si Si4 0.113256 0.320943 0.514774
Si Si5 0.011070 0.136441 0.558416
Si Si6 0.500000 0.000000 0.467604
Si Si7 0.829606 0.757793 0.803004
Si Si8 0.399017 0.717124 0.743171
O O1 0.393060 0.080726 0.970114
O O2 0.729245 0.112416 0.892614
O O3 0.471628 0.150192 0.643769
O O4 0.548339 0.049840 0.622339
O O5 0.707830 0.511532 0.044611
O O6 0.547193 0.428766 0.907476
O O7 0.838617 0.478045 0.689610
O O8 0.983513 0.918817 0.700053
O O9 0.294736 0.360489 0.518157
O O10 0.050505 0.297180 0.731037
O O11 0.179494 0.263932 0.407570
O O12 0.125592 0.156917 0.361077
O O13 0.069249 0.187582 0.707520
O O14 0.619845 0.734587 0.755923
O O15 0.822740 0.773181 0.036573
#
# Coordination Sequence:
#
# PCOD9312046 Si02
#       8
#     4   4   4   4   4   2   4   4
#     4  11  22  45  66  94 128 171 214 270 328 393
#     4  11  23  43  66  94 129 169 214 273 326 382
#     4  10  21  45  65  88 132 170 209 265 326 381
#     4   9  21  38  63  82 120 166 200 254 317 374
#     4   9  20  39  60  85 119 163 205 251 309 376
#     4  12  22  44  68  98 130 164 220 276 322 390
#     4  10  20  37  56  91 122 156 208 254 307 372
#     4  10  20  37  61  87 123 160 202 257 311 373
#
# _framework density 26.744347999999999
#
# number of rings (size 3 to 8) (size 9 to 14) (size 15 to 20)
#    0.000    1.867    2.667    0.800    1.867    2.133 
#   12.000    0.000    0.000    0.000    0.000    0.000 
#    0.000    0.000    0.000    0.000    0.000    0.000 
#
# Total GULP energy -167389.576751 kJ/mol
# GULP energy per Si atom -5579.652558 kJ/mol
# Density = 2.668348 g / cm^3
# Si number density = 26.744348 Si / 1000 Ang^3
#
#
#
# Elastic Constant Matrix: (Units=GPa)
#
#
# Indices 1 2 3 4 5 6 
#
# 1 112.5083 -3.7500 11.1241 0.0000 0.0000 0.0000
# 2 -3.7500 59.0616 17.6870 0.0000 0.0000 0.0000
# 3 11.1241 17.6870 84.8434 0.0000 0.0000 0.0000
# 4 0.0000 0.0000 0.0000 49.3416 0.0000 0.0000
# 5 0.0000 0.0000 0.0000 0.0000 17.8725 0.0000
# 6 0.0000 0.0000 0.0000 0.0000 0.0000 28.4976
#
#
#
# Elastic Compliance Matrix: (Units=1/GPa)
#
#
# Indices 1 2 3 4 5 6 
#
# 1 0.009059 0.000993 -0.001395 0.000000 0.000000 0.000000
# 2 0.000993 0.018168 -0.003918 0.000000 0.000000 0.000000
# 3 -0.001395 -0.003918 0.012786 0.000000 0.000000 0.000000
# 4 0.000000 0.000000 0.000000 0.020267 0.000000 0.000000
# 5 0.000000 0.000000 0.000000 0.000000 0.055952 0.000000
# 6 0.000000 0.000000 0.000000 0.000000 0.000000 0.035091
#
#
# Mechanical properties :
#
#
# Convention : Reuss Voigt Hill
#
# Bulk Modulus (GPa) = 31.87348 34.05950 32.96649
# Shear Modulus (GPa) = 29.33946 34.56584 31.95265
#
# Velocity S-wave (km/s) = 3.31574 3.59897 3.46026
# Velocity P-wave (km/s) = 5.15777 5.48024 5.32145
#
# Compressibility (1/GPa) = 0.03137405
#
# Stress axis : x y z
#
# Youngs Moduli (GPa) = 110.38464 55.04281 78.21075
#
# Poissons Ratio (x) = -0.05465 0.10909
# Poissons Ratio (y) = -0.10960 0.30639
# Poissons Ratio (z) = 0.15396 0.21563
#
# Static dielectric constant tensor:
#      x y z
#    x 2.209920 0.000000 0.000000 
#    y 0.000000 2.147040 0.000000 
#    z 0.000000 0.000000 2.165020 
# 
# From -- ./inp_files/766.got.cif
#   From: 2010.05.17/outbox.cif.g08.bks.cpg/sg18_1_cif.got.tgz:766.got - 2010.06.03 22:40:56.
