data_PCOD9312205
_publ_section_title
;
Structure prediction by ZEFSAII (Michael W. Deem and Ramdas Pophale) SiO2 
 PCOD9312205
Probable space group: P 21 21 2
;
_chemical_formula_sum "Si O2"
_cell_formula_units_Z 32
_cell_length_a 8.635626
_cell_length_b 22.075166
_cell_length_c 8.391907
_cell_angle_alpha 90.000000
_cell_angle_beta 90.000000
_cell_angle_gamma 90.000000
_cell_volume 1599.773379
_symmetry_space_group_name_H-M "P 21 21 2"
_symmetry_group_IT_number 18
_symmetry_cell_setting 'orthorhombic'
loop_
_space_group_symop_operation_xyz
x,y,z
-x,-y,z
1/2+x,1/2-y,-z
1/2-x,1/2+y,-z
loop_
_atom_site_type_symbol
_atom_site_label
_atom_site_fract_x
_atom_site_fract_y
_atom_site_fract_z
Si Si1 0.725098 0.671188 0.482383
Si Si2 0.888337 0.948885 0.063148
Si Si3 0.806217 0.235016 0.037473
Si Si4 0.755355 0.834343 0.227899
Si Si5 0.605226 0.620992 0.176730
Si Si6 0.594319 0.141757 0.217291
Si Si7 0.495916 0.753941 0.652339
Si Si8 0.367509 0.960085 0.952091
O O1 0.608687 0.638167 0.361438
O O2 0.781733 0.635197 0.639362
O O3 0.633554 0.731569 0.538303
O O4 0.885524 0.690411 0.394526
O O5 0.973064 0.918957 0.908720
O O6 0.838740 0.895716 0.177995
O O7 0.000000 0.000000 0.134800
O O8 0.740085 0.986878 0.017225
O O9 0.662482 0.200006 0.121409
O O10 0.923030 0.257633 0.174642
O O11 0.757959 0.290466 0.926728
O O12 0.881072 0.182880 0.925822
O O13 0.578420 0.845207 0.278931
O O14 0.872342 0.800651 0.343676
O O15 0.762643 0.582676 0.155433
O O16 0.585204 0.084558 0.097908
O O17 0.500000 0.000000 0.871043
#
# Coordination Sequence:
#
# PCOD9312205 Si02
#       8
#     4   4   4   4   4   4   4   4
#     4  11  24  40  58  92 140 169 197 247 334 395
#     4  10  22  37  64  89 119 159 221 272 305 357
#     4  10  21  36  62  95 121 156 213 257 317 372
#     4  12  20  36  65  96 119 162 215 262 316 369
#     4  10  21  39  63  87 128 160 203 271 313 373
#     4  10  23  38  62  93 127 169 200 256 324 392
#     4  11  23  38  59  91 135 170 197 251 315 408
#     4  10  20  41  66  91 115 159 224 274 304 360
#
# _framework density 20.002834
#
# number of rings (size 3 to 8) (size 9 to 14) (size 15 to 20)
#    0.000    1.500    3.750    1.500    3.500    1.000 
#    0.000    1.875    8.250    0.000    0.000    0.000 
#    0.000    0.000    0.000    0.000    0.000    0.000 
#
# Total GULP energy -178453.946854 kJ/mol
# GULP energy per Si atom -5576.685839 kJ/mol
# Density = 1.995731 g / cm^3
# Si number density = 20.002834 Si / 1000 Ang^3
#
#
#
# Elastic Constant Matrix: (Units=GPa)
#
#
# Indices 1 2 3 4 5 6 
#
# 1 66.7777 -1.3432 -4.6987 0.0000 0.0000 0.0000
# 2 -1.3432 69.6497 4.5278 0.0000 0.0000 0.0000
# 3 -4.6987 4.5278 34.7449 0.0000 0.0000 0.0000
# 4 0.0000 0.0000 0.0000 15.4043 0.0000 0.0000
# 5 0.0000 0.0000 0.0000 0.0000 57.2584 0.0000
# 6 0.0000 0.0000 0.0000 0.0000 0.0000 32.0850
#
#
#
# Elastic Compliance Matrix: (Units=1/GPa)
#
#
# Indices 1 2 3 4 5 6 
#
# 1 0.015121 0.000160 0.002024 0.000000 0.000000 0.000000
# 2 0.000160 0.014482 -0.001866 0.000000 0.000000 0.000000
# 3 0.002024 -0.001866 0.029298 0.000000 0.000000 0.000000
# 4 0.000000 0.000000 0.000000 0.064917 0.000000 0.000000
# 5 0.000000 0.000000 0.000000 0.000000 0.017465 0.000000
# 6 0.000000 0.000000 0.000000 0.000000 0.000000 0.031167
#
#
# Mechanical properties :
#
#
# Convention : Reuss Voigt Hill
#
# Bulk Modulus (GPa) = 16.79613 18.68266 17.73940
# Shear Modulus (GPa) = 26.08806 32.46196 29.27501
#
# Velocity S-wave (km/s) = 3.61531 4.03285 3.82978
# Velocity P-wave (km/s) = 5.08355 5.57185 5.33329
#
# Compressibility (1/GPa) = 0.05953752
#
# Stress axis : x y z
#
# Youngs Moduli (GPa) = 66.13451 69.05155 34.13203
#
# Poissons Ratio (x) = -0.01105 -0.06908
# Poissons Ratio (y) = -0.01058 0.06368
# Poissons Ratio (z) = -0.13385 0.12882
#
# Static dielectric constant tensor:
#      x y z
#    x 1.069800 0.000000 0.000000 
#    y 0.000000 1.340390 0.000000 
#    z 0.000000 0.000000 1.740490 
# 
# From -- ./inp_files/3507.got.cif
#   From: 2010.05.17/outbox.cif.g08.bks.cpg/sg18_2_cif.got.tgz:3507.got - 2010.06.03 22:40:56.
