data_PCOD9312441
_publ_section_title
;
Structure prediction by ZEFSAII (Michael W. Deem and Ramdas Pophale) SiO2 
 PCOD9312441
Probable space group: P 21 21 2
;
_chemical_formula_sum "Si O2"
_cell_formula_units_Z 20
_cell_length_a 18.067124
_cell_length_b 7.887009
_cell_length_c 5.270687
_cell_angle_alpha 90.000000
_cell_angle_beta 90.000000
_cell_angle_gamma 90.000000
_cell_volume 751.049546
_symmetry_space_group_name_H-M "P 21 21 2"
_symmetry_group_IT_number 18
_symmetry_cell_setting 'orthorhombic'
loop_
_space_group_symop_operation_xyz
x,y,z
-x,-y,z
1/2+x,1/2-y,-z
1/2-x,1/2+y,-z
loop_
_atom_site_type_symbol
_atom_site_label
_atom_site_fract_x
_atom_site_fract_y
_atom_site_fract_z
Si Si1 0.005477 0.327443 0.760027
Si Si2 0.423327 0.558213 0.607667
Si Si3 0.150919 0.810403 0.748971
Si Si4 0.642682 0.139725 0.910952
Si Si5 0.757001 0.893779 0.959873
O O1 0.041487 0.165853 0.624785
O O2 0.000000 0.500000 0.590654
O O3 0.925268 0.268319 0.845038
O O4 0.063118 0.386882 0.971019
O O5 0.500000 0.500000 0.747932
O O6 0.373964 0.400883 0.511711
O O7 0.371940 0.700601 0.731470
O O8 0.214204 0.668269 0.783623
O O9 0.180775 0.963082 0.923084
O O10 0.699849 0.222012 0.118427
O O11 0.687447 0.978276 0.809172
#
# Coordination Sequence:
#
# PCOD9312441 Si02
#       5
#     4   4   4   4   4
#     4  11  22  43  69  98 145 184 231 296 341 415
#     4  10  24  42  71 105 133 184 243 290 340 419
#     4  10  21  43  66 101 138 182 231 287 349 414
#     4  11  23  44  69  99 135 185 233 279 356 418
#     4  10  22  42  68  98 138 183 219 288 362 401
#
# _framework density 26.629401000000001
#
# number of rings (size 3 to 8) (size 9 to 14) (size 15 to 20)
#    0.000    1.600    4.000    0.000    2.800    0.800 
#    7.200    2.000    0.000    0.000    0.000    0.000 
#    0.000    0.000    0.000    0.000    0.000    0.000 
#
# Total GULP energy -111429.425547 kJ/mol
# GULP energy per Si atom -5571.471277 kJ/mol
# Density = 2.656879 g / cm^3
# Si number density = 26.629401 Si / 1000 Ang^3
#
#
#
# Elastic Constant Matrix: (Units=GPa)
#
#
# Indices 1 2 3 4 5 6 
#
# 1 134.8642 19.2719 5.7800 0.0000 0.0000 0.0000
# 2 19.2719 109.1096 12.8249 0.0000 0.0000 0.0000
# 3 5.7800 12.8249 28.4062 0.0000 0.0000 0.0000
# 4 0.0000 0.0000 0.0000 9.6567 0.0000 0.0000
# 5 0.0000 0.0000 0.0000 0.0000 14.6881 0.0000
# 6 0.0000 0.0000 0.0000 0.0000 0.0000 76.1267
#
#
#
# Elastic Compliance Matrix: (Units=1/GPa)
#
#
# Indices 1 2 3 4 5 6 
#
# 1 0.007634 -0.001231 -0.000997 0.000000 0.000000 0.000000
# 2 -0.001231 0.009877 -0.004209 0.000000 0.000000 0.000000
# 3 -0.000997 -0.004209 0.037307 0.000000 0.000000 0.000000
# 4 0.000000 0.000000 0.000000 0.103555 0.000000 0.000000
# 5 0.000000 0.000000 0.000000 0.000000 0.068082 0.000000
# 6 0.000000 0.000000 0.000000 0.000000 0.000000 0.013136
#
#
# Mechanical properties :
#
#
# Convention : Reuss Voigt Hill
#
# Bulk Modulus (GPa) = 23.84202 38.68152 31.26177
# Shear Modulus (GPa) = 18.76547 35.72785 27.24666
#
# Velocity S-wave (km/s) = 2.65748 3.66685 3.20219
# Velocity P-wave (km/s) = 4.28824 5.69958 5.04352
#
# Compressibility (1/GPa) = 0.04194275
#
# Stress axis : x y z
#
# Youngs Moduli (GPa) = 131.00102 101.24266 26.80474
#
# Poissons Ratio (x) = 0.12464 0.02674
# Poissons Ratio (y) = 0.16127 0.11282
# Poissons Ratio (z) = 0.13067 0.42612
#
# Static dielectric constant tensor:
#      x y z
#    x 2.224090 0.000000 0.000000 
#    y 0.000000 2.244410 0.000000 
#    z 0.000000 0.000000 2.138010 
# 
# From -- ./inp_files/1738.got.cif
#   From: 2010.05.17/outbox.cif.g08.bks.cpg/sg18_1_cif.got.tgz:1738.got - 2010.06.03 22:40:56.
