data_PCOD9312089
_publ_section_title
;
Structure prediction by ZEFSAII (Michael W. Deem and Ramdas Pophale) SiO2 
 PCOD9312089
Probable space group: P 21 21 2
;
_chemical_formula_sum "Si O2"
_cell_formula_units_Z 32
_cell_length_a 12.415140
_cell_length_b 15.447158
_cell_length_c 7.476074
_cell_angle_alpha 90.000000
_cell_angle_beta 90.000000
_cell_angle_gamma 90.000000
_cell_volume 1433.751223
_symmetry_space_group_name_H-M "P 21 21 2"
_symmetry_group_IT_number 18
_symmetry_cell_setting 'orthorhombic'
loop_
_space_group_symop_operation_xyz
x,y,z
-x,-y,z
1/2+x,1/2-y,-z
1/2-x,1/2+y,-z
loop_
_atom_site_type_symbol
_atom_site_label
_atom_site_fract_x
_atom_site_fract_y
_atom_site_fract_z
Si Si1 0.711971 0.222820 0.251399
Si Si2 0.483714 0.405974 0.959020
Si Si3 0.578797 0.792179 0.589809
Si Si4 0.283138 0.629261 0.985754
Si Si5 0.853264 0.661798 0.359169
Si Si6 0.240092 0.955860 0.149974
Si Si7 0.635458 0.733836 0.202584
Si Si8 0.878670 0.483700 0.521609
O O1 0.836410 0.236486 0.302644
O O2 0.658108 0.199478 0.438726
O O3 0.701216 0.136865 0.129998
O O4 0.683831 0.311975 0.154749
O O5 0.500000 0.500000 0.057809
O O6 0.434666 0.330306 0.082071
O O7 0.600864 0.378396 0.884364
O O8 0.386067 0.432627 0.827668
O O9 0.467828 0.800178 0.696815
O O10 0.574417 0.756889 0.386297
O O11 0.624510 0.889082 0.561584
O O12 0.250110 0.528756 0.002921
O O13 0.183853 0.680818 0.895170
O O14 0.746714 0.687350 0.257472
O O15 0.863007 0.559190 0.377927
O O16 0.291387 0.000497 0.324376
O O17 0.000000 0.500000 0.596413
#
# Coordination Sequence:
#
# PCOD9312089 Si02
#       8
#     4   4   4   4   4   4   4   4
#     4  10  21  38  59  88 124 162 207 261 310 374
#     4  10  23  39  61  90 131 163 204 266 318 370
#     4  10  20  38  61  87 122 163 212 258 318 369
#     4  11  22  38  63  88 121 167 209 257 316 374
#     4   9  21  36  60  87 124 162 202 259 312 373
#     4  10  20  39  58  89 122 165 203 259 316 379
#     4  11  21  38  63  90 121 167 210 253 315 383
#     4   9  18  36  58  85 121 159 202 261 317 370
#
# _framework density 22.319072999999999
#
# number of rings (size 3 to 8) (size 9 to 14) (size 15 to 20)
#    0.000    2.000    2.500    0.750    1.750    2.000 
#    0.000    1.250    0.000    0.000    0.000    0.000 
#    0.000    0.000    0.000    0.000    0.000    0.000 
#
# Total GULP energy -178380.023160 kJ/mol
# GULP energy per Si atom -5574.375724 kJ/mol
# Density = 2.226827 g / cm^3
# Si number density = 22.319073 Si / 1000 Ang^3
#
#
#
# Elastic Constant Matrix: (Units=GPa)
#
#
# Indices 1 2 3 4 5 6 
#
# 1 96.9839 23.5309 8.0167 0.0000 0.0000 0.0000
# 2 23.5309 138.9366 26.0167 0.0000 0.0000 0.0000
# 3 8.0167 26.0167 29.3224 0.0000 0.0000 0.0000
# 4 0.0000 0.0000 0.0000 25.9715 0.0000 0.0000
# 5 0.0000 0.0000 0.0000 0.0000 0.1166 0.0000
# 6 0.0000 0.0000 0.0000 0.0000 0.0000 28.4544
#
#
#
# Elastic Compliance Matrix: (Units=1/GPa)
#
#
# Indices 1 2 3 4 5 6 
#
# 1 0.010815 -0.001533 -0.001597 0.000000 0.000000 0.000000
# 2 -0.001533 0.008849 -0.007432 0.000000 0.000000 0.000000
# 3 -0.001597 -0.007432 0.041135 0.000000 0.000000 0.000000
# 4 0.000000 0.000000 0.000000 0.038504 0.000000 0.000000
# 5 0.000000 0.000000 0.000000 0.000000 8.576083 0.000000
# 6 0.000000 0.000000 0.000000 0.000000 0.000000 0.035144
#
#
# Mechanical properties :
#
#
# Convention : Reuss Voigt Hill
#
# Bulk Modulus (GPa) = 25.20501 42.26351 33.73426
# Shear Modulus (GPa) = 0.57176 24.75373 12.66275
#
# Velocity S-wave (km/s) = 0.50669 3.33390 2.38450
# Velocity P-wave (km/s) = 3.41465 5.81352 4.76744
#
# Compressibility (1/GPa) = 0.03967466
#
# Stress axis : x y z
#
# Youngs Moduli (GPa) = 92.46549 113.00930 24.31046
#
# Poissons Ratio (x) = 0.17320 0.03882
# Poissons Ratio (y) = 0.14171 0.18068
# Poissons Ratio (z) = 0.14766 0.83991
#
# Static dielectric constant tensor:
#      x y z
#    x 1.862880 0.000000 0.000000 
#    y 0.000000 1.873850 0.000000 
#    z 0.000000 0.000000 1.868750 
# 
# From -- ./inp_files/3945.got.cif
#   From: 2010.05.17/outbox.cif.g08.bks.cpg/sg18_2_cif.got.tgz:3945.got - 2010.06.03 22:40:56.
