data_PCOD9312548
_publ_section_title
;
Structure prediction by ZEFSAII (Michael W. Deem and Ramdas Pophale) SiO2 
 PCOD9312548
Probable space group: P 21 21 2
;
_chemical_formula_sum "Si O2"
_cell_formula_units_Z 30
_cell_length_a 14.320873
_cell_length_b 9.479838
_cell_length_c 10.811766
_cell_angle_alpha 90.000000
_cell_angle_beta 90.000000
_cell_angle_gamma 90.000000
_cell_volume 1467.800552
_symmetry_space_group_name_H-M "P 21 21 2"
_symmetry_group_IT_number 18
_symmetry_cell_setting 'orthorhombic'
loop_
_space_group_symop_operation_xyz
x,y,z
-x,-y,z
1/2+x,1/2-y,-z
1/2-x,1/2+y,-z
loop_
_atom_site_type_symbol
_atom_site_label
_atom_site_fract_x
_atom_site_fract_y
_atom_site_fract_z
Si Si1 0.351043 0.682954 0.689791
Si Si2 0.000000 0.000000 0.172900
Si Si3 0.977390 0.157268 0.753280
Si Si4 0.563894 0.890275 0.070573
Si Si5 0.799146 0.548468 0.763572
Si Si6 0.658150 0.303453 0.396551
Si Si7 0.172090 0.854406 0.029735
Si Si8 0.276763 0.428941 0.245201
O O1 0.448101 0.620394 0.743903
O O2 0.273077 0.576613 0.741439
O O3 0.342399 0.675404 0.542154
O O4 0.316413 0.838732 0.730475
O O5 0.918401 0.070921 0.090628
O O6 0.992216 0.263200 0.865925
O O7 0.869806 0.158161 0.710455
O O8 0.050936 0.187583 0.647574
O O9 0.000000 0.000000 0.797103
O O10 0.644140 0.807131 0.998999
O O11 0.500000 0.000000 0.997624
O O12 0.607579 0.978531 0.183815
O O13 0.808105 0.649486 0.646285
O O14 0.756261 0.639770 0.874786
O O15 0.714173 0.424056 0.319137
O O16 0.203105 0.930178 0.902254
#
# Coordination Sequence:
#
# PCOD9312548 Si02
#       8
#     4   2   4   4   4   4   4   4
#     4  11  23  45  62  95 134 176 224 274 333 401
#     4  10  26  42  68  94 134 178 218 284 348 390
#     4   9  19  36  60  96 121 164 220 263 319 388
#     4  11  21  39  64  94 128 164 215 277 327 390
#     4  11  23  41  64  97 126 172 219 274 335 392
#     4  11  23  37  68  95 130 175 222 271 335 400
#     4  10  24  41  63  96 134 167 222 276 335 409
#     4  10  22  39  66  94 126 175 224 272 325 400
#
# _framework density 20.438742999999999
#
# number of rings (size 3 to 8) (size 9 to 14) (size 15 to 20)
#    0.000    1.600    4.000    0.800   12.133    1.067 
#    0.000    0.000    0.000    0.000    0.000    0.000 
#    0.000    0.000    0.000    0.000    0.000    0.000 
#
# Total GULP energy -167356.590965 kJ/mol
# GULP energy per Si atom -5578.553032 kJ/mol
# Density = 2.039222 g / cm^3
# Si number density = 20.438743 Si / 1000 Ang^3
#
#
#
# Elastic Constant Matrix: (Units=GPa)
#
#
# Indices 1 2 3 4 5 6 
#
# 1 61.3482 15.6934 19.0316 0.0000 0.0000 0.0000
# 2 15.6934 72.1027 10.3893 0.0000 0.0000 0.0000
# 3 19.0316 10.3893 92.7806 0.0000 0.0000 0.0000
# 4 0.0000 0.0000 0.0000 22.9492 0.0000 0.0000
# 5 0.0000 0.0000 0.0000 0.0000 12.1030 0.0000
# 6 0.0000 0.0000 0.0000 0.0000 0.0000 33.1547
#
#
#
# Elastic Compliance Matrix: (Units=1/GPa)
#
#
# Indices 1 2 3 4 5 6 
#
# 1 0.018231 -0.003485 -0.003349 0.000000 0.000000 0.000000
# 2 -0.003485 0.014763 -0.000938 0.000000 0.000000 0.000000
# 3 -0.003349 -0.000938 0.011570 0.000000 0.000000 0.000000
# 4 0.000000 0.000000 0.000000 0.043575 0.000000 0.000000
# 5 0.000000 0.000000 0.000000 0.000000 0.082624 0.000000
# 6 0.000000 0.000000 0.000000 0.000000 0.000000 0.030162
#
#
# Mechanical properties :
#
#
# Convention : Reuss Voigt Hill
#
# Bulk Modulus (GPa) = 34.46106 35.16223 34.81164
# Shear Modulus (GPa) = 22.10989 25.71586 23.91288
#
# Velocity S-wave (km/s) = 3.29259 3.55095 3.42420
# Velocity P-wave (km/s) = 5.59929 5.83553 5.71863
#
# Compressibility (1/GPa) = 0.02901826
#
# Stress axis : x y z
#
# Youngs Moduli (GPa) = 54.85145 67.73738 86.42891
#
# Poissons Ratio (x) = 0.23609 0.28948
# Poissons Ratio (y) = 0.19118 0.08108
# Poissons Ratio (z) = 0.18372 0.06355
#
# Static dielectric constant tensor:
#      x y z
#    x 1.767380 0.000000 0.000000 
#    y 0.000000 1.765630 0.000000 
#    z 0.000000 0.000000 1.717160 
# 
# From -- ./inp_files/6077.got.cif
#   From: 2010.05.17/outbox.cif.g08.bks.cpg/sg18_4_cif.got.tgz:6077.got - 2010.06.03 22:40:56.
