data_PCOD9312727
_publ_section_title
;
Structure prediction by ZEFSAII (Michael W. Deem and Ramdas Pophale) SiO2 
 PCOD9312727
Probable space group: P 21 21 2
;
_chemical_formula_sum "Si O2"
_cell_formula_units_Z 14
_cell_length_a 7.399425
_cell_length_b 12.087762
_cell_length_c 6.329950
_cell_angle_alpha 90.000000
_cell_angle_beta 90.000000
_cell_angle_gamma 90.000000
_cell_volume 566.166479
_symmetry_space_group_name_H-M "P 21 21 2"
_symmetry_group_IT_number 18
_symmetry_cell_setting 'orthorhombic'
loop_
_space_group_symop_operation_xyz
x,y,z
-x,-y,z
1/2+x,1/2-y,-z
1/2-x,1/2+y,-z
loop_
_atom_site_type_symbol
_atom_site_label
_atom_site_fract_x
_atom_site_fract_y
_atom_site_fract_z
Si Si1 0.959224 0.376172 0.676217
Si Si2 0.116635 0.106675 0.035709
Si Si3 0.500000 0.500000 0.370690
Si Si4 0.648029 0.695508 0.660006
O O1 0.188359 0.612773 0.860490
O O2 0.149826 0.322545 0.743356
O O3 0.000000 0.500000 0.599664
O O4 0.878110 0.299031 0.494026
O O5 0.993265 0.200167 0.146020
O O6 0.000000 0.000000 0.110589
O O7 0.118142 0.076674 0.788703
O O8 0.606349 0.589503 0.508710
#
# Coordination Sequence:
#
# PCOD9312727 Si02
#       4
#     4   4   2   4
#     4  12  23  43  73 103 140 191 236 293 354 424
#     4  10  22  46  67 102 143 175 241 300 341 436
#     4  10  22  48  72 100 144 184 242 302 360 432
#     4  12  23  44  74 101 141 194 233 295 371 417
#
# _framework density 24.727706999999999
#
# number of rings (size 3 to 8) (size 9 to 14) (size 15 to 20)
#    0.857    0.000    7.143    0.000    0.000    0.000 
#   10.286   12.857    0.000    0.000    0.000    0.000 
#    0.000    0.000    0.000    0.000    0.000    0.000 
#
# Total GULP energy -78258.385935 kJ/mol
# GULP energy per Si atom -5589.884710 kJ/mol
# Density = 2.467143 g / cm^3
# Si number density = 24.727707 Si / 1000 Ang^3
#
#
#
# Elastic Constant Matrix: (Units=GPa)
#
#
# Indices 1 2 3 4 5 6 
#
# 1 199.4815 52.3437 79.1875 0.0000 0.0000 0.0000
# 2 52.3437 131.3481 52.8331 0.0000 0.0000 0.0000
# 3 79.1875 52.8331 135.3257 0.0000 0.0000 0.0000
# 4 0.0000 0.0000 0.0000 32.3243 0.0000 0.0000
# 5 0.0000 0.0000 0.0000 0.0000 31.8216 0.0000
# 6 0.0000 0.0000 0.0000 0.0000 0.0000 35.6108
#
#
#
# Elastic Compliance Matrix: (Units=1/GPa)
#
#
# Indices 1 2 3 4 5 6 
#
# 1 0.006712 -0.001299 -0.003420 0.000000 0.000000 0.000000
# 2 -0.001299 0.009283 -0.002864 0.000000 0.000000 0.000000
# 3 -0.003420 -0.002864 0.010509 0.000000 0.000000 0.000000
# 4 0.000000 0.000000 0.000000 0.030937 0.000000 0.000000
# 5 0.000000 0.000000 0.000000 0.000000 0.031425 0.000000
# 6 0.000000 0.000000 0.000000 0.000000 0.000000 0.028081
#
#
# Mechanical properties :
#
#
# Convention : Reuss Voigt Hill
#
# Bulk Modulus (GPa) = 88.20528 92.76486 90.48507
# Shear Modulus (GPa) = 36.79379 38.73741 37.76560
#
# Velocity S-wave (km/s) = 3.86159 3.96227 3.91226
# Velocity P-wave (km/s) = 7.45859 7.65041 7.55511
#
# Compressibility (1/GPa) = 0.01133719
#
# Stress axis : x y z
#
# Youngs Moduli (GPa) = 148.99710 107.72311 95.15480
#
# Poissons Ratio (x) = 0.13992 0.32545
# Poissons Ratio (y) = 0.19353 0.27254
# Poissons Ratio (z) = 0.50961 0.30854
#
# Static dielectric constant tensor:
#      x y z
#    x 1.964310 0.000000 0.000000 
#    y 0.000000 2.064270 0.000000 
#    z 0.000000 0.000000 1.944310 
# 
# From -- ./inp_files/2814.got.cif
#   From: 2010.05.17/outbox.cif.g08.bks.cpg/sg18_2_cif.got.tgz:2814.got - 2010.06.03 22:40:56.
