data_PCOD9312847
_publ_section_title
;
Structure prediction by ZEFSAII (Michael W. Deem and Ramdas Pophale) SiO2 
 PCOD9312847
Probable space group: P 21 21 2
;
_chemical_formula_sum "Si O2"
_cell_formula_units_Z 24
_cell_length_a 7.894097
_cell_length_b 12.881630
_cell_length_c 9.676142
_cell_angle_alpha 90.000000
_cell_angle_beta 90.000000
_cell_angle_gamma 90.000000
_cell_volume 983.955624
_symmetry_space_group_name_H-M "P 21 21 2"
_symmetry_group_IT_number 18
_symmetry_cell_setting 'orthorhombic'
loop_
_space_group_symop_operation_xyz
x,y,z
-x,-y,z
1/2+x,1/2-y,-z
1/2-x,1/2+y,-z
loop_
_atom_site_type_symbol
_atom_site_label
_atom_site_fract_x
_atom_site_fract_y
_atom_site_fract_z
Si Si1 0.110001 0.349158 0.294538
Si Si2 0.094049 0.316203 0.968665
Si Si3 0.686364 0.382613 0.652402
Si Si4 0.572143 0.628633 0.898126
Si Si5 0.500000 0.000000 0.218617
Si Si6 0.738517 0.428101 0.350629
Si Si7 0.500000 0.500000 0.121935
O O1 0.114233 0.351215 0.127895
O O2 0.208123 0.243241 0.335755
O O3 0.197991 0.452298 0.350645
O O4 0.910863 0.359131 0.336925
O O5 0.024763 0.202387 0.995252
O O6 0.258482 0.309050 0.871426
O O7 0.992597 0.401328 0.884373
O O8 0.537295 0.395289 0.765341
O O9 0.837500 0.465124 0.688636
O O10 0.646574 0.402050 0.493295
O O11 0.630952 0.537075 0.000826
O O12 0.605622 0.427471 0.225128
#
# Coordination Sequence:
#
# PCOD9312847 Si02
#       7
#     4   4   4   4   2   4   2
#     4  10  23  48  76 106 154 200 261 311 389 459
#     4  11  23  43  74 106 146 194 247 320 377 460
#     4  11  27  47  73 114 153 203 254 325 387 466
#     4  11  25  44  71 111 145 191 256 313 385 448
#     4  12  24  42  76 108 154 194 254 314 404 452
#     4  11  25  47  73 106 151 203 256 311 385 459
#     4  12  26  42  72 106 142 198 254 312 376 458
#
# _framework density 24.391345000000001
#
# number of rings (size 3 to 8) (size 9 to 14) (size 15 to 20)
#    0.000    1.000    1.667    5.000    7.000    3.333 
#    3.000    1.667    0.000    0.000    0.000    0.000 
#    0.000    0.000    0.000    0.000    0.000    0.000 
#
# Total GULP energy -133688.803048 kJ/mol
# GULP energy per Si atom -5570.366794 kJ/mol
# Density = 2.433583 g / cm^3
# Si number density = 24.391345 Si / 1000 Ang^3
#
#
#
# Elastic Constant Matrix: (Units=GPa)
#
#
# Indices 1 2 3 4 5 6 
#
# 1 51.6704 -4.1980 4.1971 0.0000 0.0000 0.0000
# 2 -4.1980 77.3955 26.7754 0.0000 0.0000 0.0000
# 3 4.1971 26.7754 130.6439 0.0000 0.0000 0.0000
# 4 0.0000 0.0000 0.0000 26.7500 0.0000 0.0000
# 5 0.0000 0.0000 0.0000 0.0000 -109.6389 0.0000
# 6 0.0000 0.0000 0.0000 0.0000 0.0000 39.5909
#
#
#
# Elastic Compliance Matrix: (Units=1/GPa)
#
#
# Indices 1 2 3 4 5 6 
#
# 1 0.019539 0.001374 -0.000909 0.000000 0.000000 0.000000
# 2 0.001374 0.014003 -0.002914 0.000000 0.000000 0.000000
# 3 -0.000909 -0.002914 0.008281 0.000000 0.000000 0.000000
# 4 0.000000 0.000000 0.000000 0.037383 0.000000 0.000000
# 5 0.000000 0.000000 0.000000 0.000000 -0.009121 0.000000
# 6 0.000000 0.000000 0.000000 0.000000 0.000000 0.025258
#
#
# Mechanical properties :
#
#
# Convention : Reuss Voigt Hill
#
# Bulk Modulus (GPa) = 27.08192 34.80652 30.94422
# Shear Modulus (GPa) = 44.42456 6.86944 25.64700
#
# Velocity S-wave (km/s) = 4.27233 1.68002 3.24617
# Velocity P-wave (km/s) = 5.95519 4.25021 5.17342
#
# Compressibility (1/GPa) = 0.03692500
#
# Stress axis : x y z
#
# Youngs Moduli (GPa) = 51.17970 71.41147 120.76041
#
# Poissons Ratio (x) = -0.09815 0.10982
# Poissons Ratio (y) = -0.07034 0.35191
# Poissons Ratio (z) = 0.04654 0.20810
#
# Static dielectric constant tensor:
#      x y z
#    x 2.210810 0.000000 0.000000 
#    y 0.000000 2.000670 0.000000 
#    z 0.000000 0.000000 1.686910 
# 
# From -- ./inp_files/3186.got.cif
#   From: 2010.05.17/outbox.cif.g08.bks.cpg/sg18_2_cif.got.tgz:3186.got - 2010.06.03 22:40:56.
