data_PCOD9312978
_publ_section_title
;
Structure prediction by ZEFSAII (Michael W. Deem and Ramdas Pophale) SiO2 
 PCOD9312978
Probable space group: P 21 21 2
;
_chemical_formula_sum "Si O2"
_cell_formula_units_Z 18
_cell_length_a 25.646710
_cell_length_b 5.229065
_cell_length_c 5.173662
_cell_angle_alpha 90.000000
_cell_angle_beta 90.000000
_cell_angle_gamma 90.000000
_cell_volume 693.831086
_symmetry_space_group_name_H-M "P 21 21 2"
_symmetry_group_IT_number 18
_symmetry_cell_setting 'orthorhombic'
loop_
_space_group_symop_operation_xyz
x,y,z
-x,-y,z
1/2+x,1/2-y,-z
1/2-x,1/2+y,-z
loop_
_atom_site_type_symbol
_atom_site_label
_atom_site_fract_x
_atom_site_fract_y
_atom_site_fract_z
Si Si1 0.835027 0.344474 0.563484
Si Si2 0.085530 0.307355 0.392371
Si Si3 0.104598 0.001648 0.913658
Si Si4 0.250378 0.850835 0.177570
Si Si5 0.500000 0.500000 0.852768
O O1 0.888986 0.414774 0.418105
O O2 0.796207 0.191323 0.380004
O O3 0.801958 0.590512 0.652625
O O4 0.853172 0.198015 0.819316
O O5 0.094155 0.184763 0.671131
O O6 0.117953 0.167566 0.164868
O O7 0.027344 0.226097 0.309566
O O8 0.244070 0.099552 0.997374
O O9 0.047527 0.886569 0.980591
#
# Coordination Sequence:
#
# PCOD9312978 Si02
#       5
#     4   4   4   4   2
#     4  12  30  50  81 126 168 225 288 344 440 502
#     4  10  25  47  84 117 169 220 276 350 419 509
#     4  10  25  47  84 117 169 220 276 350 419 509
#     4  12  32  52  84 122 178 226 290 360 422 518
#     4   8  22  52  80 124 172 208 284 344 428 494
#
# _framework density 25.942913999999998
#
# number of rings (size 3 to 8) (size 9 to 14) (size 15 to 20)
#    1.333    0.000    0.000    2.000   15.556    0.000 
#    0.000    6.667    9.778    0.000    0.000    0.000 
#    0.000    0.000    0.000    0.000    0.000    0.000 
#
# Total GULP energy -100809.835260 kJ/mol
# GULP energy per Si atom -5600.546403 kJ/mol
# Density = 2.588387 g / cm^3
# Si number density = 25.942914 Si / 1000 Ang^3
#
#
#
# Elastic Constant Matrix: (Units=GPa)
#
#
# Indices 1 2 3 4 5 6 
#
# 1 110.9391 27.5028 32.3689 0.0000 0.0000 0.0000
# 2 27.5028 96.2701 27.6663 0.0000 0.0000 0.0000
# 3 32.3689 27.6663 109.6156 0.0000 0.0000 0.0000
# 4 0.0000 0.0000 0.0000 50.4354 0.0000 0.0000
# 5 0.0000 0.0000 0.0000 0.0000 54.3436 0.0000
# 6 0.0000 0.0000 0.0000 0.0000 0.0000 37.7649
#
#
#
# Elastic Compliance Matrix: (Units=1/GPa)
#
#
# Indices 1 2 3 4 5 6 
#
# 1 0.010289 -0.002228 -0.002476 0.000000 0.000000 0.000000
# 2 -0.002228 0.011682 -0.002291 0.000000 0.000000 0.000000
# 3 -0.002476 -0.002291 0.010432 0.000000 0.000000 0.000000
# 4 0.000000 0.000000 0.000000 0.019827 0.000000 0.000000
# 5 0.000000 0.000000 0.000000 0.000000 0.018401 0.000000
# 6 0.000000 0.000000 0.000000 0.000000 0.000000 0.026480
#
#
# Mechanical properties :
#
#
# Convention : Reuss Voigt Hill
#
# Bulk Modulus (GPa) = 54.30591 54.65566 54.48078
# Shear Modulus (GPa) = 42.64828 43.79455 43.22142
#
# Velocity S-wave (km/s) = 4.05894 4.11312 4.08612
# Velocity P-wave (km/s) = 6.55324 6.60836 6.58086
#
# Compressibility (1/GPa) = 0.01841420
#
# Stress axis : x y z
#
# Youngs Moduli (GPa) = 97.19456 85.60055 95.85831
#
# Poissons Ratio (x) = 0.19070 0.23734
# Poissons Ratio (y) = 0.21653 0.21958
# Poissons Ratio (z) = 0.24064 0.19608
#
# Static dielectric constant tensor:
#      x y z
#    x 2.067870 0.000000 0.000000 
#    y 0.000000 2.075740 0.000000 
#    z 0.000000 0.000000 1.990040 
# 
# From -- ./inp_files/590.got.cif
#   From: 2010.05.17/outbox.cif.g08.bks.cpg/sg18_1_cif.got.tgz:590.got - 2010.06.03 22:40:56.
