data_PCOD9312294
_publ_section_title
;
Structure prediction by ZEFSAII (Michael W. Deem and Ramdas Pophale) SiO2 
 PCOD9312294
Probable space group: P 21 21 2
;
_chemical_formula_sum "Si O2"
_cell_formula_units_Z 32
_cell_length_a 8.726744
_cell_length_b 22.122180
_cell_length_c 8.775808
_cell_angle_alpha 90.000000
_cell_angle_beta 90.000000
_cell_angle_gamma 90.000000
_cell_volume 1694.210117
_symmetry_space_group_name_H-M "P 21 21 2"
_symmetry_group_IT_number 18
_symmetry_cell_setting 'orthorhombic'
loop_
_space_group_symop_operation_xyz
x,y,z
-x,-y,z
1/2+x,1/2-y,-z
1/2-x,1/2+y,-z
loop_
_atom_site_type_symbol
_atom_site_label
_atom_site_fract_x
_atom_site_fract_y
_atom_site_fract_z
Si Si1 0.477971 0.686214 0.056654
Si Si2 0.547719 0.150725 0.342751
Si Si3 0.216322 0.158279 0.237255
Si Si4 0.731258 0.722343 0.822334
Si Si5 0.414186 0.380169 0.348945
Si Si6 0.002382 0.764968 0.441161
Si Si7 0.126981 0.455675 0.438157
Si Si8 0.378837 0.543506 0.572617
O O1 0.376641 0.736587 0.141097
O O2 0.532575 0.638333 0.181298
O O3 0.366379 0.662149 0.924223
O O4 0.625546 0.712807 0.969177
O O5 0.398885 0.158440 0.237435
O O6 0.701634 0.159712 0.244602
O O7 0.538825 0.206723 0.460740
O O8 0.549155 0.089088 0.438567
O O9 0.144641 0.210095 0.347366
O O10 0.169586 0.096902 0.319313
O O11 0.627771 0.750038 0.687979
O O12 0.430709 0.319350 0.453265
O O13 0.245378 0.410818 0.349879
O O14 0.531270 0.427039 0.428929
O O15 0.238745 0.502911 0.520386
O O16 0.000000 0.500000 0.361321
O O17 0.500000 0.500000 0.653133
#
# Coordination Sequence:
#
# PCOD9312294 Si02
#       8
#     4   4   4   4   4   4   4   4
#     4  11  24  39  60  94 137 168 201 250 330 394
#     4  12  21  36  65  94 127 160 210 262 314 371
#     4  10  22  38  61  94 123 169 203 249 318 387
#     4  11  23  39  59  93 134 164 200 250 320 397
#     4  10  21  40  65  87 126 164 211 265 312 381
#     4  10  21  37  63  95 120 163 213 253 314 374
#     4  11  22  38  64  96 118 158 216 287 304 351
#     4   9  20  40  64  88 117 160 224 262 304 360
#
# _framework density 18.887858999999999
#
# number of rings (size 3 to 8) (size 9 to 14) (size 15 to 20)
#    0.000    1.500    3.750    1.500    3.500    1.000 
#    0.000    3.125    0.000    0.750    3.250    0.000 
#    0.000    0.000    0.000    0.000    0.000    0.000 
#
# Total GULP energy -178577.534266 kJ/mol
# GULP energy per Si atom -5580.547946 kJ/mol
# Density = 1.884487 g / cm^3
# Si number density = 18.887859 Si / 1000 Ang^3
#
#
#
# Elastic Constant Matrix: (Units=GPa)
#
#
# Indices 1 2 3 4 5 6 
#
# 1 94.4380 35.1032 26.7207 0.0000 0.0000 0.0000
# 2 35.1032 84.7764 28.6241 0.0000 0.0000 0.0000
# 3 26.7207 28.6241 74.9652 0.0000 0.0000 0.0000
# 4 0.0000 0.0000 0.0000 9.1820 0.0000 0.0000
# 5 0.0000 0.0000 0.0000 0.0000 20.1372 0.0000
# 6 0.0000 0.0000 0.0000 0.0000 0.0000 34.4589
#
#
#
# Elastic Compliance Matrix: (Units=1/GPa)
#
#
# Indices 1 2 3 4 5 6 
#
# 1 0.013069 -0.004407 -0.002976 0.000000 0.000000 0.000000
# 2 -0.004407 0.015027 -0.004167 0.000000 0.000000 0.000000
# 3 -0.002976 -0.004167 0.015991 0.000000 0.000000 0.000000
# 4 0.000000 0.000000 0.000000 0.108909 0.000000 0.000000
# 5 0.000000 0.000000 0.000000 0.000000 0.049659 0.000000
# 6 0.000000 0.000000 0.000000 0.000000 0.000000 0.029020
#
#
# Mechanical properties :
#
#
# Convention : Reuss Voigt Hill
#
# Bulk Modulus (GPa) = 47.64516 48.34174 47.99345
# Shear Modulus (GPa) = 19.10063 23.67106 21.38584
#
# Velocity S-wave (km/s) = 3.18349 3.54396 3.36855
# Velocity P-wave (km/s) = 6.22839 6.51121 6.37137
#
# Compressibility (1/GPa) = 0.02098849
#
# Stress axis : x y z
#
# Youngs Moduli (GPa) = 76.51746 66.54492 62.53375
#
# Poissons Ratio (x) = 0.29324 0.18608
# Poissons Ratio (y) = 0.33719 0.26059
# Poissons Ratio (z) = 0.22769 0.27731
#
# Static dielectric constant tensor:
#      x y z
#    x 1.709140 0.000000 0.000000 
#    y 0.000000 1.652500 0.000000 
#    z 0.000000 0.000000 1.638130 
# 
# From -- ./inp_files/3531.got.cif
#   From: 2010.05.17/outbox.cif.g08.bks.cpg/sg18_2_cif.got.tgz:3531.got - 2010.06.03 22:40:56.
