data_PCOD9312238
_publ_section_title
;
Structure prediction by ZEFSAII (Michael W. Deem and Ramdas Pophale) SiO2 
 PCOD9312238
Probable space group: P 21 21 2
;
_chemical_formula_sum "Si O2"
_cell_formula_units_Z 26
_cell_length_a 14.545366
_cell_length_b 9.460964
_cell_length_c 8.377145
_cell_angle_alpha 90.000000
_cell_angle_beta 90.000000
_cell_angle_gamma 90.000000
_cell_volume 1152.805597
_symmetry_space_group_name_H-M "P 21 21 2"
_symmetry_group_IT_number 18
_symmetry_cell_setting 'orthorhombic'
loop_
_space_group_symop_operation_xyz
x,y,z
-x,-y,z
1/2+x,1/2-y,-z
1/2-x,1/2+y,-z
loop_
_atom_site_type_symbol
_atom_site_label
_atom_site_fract_x
_atom_site_fract_y
_atom_site_fract_z
Si Si1 0.747513 0.792759 0.995418
Si Si2 0.357747 0.461499 0.069077
Si Si3 0.000000 0.500000 0.532345
Si Si4 0.482546 0.710900 0.587276
Si Si5 0.299757 0.270034 0.636887
Si Si6 0.500000 0.500000 0.326292
Si Si7 0.500000 0.500000 0.829176
Si Si8 0.804995 0.429509 0.663640
O O1 0.707313 0.802948 0.812980
O O2 0.842556 0.873192 0.963558
O O3 0.733620 0.629223 0.044309
O O4 0.709963 0.868950 0.157216
O O5 0.413066 0.441945 0.229858
O O6 0.430829 0.413008 0.937793
O O7 0.039146 0.373860 0.423357
O O8 0.914553 0.445488 0.634824
O O9 0.592831 0.697672 0.607937
O O10 0.460613 0.629795 0.426025
O O11 0.443534 0.610885 0.723496
O O12 0.242813 0.416447 0.646239
O O13 0.271952 0.172186 0.483970
#
# Coordination Sequence:
#
# PCOD9312238 Si02
#       8
#     4   4   2   4   4   2   2   4
#     4  12  24  46  66 102 139 177 231 283 342 422
#     4  11  24  42  66  98 134 177 227 280 346 401
#     4  10  24  42  64 102 134 174 220 290 348 394
#     4  10  21  43  66  94 133 170 232 279 339 406
#     4  11  25  44  70 101 135 185 229 286 340 415
#     4  10  24  40  74  94 126 184 226 282 336 412
#     4  10  20  44  64  94 130 178 230 274 324 418
#     4  11  26  45  70 101 142 179 235 281 349 410
#
# _framework density 22.553673
#
# number of rings (size 3 to 8) (size 9 to 14) (size 15 to 20)
#    0.000    1.231    3.077    1.846    6.462    2.462 
#    2.769    3.077    0.000    0.000    0.000    0.000 
#    0.000    0.000    0.000    0.000    0.000    0.000 
#
# Total GULP energy -144910.465801 kJ/mol
# GULP energy per Si atom -5573.479454 kJ/mol
# Density = 2.250234 g / cm^3
# Si number density = 22.553673 Si / 1000 Ang^3
#
#
#
# Elastic Constant Matrix: (Units=GPa)
#
#
# Indices 1 2 3 4 5 6 
#
# 1 34.9939 0.7041 14.2461 0.0000 0.0000 0.0000
# 2 0.7041 112.4562 61.3849 0.0000 0.0000 0.0000
# 3 14.2461 61.3849 163.6322 0.0000 0.0000 0.0000
# 4 0.0000 0.0000 0.0000 32.5848 0.0000 0.0000
# 5 0.0000 0.0000 0.0000 0.0000 20.1654 0.0000
# 6 0.0000 0.0000 0.0000 0.0000 0.0000 31.5098
#
#
#
# Elastic Compliance Matrix: (Units=1/GPa)
#
#
# Indices 1 2 3 4 5 6 
#
# 1 0.029839 0.001548 -0.003179 0.000000 0.000000 0.000000
# 2 0.001548 0.011262 -0.004360 0.000000 0.000000 0.000000
# 3 -0.003179 -0.004360 0.008024 0.000000 0.000000 0.000000
# 4 0.000000 0.000000 0.000000 0.030689 0.000000 0.000000
# 5 0.000000 0.000000 0.000000 0.000000 0.049590 0.000000
# 6 0.000000 0.000000 0.000000 0.000000 0.000000 0.031736
#
#
# Mechanical properties :
#
#
# Convention : Reuss Voigt Hill
#
# Bulk Modulus (GPa) = 26.92160 51.52806 39.22483
# Shear Modulus (GPa) = 26.95382 32.50183 29.72783
#
# Velocity S-wave (km/s) = 3.46077 3.80028 3.63449
# Velocity P-wave (km/s) = 5.28506 6.49251 5.91965
#
# Compressibility (1/GPa) = 0.03714490
#
# Stress axis : x y z
#
# Youngs Moduli (GPa) = 33.51287 88.79042 124.63324
#
# Poissons Ratio (x) = -0.13747 0.39617
# Poissons Ratio (y) = -0.05189 0.54338
# Poissons Ratio (z) = 0.10653 0.38711
#
# Static dielectric constant tensor:
#      x y z
#    x 1.882940 0.000000 0.000000 
#    y 0.000000 1.898860 0.000000 
#    z 0.000000 0.000000 1.887870 
# 
# From -- ./inp_files/4507.got.cif
#   From: 2010.05.17/outbox.cif.g08.bks.cpg/sg18_3_cif.got.tgz:4507.got - 2010.06.03 22:40:56.
