data_PCOD9312110
_publ_section_title
;
Structure prediction by ZEFSAII (Michael W. Deem and Ramdas Pophale) SiO2 
 PCOD9312110
Probable space group: P 21 21 2
;
_chemical_formula_sum "Si O2"
_cell_formula_units_Z 28
_cell_length_a 9.566360
_cell_length_b 14.178253
_cell_length_c 8.631312
_cell_angle_alpha 90.000000
_cell_angle_beta 90.000000
_cell_angle_gamma 90.000000
_cell_volume 1170.701723
_symmetry_space_group_name_H-M "P 21 21 2"
_symmetry_group_IT_number 18
_symmetry_cell_setting 'orthorhombic'
loop_
_space_group_symop_operation_xyz
x,y,z
-x,-y,z
1/2+x,1/2-y,-z
1/2-x,1/2+y,-z
loop_
_atom_site_type_symbol
_atom_site_label
_atom_site_fract_x
_atom_site_fract_y
_atom_site_fract_z
Si Si1 0.611408 0.927084 0.619864
Si Si2 0.720870 0.550531 0.619828
Si Si3 0.002178 0.215672 0.029574
Si Si4 0.941773 0.881563 0.344082
Si Si5 0.231571 0.351159 0.121158
Si Si6 0.862317 0.696006 0.462944
Si Si7 0.145167 0.047694 0.848536
O O1 0.521760 0.838770 0.562229
O O2 0.500000 0.000000 0.698087
O O3 0.673115 0.988645 0.480141
O O4 0.741898 0.911873 0.729696
O O5 0.571845 0.585047 0.552524
O O6 0.651880 0.467304 0.723863
O O7 0.805031 0.649004 0.620406
O O8 0.987028 0.173887 0.202633
O O9 0.087658 0.312332 0.048975
O O10 0.855942 0.216278 0.940249
O O11 0.096038 0.135815 0.948522
O O12 0.854089 0.807415 0.443037
O O13 0.217078 0.343268 0.308158
O O14 0.276417 0.456885 0.076419
O O15 0.000000 0.000000 0.788748
#
# Coordination Sequence:
#
# PCOD9312110 Si02
#       7
#     4   4   4   4   4   4   4
#     4  10  20  38  65  90 116 160 215 265 310 366
#     4  10  22  39  62  88 123 171 215 254 318 378
#     4  10  24  39  64  94 132 167 211 260 335 389
#     4  10  24  39  62  90 132 169 207 270 322 379
#     4  10  21  41  64  91 129 165 211 267 313 391
#     4  10  22  43  65  91 127 164 224 267 317 379
#     4  10  21  36  65  92 123 160 216 266 314 382
#
# _framework density 23.917279000000001
#
# number of rings (size 3 to 8) (size 9 to 14) (size 15 to 20)
#    0.000    2.000    2.857    0.000   14.000    0.000 
#    0.000    1.429    6.286    2.571    0.000    0.000 
#    0.000    0.000    0.000    0.000    0.000    0.000 
#
# Total GULP energy -155914.432524 kJ/mol
# GULP energy per Si atom -5568.372590 kJ/mol
# Density = 2.386284 g / cm^3
# Si number density = 23.917279 Si / 1000 Ang^3
#
#
#
# Elastic Constant Matrix: (Units=GPa)
#
#
# Indices 1 2 3 4 5 6 
#
# 1 104.8572 14.3490 33.3991 0.0000 0.0000 0.0000
# 2 14.3490 71.0305 -6.1141 0.0000 0.0000 0.0000
# 3 33.3991 -6.1141 29.2844 0.0000 0.0000 0.0000
# 4 0.0000 0.0000 0.0000 -548.2362 0.0000 0.0000
# 5 0.0000 0.0000 0.0000 0.0000 14.7211 0.0000
# 6 0.0000 0.0000 0.0000 0.0000 0.0000 47.1219
#
#
#
# Elastic Compliance Matrix: (Units=1/GPa)
#
#
# Indices 1 2 3 4 5 6 
#
# 1 0.016598 -0.005074 -0.019990 0.000000 0.000000 0.000000
# 2 -0.005074 0.015887 0.009104 0.000000 0.000000 0.000000
# 3 -0.019990 0.009104 0.058847 0.000000 0.000000 0.000000
# 4 0.000000 0.000000 0.000000 -0.001824 0.000000 0.000000
# 5 0.000000 0.000000 0.000000 0.000000 0.067930 0.000000
# 6 0.000000 0.000000 0.000000 0.000000 0.000000 0.021222
#
#
# Mechanical properties :
#
#
# Convention : Reuss Voigt Hill
#
# Bulk Modulus (GPa) = 16.83149 32.04890 24.44019
# Shear Modulus (GPa) = 21.70296 -86.37610 -32.33657
#
# Velocity S-wave (km/s) = 3.01561 -6.01605 -3.68097
# Velocity P-wave (km/s) = 4.37925 5.90155 2.79736
#
# Compressibility (1/GPa) = 0.05941246
#
# Stress axis : x y z
#
# Youngs Moduli (GPa) = 60.24752 62.94451 16.99323
#
# Poissons Ratio (x) = 0.31936 0.33969
# Poissons Ratio (y) = 0.30568 -0.15470
# Poissons Ratio (z) = 1.20433 -0.57302
#
# Static dielectric constant tensor:
#      x y z
#    x 3.175390 0.000000 0.000000 
#    y 0.000000 2.021580 0.000000 
#    z 0.000000 0.000000 1.930460 
# 
# From -- ./inp_files/3378.got.cif
#   From: 2010.05.17/outbox.cif.g08.bks.cpg/sg18_2_cif.got.tgz:3378.got - 2010.06.03 22:40:56.
