data_PCOD9312404
_publ_section_title
;
Structure prediction by ZEFSAII (Michael W. Deem and Ramdas Pophale) SiO2 
 PCOD9312404
Probable space group: P 21 21 2
;
_chemical_formula_sum "Si O2"
_cell_formula_units_Z 22
_cell_length_a 8.258704
_cell_length_b 9.523437
_cell_length_c 13.896800
_cell_angle_alpha 90.000000
_cell_angle_beta 90.000000
_cell_angle_gamma 90.000000
_cell_volume 1093.000653
_symmetry_space_group_name_H-M "P 21 21 2"
_symmetry_group_IT_number 18
_symmetry_cell_setting 'orthorhombic'
loop_
_space_group_symop_operation_xyz
x,y,z
-x,-y,z
1/2+x,1/2-y,-z
1/2-x,1/2+y,-z
loop_
_atom_site_type_symbol
_atom_site_label
_atom_site_fract_x
_atom_site_fract_y
_atom_site_fract_z
Si Si1 0.757267 0.484783 0.120007
Si Si2 0.015529 0.166296 0.414687
Si Si3 0.845951 0.417357 0.329458
Si Si4 0.533301 0.718935 0.167842
Si Si5 0.639508 0.678160 0.379270
Si Si6 0.000000 0.500000 0.947496
O O1 0.850840 0.430734 0.214295
O O2 0.701914 0.644716 0.138854
O O3 0.602493 0.384145 0.125527
O O4 0.850742 0.480763 0.020720
O O5 0.878920 0.257934 0.358864
O O6 0.968484 0.190763 0.526058
O O7 0.195147 0.228005 0.390496
O O8 0.000000 0.000000 0.394213
O O9 0.697657 0.515544 0.363870
O O10 0.000000 0.500000 0.371956
O O11 0.541964 0.721114 0.283443
O O12 0.499385 0.866270 0.120605
#
# Coordination Sequence:
#
# PCOD9312404 Si02
#       6
#     4   4   4   4   4   2
#     4  10  21  41  69  86 123 175 211 254 338 402
#     4  11  23  38  64  96 128 172 226 270 320 381
#     4   9  19  39  61  89 123 169 217 258 315 394
#     4  10  24  40  63  96 128 165 214 269 331 392
#     4  10  23  41  62  91 131 176 213 264 334 396
#     4  12  22  42  68  94 122 156 222 280 320 384
#
# _framework density 20.128074999999999
#
# number of rings (size 3 to 8) (size 9 to 14) (size 15 to 20)
#    0.000    1.818    0.909    2.182    7.636    1.455 
#    4.909    0.000    0.000    0.000    0.000    0.000 
#    0.000    0.000    0.000    0.000    0.000    0.000 
#
# Total GULP energy -122725.857495 kJ/mol
# GULP energy per Si atom -5578.448068 kJ/mol
# Density = 2.008226 g / cm^3
# Si number density = 20.128075 Si / 1000 Ang^3
#
#
#
# Elastic Constant Matrix: (Units=GPa)
#
#
# Indices 1 2 3 4 5 6 
#
# 1 66.7398 51.3325 59.2591 0.0000 0.0000 0.0000
# 2 51.3325 175.8134 82.6409 0.0000 0.0000 0.0000
# 3 59.2591 82.6409 125.7205 0.0000 0.0000 0.0000
# 4 0.0000 0.0000 0.0000 27.6716 0.0000 0.0000
# 5 0.0000 0.0000 0.0000 0.0000 40.7107 0.0000
# 6 0.0000 0.0000 0.0000 0.0000 0.0000 26.9171
#
#
#
# Elastic Compliance Matrix: (Units=1/GPa)
#
#
# Indices 1 2 3 4 5 6 
#
# 1 0.026634 -0.002714 -0.010770 0.000000 0.000000 0.000000
# 2 -0.002714 0.008508 -0.004313 0.000000 0.000000 0.000000
# 3 -0.010770 -0.004313 0.015866 0.000000 0.000000 0.000000
# 4 0.000000 0.000000 0.000000 0.036138 0.000000 0.000000
# 5 0.000000 0.000000 0.000000 0.000000 0.024564 0.000000
# 6 0.000000 0.000000 0.000000 0.000000 0.000000 0.037151
#
#
# Mechanical properties :
#
#
# Convention : Reuss Voigt Hill
#
# Bulk Modulus (GPa) = 64.87993 83.85987 74.36990
# Shear Modulus (GPa) = 26.37238 30.72926 28.55082
#
# Velocity S-wave (km/s) = 3.62363 3.91152 3.77033
# Velocity P-wave (km/s) = 7.05770 7.88375 7.48214
#
# Compressibility (1/GPa) = 0.01541309
#
# Stress axis : x y z
#
# Youngs Moduli (GPa) = 37.54628 117.54143 63.02807
#
# Poissons Ratio (x) = 0.31899 0.67882
# Poissons Ratio (y) = 0.10189 0.27185
# Poissons Ratio (z) = 0.40438 0.50698
#
# Static dielectric constant tensor:
#      x y z
#    x 1.841930 0.000000 0.000000 
#    y 0.000000 1.701870 0.000000 
#    z 0.000000 0.000000 1.695000 
# 
# From -- ./inp_files/6642.got.cif
#   From: 2010.05.17/outbox.cif.g08.bks.cpg/sg18_4_cif.got.tgz:6642.got - 2010.06.03 22:40:56.
