data_PCOD9312013
_publ_section_title
;
Structure prediction by ZEFSAII (Michael W. Deem and Ramdas Pophale) SiO2 
 PCOD9312013
Probable space group: P 21 21 2
;
_chemical_formula_sum "Si O2"
_cell_formula_units_Z 30
_cell_length_a 20.154396
_cell_length_b 5.241758
_cell_length_c 13.991170
_cell_angle_alpha 90.000000
_cell_angle_beta 90.000000
_cell_angle_gamma 90.000000
_cell_volume 1478.089690
_symmetry_space_group_name_H-M "P 21 21 2"
_symmetry_group_IT_number 18
_symmetry_cell_setting 'orthorhombic'
loop_
_space_group_symop_operation_xyz
x,y,z
-x,-y,z
1/2+x,1/2-y,-z
1/2-x,1/2+y,-z
loop_
_atom_site_type_symbol
_atom_site_label
_atom_site_fract_x
_atom_site_fract_y
_atom_site_fract_z
Si Si1 0.580964 0.519317 0.812736
Si Si2 0.919193 0.487453 0.848337
Si Si3 0.121595 0.289495 0.655900
Si Si4 0.500000 0.500000 0.410919
Si Si5 0.930298 0.394880 0.494746
Si Si6 0.420208 0.512967 0.034467
Si Si7 0.125912 0.480857 0.298656
Si Si8 0.745933 0.463925 0.432163
O O1 0.500000 0.500000 0.804654
O O2 0.609149 0.780959 0.769084
O O3 0.611920 0.281580 0.755441
O O4 0.600246 0.509242 0.924294
O O5 0.879354 0.543715 0.751374
O O6 0.902042 0.716932 0.920390
O O7 0.000000 0.500000 0.833307
O O8 0.900334 0.220544 0.897251
O O9 0.121502 0.481135 0.565551
O O10 0.180640 0.097538 0.631148
O O11 0.050173 0.147743 0.658887
O O12 0.443432 0.398843 0.485497
O O13 0.922864 0.483374 0.388516
O O14 0.000000 0.500000 0.533419
O O15 0.500000 0.500000 0.032072
O O16 0.195857 0.495168 0.354299
O O17 0.740224 0.710931 0.501873
#
# Coordination Sequence:
#
# PCOD9312013 Si02
#       8
#     4   4   4   2   4   4   4   4
#     4  11  23  41  65  97 129 164 218 276 331 386
#     4  10  20  35  62  93 129 162 200 260 339 390
#     4  11  24  38  62  93 132 168 219 266 325 396
#     4  10  22  36  60  90 134 168 206 278 334 378
#     4  10  21  35  55  89 126 163 205 267 324 375
#     4   9  20  37  60  92 129 161 199 264 334 395
#     4  12  24  39  64  91 128 179 218 264 316 389
#     4  12  26  46  64  88 134 187 230 263 314 391
#
# _framework density 20.296465999999999
#
# number of rings (size 3 to 8) (size 9 to 14) (size 15 to 20)
#    0.000    1.333    1.333    4.800    9.333    2.133 
#    0.000    0.000    0.000    3.200    0.000    0.000 
#    0.000    0.000    0.000    0.000    0.000    0.000 
#
# Total GULP energy -167296.538098 kJ/mol
# GULP energy per Si atom -5576.551270 kJ/mol
# Density = 2.025027 g / cm^3
# Si number density = 20.296466 Si / 1000 Ang^3
#
#
#
# Elastic Constant Matrix: (Units=GPa)
#
#
# Indices 1 2 3 4 5 6 
#
# 1 84.6609 32.3770 33.6140 0.0000 0.0000 0.0000
# 2 32.3770 89.4014 29.6566 0.0000 0.0000 0.0000
# 3 33.6140 29.6566 114.5035 0.0000 0.0000 0.0000
# 4 0.0000 0.0000 0.0000 18.1582 0.0000 0.0000
# 5 0.0000 0.0000 0.0000 0.0000 4.1471 0.0000
# 6 0.0000 0.0000 0.0000 0.0000 0.0000 26.5175
#
#
#
# Elastic Compliance Matrix: (Units=1/GPa)
#
#
# Indices 1 2 3 4 5 6 
#
# 1 0.014720 -0.004264 -0.003217 0.000000 0.000000 0.000000
# 2 -0.004264 0.013472 -0.002238 0.000000 0.000000 0.000000
# 3 -0.003217 -0.002238 0.010257 0.000000 0.000000 0.000000
# 4 0.000000 0.000000 0.000000 0.055071 0.000000 0.000000
# 5 0.000000 0.000000 0.000000 0.000000 0.241131 0.000000
# 6 0.000000 0.000000 0.000000 0.000000 0.000000 0.037711
#
#
# Mechanical properties :
#
#
# Convention : Reuss Voigt Hill
#
# Bulk Modulus (GPa) = 52.59680 53.31787 52.95734
# Shear Modulus (GPa) = 12.55854 22.62578 17.59216
#
# Velocity S-wave (km/s) = 2.49018 3.34243 2.94727
# Velocity P-wave (km/s) = 5.85137 6.42046 6.14251
#
# Compressibility (1/GPa) = 0.01901256
#
# Stress axis : x y z
#
# Youngs Moduli (GPa) = 67.93661 74.22879 97.49209
#
# Poissons Ratio (x) = 0.31649 0.31362
# Poissons Ratio (y) = 0.28966 0.21815
# Poissons Ratio (z) = 0.21854 0.16609
#
# Static dielectric constant tensor:
#      x y z
#    x 1.742910 0.000000 0.000000 
#    y 0.000000 0.075070 0.000000 
#    z 0.000000 0.000000 1.698740 
# 
# From -- ./inp_files/6282.got.cif
#   From: 2010.05.17/outbox.cif.g08.bks.cpg/sg18_4_cif.got.tgz:6282.got - 2010.06.03 22:40:56.
