data_PCOD9312336
_publ_section_title
;
Structure prediction by ZEFSAII (Michael W. Deem and Ramdas Pophale) SiO2 
 PCOD9312336
Probable space group: P 21 21 2
;
_chemical_formula_sum "Si O2"
_cell_formula_units_Z 28
_cell_length_a 5.347669
_cell_length_b 22.515173
_cell_length_c 11.149433
_cell_angle_alpha 90.000000
_cell_angle_beta 90.000000
_cell_angle_gamma 90.000000
_cell_volume 1342.432905
_symmetry_space_group_name_H-M "P 21 21 2"
_symmetry_group_IT_number 18
_symmetry_cell_setting 'orthorhombic'
loop_
_space_group_symop_operation_xyz
x,y,z
-x,-y,z
1/2+x,1/2-y,-z
1/2-x,1/2+y,-z
loop_
_atom_site_type_symbol
_atom_site_label
_atom_site_fract_x
_atom_site_fract_y
_atom_site_fract_z
Si Si1 0.049760 0.220609 0.795709
Si Si2 0.563156 0.875586 0.806519
Si Si3 0.389721 0.823702 0.041300
Si Si4 0.667307 0.182257 0.592412
Si Si5 0.080666 0.798230 0.369060
Si Si6 0.000000 0.500000 0.066008
Si Si7 0.384523 0.628552 0.836760
Si Si8 0.500000 0.500000 0.905236
O O1 0.171424 0.156714 0.819573
O O2 0.023190 0.257714 0.918431
O O3 0.239289 0.265579 0.726060
O O4 0.843808 0.208959 0.695987
O O5 0.486282 0.865801 0.668534
O O6 0.546582 0.942040 0.852770
O O7 0.399470 0.835896 0.899707
O O8 0.617296 0.862473 0.099074
O O9 0.120307 0.844451 0.089347
O O10 0.514265 0.241066 0.557417
O O11 0.793699 0.161120 0.470512
O O12 0.889449 0.836295 0.289307
O O13 0.251107 0.490515 0.986884
O O14 0.444606 0.558985 0.829417
#
# Coordination Sequence:
#
# PCOD9312336 Si02
#       8
#     4   4   4   4   4   2   4   2
#     4  10  23  36  62  93 129 165 214 275 339 407
#     4  11  26  39  64  96 131 182 222 275 343 417
#     4  11  23  40  61 100 137 161 210 277 345 401
#     4  11  21  39  62  94 128 178 219 272 343 413
#     4  10  21  39  63  91 131 170 221 272 339 406
#     4  12  26  46  68  92 140 180 228 274 338 430
#     4  11  22  40  68  95 124 173 220 276 328 399
#     4  12  22  44  68  94 128 176 230 278 336 404
#
# _framework density 20.857652999999999
#
# number of rings (size 3 to 8) (size 9 to 14) (size 15 to 20)
#    0.000    1.143    5.714    0.000    6.000    0.000 
#    0.000    0.000    3.143    0.000    0.000    0.000 
#    0.000    0.000    0.000    0.000    0.000    0.000 
#
# Total GULP energy -156240.477996 kJ/mol
# GULP energy per Si atom -5580.017071 kJ/mol
# Density = 2.081018 g / cm^3
# Si number density = 20.857653 Si / 1000 Ang^3
#
#
#
# Elastic Constant Matrix: (Units=GPa)
#
#
# Indices 1 2 3 4 5 6 
#
# 1 45.6945 0.5869 11.0209 0.0000 0.0000 0.0000
# 2 0.5869 108.1156 17.7748 0.0000 0.0000 0.0000
# 3 11.0209 17.7748 88.1414 0.0000 0.0000 0.0000
# 4 0.0000 0.0000 0.0000 13.0321 0.0000 0.0000
# 5 0.0000 0.0000 0.0000 0.0000 34.2222 0.0000
# 6 0.0000 0.0000 0.0000 0.0000 0.0000 26.2200
#
#
#
# Elastic Compliance Matrix: (Units=1/GPa)
#
#
# Indices 1 2 3 4 5 6 
#
# 1 0.022578 0.000353 -0.002894 0.000000 0.000000 0.000000
# 2 0.000353 0.009572 -0.001975 0.000000 0.000000 0.000000
# 3 -0.002894 -0.001975 0.012105 0.000000 0.000000 0.000000
# 4 0.000000 0.000000 0.000000 0.076734 0.000000 0.000000
# 5 0.000000 0.000000 0.000000 0.000000 0.029221 0.000000
# 6 0.000000 0.000000 0.000000 0.000000 0.000000 0.038139
#
#
# Mechanical properties :
#
#
# Convention : Reuss Voigt Hill
#
# Bulk Modulus (GPa) = 28.38936 33.41297 30.90117
# Shear Modulus (GPa) = 23.90955 28.86613 26.38784
#
# Velocity S-wave (km/s) = 3.38941 3.72420 3.56074
# Velocity P-wave (km/s) = 5.38126 5.87768 5.63494
#
# Compressibility (1/GPa) = 0.03522446
#
# Stress axis : x y z
#
# Youngs Moduli (GPa) = 44.29092 104.47066 82.60712
#
# Poissons Ratio (x) = -0.03691 0.23909
# Poissons Ratio (y) = -0.01565 0.16311
# Poissons Ratio (z) = 0.12819 0.20628
#
# Static dielectric constant tensor:
#      x y z
#    x 1.916850 0.000000 0.000000 
#    y 0.000000 1.733600 0.000000 
#    z 0.000000 0.000000 1.813790 
# 
# From -- ./inp_files/5225.got.cif
#   From: 2010.05.17/outbox.cif.g08.bks.cpg/sg18_3_cif.got.tgz:5225.got - 2010.06.03 22:40:56.
