data_PCOD9312178
_publ_section_title
;
Structure prediction by ZEFSAII (Michael W. Deem and Ramdas Pophale) SiO2 
 PCOD9312178
Probable space group: P 21 21 2
;
_chemical_formula_sum "Si O2"
_cell_formula_units_Z 24
_cell_length_a 14.123914
_cell_length_b 8.411194
_cell_length_c 8.459896
_cell_angle_alpha 90.000000
_cell_angle_beta 90.000000
_cell_angle_gamma 90.000000
_cell_volume 1005.027022
_symmetry_space_group_name_H-M "P 21 21 2"
_symmetry_group_IT_number 18
_symmetry_cell_setting 'orthorhombic'
loop_
_space_group_symop_operation_xyz
x,y,z
-x,-y,z
1/2+x,1/2-y,-z
1/2-x,1/2+y,-z
loop_
_atom_site_type_symbol
_atom_site_label
_atom_site_fract_x
_atom_site_fract_y
_atom_site_fract_z
Si Si1 0.220985 0.669941 0.672264
Si Si2 0.752612 0.108996 0.114462
Si Si3 0.351350 0.840296 0.423491
Si Si4 0.954083 0.168142 0.590455
Si Si5 0.413329 0.915793 0.879888
Si Si6 0.925208 0.253106 0.242839
O O1 0.254456 0.573115 0.824645
O O2 0.301984 0.750005 0.568148
O O3 0.134868 0.790362 0.699168
O O4 0.465371 0.762947 0.809018
O O5 0.701186 0.204894 0.258549
O O6 0.857818 0.175359 0.112967
O O7 0.682667 0.114475 0.968391
O O8 0.461059 0.796005 0.409769
O O9 0.328029 0.026955 0.427957
O O10 0.914575 0.167268 0.409818
O O11 0.000000 0.000000 0.628156
O O12 0.500000 0.000000 0.982535
O O13 0.400258 0.058424 0.754404
#
# Coordination Sequence:
#
# PCOD9312178 Si02
#       6
#     4   4   4   4   4   4
#     4  10  22  38  63  95 131 163 211 264 343 388
#     4  10  20  40  65  90 131 162 218 275 321 393
#     4  10  22  34  68  88 129 165 204 263 344 378
#     4  12  22  38  59  96 128 165 210 268 325 398
#     4   8  22  38  66  86 120 176 224 262 321 377
#     4   9  21  41  62  87 128 166 226 255 325 386
#
# _framework density 23.879954000000001
#
# number of rings (size 3 to 8) (size 9 to 14) (size 15 to 20)
#    2.000    0.000    1.667    2.500    7.000    0.000 
#    6.000    0.000    3.667    1.000    0.000    0.000 
#    0.000    0.000    0.000    0.000    0.000    0.000 
#
# Total GULP energy -133924.572586 kJ/mol
# GULP energy per Si atom -5580.190524 kJ/mol
# Density = 2.382560 g / cm^3
# Si number density = 23.879954 Si / 1000 Ang^3
#
#
#
# Elastic Constant Matrix: (Units=GPa)
#
#
# Indices 1 2 3 4 5 6 
#
# 1 87.6795 43.3531 12.8988 0.0000 0.0000 0.0000
# 2 43.3531 66.5735 10.7472 0.0000 0.0000 0.0000
# 3 12.8988 10.7472 33.5577 0.0000 0.0000 0.0000
# 4 0.0000 0.0000 0.0000 26.1349 0.0000 0.0000
# 5 0.0000 0.0000 0.0000 0.0000 37.8156 0.0000
# 6 0.0000 0.0000 0.0000 0.0000 0.0000 51.4271
#
#
#
# Elastic Compliance Matrix: (Units=1/GPa)
#
#
# Indices 1 2 3 4 5 6 
#
# 1 0.017137 -0.010647 -0.003177 0.000000 0.000000 0.000000
# 2 -0.010647 0.022454 -0.003099 0.000000 0.000000 0.000000
# 3 -0.003177 -0.003099 0.032013 0.000000 0.000000 0.000000
# 4 0.000000 0.000000 0.000000 0.038263 0.000000 0.000000
# 5 0.000000 0.000000 0.000000 0.000000 0.026444 0.000000
# 6 0.000000 0.000000 0.000000 0.000000 0.000000 0.019445
#
#
# Mechanical properties :
#
#
# Convention : Reuss Voigt Hill
#
# Bulk Modulus (GPa) = 26.48405 35.75657 31.12031
# Shear Modulus (GPa) = 24.72938 31.12962 27.92950
#
# Velocity S-wave (km/s) = 3.22152 3.61444 3.42362
# Velocity P-wave (km/s) = 4.99521 5.69429 5.35617
#
# Compressibility (1/GPa) = 0.03775857
#
# Stress axis : x y z
#
# Youngs Moduli (GPa) = 58.35380 44.53461 31.23719
#
# Poissons Ratio (x) = 0.47415 0.09925
# Poissons Ratio (y) = 0.62128 0.09680
# Poissons Ratio (z) = 0.18541 0.13801
#
# Static dielectric constant tensor:
#      x y z
#    x 1.916410 0.000000 0.000000 
#    y 0.000000 1.926790 0.000000 
#    z 0.000000 0.000000 1.956990 
# 
# From -- ./inp_files/4167.got.cif
#   From: 2010.05.17/outbox.cif.g08.bks.cpg/sg18_3_cif.got.tgz:4167.got - 2010.06.03 22:40:56.
