data_PCOD9312730
_publ_section_title
;
Structure prediction by ZEFSAII (Michael W. Deem and Ramdas Pophale) SiO2 
 PCOD9312730
Probable space group: P 21 21 2
;
_chemical_formula_sum "Si O2"
_cell_formula_units_Z 26
_cell_length_a 9.002000
_cell_length_b 10.280271
_cell_length_c 12.433918
_cell_angle_alpha 90.000000
_cell_angle_beta 90.000000
_cell_angle_gamma 90.000000
_cell_volume 1150.672068
_symmetry_space_group_name_H-M "P 21 21 2"
_symmetry_group_IT_number 18
_symmetry_cell_setting 'orthorhombic'
loop_
_space_group_symop_operation_xyz
x,y,z
-x,-y,z
1/2+x,1/2-y,-z
1/2-x,1/2+y,-z
loop_
_atom_site_type_symbol
_atom_site_label
_atom_site_fract_x
_atom_site_fract_y
_atom_site_fract_z
Si Si1 0.807273 0.944990 0.369786
Si Si2 0.077744 0.271706 0.884316
Si Si3 0.750798 0.472891 0.396304
Si Si4 0.000000 0.000000 0.182719
Si Si5 0.000000 0.500000 0.719598
Si Si6 0.430512 0.230686 0.899779
Si Si7 0.500000 0.500000 0.217541
Si Si8 0.494305 0.817011 0.660633
O O1 0.828037 0.994199 0.490141
O O2 0.631493 0.939851 0.352219
O O3 0.906254 0.816038 0.358569
O O4 0.864503 0.023130 0.265413
O O5 0.055103 0.380095 0.792798
O O6 0.252621 0.245502 0.904167
O O7 0.001382 0.134266 0.849889
O O8 0.998096 0.325299 0.991536
O O9 0.640616 0.486360 0.296777
O O10 0.878240 0.578696 0.382122
O O11 0.843721 0.336972 0.393174
O O12 0.007795 0.127224 0.111395
O O13 0.475822 0.163515 0.787889
#
# Coordination Sequence:
#
# PCOD9312730 Si02
#       8
#     4   4   4   2   2   4   2   4
#     4  11  24  43  72 100 143 191 238 289 357 433
#     4  12  28  45  74 104 140 186 240 304 364 435
#     4  11  24  44  71 106 143 186 238 295 365 425
#     4  10  22  46  70 100 144 184 238 290 356 438
#     4  12  26  46  70 110 142 184 246 296 352 448
#     4  11  25  47  71 101 140 188 238 295 371 428
#     4  12  26  46  70 110 144 180 242 300 356 438
#     4  10  24  46  68 101 145 187 235 301 356 436
#
# _framework density 22.595492
#
# number of rings (size 3 to 8) (size 9 to 14) (size 15 to 20)
#    0.000    0.923    3.077    2.769    6.462    8.615 
#    0.000    0.000    0.000    0.000    0.000    0.000 
#    0.000    0.000    0.000    0.000    0.000    0.000 
#
# Total GULP energy -145265.759724 kJ/mol
# GULP energy per Si atom -5587.144605 kJ/mol
# Density = 2.254406 g / cm^3
# Si number density = 22.595492 Si / 1000 Ang^3
#
#
#
# Elastic Constant Matrix: (Units=GPa)
#
#
# Indices 1 2 3 4 5 6 
#
# 1 136.2488 19.0386 35.3601 0.0000 0.0000 0.0000
# 2 19.0386 77.8312 11.5385 0.0000 0.0000 0.0000
# 3 35.3601 11.5385 104.9970 0.0000 0.0000 0.0000
# 4 0.0000 0.0000 0.0000 13.8566 0.0000 0.0000
# 5 0.0000 0.0000 0.0000 0.0000 42.6506 0.0000
# 6 0.0000 0.0000 0.0000 0.0000 0.0000 29.5798
#
#
#
# Elastic Compliance Matrix: (Units=1/GPa)
#
#
# Indices 1 2 3 4 5 6 
#
# 1 0.008241 -0.001631 -0.002596 0.000000 0.000000 0.000000
# 2 -0.001631 0.013384 -0.000922 0.000000 0.000000 0.000000
# 3 -0.002596 -0.000922 0.010500 0.000000 0.000000 0.000000
# 4 0.000000 0.000000 0.000000 0.072168 0.000000 0.000000
# 5 0.000000 0.000000 0.000000 0.000000 0.023446 0.000000
# 6 0.000000 0.000000 0.000000 0.000000 0.000000 0.033807
#
#
# Mechanical properties :
#
#
# Convention : Reuss Voigt Hill
#
# Bulk Modulus (GPa) = 45.81411 50.10571 47.95991
# Shear Modulus (GPa) = 27.91440 34.09340 31.00390
#
# Velocity S-wave (km/s) = 3.51863 3.88862 3.70824
# Velocity P-wave (km/s) = 6.06857 6.51038 6.29335
#
# Compressibility (1/GPa) = 0.02182734
#
# Stress axis : x y z
#
# Youngs Moduli (GPa) = 121.34160 74.71663 95.24114
#
# Poissons Ratio (x) = 0.12187 0.24726
# Poissons Ratio (y) = 0.19791 0.08777
# Poissons Ratio (z) = 0.31502 0.06885
#
# Static dielectric constant tensor:
#      x y z
#    x 1.843700 0.000000 0.000000 
#    y 0.000000 1.678700 0.000000 
#    z 0.000000 0.000000 1.785200 
# 
# From -- ./inp_files/5573.got.cif
#   From: 2010.05.17/outbox.cif.g08.bks.cpg/sg18_3_cif.got.tgz:5573.got - 2010.06.03 22:40:56.
