data_PCOD9312296
_publ_section_title
;
Structure prediction by ZEFSAII (Michael W. Deem and Ramdas Pophale) SiO2 
 PCOD9312296
Probable space group: P 21 21 2
;
_chemical_formula_sum "Si O2"
_cell_formula_units_Z 28
_cell_length_a 16.905735
_cell_length_b 9.580407
_cell_length_c 8.620833
_cell_angle_alpha 90.000000
_cell_angle_beta 90.000000
_cell_angle_gamma 90.000000
_cell_volume 1396.263061
_symmetry_space_group_name_H-M "P 21 21 2"
_symmetry_group_IT_number 18
_symmetry_cell_setting 'orthorhombic'
loop_
_space_group_symop_operation_xyz
x,y,z
-x,-y,z
1/2+x,1/2-y,-z
1/2-x,1/2+y,-z
loop_
_atom_site_type_symbol
_atom_site_label
_atom_site_fract_x
_atom_site_fract_y
_atom_site_fract_z
Si Si1 0.639115 0.620144 0.755441
Si Si2 0.481758 0.801158 0.033299
Si Si3 0.331194 0.143957 0.982220
Si Si4 0.500000 0.000000 0.286621
Si Si5 0.364859 0.900866 0.773547
Si Si6 0.000000 0.000000 0.031417
Si Si7 0.889351 0.359823 0.471275
Si Si8 0.241462 0.144290 0.309789
O O1 0.687302 0.727276 0.866687
O O2 0.572658 0.546845 0.860665
O O3 0.598903 0.718699 0.625985
O O4 0.693086 0.499631 0.685060
O O5 0.573966 0.840549 0.008906
O O6 0.434716 0.835285 0.876706
O O7 0.476667 0.636921 0.064564
O O8 0.451212 0.897662 0.172717
O O9 0.315718 0.999175 0.892541
O O10 0.287151 0.149337 0.144781
O O11 0.550761 0.896876 0.391983
O O12 0.315830 0.777790 0.694908
O O13 0.394502 0.010508 0.646533
O O14 0.803418 0.350157 0.550494
#
# Coordination Sequence:
#
# PCOD9312296 Si02
#       8
#     4   4   4   2   4   2   4   4
#     4  10  23  40  64  91 132 170 216 265 332 394
#     4  11  20  42  63  96 120 172 226 274 308 389
#     4  10  21  37  64  94 125 162 227 272 311 375
#     4  12  24  40  70  92 136 166 226 282 318 376
#     4  11  22  38  68  90 126 177 221 254 332 403
#     4  10  22  40  66  90 124 164 226 264 318 382
#     4  11  26  40  61  98 133 172 210 273 330 400
#     4  12  21  42  62  96 131 169 213 277 332 386
#
# _framework density 20.053528
#
# number of rings (size 3 to 8) (size 9 to 14) (size 15 to 20)
#    0.000    1.143    4.286    1.714    6.000    0.000 
#    0.000    2.143    0.000    0.000    0.000    0.000 
#    0.000    0.000    0.000    0.000    0.000    0.000 
#
# Total GULP energy -156448.462361 kJ/mol
# GULP energy per Si atom -5587.445084 kJ/mol
# Density = 2.000789 g / cm^3
# Si number density = 20.053528 Si / 1000 Ang^3
#
#
#
# Elastic Constant Matrix: (Units=GPa)
#
#
# Indices 1 2 3 4 5 6 
#
# 1 36.2276 16.8179 0.4954 0.0000 0.0000 0.0000
# 2 16.8179 148.2691 27.0583 0.0000 0.0000 0.0000
# 3 0.4954 27.0583 67.5803 0.0000 0.0000 0.0000
# 4 0.0000 0.0000 0.0000 17.0670 0.0000 0.0000
# 5 0.0000 0.0000 0.0000 0.0000 31.9115 0.0000
# 6 0.0000 0.0000 0.0000 0.0000 0.0000 22.0708
#
#
#
# Elastic Compliance Matrix: (Units=1/GPa)
#
#
# Indices 1 2 3 4 5 6 
#
# 1 0.029228 -0.003534 0.001201 0.000000 0.000000 0.000000
# 2 -0.003534 0.007704 -0.003059 0.000000 0.000000 0.000000
# 3 0.001201 -0.003059 0.016013 0.000000 0.000000 0.000000
# 4 0.000000 0.000000 0.000000 0.058593 0.000000 0.000000
# 5 0.000000 0.000000 0.000000 0.000000 0.031337 0.000000
# 6 0.000000 0.000000 0.000000 0.000000 0.000000 0.045309
#
#
# Mechanical properties :
#
#
# Convention : Reuss Voigt Hill
#
# Bulk Modulus (GPa) = 23.71906 37.86890 30.79398
# Shear Modulus (GPa) = 23.47200 28.05688 25.76444
#
# Velocity S-wave (km/s) = 3.42492 3.74451 3.58828
# Velocity P-wave (km/s) = 5.24344 6.13352 5.70586
#
# Compressibility (1/GPa) = 0.04216019
#
# Stress axis : x y z
#
# Youngs Moduli (GPa) = 34.21419 129.81024 62.44923
#
# Poissons Ratio (x) = 0.45880 -0.07499
# Poissons Ratio (y) = 0.12093 0.19100
# Poissons Ratio (z) = -0.04109 0.39703
#
# Static dielectric constant tensor:
#      x y z
#    x 1.718270 0.000000 0.000000 
#    y 0.000000 1.719940 0.000000 
#    z 0.000000 0.000000 1.717510 
# 
# From -- ./inp_files/3413.got.cif
#   From: 2010.05.17/outbox.cif.g08.bks.cpg/sg18_2_cif.got.tgz:3413.got - 2010.06.03 22:40:56.
