data_PCOD9312721
_publ_section_title
;
Structure prediction by ZEFSAII (Michael W. Deem and Ramdas Pophale) SiO2 
 PCOD9312721
Probable space group: P 21 21 2
;
_chemical_formula_sum "Si O2"
_cell_formula_units_Z 32
_cell_length_a 7.999669
_cell_length_b 31.084093
_cell_length_c 5.210623
_cell_angle_alpha 90.000000
_cell_angle_beta 90.000000
_cell_angle_gamma 90.000000
_cell_volume 1295.686308
_symmetry_space_group_name_H-M "P 21 21 2"
_symmetry_group_IT_number 18
_symmetry_cell_setting 'orthorhombic'
loop_
_space_group_symop_operation_xyz
x,y,z
-x,-y,z
1/2+x,1/2-y,-z
1/2-x,1/2+y,-z
loop_
_atom_site_type_symbol
_atom_site_label
_atom_site_fract_x
_atom_site_fract_y
_atom_site_fract_z
Si Si1 0.942275 0.901872 0.935689
Si Si2 0.546762 0.044238 0.618979
Si Si3 0.919741 0.628594 0.058061
Si Si4 0.649428 0.899363 0.295819
Si Si5 0.077158 0.952029 0.429725
Si Si6 0.883416 0.315042 0.431785
Si Si7 0.395637 0.318346 0.104020
Si Si8 0.756208 0.724203 0.598320
O O1 0.755593 0.909142 0.045125
O O2 0.045424 0.923710 0.172962
O O3 0.992102 0.926009 0.671225
O O4 0.946446 0.849368 0.919016
O O5 0.557779 0.084041 0.804334
O O6 0.389698 0.056999 0.440035
O O7 0.725886 0.042168 0.481486
O O8 0.500000 0.000000 0.752201
O O9 0.039188 0.665743 0.169439
O O10 0.736811 0.643039 0.112960
O O11 0.963973 0.618917 0.767865
O O12 0.709292 0.856555 0.442849
O O13 0.000000 0.000000 0.405967
O O14 0.054142 0.294594 0.567560
O O15 0.756210 0.275731 0.401441
O O16 0.353587 0.291792 0.356834
O O17 0.338969 0.291737 0.854548
#
# Coordination Sequence:
#
# PCOD9312721 Si02
#       8
#     4   4   4   4   4   4   4   4
#     4  12  27  45  74 102 146 186 235 301 366 426
#     4  11  25  45  74 103 144 194 241 298 361 442
#     4  10  22  45  70  97 139 186 238 290 358 436
#     4  11  25  44  71 102 142 189 246 294 366 437
#     4  12  27  48  72 108 145 185 241 302 364 435
#     4  10  25  42  66 101 139 181 236 297 355 433
#     4  11  23  45  69 100 135 192 229 290 363 427
#     4  11  25  42  68 100 140 180 238 291 357 426
#
# _framework density 24.697334000000001
#
# number of rings (size 3 to 8) (size 9 to 14) (size 15 to 20)
#    0.000    1.000    2.500    2.625   10.500    1.500 
#    0.000    0.000    0.000    0.000    0.000    0.000 
#    0.000    0.000    0.000    0.000    0.000    0.000 
#
# Total GULP energy -178721.393936 kJ/mol
# GULP energy per Si atom -5585.043561 kJ/mol
# Density = 2.464112 g / cm^3
# Si number density = 24.697334 Si / 1000 Ang^3
#
#
#
# Elastic Constant Matrix: (Units=GPa)
#
#
# Indices 1 2 3 4 5 6 
#
# 1 71.7086 42.4712 19.3404 0.0000 0.0000 0.0000
# 2 42.4712 128.9992 36.1526 0.0000 0.0000 0.0000
# 3 19.3404 36.1526 115.9648 0.0000 0.0000 0.0000
# 4 0.0000 0.0000 0.0000 -29.8366 0.0000 0.0000
# 5 0.0000 0.0000 0.0000 0.0000 19.5541 0.0000
# 6 0.0000 0.0000 0.0000 0.0000 0.0000 40.1300
#
#
#
# Elastic Compliance Matrix: (Units=1/GPa)
#
#
# Indices 1 2 3 4 5 6 
#
# 1 0.017482 -0.005411 -0.001229 0.000000 0.000000 0.000000
# 2 -0.005411 0.010169 -0.002268 0.000000 0.000000 0.000000
# 3 -0.001229 -0.002268 0.009535 0.000000 0.000000 0.000000
# 4 0.000000 0.000000 0.000000 -0.033516 0.000000 0.000000
# 5 0.000000 0.000000 0.000000 0.000000 0.051140 0.000000
# 6 0.000000 0.000000 0.000000 0.000000 0.000000 0.024919
#
#
# Mechanical properties :
#
#
# Convention : Reuss Voigt Hill
#
# Bulk Modulus (GPa) = 51.62435 56.95567 54.29001
# Shear Modulus (GPa) = 48.07633 20.55008 34.31320
#
# Velocity S-wave (km/s) = 4.41684 2.88770 3.73144
# Velocity P-wave (km/s) = 6.85270 5.85064 6.37140
#
# Compressibility (1/GPa) = 0.01937070
#
# Stress axis : x y z
#
# Youngs Moduli (GPa) = 57.20287 98.33683 104.87457
#
# Poissons Ratio (x) = 0.53213 0.12885
# Poissons Ratio (y) = 0.30954 0.23783
# Poissons Ratio (z) = 0.07028 0.22301
#
# Static dielectric constant tensor:
#      x y z
#    x 1.533420 0.000000 0.000000 
#    y 0.000000 2.067890 0.000000 
#    z 0.000000 0.000000 2.040620 
# 
# From -- ./inp_files/801.got.cif
#   From: 2010.05.17/outbox.cif.g08.bks.cpg/sg18_1_cif.got.tgz:801.got - 2010.06.03 22:40:56.
