data_PCOD9312691
_publ_section_title
;
Structure prediction by ZEFSAII (Michael W. Deem and Ramdas Pophale) SiO2 
 PCOD9312691
Probable space group: P 21 21 2
;
_chemical_formula_sum "Si O2"
_cell_formula_units_Z 22
_cell_length_a 14.439144
_cell_length_b 5.107942
_cell_length_c 12.731119
_cell_angle_alpha 90.000000
_cell_angle_beta 90.000000
_cell_angle_gamma 90.000000
_cell_volume 938.974898
_symmetry_space_group_name_H-M "P 21 21 2"
_symmetry_group_IT_number 18
_symmetry_cell_setting 'orthorhombic'
loop_
_space_group_symop_operation_xyz
x,y,z
-x,-y,z
1/2+x,1/2-y,-z
1/2-x,1/2+y,-z
loop_
_atom_site_type_symbol
_atom_site_label
_atom_site_fract_x
_atom_site_fract_y
_atom_site_fract_z
Si Si1 0.000000 0.500000 0.672094
Si Si2 0.601985 0.867667 0.943509
Si Si3 0.359352 0.596956 0.653915
Si Si4 0.095701 0.841399 0.834219
Si Si5 0.273285 0.070919 0.750295
Si Si6 0.000000 0.000000 0.525489
Si Si7 0.500000 0.500000 0.808599
O O1 0.922920 0.387782 0.750999
O O2 0.984785 0.747036 0.597192
O O3 0.632381 0.797817 0.060174
O O4 0.500000 0.000000 0.948958
O O5 0.672224 0.993181 0.860396
O O6 0.578471 0.598714 0.884973
O O7 0.307381 0.348200 0.705056
O O8 0.408520 0.499671 0.548119
O O9 0.447863 0.686556 0.726645
O O10 0.295114 0.850019 0.662489
O O11 0.167560 0.042874 0.784196
O O12 0.000000 0.000000 0.856368
#
# Coordination Sequence:
#
# PCOD9312691 Si02
#       7
#     2   4   4   4   4   2   2
#     4  12  26  48  76 100 146 198 252 290 368 450
#     4  11  21  39  70 105 143 191 238 285 356 429
#     4  10  22  43  73 109 139 171 236 315 378 416
#     4  12  28  47  71 100 154 209 247 284 356 444
#     4  11  26  43  73 109 148 182 241 301 362 432
#     4  11  24  47  84 108 134 189 244 317 382 438
#     4   9  18  35  64 100 142 171 226 281 364 420
#
# _framework density 23.429805999999999
#
# number of rings (size 3 to 8) (size 9 to 14) (size 15 to 20)
#    0.000    1.091    4.545    1.091    2.545    4.364 
#    0.000    3.636    0.000    0.000    0.000    0.000 
#    0.000    0.000    0.000    0.000    0.000    0.000 
#
# Total GULP energy -122743.773321 kJ/mol
# GULP energy per Si atom -5579.262424 kJ/mol
# Density = 2.337648 g / cm^3
# Si number density = 23.429806 Si / 1000 Ang^3
#
#
#
# Elastic Constant Matrix: (Units=GPa)
#
#
# Indices 1 2 3 4 5 6 
#
# 1 43.8149 27.3127 -3.5261 0.0000 0.0000 0.0000
# 2 27.3127 130.7425 46.6146 0.0000 0.0000 0.0000
# 3 -3.5261 46.6146 98.8796 0.0000 0.0000 0.0000
# 4 0.0000 0.0000 0.0000 42.0986 0.0000 0.0000
# 5 0.0000 0.0000 0.0000 0.0000 -3.6795 0.0000
# 6 0.0000 0.0000 0.0000 0.0000 0.0000 28.7434
#
#
#
# Elastic Compliance Matrix: (Units=1/GPa)
#
#
# Indices 1 2 3 4 5 6 
#
# 1 0.027801 -0.007406 0.004483 0.000000 0.000000 0.000000
# 2 -0.007406 0.011167 -0.005528 0.000000 0.000000 0.000000
# 3 0.004483 -0.005528 0.012879 0.000000 0.000000 0.000000
# 4 0.000000 0.000000 0.000000 0.023754 0.000000 0.000000
# 5 0.000000 0.000000 0.000000 0.000000 -0.271777 0.000000
# 6 0.000000 0.000000 0.000000 0.000000 0.000000 0.034791
#
#
# Mechanical properties :
#
#
# Convention : Reuss Voigt Hill
#
# Bulk Modulus (GPa) = 28.61755 46.02662 37.32208
# Shear Modulus (GPa) = -37.64074 26.96822 -5.33626
#
# Velocity S-wave (km/s) = -4.01251 3.39635 -1.51079
# Velocity P-wave (km/s) = 3.03748 5.92177 3.59452
#
# Compressibility (1/GPa) = 0.03494360
#
# Stress axis : x y z
#
# Youngs Moduli (GPa) = 35.97039 89.55065 77.64318
#
# Poissons Ratio (x) = 0.66321 -0.34805
# Poissons Ratio (y) = 0.26640 0.42925
# Poissons Ratio (z) = -0.16125 0.49508
#
# Static dielectric constant tensor:
#      x y z
#    x 1.975430 0.000000 0.000000 
#    y 0.000000 1.945150 0.000000 
#    z 0.000000 0.000000 1.882280 
# 
# From -- ./inp_files/6043.got.cif
#   From: 2010.05.17/outbox.cif.g08.bks.cpg/sg18_4_cif.got.tgz:6043.got - 2010.06.03 22:40:56.
