data_PCOD9312596
_publ_section_title
;
Structure prediction by ZEFSAII (Michael W. Deem and Ramdas Pophale) SiO2 
 PCOD9312596
Probable space group: P 21 21 2
;
_chemical_formula_sum "Si O2"
_cell_formula_units_Z 32
_cell_length_a 15.142053
_cell_length_b 8.547321
_cell_length_c 11.824762
_cell_angle_alpha 90.000000
_cell_angle_beta 90.000000
_cell_angle_gamma 90.000000
_cell_volume 1530.407850
_symmetry_space_group_name_H-M "P 21 21 2"
_symmetry_group_IT_number 18
_symmetry_cell_setting 'orthorhombic'
loop_
_space_group_symop_operation_xyz
x,y,z
-x,-y,z
1/2+x,1/2-y,-z
1/2-x,1/2+y,-z
loop_
_atom_site_type_symbol
_atom_site_label
_atom_site_fract_x
_atom_site_fract_y
_atom_site_fract_z
Si Si1 0.612318 0.643538 0.304911
Si Si2 0.573275 0.288483 0.227091
Si Si3 0.741453 0.100419 0.864601
Si Si4 0.166809 0.675952 0.487338
Si Si5 0.362804 0.635727 0.993873
Si Si6 0.091121 0.946471 0.225416
Si Si7 0.222705 0.398755 0.652080
Si Si8 0.911721 0.406442 0.254251
O O1 0.598004 0.459161 0.280021
O O2 0.525042 0.739545 0.271267
O O3 0.693800 0.687083 0.223552
O O4 0.632458 0.683706 0.433890
O O5 0.647383 0.162723 0.262333
O O6 0.571158 0.308981 0.091911
O O7 0.691550 0.219966 0.944857
O O8 0.671701 0.001340 0.791842
O O9 0.798188 0.983438 0.941257
O O10 0.187806 0.532988 0.569679
O O11 0.250661 0.746401 0.421548
O O12 0.100890 0.624560 0.388031
O O13 0.403779 0.549435 0.886853
O O14 0.185121 0.956242 0.290820
O O15 0.083865 0.763369 0.197944
O O16 0.000000 0.000000 0.286879
O O17 0.000000 0.500000 0.231385
#
# Coordination Sequence:
#
# PCOD9312596 Si02
#       8
#     4   4   4   4   4   4   4   4
#     4  10  22  41  63  96 126 174 218 271 322 401
#     4  10  23  42  64  97 134 164 223 269 326 398
#     4  11  22  42  66  96 139 170 224 268 332 394
#     4  11  23  41  68  90 128 176 209 269 338 378
#     4  11  22  40  68  95 126 184 205 275 331 386
#     4  11  24  41  67  94 130 170 229 268 330 404
#     4  11  23  43  65  98 132 171 220 272 325 402
#     4  11  25  44  62  98 134 170 220 279 326 405
#
# _framework density 20.909458999999998
#
# number of rings (size 3 to 8) (size 9 to 14) (size 15 to 20)
#    0.000    1.250    0.000    7.500    5.250    1.000 
#   13.500    0.000    0.000    0.000    0.000    0.000 
#    0.000    0.000    0.000    0.000    0.000    0.000 
#
# Total GULP energy -178867.032357 kJ/mol
# GULP energy per Si atom -5589.594761 kJ/mol
# Density = 2.086187 g / cm^3
# Si number density = 20.909459 Si / 1000 Ang^3
#
#
#
# Elastic Constant Matrix: (Units=GPa)
#
#
# Indices 1 2 3 4 5 6 
#
# 1 91.4397 14.0285 8.4646 0.0000 0.0000 0.0000
# 2 14.0285 40.8508 9.3243 0.0000 0.0000 0.0000
# 3 8.4646 9.3243 57.3745 0.0000 0.0000 0.0000
# 4 0.0000 0.0000 0.0000 14.8238 0.0000 0.0000
# 5 0.0000 0.0000 0.0000 0.0000 -3.3828 0.0000
# 6 0.0000 0.0000 0.0000 0.0000 0.0000 30.7692
#
#
#
# Elastic Compliance Matrix: (Units=1/GPa)
#
#
# Indices 1 2 3 4 5 6 
#
# 1 0.011612 -0.003735 -0.001106 0.000000 0.000000 0.000000
# 2 -0.003735 0.026624 -0.003776 0.000000 0.000000 0.000000
# 3 -0.001106 -0.003776 0.018206 0.000000 0.000000 0.000000
# 4 0.000000 0.000000 0.000000 0.067459 0.000000 0.000000
# 5 0.000000 0.000000 0.000000 0.000000 -0.295612 0.000000
# 6 0.000000 0.000000 0.000000 0.000000 0.000000 0.032500
#
#
# Mechanical properties :
#
#
# Convention : Reuss Voigt Hill
#
# Bulk Modulus (GPa) = 25.50515 28.14441 26.82478
# Shear Modulus (GPa) = -45.91010 18.96522 -13.47244
#
# Velocity S-wave (km/s) = -4.69087 3.01494 -2.54111
# Velocity P-wave (km/s) = 4.13699 5.06055 2.06088
#
# Compressibility (1/GPa) = 0.03920777
#
# Stress axis : x y z
#
# Youngs Moduli (GPa) = 86.12090 37.56043 54.92650
#
# Poissons Ratio (x) = 0.14029 0.06075
# Poissons Ratio (y) = 0.32166 0.20739
# Poissons Ratio (z) = 0.09526 0.14182
#
# Static dielectric constant tensor:
#      x y z
#    x 1.828650 0.000000 0.000000 
#    y 0.000000 1.773510 0.000000 
#    z 0.000000 0.000000 1.735530 
# 
# From -- ./inp_files/6111.got.cif
#   From: 2010.05.17/outbox.cif.g08.bks.cpg/sg18_4_cif.got.tgz:6111.got - 2010.06.03 22:40:56.
