data_PCOD9312823
_publ_section_title
;
Structure prediction by ZEFSAII (Michael W. Deem and Ramdas Pophale) SiO2 
 PCOD9312823
Probable space group: P 21 21 2
;
_chemical_formula_sum "Si O2"
_cell_formula_units_Z 24
_cell_length_a 18.786899
_cell_length_b 9.102452
_cell_length_c 5.279312
_cell_angle_alpha 90.000000
_cell_angle_beta 90.000000
_cell_angle_gamma 90.000000
_cell_volume 902.798496
_symmetry_space_group_name_H-M "P 21 21 2"
_symmetry_group_IT_number 18
_symmetry_cell_setting 'orthorhombic'
loop_
_space_group_symop_operation_xyz
x,y,z
-x,-y,z
1/2+x,1/2-y,-z
1/2-x,1/2+y,-z
loop_
_atom_site_type_symbol
_atom_site_label
_atom_site_fract_x
_atom_site_fract_y
_atom_site_fract_z
Si Si1 0.106019 0.590411 0.812283
Si Si2 0.394427 0.508987 0.409803
Si Si3 0.851401 0.254404 0.320898
Si Si4 0.551943 0.222999 0.152800
Si Si5 0.721229 0.561195 0.031440
Si Si6 0.326314 0.720949 0.774912
O O1 0.150846 0.655622 0.579798
O O2 0.099581 0.416365 0.758866
O O3 0.026564 0.657988 0.824108
O O4 0.130684 0.636160 0.092800
O O5 0.406770 0.381427 0.616521
O O6 0.450646 0.623159 0.300759
O O7 0.353550 0.427571 0.182034
O O8 0.338144 0.628824 0.521519
O O9 0.785153 0.158636 0.222657
O O10 0.593754 0.259548 0.890901
O O11 0.782656 0.629239 0.203593
O O12 0.718794 0.393678 0.946169
#
# Coordination Sequence:
#
# PCOD9312823 Si02
#       6
#     4   4   4   4   4   4
#     4  11  26  46  77 101 149 186 249 296 369 430
#     4  10  23  46  67 107 144 183 249 291 369 430
#     4  11  24  47  70 107 136 191 240 297 354 443
#     4  10  26  46  67 110 140 195 238 310 357 436
#     4  10  23  45  66 106 141 190 237 299 361 439
#     4  10  24  43  71 100 149 187 243 298 364 435
#
# _framework density 26.584007
#
# number of rings (size 3 to 8) (size 9 to 14) (size 15 to 20)
#    0.000    1.667    1.667    0.000    7.000    7.333 
#    6.000    0.000    0.000    0.000    0.000    0.000 
#    0.000    0.000    0.000    0.000    0.000    0.000 
#
# Total GULP energy -133981.627839 kJ/mol
# GULP energy per Si atom -5582.567827 kJ/mol
# Density = 2.652350 g / cm^3
# Si number density = 26.584007 Si / 1000 Ang^3
#
#
#
# Elastic Constant Matrix: (Units=GPa)
#
#
# Indices 1 2 3 4 5 6 
#
# 1 51.8641 22.0295 19.5929 0.0000 0.0000 0.0000
# 2 22.0295 158.3059 46.7429 0.0000 0.0000 0.0000
# 3 19.5929 46.7429 126.6162 0.0000 0.0000 0.0000
# 4 0.0000 0.0000 0.0000 32.4549 0.0000 0.0000
# 5 0.0000 0.0000 0.0000 0.0000 22.6092 0.0000
# 6 0.0000 0.0000 0.0000 0.0000 0.0000 48.8494
#
#
#
# Elastic Compliance Matrix: (Units=1/GPa)
#
#
# Indices 1 2 3 4 5 6 
#
# 1 0.021151 -0.002219 -0.002454 0.000000 0.000000 0.000000
# 2 -0.002219 0.007322 -0.002360 0.000000 0.000000 0.000000
# 3 -0.002454 -0.002360 0.009149 0.000000 0.000000 0.000000
# 4 0.000000 0.000000 0.000000 0.030812 0.000000 0.000000
# 5 0.000000 0.000000 0.000000 0.000000 0.044230 0.000000
# 6 0.000000 0.000000 0.000000 0.000000 0.000000 0.020471
#
#
# Mechanical properties :
#
#
# Convention : Reuss Voigt Hill
#
# Bulk Modulus (GPa) = 42.45031 57.05743 49.75387
# Shear Modulus (GPa) = 32.24731 37.34411 34.79571
#
# Velocity S-wave (km/s) = 3.48664 3.75208 3.62179
# Velocity P-wave (km/s) = 5.67556 6.34669 6.02048
#
# Compressibility (1/GPa) = 0.02355695
#
# Stress axis : x y z
#
# Youngs Moduli (GPa) = 47.28005 136.56647 109.30409
#
# Poissons Ratio (x) = 0.30300 0.26821
# Poissons Ratio (y) = 0.10490 0.25795
# Poissons Ratio (z) = 0.11602 0.32228
#
# Static dielectric constant tensor:
#      x y z
#    x 2.152630 0.000000 0.000000 
#    y 0.000000 2.083190 0.000000 
#    z 0.000000 0.000000 2.054970 
# 
# From -- ./inp_files/2065.got.cif
#   From: 2010.05.17/outbox.cif.g08.bks.cpg/sg18_2_cif.got.tgz:2065.got - 2010.06.03 22:40:56.
