data_PCOD9312593
_publ_section_title
;
Structure prediction by ZEFSAII (Michael W. Deem and Ramdas Pophale) SiO2 
 PCOD9312593
Probable space group: P 21 21 2
;
_chemical_formula_sum "Si O2"
_cell_formula_units_Z 26
_cell_length_a 7.516781
_cell_length_b 17.811080
_cell_length_c 8.436892
_cell_angle_alpha 90.000000
_cell_angle_beta 90.000000
_cell_angle_gamma 90.000000
_cell_volume 1129.547871
_symmetry_space_group_name_H-M "P 21 21 2"
_symmetry_group_IT_number 18
_symmetry_cell_setting 'orthorhombic'
loop_
_space_group_symop_operation_xyz
x,y,z
-x,-y,z
1/2+x,1/2-y,-z
1/2-x,1/2+y,-z
loop_
_atom_site_type_symbol
_atom_site_label
_atom_site_fract_x
_atom_site_fract_y
_atom_site_fract_z
Si Si1 0.815703 0.811069 0.825259
Si Si2 0.952005 0.159634 0.513693
Si Si3 0.000000 0.000000 0.390882
Si Si4 0.367819 0.062437 0.284355
Si Si5 0.678557 0.686573 0.023947
Si Si6 0.496869 0.082983 0.923231
Si Si7 0.754715 0.780544 0.330455
O O1 0.471573 0.667555 0.046820
O O2 0.910266 0.823470 0.657300
O O3 0.754433 0.726525 0.867345
O O4 0.641977 0.862263 0.838903
O O5 0.784513 0.209561 0.558400
O O6 0.046058 0.192416 0.358080
O O7 0.933265 0.071068 0.493128
O O8 0.831064 0.971075 0.292200
O O9 0.427997 0.075267 0.103971
O O10 0.361038 0.144614 0.364210
O O11 0.500000 0.000000 0.354989
O O12 0.709431 0.751353 0.156397
O O13 0.807531 0.618681 0.069111
O O14 0.500000 0.000000 0.851747
#
# Coordination Sequence:
#
# PCOD9312593 Si02
#       7
#     4   4   2   4   4   4   4
#     4  11  22  41  67  98 132 174 217 280 327 404
#     4  10  24  40  67  94 134 171 225 268 339 393
#     4  10  24  46  62  96 136 180 216 280 332 404
#     4  10  22  43  67  97 134 171 228 271 333 399
#     4  11  22  42  67  93 137 167 227 277 331 398
#     4  11  24  41  64 103 130 171 222 279 343 395
#     4  10  22  41  63 100 123 177 223 267 331 403
#
# _framework density 23.018062
#
# number of rings (size 3 to 8) (size 9 to 14) (size 15 to 20)
#    0.000    1.538    3.077    0.923    4.308    5.538 
#    0.000    3.077    0.000    0.000    0.000    0.000 
#    0.000    0.000    0.000    0.000    0.000    0.000 
#
# Total GULP energy -145292.874183 kJ/mol
# GULP energy per Si atom -5588.187469 kJ/mol
# Density = 2.296567 g / cm^3
# Si number density = 23.018062 Si / 1000 Ang^3
#
#
#
# Elastic Constant Matrix: (Units=GPa)
#
#
# Indices 1 2 3 4 5 6 
#
# 1 92.2585 28.1599 -0.2263 0.0000 0.0000 0.0000
# 2 28.1599 140.0362 1.7439 0.0000 0.0000 0.0000
# 3 -0.2263 1.7439 27.3591 0.0000 0.0000 0.0000
# 4 0.0000 0.0000 0.0000 15.7959 0.0000 0.0000
# 5 0.0000 0.0000 0.0000 0.0000 29.2942 0.0000
# 6 0.0000 0.0000 0.0000 0.0000 0.0000 41.8286
#
#
#
# Elastic Compliance Matrix: (Units=1/GPa)
#
#
# Indices 1 2 3 4 5 6 
#
# 1 0.011550 -0.002326 0.000244 0.000000 0.000000 0.000000
# 2 -0.002326 0.007615 -0.000505 0.000000 0.000000 0.000000
# 3 0.000244 -0.000505 0.036585 0.000000 0.000000 0.000000
# 4 0.000000 0.000000 0.000000 0.063308 0.000000 0.000000
# 5 0.000000 0.000000 0.000000 0.000000 0.034136 0.000000
# 6 0.000000 0.000000 0.000000 0.000000 0.000000 0.023907
#
#
# Mechanical properties :
#
#
# Convention : Reuss Voigt Hill
#
# Bulk Modulus (GPa) = 19.77188 35.44539 27.60864
# Shear Modulus (GPa) = 25.10891 32.71549 28.91220
#
# Velocity S-wave (km/s) = 3.30636 3.77410 3.54795
# Velocity P-wave (km/s) = 4.81502 5.86721 5.36696
#
# Compressibility (1/GPa) = 0.05057687
#
# Stress axis : x y z
#
# Youngs Moduli (GPa) = 86.58364 131.32090 27.33349
#
# Poissons Ratio (x) = 0.30539 -0.00666
# Poissons Ratio (y) = 0.20135 0.01379
# Poissons Ratio (z) = -0.02111 0.06627
#
# Static dielectric constant tensor:
#      x y z
#    x 1.876950 0.000000 0.000000 
#    y 0.000000 1.868030 0.000000 
#    z 0.000000 0.000000 1.910330 
# 
# From -- ./inp_files/3390.got.cif
#   From: 2010.05.17/outbox.cif.g08.bks.cpg/sg18_2_cif.got.tgz:3390.got - 2010.06.03 22:40:56.
