data_PCOD9312469
_publ_section_title
;
Structure prediction by ZEFSAII (Michael W. Deem and Ramdas Pophale) SiO2 
 PCOD9312469
Probable space group: P 21 21 2
;
_chemical_formula_sum "Si O2"
_cell_formula_units_Z 22
_cell_length_a 5.574389
_cell_length_b 25.010409
_cell_length_c 6.900168
_cell_angle_alpha 90.000000
_cell_angle_beta 90.000000
_cell_angle_gamma 90.000000
_cell_volume 962.005889
_symmetry_space_group_name_H-M "P 21 21 2"
_symmetry_group_IT_number 18
_symmetry_cell_setting 'orthorhombic'
loop_
_space_group_symop_operation_xyz
x,y,z
-x,-y,z
1/2+x,1/2-y,-z
1/2-x,1/2+y,-z
loop_
_atom_site_type_symbol
_atom_site_label
_atom_site_fract_x
_atom_site_fract_y
_atom_site_fract_z
Si Si1 0.000000 0.000000 0.652701
Si Si2 0.370112 0.133501 0.250670
Si Si3 0.812702 0.594412 0.428501
Si Si4 0.608668 0.234495 0.109121
Si Si5 0.801833 0.412969 0.143786
Si Si6 0.568392 0.322085 0.417148
O O1 0.815813 0.967389 0.785070
O O2 0.128569 0.953208 0.533058
O O3 0.486070 0.094527 0.408161
O O4 0.564360 0.172144 0.149102
O O5 0.191518 0.170990 0.374332
O O6 0.256939 0.100136 0.077957
O O7 0.695836 0.653132 0.433723
O O8 0.923985 0.585665 0.216309
O O9 0.596212 0.265713 0.314016
O O10 0.867762 0.246359 0.009890
O O11 0.692590 0.363693 0.267311
#
# Coordination Sequence:
#
# PCOD9312469 Si02
#       6
#     2   4   4   4   4   4
#     4  10  22  44  74  94 142 182 238 296 386 418
#     4  11  25  42  72 102 148 185 247 296 365 431
#     4  10  23  43  70  99 142 184 239 304 359 440
#     4  12  27  45  74 106 152 205 241 294 369 435
#     4  10  21  47  66 100 135 187 230 304 356 438
#     4  10  24  42  67 100 143 183 244 289 356 428
#
# _framework density 22.868880999999998
#
# number of rings (size 3 to 8) (size 9 to 14) (size 15 to 20)
#    0.000    1.455    1.818    1.636    7.636    2.909 
#    0.000   21.818    0.000    0.000    0.000    0.000 
#    0.000    0.000    0.000    0.000    0.000    0.000 
#
# Total GULP energy -122952.475277 kJ/mol
# GULP energy per Si atom -5588.748876 kJ/mol
# Density = 2.281683 g / cm^3
# Si number density = 22.868881 Si / 1000 Ang^3
#
#
#
# Elastic Constant Matrix: (Units=GPa)
#
#
# Indices 1 2 3 4 5 6 
#
# 1 71.0814 -1.9917 27.7095 0.0000 0.0000 0.0000
# 2 -1.9917 70.5252 4.2026 0.0000 0.0000 0.0000
# 3 27.7095 4.2026 105.5416 0.0000 0.0000 0.0000
# 4 0.0000 0.0000 0.0000 17.3046 0.0000 0.0000
# 5 0.0000 0.0000 0.0000 0.0000 15.9965 0.0000
# 6 0.0000 0.0000 0.0000 0.0000 0.0000 35.1754
#
#
#
# Elastic Compliance Matrix: (Units=1/GPa)
#
#
# Indices 1 2 3 4 5 6 
#
# 1 0.015706 0.000691 -0.004151 0.000000 0.000000 0.000000
# 2 0.000691 0.014243 -0.000749 0.000000 0.000000 0.000000
# 3 -0.004151 -0.000749 0.010595 0.000000 0.000000 0.000000
# 4 0.000000 0.000000 0.000000 0.057788 0.000000 0.000000
# 5 0.000000 0.000000 0.000000 0.000000 0.062514 0.000000
# 6 0.000000 0.000000 0.000000 0.000000 0.000000 0.028429
#
#
# Mechanical properties :
#
#
# Convention : Reuss Voigt Hill
#
# Bulk Modulus (GPa) = 31.12689 34.10990 32.61839
# Shear Modulus (GPa) = 23.99224 28.17716 26.08470
#
# Velocity S-wave (km/s) = 3.24253 3.51396 3.38097
# Velocity P-wave (km/s) = 5.25920 5.60461 5.43465
#
# Compressibility (1/GPa) = 0.03212657
#
# Stress axis : x y z
#
# Youngs Moduli (GPa) = 63.67023 70.20773 94.38787
#
# Poissons Ratio (x) = -0.04851 0.39181
# Poissons Ratio (y) = -0.04399 0.07066
# Poissons Ratio (z) = 0.26430 0.05255
#
# Static dielectric constant tensor:
#      x y z
#    x 1.974280 0.000000 0.000000 
#    y 0.000000 1.842440 0.000000 
#    z 0.000000 0.000000 1.840330 
# 
# From -- ./inp_files/325.got.cif
#   From: 2010.05.17/outbox.cif.g08.bks.cpg/sg18_1_cif.got.tgz:325.got - 2010.06.03 22:40:56.
