data_PCOD9312378
_publ_section_title
;
Structure prediction by ZEFSAII (Michael W. Deem and Ramdas Pophale) SiO2 
 PCOD9312378
Probable space group: P 21 21 2
;
_chemical_formula_sum "Si O2"
_cell_formula_units_Z 22
_cell_length_a 10.953826
_cell_length_b 4.877230
_cell_length_c 14.761688
_cell_angle_alpha 90.000000
_cell_angle_beta 90.000000
_cell_angle_gamma 90.000000
_cell_volume 788.633273
_symmetry_space_group_name_H-M "P 21 21 2"
_symmetry_group_IT_number 18
_symmetry_cell_setting 'orthorhombic'
loop_
_space_group_symop_operation_xyz
x,y,z
-x,-y,z
1/2+x,1/2-y,-z
1/2-x,1/2+y,-z
loop_
_atom_site_type_symbol
_atom_site_label
_atom_site_fract_x
_atom_site_fract_y
_atom_site_fract_z
Si Si1 0.000000 0.500000 0.164385
Si Si2 0.369639 0.391931 0.948580
Si Si3 0.886761 0.691382 0.890679
Si Si4 0.324860 0.675131 0.304904
Si Si5 0.164700 0.312138 0.503200
Si Si6 0.348347 0.677481 0.689559
O O1 0.109510 0.590770 0.095968
O O2 0.938532 0.713998 0.234436
O O3 0.500000 0.500000 0.914136
O O4 0.239009 0.473269 0.908233
O O5 0.372326 0.539103 0.046740
O O6 0.897417 0.767899 0.786181
O O7 0.000000 0.500000 0.917284
O O8 0.391254 0.747140 0.399071
O O9 0.204438 0.872512 0.301365
O O10 0.272216 0.369927 0.305341
O O11 0.286989 0.121342 0.501169
O O12 0.098136 0.233064 0.410792
#
# Coordination Sequence:
#
# PCOD9312378 Si02
#       6
#     2   4   4   4   4   4
#     4  12  26  46  72 110 150 196 270 324 386 466
#     4  12  29  51  77 108 152 206 267 328 390 461
#     4  12  28  52  78 113 154 206 264 328 400 469
#     4  10  21  44  71 106 154 198 254 314 398 469
#     4   8  16  34  66 103 147 194 246 311 381 466
#     4  10  21  40  72 110 148 201 254 320 386 462
#
# _framework density 27.896362
#
# number of rings (size 3 to 8) (size 9 to 14) (size 15 to 20)
#    0.000    1.455    1.818    2.182    3.818    2.909 
#    1.636    0.000    0.000    0.000    0.000    0.000 
#    0.000    0.000    0.000    0.000    0.000    0.000 
#
# Total GULP energy -123112.763041 kJ/mol
# GULP energy per Si atom -5596.034684 kJ/mol
# Density = 2.783287 g / cm^3
# Si number density = 27.896362 Si / 1000 Ang^3
#
#
#
# Elastic Constant Matrix: (Units=GPa)
#
#
# Indices 1 2 3 4 5 6 
#
# 1 144.1079 38.9428 43.5656 0.0000 0.0000 0.0000
# 2 38.9428 112.2254 38.0602 0.0000 0.0000 0.0000
# 3 43.5656 38.0602 296.8787 0.0000 0.0000 0.0000
# 4 0.0000 0.0000 0.0000 45.1805 0.0000 0.0000
# 5 0.0000 0.0000 0.0000 0.0000 21.2696 0.0000
# 6 0.0000 0.0000 0.0000 0.0000 0.0000 51.7043
#
#
#
# Elastic Compliance Matrix: (Units=1/GPa)
#
#
# Indices 1 2 3 4 5 6 
#
# 1 0.007852 -0.002440 -0.000839 0.000000 0.000000 0.000000
# 2 -0.002440 0.010074 -0.000933 0.000000 0.000000 0.000000
# 3 -0.000839 -0.000933 0.003611 0.000000 0.000000 0.000000
# 4 0.000000 0.000000 0.000000 0.022133 0.000000 0.000000
# 5 0.000000 0.000000 0.000000 0.000000 0.047016 0.000000
# 6 0.000000 0.000000 0.000000 0.000000 0.000000 0.019341
#
#
# Mechanical properties :
#
#
# Convention : Reuss Voigt Hill
#
# Bulk Modulus (GPa) = 76.26862 88.26102 82.26482
# Shear Modulus (GPa) = 40.70869 52.47378 46.59124
#
# Velocity S-wave (km/s) = 3.82420 4.34178 4.09119
# Velocity P-wave (km/s) = 6.84826 7.53939 7.20212
#
# Compressibility (1/GPa) = 0.01311155
#
# Stress axis : x y z
#
# Youngs Moduli (GPa) = 127.34903 99.26606 276.91364
#
# Poissons Ratio (x) = 0.24222 0.23246
# Poissons Ratio (y) = 0.31075 0.25847
# Poissons Ratio (z) = 0.10691 0.09266
#
# Static dielectric constant tensor:
#      x y z
#    x 2.226060 0.000000 0.000000 
#    y 0.000000 3.168920 0.000000 
#    z 0.000000 0.000000 2.197880 
# 
# From -- ./inp_files/6855.got.cif
#   From: 2010.05.17/outbox.cif.g08.bks.cpg/sg18_4_cif.got.tgz:6855.got - 2010.06.03 22:40:56.
