data_PCOD9312843
_publ_section_title
;
Structure prediction by ZEFSAII (Michael W. Deem and Ramdas Pophale) SiO2 
 PCOD9312843
Probable space group: P 21 21 2
;
_chemical_formula_sum "Si O2"
_cell_formula_units_Z 30
_cell_length_a 27.570239
_cell_length_b 4.896334
_cell_length_c 9.030160
_cell_angle_alpha 90.000000
_cell_angle_beta 90.000000
_cell_angle_gamma 90.000000
_cell_volume 1219.009279
_symmetry_space_group_name_H-M "P 21 21 2"
_symmetry_group_IT_number 18
_symmetry_cell_setting 'orthorhombic'
loop_
_space_group_symop_operation_xyz
x,y,z
-x,-y,z
1/2+x,1/2-y,-z
1/2-x,1/2+y,-z
loop_
_atom_site_type_symbol
_atom_site_label
_atom_site_fract_x
_atom_site_fract_y
_atom_site_fract_z
Si Si1 0.380902 0.432393 0.849978
Si Si2 0.718467 0.710152 0.024238
Si Si3 0.172210 0.063292 0.705613
Si Si4 0.500000 0.500000 0.301208
Si Si5 0.781814 0.481689 0.500736
Si Si6 0.588528 0.823607 0.364323
Si Si7 0.417947 0.785209 0.114879
Si Si8 0.877386 0.558240 0.346262
O O1 0.399729 0.151126 0.775204
O O2 0.373317 0.638907 0.714913
O O3 0.330087 0.346645 0.928748
O O4 0.414011 0.621691 0.959235
O O5 0.706818 0.604095 0.186856
O O6 0.736755 0.020318 0.028081
O O7 0.194877 0.325490 0.625960
O O8 0.132338 0.191379 0.815022
O O9 0.136307 0.861759 0.615964
O O10 0.538312 0.672138 0.394727
O O11 0.465862 0.683047 0.197600
O O12 0.764139 0.177115 0.536041
O O13 0.821432 0.469381 0.372264
O O14 0.595722 0.044871 0.494551
O O15 0.584589 0.906433 0.187997
#
# Coordination Sequence:
#
# PCOD9312843 Si02
#       8
#     4   4   4   2   4   4   4   4
#     4  11  27  45  71 101 148 196 231 298 380 429
#     4  11  26  41  64  95 139 188 252 303 347 415
#     4  10  24  42  67  98 136 188 249 302 354 424
#     4  10  24  44  84 110 134 176 254 298 364 452
#     4  12  26  41  68 103 144 198 260 310 355 429
#     4  11  23  47  78 106 141 189 245 302 373 453
#     4  10  23  46  78 102 139 184 243 301 369 449
#     4  12  26  47  69 105 151 195 234 300 382 430
#
# _framework density 24.610147000000001
#
# number of rings (size 3 to 8) (size 9 to 14) (size 15 to 20)
#    0.000    1.067    1.333    3.600   16.800    0.000 
#    0.000    0.667    0.000    0.000    0.000    0.000 
#    0.000    0.000    0.000    0.000    0.000    0.000 
#
# Total GULP energy -167465.696098 kJ/mol
# GULP energy per Si atom -5582.189870 kJ/mol
# Density = 2.455413 g / cm^3
# Si number density = 24.610147 Si / 1000 Ang^3
#
#
#
# Elastic Constant Matrix: (Units=GPa)
#
#
# Indices 1 2 3 4 5 6 
#
# 1 71.4688 -16.5301 12.8645 0.0000 0.0000 0.0000
# 2 -16.5301 96.2864 11.4195 0.0000 0.0000 0.0000
# 3 12.8645 11.4195 72.9791 0.0000 0.0000 0.0000
# 4 0.0000 0.0000 0.0000 39.5160 0.0000 0.0000
# 5 0.0000 0.0000 0.0000 0.0000 17.1184 0.0000
# 6 0.0000 0.0000 0.0000 0.0000 0.0000 36.2100
#
#
#
# Elastic Compliance Matrix: (Units=1/GPa)
#
#
# Indices 1 2 3 4 5 6 
#
# 1 0.015253 0.002993 -0.003157 0.000000 0.000000 0.000000
# 2 0.002993 0.011169 -0.002275 0.000000 0.000000 0.000000
# 3 -0.003157 -0.002275 0.014615 0.000000 0.000000 0.000000
# 4 0.000000 0.000000 0.000000 0.025306 0.000000 0.000000
# 5 0.000000 0.000000 0.000000 0.000000 0.058417 0.000000
# 6 0.000000 0.000000 0.000000 0.000000 0.000000 0.027617
#
#
# Mechanical properties :
#
#
# Convention : Reuss Voigt Hill
#
# Bulk Modulus (GPa) = 27.65618 28.47134 28.06376
# Shear Modulus (GPa) = 29.53198 34.10092 31.81645
#
# Velocity S-wave (km/s) = 3.46785 3.72646 3.59948
# Velocity P-wave (km/s) = 5.22463 5.48721 5.35753
#
# Compressibility (1/GPa) = 0.03615829
#
# Stress axis : x y z
#
# Youngs Moduli (GPa) = 65.56249 89.53075 68.42245
#
# Poissons Ratio (x) = -0.26796 0.21601
# Poissons Ratio (y) = -0.19622 0.15568
# Poissons Ratio (z) = 0.20698 0.20371
#
# Static dielectric constant tensor:
#      x y z
#    x 2.007920 0.000000 0.000000 
#    y 0.000000 2.081870 0.000000 
#    z 0.000000 0.000000 2.065960 
# 
# From -- ./inp_files/4845.got.cif
#   From: 2010.05.17/outbox.cif.g08.bks.cpg/sg18_3_cif.got.tgz:4845.got - 2010.06.03 22:40:56.
