data_PCOD9312035
_publ_section_title
;
Structure prediction by ZEFSAII (Michael W. Deem and Ramdas Pophale) SiO2 
 PCOD9312035
Probable space group: P 21 21 2
;
_chemical_formula_sum "Si O2"
_cell_formula_units_Z 24
_cell_length_a 8.383690
_cell_length_b 11.670739
_cell_length_c 13.458496
_cell_angle_alpha 90.000000
_cell_angle_beta 90.000000
_cell_angle_gamma 90.000000
_cell_volume 1316.831169
_symmetry_space_group_name_H-M "P 21 21 2"
_symmetry_group_IT_number 18
_symmetry_cell_setting 'orthorhombic'
loop_
_space_group_symop_operation_xyz
x,y,z
-x,-y,z
1/2+x,1/2-y,-z
1/2-x,1/2+y,-z
loop_
_atom_site_type_symbol
_atom_site_label
_atom_site_fract_x
_atom_site_fract_y
_atom_site_fract_z
Si Si1 0.000000 0.500000 0.048793
Si Si2 0.900376 0.116860 0.444159
Si Si3 0.500000 0.500000 0.064397
Si Si4 0.687680 0.979833 0.294239
Si Si5 0.224546 0.104111 0.085206
Si Si6 0.770079 0.645831 0.165943
Si Si7 0.292125 0.757056 0.617557
O O1 0.068307 0.401728 0.118947
O O2 0.136510 0.547326 0.978308
O O3 0.795553 0.171802 0.531754
O O4 0.031247 0.211123 0.410395
O O5 0.779247 0.076749 0.357177
O O6 0.000000 0.000000 0.471070
O O7 0.632670 0.557647 0.133701
O O8 0.573556 0.407667 0.987342
O O9 0.781600 0.961569 0.190578
O O10 0.700524 0.861129 0.355633
O O11 0.500000 0.000000 0.275454
O O12 0.264156 0.233140 0.114182
O O13 0.789009 0.668001 0.282353
#
# Coordination Sequence:
#
# PCOD9312035 Si02
#       7
#     2   4   2   4   4   4   4
#     4  10  20  40  54  88 116 152 192 236 296 344
#     4  10  22  40  62  88 119 158 199 251 302 359
#     4  10  22  36  60  84 120 160 188 248 298 348
#     4  10  20  37  62  89 117 154 200 246 298 356
#     4  10  20  36  61  84 117 153 198 238 291 352
#     4  10  22  38  57  85 120 152 199 239 296 353
#     4  10  22  40  60  87 121 153 200 249 303 359
#
# _framework density 18.225570999999999
#
# number of rings (size 3 to 8) (size 9 to 14) (size 15 to 20)
#    0.000    2.000    0.833    2.000    7.000    0.000 
#    7.500    3.333    0.000    0.000    0.000    0.000 
#    0.000    0.000    0.000    0.000    0.000    0.000 
#
# Total GULP energy -133823.512293 kJ/mol
# GULP energy per Si atom -5575.979679 kJ/mol
# Density = 1.818409 g / cm^3
# Si number density = 18.225571 Si / 1000 Ang^3
#
#
#
# Elastic Constant Matrix: (Units=GPa)
#
#
# Indices 1 2 3 4 5 6 
#
# 1 43.7519 15.6669 35.0392 0.0000 0.0000 0.0000
# 2 15.6669 56.7509 60.7391 0.0000 0.0000 0.0000
# 3 35.0392 60.7391 124.3932 0.0000 0.0000 0.0000
# 4 0.0000 0.0000 0.0000 31.8225 0.0000 0.0000
# 5 0.0000 0.0000 0.0000 0.0000 25.7570 0.0000
# 6 0.0000 0.0000 0.0000 0.0000 0.0000 21.3443
#
#
#
# Elastic Compliance Matrix: (Units=1/GPa)
#
#
# Indices 1 2 3 4 5 6 
#
# 1 0.029581 0.001575 -0.009101 0.000000 0.000000 0.000000
# 2 0.001575 0.036994 -0.018507 0.000000 0.000000 0.000000
# 3 -0.009101 -0.018507 0.019639 0.000000 0.000000 0.000000
# 4 0.000000 0.000000 0.000000 0.031424 0.000000 0.000000
# 5 0.000000 0.000000 0.000000 0.000000 0.038824 0.000000
# 6 0.000000 0.000000 0.000000 0.000000 0.000000 0.046851
#
#
# Mechanical properties :
#
#
# Convention : Reuss Voigt Hill
#
# Bulk Modulus (GPa) = 29.28523 49.75404 39.51964
# Shear Modulus (GPa) = 18.74320 23.34814 21.04567
#
# Velocity S-wave (km/s) = 3.21035 3.58308 3.40182
# Velocity P-wave (km/s) = 5.46305 6.66905 6.09595
#
# Compressibility (1/GPa) = 0.03414690
#
# Stress axis : x y z
#
# Youngs Moduli (GPa) = 33.80525 27.03168 50.91829
#
# Poissons Ratio (x) = -0.04256 0.46342
# Poissons Ratio (y) = -0.05323 0.94234
# Poissons Ratio (z) = 0.30767 0.50027
#
# Static dielectric constant tensor:
#      x y z
#    x 1.645420 0.000000 0.000000 
#    y 0.000000 1.617020 0.000000 
#    z 0.000000 0.000000 1.605780 
# 
# From -- ./inp_files/5531.got.cif
#   From: 2010.05.17/outbox.cif.g08.bks.cpg/sg18_3_cif.got.tgz:5531.got - 2010.06.03 22:40:56.
