data_PCOD9312473
_publ_section_title
;
Structure prediction by ZEFSAII (Michael W. Deem and Ramdas Pophale) SiO2 
 PCOD9312473
Probable space group: P 21 21 2
;
_chemical_formula_sum "Si O2"
_cell_formula_units_Z 30
_cell_length_a 12.354528
_cell_length_b 13.393261
_cell_length_c 6.718927
_cell_angle_alpha 90.000000
_cell_angle_beta 90.000000
_cell_angle_gamma 90.000000
_cell_volume 1111.763503
_symmetry_space_group_name_H-M "P 21 21 2"
_symmetry_group_IT_number 18
_symmetry_cell_setting 'orthorhombic'
loop_
_space_group_symop_operation_xyz
x,y,z
-x,-y,z
1/2+x,1/2-y,-z
1/2-x,1/2+y,-z
loop_
_atom_site_type_symbol
_atom_site_label
_atom_site_fract_x
_atom_site_fract_y
_atom_site_fract_z
Si Si1 0.332307 0.407456 0.777110
Si Si2 0.282738 0.649766 0.168314
Si Si3 0.994638 0.782515 0.644411
Si Si4 0.840955 0.378981 0.796311
Si Si5 0.463007 0.223441 0.787120
Si Si6 0.000000 0.000000 0.461881
Si Si7 0.875971 0.573083 0.044534
Si Si8 0.775671 0.515787 0.433001
O O1 0.430149 0.336388 0.842232
O O2 0.397109 0.503337 0.688969
O O3 0.265345 0.391805 0.568483
O O4 0.241362 0.401486 0.946854
O O5 0.160344 0.681454 0.228780
O O6 0.302544 0.543800 0.279283
O O7 0.264360 0.645142 0.931342
O O8 0.380181 0.716613 0.243597
O O9 0.090329 0.720295 0.751599
O O10 0.985396 0.729907 0.430119
O O11 0.016701 0.898795 0.588483
O O12 0.959826 0.663360 0.065975
O O13 0.815065 0.434632 0.592294
O O14 0.896008 0.470219 0.922494
O O15 0.866107 0.545818 0.276637
#
# Coordination Sequence:
#
# PCOD9312473 Si02
#       8
#     4   4   4   4   4   2   4   4
#     4  10  23  50  84 122 171 223 298 360 454 536
#     4  11  24  49  76 124 168 217 288 360 439 526
#     4  11  24  51  87 122 173 232 281 375 447 530
#     4  10  24  51  84 122 167 221 293 353 440 533
#     4  11  26  50  78 124 169 222 294 362 453 532
#     4  10  22  48  92 128 166 230 296 362 454 540
#     4  10  25  51  85 122 174 227 294 371 446 535
#     4  10  21  50  82 118 162 229 278 368 431 536
#
# _framework density 26.984155999999999
#
# number of rings (size 3 to 8) (size 9 to 14) (size 15 to 20)
#    0.000    1.600    2.667    0.000    1.867    3.200 
#   14.400    4.667    0.000    1.600    0.000    0.000 
#    0.000    0.000    0.000    0.000    0.000    0.000 
#
# Total GULP energy -167317.333323 kJ/mol
# GULP energy per Si atom -5577.244444 kJ/mol
# Density = 2.692274 g / cm^3
# Si number density = 26.984156 Si / 1000 Ang^3
#
#
#
# Elastic Constant Matrix: (Units=GPa)
#
#
# Indices 1 2 3 4 5 6 
#
# 1 165.6183 98.7076 85.4083 0.0000 0.0000 0.0000
# 2 98.7076 154.6060 75.4022 0.0000 0.0000 0.0000
# 3 85.4083 75.4022 182.9928 0.0000 0.0000 0.0000
# 4 0.0000 0.0000 0.0000 51.2286 0.0000 0.0000
# 5 0.0000 0.0000 0.0000 0.0000 23.4844 0.0000
# 6 0.0000 0.0000 0.0000 0.0000 0.0000 60.8462
#
#
#
# Elastic Compliance Matrix: (Units=1/GPa)
#
#
# Indices 1 2 3 4 5 6 
#
# 1 0.010741 -0.005522 -0.002738 0.000000 0.000000 0.000000
# 2 -0.005522 0.010934 -0.001928 0.000000 0.000000 0.000000
# 3 -0.002738 -0.001928 0.007537 0.000000 0.000000 0.000000
# 4 0.000000 0.000000 0.000000 0.019520 0.000000 0.000000
# 5 0.000000 0.000000 0.000000 0.000000 0.042581 0.000000
# 6 0.000000 0.000000 0.000000 0.000000 0.000000 0.016435
#
#
# Mechanical properties :
#
#
# Convention : Reuss Voigt Hill
#
# Bulk Modulus (GPa) = 113.17336 113.58369 113.37853
# Shear Modulus (GPa) = 38.14750 43.35844 40.75297
#
# Velocity S-wave (km/s) = 3.76400 4.01285 3.89042
# Velocity P-wave (km/s) = 7.80525 7.97839 7.89230
#
# Compressibility (1/GPa) = 0.00883600
#
# Stress axis : x y z
#
# Youngs Moduli (GPa) = 93.10005 91.45715 132.68148
#
# Poissons Ratio (x) = 0.50507 0.36324
# Poissons Ratio (y) = 0.51414 0.25580
# Poissons Ratio (z) = 0.25488 0.17632
#
# Static dielectric constant tensor:
#      x y z
#    x 2.301280 0.000000 0.000000 
#    y 0.000000 2.273110 0.000000 
#    z 0.000000 0.000000 2.123850 
# 
# From -- ./inp_files/1664.got.cif
#   From: 2010.05.17/outbox.cif.g08.bks.cpg/sg18_1_cif.got.tgz:1664.got - 2010.06.03 22:40:56.
