data_PCOD9312904
_publ_section_title
;
Structure prediction by ZEFSAII (Michael W. Deem and Ramdas Pophale) SiO2 
 PCOD9312904
Probable space group: P 21 21 2
;
_chemical_formula_sum "Si O2"
_cell_formula_units_Z 16
_cell_length_a 8.944479
_cell_length_b 11.528278
_cell_length_c 5.245324
_cell_angle_alpha 90.000000
_cell_angle_beta 90.000000
_cell_angle_gamma 90.000000
_cell_volume 540.868649
_symmetry_space_group_name_H-M "P 21 21 2"
_symmetry_group_IT_number 18
_symmetry_cell_setting 'orthorhombic'
loop_
_space_group_symop_operation_xyz
x,y,z
-x,-y,z
1/2+x,1/2-y,-z
1/2-x,1/2+y,-z
loop_
_atom_site_type_symbol
_atom_site_label
_atom_site_fract_x
_atom_site_fract_y
_atom_site_fract_z
Si Si1 0.789496 0.646303 0.447491
Si Si2 0.793199 0.337583 0.188855
Si Si3 0.500000 0.000000 0.147888
Si Si4 0.000000 0.000000 0.518448
Si Si5 0.528774 0.305897 0.894962
O O1 0.707080 0.766761 0.543565
O O2 0.659838 0.553270 0.384668
O O3 0.903298 0.690132 0.232324
O O4 0.900067 0.584242 0.662284
O O5 0.618615 0.348596 0.135109
O O6 0.878414 0.440012 0.041272
O O7 0.862809 0.227962 0.031252
O O8 0.954479 0.900125 0.318636
#
# Coordination Sequence:
#
# PCOD9312904 Si02
#       5
#     4   4   2   2   4
#     4  11  26  46  70 107 145 183 241 287 354 428
#     4  11  25  46  69 101 145 180 237 294 344 424
#     4  12  24  46  70 106 144 190 236 286 354 428
#     4  10  24  44  70 100 144 180 234 288 348 418
#     4  11  25  46  70 105 143 187 233 295 350 423
#
# _framework density 29.582042999999999
#
# number of rings (size 3 to 8) (size 9 to 14) (size 15 to 20)
#    0.000    1.000    5.000    0.000    7.000    3.000 
#    0.000    6.250    0.000    0.000    0.000    0.000 
#    0.000    0.000    0.000    0.000    0.000    0.000 
#
# Total GULP energy -89270.441199 kJ/mol
# GULP energy per Si atom -5579.402575 kJ/mol
# Density = 2.951471 g / cm^3
# Si number density = 29.582043 Si / 1000 Ang^3
#
#
#
# Elastic Constant Matrix: (Units=GPa)
#
#
# Indices 1 2 3 4 5 6 
#
# 1 126.1498 23.1127 26.7938 0.0000 0.0000 0.0000
# 2 23.1127 116.0370 38.0562 0.0000 0.0000 0.0000
# 3 26.7938 38.0562 104.0871 0.0000 0.0000 0.0000
# 4 0.0000 0.0000 0.0000 49.2906 0.0000 0.0000
# 5 0.0000 0.0000 0.0000 0.0000 61.3831 0.0000
# 6 0.0000 0.0000 0.0000 0.0000 0.0000 38.0071
#
#
#
# Elastic Compliance Matrix: (Units=1/GPa)
#
#
# Indices 1 2 3 4 5 6 
#
# 1 0.008509 -0.001110 -0.001785 0.000000 0.000000 0.000000
# 2 -0.001110 0.009937 -0.003347 0.000000 0.000000 0.000000
# 3 -0.001785 -0.003347 0.011291 0.000000 0.000000 0.000000
# 4 0.000000 0.000000 0.000000 0.020288 0.000000 0.000000
# 5 0.000000 0.000000 0.000000 0.000000 0.016291 0.000000
# 6 0.000000 0.000000 0.000000 0.000000 0.000000 0.026311
#
#
# Mechanical properties :
#
#
# Convention : Reuss Voigt Hill
#
# Bulk Modulus (GPa) = 57.96008 58.02214 57.99111
# Shear Modulus (GPa) = 45.10129 46.95689 46.02909
#
# Velocity S-wave (km/s) = 3.90887 3.98847 3.94887
# Velocity P-wave (km/s) = 6.32518 6.39274 6.35905
#
# Compressibility (1/GPa) = 0.01725325
#
# Stress axis : x y z
#
# Youngs Moduli (GPa) = 117.51622 100.63599 88.56878
#
# Poissons Ratio (x) = 0.11167 0.15808
# Poissons Ratio (y) = 0.13040 0.29648
# Poissons Ratio (z) = 0.20974 0.33687
#
# Static dielectric constant tensor:
#      x y z
#    x 2.366950 0.000000 0.000000 
#    y 0.000000 2.376980 0.000000 
#    z 0.000000 0.000000 2.304270 
# 
# From -- ./inp_files/431.got.cif
#   From: 2010.05.17/outbox.cif.g08.bks.cpg/sg18_1_cif.got.tgz:431.got - 2010.06.03 22:40:56.
