data_PCOD9312803
_publ_section_title
;
Structure prediction by ZEFSAII (Michael W. Deem and Ramdas Pophale) SiO2 
 PCOD9312803
Probable space group: P 21 21 2
;
_chemical_formula_sum "Si O2"
_cell_formula_units_Z 28
_cell_length_a 26.683366
_cell_length_b 5.049673
_cell_length_c 8.467183
_cell_angle_alpha 90.000000
_cell_angle_beta 90.000000
_cell_angle_gamma 90.000000
_cell_volume 1140.887482
_symmetry_space_group_name_H-M "P 21 21 2"
_symmetry_group_IT_number 18
_symmetry_cell_setting 'orthorhombic'
loop_
_space_group_symop_operation_xyz
x,y,z
-x,-y,z
1/2+x,1/2-y,-z
1/2-x,1/2+y,-z
loop_
_atom_site_type_symbol
_atom_site_label
_atom_site_fract_x
_atom_site_fract_y
_atom_site_fract_z
Si Si1 0.862081 0.193663 0.275537
Si Si2 0.603214 0.204474 0.549074
Si Si3 0.753159 0.047429 0.385799
Si Si4 0.559978 0.667481 0.201699
Si Si5 0.500000 0.000000 0.445910
Si Si6 0.091456 0.195592 0.027719
Si Si7 0.500000 0.000000 0.946610
Si Si8 0.849348 0.513452 0.778118
O O1 0.872596 0.498564 0.322741
O O2 0.803488 0.132497 0.295351
O O3 0.888226 0.007649 0.406587
O O4 0.885250 0.056303 0.118932
O O5 0.545230 0.135064 0.535508
O O6 0.628797 0.156456 0.379162
O O7 0.739346 0.288267 0.504868
O O8 0.708812 0.989863 0.261841
O O9 0.562256 0.372882 0.137375
O O10 0.527625 0.772655 0.344430
O O11 0.535639 0.817661 0.053015
O O12 0.617690 0.747453 0.224072
O O13 0.136876 0.362311 0.949553
O O14 0.044615 0.318991 0.126309
#
# Coordination Sequence:
#
# PCOD9312803 Si02
#       8
#     4   4   4   4   2   4   2   4
#     4  12  27  48  70 107 151 188 239 312 377 435
#     4  11  25  47  71 102 143 187 245 299 358 443
#     4  12  24  47  75 103 138 196 242 304 376 444
#     4   9  20  42  67 100 136 181 243 298 350 434
#     4   9  22  43  70 104 131 191 248 292 349 441
#     4  11  25  43  72 105 150 190 246 309 375 450
#     4   9  20  41  62 100 135 197 224 282 367 441
#     4  10  23  43  74 100 134 188 253 292 361 444
#
# _framework density 24.542293999999998
#
# number of rings (size 3 to 8) (size 9 to 14) (size 15 to 20)
#    0.000    1.429    2.857    1.286   10.000    1.143 
#   12.857    0.000    0.000    0.000    0.000    0.000 
#    0.000    0.000    0.000    0.000    0.000    0.000 
#
# Total GULP energy -156358.282386 kJ/mol
# GULP energy per Si atom -5584.224371 kJ/mol
# Density = 2.448643 g / cm^3
# Si number density = 24.542294 Si / 1000 Ang^3
#
#
#
# Elastic Constant Matrix: (Units=GPa)
#
#
# Indices 1 2 3 4 5 6 
#
# 1 199.4006 14.9123 38.9581 0.0000 0.0000 0.0000
# 2 14.9123 64.6126 11.3847 0.0000 0.0000 0.0000
# 3 38.9581 11.3847 105.3756 0.0000 0.0000 0.0000
# 4 0.0000 0.0000 0.0000 44.1861 0.0000 0.0000
# 5 0.0000 0.0000 0.0000 0.0000 37.2507 0.0000
# 6 0.0000 0.0000 0.0000 0.0000 0.0000 28.6463
#
#
#
# Elastic Compliance Matrix: (Units=1/GPa)
#
#
# Indices 1 2 3 4 5 6 
#
# 1 0.005459 -0.000922 -0.001919 0.000000 0.000000 0.000000
# 2 -0.000922 0.015933 -0.001381 0.000000 0.000000 0.000000
# 3 -0.001919 -0.001381 0.010348 0.000000 0.000000 0.000000
# 4 0.000000 0.000000 0.000000 0.022632 0.000000 0.000000
# 5 0.000000 0.000000 0.000000 0.000000 0.026845 0.000000
# 6 0.000000 0.000000 0.000000 0.000000 0.000000 0.034908
#
#
# Mechanical properties :
#
#
# Convention : Reuss Voigt Hill
#
# Bulk Modulus (GPa) = 42.92199 55.54432 49.23316
# Shear Modulus (GPa) = 37.78344 42.29221 40.03783
#
# Velocity S-wave (km/s) = 3.92793 4.15569 4.04342
# Velocity P-wave (km/s) = 6.17240 6.76074 6.47326
#
# Compressibility (1/GPa) = 0.02329808
#
# Stress axis : x y z
#
# Youngs Moduli (GPa) = 183.19006 62.76340 96.63397
#
# Poissons Ratio (x) = 0.05786 0.18540
# Poissons Ratio (y) = 0.16887 0.13341
# Poissons Ratio (z) = 0.35146 0.08665
#
# Static dielectric constant tensor:
#      x y z
#    x 1.953780 0.000000 0.000000 
#    y 0.000000 2.055040 0.000000 
#    z 0.000000 0.000000 2.049780 
# 
# From -- ./inp_files/4816.got.cif
#   From: 2010.05.17/outbox.cif.g08.bks.cpg/sg18_3_cif.got.tgz:4816.got - 2010.06.03 22:40:56.
