data_PCOD9312425
_publ_section_title
;
Structure prediction by ZEFSAII (Michael W. Deem and Ramdas Pophale) SiO2 
 PCOD9312425
Probable space group: P 21 21 2
;
_chemical_formula_sum "Si O2"
_cell_formula_units_Z 18
_cell_length_a 8.265859
_cell_length_b 11.935999
_cell_length_c 7.233795
_cell_angle_alpha 90.000000
_cell_angle_beta 90.000000
_cell_angle_gamma 90.000000
_cell_volume 713.695508
_symmetry_space_group_name_H-M "P 21 21 2"
_symmetry_group_IT_number 18
_symmetry_cell_setting 'orthorhombic'
loop_
_space_group_symop_operation_xyz
x,y,z
-x,-y,z
1/2+x,1/2-y,-z
1/2-x,1/2+y,-z
loop_
_atom_site_type_symbol
_atom_site_label
_atom_site_fract_x
_atom_site_fract_y
_atom_site_fract_z
Si Si1 0.112909 0.902217 0.633551
Si Si2 0.335147 0.437233 0.942379
Si Si3 0.439599 0.211457 0.777405
Si Si4 0.164219 0.239514 0.531642
Si Si5 0.500000 0.000000 0.032080
O O1 0.253344 0.861590 0.496884
O O2 0.989708 0.795731 0.655618
O O3 0.171106 0.941833 0.833214
O O4 0.000000 0.000000 0.554172
O O5 0.500000 0.500000 0.890596
O O6 0.347096 0.307601 0.888340
O O7 0.171032 0.490986 0.866157
O O8 0.313693 0.171110 0.618263
O O9 0.589397 0.271193 0.673474
O O10 0.488930 0.110808 0.906369
#
# Coordination Sequence:
#
# PCOD9312425 Si02
#       5
#     4   4   4   4   2
#     4  10  21  42  68 100 145 185 237 302 366 432
#     4  11  26  47  75 108 146 193 251 311 364 446
#     4  11  25  47  71 110 142 193 250 297 380 439
#     4  10  23  41  70  99 140 189 230 303 357 436
#     4  12  26  46  78 108 150 204 236 314 376 440
#
# _framework density 25.220839000000002
#
# number of rings (size 3 to 8) (size 9 to 14) (size 15 to 20)
#    0.000    1.333    2.222    2.667    6.222    3.556 
#    4.000    0.000    0.000    0.000    0.000    0.000 
#    0.000    0.000    0.000    0.000    0.000    0.000 
#
# Total GULP energy -100471.652506 kJ/mol
# GULP energy per Si atom -5581.758473 kJ/mol
# Density = 2.516344 g / cm^3
# Si number density = 25.220839 Si / 1000 Ang^3
#
#
#
# Elastic Constant Matrix: (Units=GPa)
#
#
# Indices 1 2 3 4 5 6 
#
# 1 178.4976 52.0383 18.1448 0.0000 0.0000 0.0000
# 2 52.0383 82.1694 20.0711 0.0000 0.0000 0.0000
# 3 18.1448 20.0711 53.3334 0.0000 0.0000 0.0000
# 4 0.0000 0.0000 0.0000 5.0215 0.0000 0.0000
# 5 0.0000 0.0000 0.0000 0.0000 13.7488 0.0000
# 6 0.0000 0.0000 0.0000 0.0000 0.0000 49.5014
#
#
#
# Elastic Compliance Matrix: (Units=1/GPa)
#
#
# Indices 1 2 3 4 5 6 
#
# 1 0.006900 -0.004181 -0.000774 0.000000 0.000000 0.000000
# 2 -0.004181 0.015935 -0.004575 0.000000 0.000000 0.000000
# 3 -0.000774 -0.004575 0.020735 0.000000 0.000000 0.000000
# 4 0.000000 0.000000 0.000000 0.199143 0.000000 0.000000
# 5 0.000000 0.000000 0.000000 0.000000 0.072734 0.000000
# 6 0.000000 0.000000 0.000000 0.000000 0.000000 0.020201
#
#
# Mechanical properties :
#
#
# Convention : Reuss Voigt Hill
#
# Bulk Modulus (GPa) = 40.79776 54.94543 47.87160
# Shear Modulus (GPa) = 13.77880 28.57077 21.17478
#
# Velocity S-wave (km/s) = 2.33990 3.36940 2.90069
# Velocity P-wave (km/s) = 4.84886 6.08031 5.49916
#
# Compressibility (1/GPa) = 0.02451115
#
# Stress axis : x y z
#
# Youngs Moduli (GPa) = 144.93186 62.75509 48.22791
#
# Poissons Ratio (x) = 0.26235 0.03733
# Poissons Ratio (y) = 0.60590 0.22062
# Poissons Ratio (z) = 0.11219 0.28708
#
# Static dielectric constant tensor:
#      x y z
#    x 2.069410 0.000000 0.000000 
#    y 0.000000 1.979500 0.000000 
#    z 0.000000 0.000000 1.971440 
# 
# From -- ./inp_files/2890.got.cif
#   From: 2010.05.17/outbox.cif.g08.bks.cpg/sg18_2_cif.got.tgz:2890.got - 2010.06.03 22:40:56.
