data_PCOD9312632
_publ_section_title
;
Structure prediction by ZEFSAII (Michael W. Deem and Ramdas Pophale) SiO2 
 PCOD9312632
Probable space group: P 21 21 2
;
_chemical_formula_sum "Si O2"
_cell_formula_units_Z 32
_cell_length_a 10.454468
_cell_length_b 12.479183
_cell_length_c 11.858333
_cell_angle_alpha 90.000000
_cell_angle_beta 90.000000
_cell_angle_gamma 90.000000
_cell_volume 1547.076299
_symmetry_space_group_name_H-M "P 21 21 2"
_symmetry_group_IT_number 18
_symmetry_cell_setting 'orthorhombic'
loop_
_space_group_symop_operation_xyz
x,y,z
-x,-y,z
1/2+x,1/2-y,-z
1/2-x,1/2+y,-z
loop_
_atom_site_type_symbol
_atom_site_label
_atom_site_fract_x
_atom_site_fract_y
_atom_site_fract_z
Si Si1 0.951814 0.663027 0.004143
Si Si2 0.676775 0.975158 0.883255
Si Si3 0.323225 0.024842 0.616743
Si Si4 0.398028 0.595220 0.978559
Si Si5 0.548186 0.163028 0.504141
Si Si6 0.601972 0.404780 0.521444
Si Si7 0.343336 0.513751 0.750001
Si Si8 0.410873 0.893958 0.250000
O O1 0.944060 0.659319 0.869086
O O2 0.835898 0.592129 0.057538
O O3 0.953997 0.787062 0.035467
O O4 0.072022 0.600605 0.056920
O O5 0.654825 0.983918 0.749999
O O6 0.810136 0.919939 0.912835
O O7 0.427978 0.100605 0.556917
O O8 0.189864 0.080061 0.587163
O O9 0.335898 0.907870 0.557536
O O10 0.500000 0.500000 0.983381
O O11 0.314975 0.574907 0.865733
O O12 0.546002 0.287062 0.535468
O O13 0.555940 0.159321 0.369084
O O14 0.500000 0.500000 0.516621
O O15 0.685025 0.425092 0.634269
O O16 0.500000 0.500000 0.750001
O O17 0.242584 0.416653 0.750000
O O18 0.500000 0.000000 0.250001
#
# Coordination Sequence:
#
# PCOD9312632 Si02
#       8
#     4   4   4   4   4   4   4   4
#     4  11  24  43  71  99 132 181 227 277 345 406
#     4  11  25  46  68  99 139 179 227 280 347 413
#     4  11  25  46  68  99 139 179 227 280 347 413
#     4  11  26  44  67 104 136 176 227 281 343 409
#     4  11  24  43  71  99 132 181 227 277 345 406
#     4  11  26  44  67 104 136 176 227 281 343 409
#     4  10  22  42  66  95 134 171 228 280 332 406
#     4  12  20  44  69  98 132 177 232 283 330 412
#
# _framework density 20.684177999999999
#
# number of rings (size 3 to 8) (size 9 to 14) (size 15 to 20)
#    0.000    1.000    5.000    1.500    8.750    0.500 
#    0.000    0.000    0.000    0.000    0.000    0.000 
#    0.000    0.000    0.000    0.000    0.000    0.000 
#
# Total GULP energy -178500.632824 kJ/mol
# GULP energy per Si atom -5578.144776 kJ/mol
# Density = 2.063710 g / cm^3
# Si number density = 20.684178 Si / 1000 Ang^3
#
#
#
# Elastic Constant Matrix: (Units=GPa)
#
#
# Indices 1 2 3 4 5 6 
#
# 1 53.0179 21.5597 10.4450 0.0000 0.0000 0.0000
# 2 21.5597 147.0909 26.3682 0.0000 0.0000 0.0000
# 3 10.4450 26.3682 166.2510 0.0000 0.0000 0.0000
# 4 0.0000 0.0000 0.0000 4.5347 0.0000 0.0000
# 5 0.0000 0.0000 0.0000 0.0000 26.1554 0.0000
# 6 0.0000 0.0000 0.0000 0.0000 0.0000 13.9414
#
#
#
# Elastic Compliance Matrix: (Units=1/GPa)
#
#
# Indices 1 2 3 4 5 6 
#
# 1 0.020165 -0.002808 -0.000821 0.000000 0.000000 0.000000
# 2 -0.002808 0.007389 -0.000995 0.000000 0.000000 0.000000
# 3 -0.000821 -0.000995 0.006224 0.000000 0.000000 0.000000
# 4 0.000000 0.000000 0.000000 0.220523 0.000000 0.000000
# 5 0.000000 0.000000 0.000000 0.000000 0.038233 0.000000
# 6 0.000000 0.000000 0.000000 0.000000 0.000000 0.071729
#
#
# Mechanical properties :
#
#
# Convention : Reuss Voigt Hill
#
# Bulk Modulus (GPa) = 40.77009 53.67841 47.22425
# Shear Modulus (GPa) = 13.09964 29.45875 21.27919
#
# Velocity S-wave (km/s) = 2.51931 3.77797 3.21092
# Velocity P-wave (km/s) = 5.31188 6.71108 6.05205
#
# Compressibility (1/GPa) = 0.02452778
#
# Stress axis : x y z
#
# Youngs Moduli (GPa) = 49.58979 135.34339 160.65565
#
# Poissons Ratio (x) = 0.38011 0.13198
# Poissons Ratio (y) = 0.13927 0.15992
# Poissons Ratio (z) = 0.04074 0.13472
#
# Static dielectric constant tensor:
#      x y z
#    x 1.825110 0.000000 0.000000 
#    y 0.000000 1.710470 0.000000 
#    z 0.000000 0.000000 1.794810 
# 
# From -- ./inp_files/5968.got.cif
#   From: 2010.05.17/outbox.cif.g08.bks.cpg/sg18_3_cif.got.tgz:5968.got - 2010.06.03 22:40:56.
