data_PCOD9312047
_publ_section_title
;
Structure prediction by ZEFSAII (Michael W. Deem and Ramdas Pophale) SiO2 
 PCOD9312047
Probable space group: P 21 21 2
;
_chemical_formula_sum "Si O2"
_cell_formula_units_Z 24
_cell_length_a 9.318308
_cell_length_b 9.523988
_cell_length_c 14.327038
_cell_angle_alpha 90.000000
_cell_angle_beta 90.000000
_cell_angle_gamma 90.000000
_cell_volume 1271.488140
_symmetry_space_group_name_H-M "P 21 21 2"
_symmetry_group_IT_number 18
_symmetry_cell_setting 'orthorhombic'
loop_
_space_group_symop_operation_xyz
x,y,z
-x,-y,z
1/2+x,1/2-y,-z
1/2-x,1/2+y,-z
loop_
_atom_site_type_symbol
_atom_site_label
_atom_site_fract_x
_atom_site_fract_y
_atom_site_fract_z
Si Si1 0.777417 0.105365 0.647609
Si Si2 0.283467 0.089112 0.389487
Si Si3 0.500000 0.000000 0.541744
Si Si4 0.000000 0.000000 0.497258
Si Si5 0.496827 0.246554 0.103160
Si Si6 0.000000 0.500000 0.048512
Si Si7 0.000000 0.500000 0.747143
Si Si8 0.296846 0.501998 0.148822
O O1 0.777017 0.268939 0.668585
O O2 0.900225 0.086526 0.569298
O O3 0.621318 0.072626 0.604218
O O4 0.808567 0.014723 0.739265
O O5 0.125840 0.062744 0.431577
O O6 0.399295 0.095492 0.474530
O O7 0.360223 0.980562 0.319369
O O8 0.369829 0.361855 0.105424
O O9 0.629799 0.353503 0.115502
O O10 0.488153 0.137036 0.188623
O O11 0.501909 0.140999 0.015395
O O12 0.863429 0.496830 0.114172
#
# Coordination Sequence:
#
# PCOD9312047 Si02
#       8
#     4   4   2   2   4   2   2   4
#     4  11  20  37  58  87 121 155 212 248 301 348
#     4  10  20  37  58  83 122 161 213 240 307 341
#     4   9  21  35  53  86 120 168 197 261 291 351
#     4  10  22  36  56  90 116 168 198 260 288 356
#     4  10  22  41  64  88 123 155 200 236 317 366
#     4  11  23  41  65  94 120 152 197 251 305 367
#     4  10  20  40  60  86 116 168 192 258 288 374
#     4  11  22  40  65  92 118 161 195 254 298 371
#
# _framework density 18.875520999999999
#
# number of rings (size 3 to 8) (size 9 to 14) (size 15 to 20)
#    0.000    1.667    1.667    3.500    0.000    0.000 
#   12.000    0.000    0.000    0.000    0.000    0.000 
#    0.000    0.000    0.000    0.000    0.000    0.000 
#
# Total GULP energy -133620.177984 kJ/mol
# GULP energy per Si atom -5567.507416 kJ/mol
# Density = 1.883256 g / cm^3
# Si number density = 18.875521 Si / 1000 Ang^3
#
#
#
# Elastic Constant Matrix: (Units=GPa)
#
#
# Indices 1 2 3 4 5 6 
#
# 1 157.8776 37.7587 23.3775 0.0000 0.0000 0.0000
# 2 37.7587 95.8857 19.4734 0.0000 0.0000 0.0000
# 3 23.3775 19.4734 43.3804 0.0000 0.0000 0.0000
# 4 0.0000 0.0000 0.0000 20.8805 0.0000 0.0000
# 5 0.0000 0.0000 0.0000 0.0000 -32.6870 0.0000
# 6 0.0000 0.0000 0.0000 0.0000 0.0000 7.1793
#
#
#
# Elastic Compliance Matrix: (Units=1/GPa)
#
#
# Indices 1 2 3 4 5 6 
#
# 1 0.007313 -0.002288 -0.002914 0.000000 0.000000 0.000000
# 2 -0.002288 0.012191 -0.004240 0.000000 0.000000 0.000000
# 3 -0.002914 -0.004240 0.026525 0.000000 0.000000 0.000000
# 4 0.000000 0.000000 0.000000 0.047892 0.000000 0.000000
# 5 0.000000 0.000000 0.000000 0.000000 -0.030593 0.000000
# 6 0.000000 0.000000 0.000000 0.000000 0.000000 0.139290
#
#
# Mechanical properties :
#
#
# Convention : Reuss Voigt Hill
#
# Bulk Modulus (GPa) = 36.83718 50.92921 43.88320
# Shear Modulus (GPa) = 21.68743 13.51017 17.59880
#
# Velocity S-wave (km/s) = 3.39332 2.67825 3.05677
# Velocity P-wave (km/s) = 5.90856 6.05015 5.97977
#
# Compressibility (1/GPa) = 0.02714649
#
# Stress axis : x y z
#
# Youngs Moduli (GPa) = 136.74941 82.02743 37.69997
#
# Poissons Ratio (x) = 0.18767 0.10985
# Poissons Ratio (y) = 0.31287 0.15983
# Poissons Ratio (z) = 0.39845 0.34776
#
# Static dielectric constant tensor:
#      x y z
#    x 1.649950 0.000000 0.000000 
#    y 0.000000 1.883480 0.000000 
#    z 0.000000 0.000000 1.650100 
# 
# From -- ./inp_files/6700.got.cif
#   From: 2010.05.17/outbox.cif.g08.bks.cpg/sg18_4_cif.got.tgz:6700.got - 2010.06.03 22:40:56.
