data_PCOD9312533
_publ_section_title
;
Structure prediction by ZEFSAII (Michael W. Deem and Ramdas Pophale) SiO2 
 PCOD9312533
Probable space group: P 21 21 2
;
_chemical_formula_sum "Si O2"
_cell_formula_units_Z 26
_cell_length_a 5.507645
_cell_length_b 18.845123
_cell_length_c 9.372063
_cell_angle_alpha 90.000000
_cell_angle_beta 90.000000
_cell_angle_gamma 90.000000
_cell_volume 972.747482
_symmetry_space_group_name_H-M "P 21 21 2"
_symmetry_group_IT_number 18
_symmetry_cell_setting 'orthorhombic'
loop_
_space_group_symop_operation_xyz
x,y,z
-x,-y,z
1/2+x,1/2-y,-z
1/2-x,1/2+y,-z
loop_
_atom_site_type_symbol
_atom_site_label
_atom_site_fract_x
_atom_site_fract_y
_atom_site_fract_z
Si Si1 0.000000 0.500000 0.187318
Si Si2 0.000000 0.000000 0.186313
Si Si3 0.404042 0.341885 0.411867
Si Si4 0.107946 0.702139 0.409487
Si Si5 0.500000 0.500000 0.366722
Si Si6 0.193911 0.256797 0.072064
Si Si7 0.846860 0.603729 0.969967
Si Si8 0.300316 0.134454 0.280625
O O1 0.247393 0.502953 0.278864
O O2 0.979011 0.432840 0.083070
O O3 0.829565 0.042964 0.081968
O O4 0.154786 0.060253 0.270011
O O5 0.139501 0.328256 0.345428
O O6 0.395923 0.284513 0.542281
O O7 0.454713 0.423947 0.443498
O O8 0.641569 0.313430 0.328567
O O9 0.132562 0.658146 0.559634
O O10 0.171111 0.200525 0.199720
O O11 0.417423 0.225212 0.977219
O O12 0.296858 0.336967 0.057914
O O13 0.963414 0.625918 0.818728
#
# Coordination Sequence:
#
# PCOD9312533 Si02
#       8
#     2   2   4   4   2   4   4   4
#     4  12  26  42  70  98 142 188 228 282 348 384
#     4  12  21  43  62  96 154 178 227 283 328 412
#     4  10  24  51  71 101 137 169 241 297 349 404
#     4  10  24  46  76 100 136 182 218 298 358 415
#     4  12  27  47  72 104 128 188 239 291 340 418
#     4  10  22  39  62  90 133 182 226 270 314 401
#     4  11  24  43  60 101 147 183 231 281 329 417
#     4  11  24  41  68 103 136 186 228 275 354 417
#
# _framework density 26.728418999999999
#
# number of rings (size 3 to 8) (size 9 to 14) (size 15 to 20)
#    0.000    1.231    3.077    1.385    4.308    0.615 
#    8.308    0.000    0.000    0.000    0.000    0.000 
#    0.000    0.000    0.000    0.000    0.000    0.000 
#
# Total GULP energy -145128.436357 kJ/mol
# GULP energy per Si atom -5581.862937 kJ/mol
# Density = 2.666758 g / cm^3
# Si number density = 26.728419 Si / 1000 Ang^3
#
#
#
# Elastic Constant Matrix: (Units=GPa)
#
#
# Indices 1 2 3 4 5 6 
#
# 1 158.7074 23.7101 40.0574 0.0000 0.0000 0.0000
# 2 23.7101 208.5692 33.5387 0.0000 0.0000 0.0000
# 3 40.0574 33.5387 91.9838 0.0000 0.0000 0.0000
# 4 0.0000 0.0000 0.0000 20.2321 0.0000 0.0000
# 5 0.0000 0.0000 0.0000 0.0000 20.8277 0.0000
# 6 0.0000 0.0000 0.0000 0.0000 0.0000 51.4701
#
#
#
# Elastic Compliance Matrix: (Units=1/GPa)
#
#
# Indices 1 2 3 4 5 6 
#
# 1 0.007100 -0.000329 -0.002972 0.000000 0.000000 0.000000
# 2 -0.000329 0.005108 -0.001719 0.000000 0.000000 0.000000
# 3 -0.002972 -0.001719 0.012793 0.000000 0.000000 0.000000
# 4 0.000000 0.000000 0.000000 0.049426 0.000000 0.000000
# 5 0.000000 0.000000 0.000000 0.000000 0.048013 0.000000
# 6 0.000000 0.000000 0.000000 0.000000 0.000000 0.019429
#
#
# Mechanical properties :
#
#
# Convention : Reuss Voigt Hill
#
# Bulk Modulus (GPa) = 66.84345 72.65255 69.74800
# Shear Modulus (GPa) = 31.86800 42.63625 37.25213
#
# Velocity S-wave (km/s) = 3.45670 3.99829 3.73732
# Velocity P-wave (km/s) = 6.40268 6.96820 6.69142
#
# Compressibility (1/GPa) = 0.01496033
#
# Stress axis : x y z
#
# Youngs Moduli (GPa) = 140.84083 195.75371 78.17029
#
# Poissons Ratio (x) = 0.06445 0.23232
# Poissons Ratio (y) = 0.04637 0.13439
# Poissons Ratio (z) = 0.41858 0.33655
#
# Static dielectric constant tensor:
#      x y z
#    x 2.378460 0.000000 0.000000 
#    y 0.000000 2.434120 0.000000 
#    z 0.000000 0.000000 2.147410 
# 
# From -- ./inp_files/5173.got.cif
#   From: 2010.05.17/outbox.cif.g08.bks.cpg/sg18_3_cif.got.tgz:5173.got - 2010.06.03 22:40:56.
