data_PCOD9312817
_publ_section_title
;
Structure prediction by ZEFSAII (Michael W. Deem and Ramdas Pophale) SiO2 
 PCOD9312817
Probable space group: P 21 21 2
;
_chemical_formula_sum "Si O2"
_cell_formula_units_Z 32
_cell_length_a 8.928864
_cell_length_b 29.924728
_cell_length_c 5.210139
_cell_angle_alpha 90.000000
_cell_angle_beta 90.000000
_cell_angle_gamma 90.000000
_cell_volume 1392.116976
_symmetry_space_group_name_H-M "P 21 21 2"
_symmetry_group_IT_number 18
_symmetry_cell_setting 'orthorhombic'
loop_
_space_group_symop_operation_xyz
x,y,z
-x,-y,z
1/2+x,1/2-y,-z
1/2-x,1/2+y,-z
loop_
_atom_site_type_symbol
_atom_site_label
_atom_site_fract_x
_atom_site_fract_y
_atom_site_fract_z
Si Si1 0.692339 0.602632 0.116622
Si Si2 0.343823 0.812540 0.648850
Si Si3 0.164240 0.225204 0.047336
Si Si4 0.678077 0.006276 0.775907
Si Si5 0.309478 0.183420 0.552082
Si Si6 0.105335 0.823601 0.266101
Si Si7 0.844034 0.974231 0.258453
Si Si8 0.903917 0.887796 0.570275
O O1 0.775686 0.555658 0.124693
O O2 0.673765 0.631686 0.860053
O O3 0.787776 0.637871 0.283302
O O4 0.522329 0.595148 0.219838
O O5 0.333632 0.777405 0.881533
O O6 0.513058 0.812424 0.559531
O O7 0.228628 0.798186 0.428671
O O8 0.257256 0.200145 0.272409
O O9 0.994323 0.205898 0.073396
O O10 0.233454 0.211507 0.779255
O O11 0.500000 0.000000 0.756560
O O12 0.747884 0.974900 0.998371
O O13 0.755547 0.996717 0.499913
O O14 0.258757 0.132551 0.624963
O O15 0.987092 0.843667 0.467267
O O16 0.884381 0.925083 0.356272
O O17 0.000000 0.000000 0.214390
#
# Coordination Sequence:
#
# PCOD9312817 Si02
#       8
#     4   4   4   4   4   4   4   4
#     4  11  24  46  70  99 145 189 236 286 377 424
#     4  11  27  40  70 102 138 189 233 295 354 423
#     4  11  25  45  69  98 145 181 242 284 356 417
#     4  12  29  47  71 108 149 185 233 306 371 430
#     4  11  26  44  70 106 138 184 239 299 341 430
#     4  10  23  45  69  97 143 190 227 297 356 432
#     4  12  25  46  78 104 135 188 242 292 349 443
#     4  10  23  44  71 102 137 183 238 291 356 429
#
# _framework density 22.986571000000001
#
# number of rings (size 3 to 8) (size 9 to 14) (size 15 to 20)
#    0.000    1.000    2.500    2.250   10.500    1.000 
#    0.000    0.000    0.000    0.000    0.000    0.000 
#    0.000    0.000    0.000    0.000    0.000    0.000 
#
# Total GULP energy -178992.701303 kJ/mol
# GULP energy per Si atom -5593.521916 kJ/mol
# Density = 2.293425 g / cm^3
# Si number density = 22.986571 Si / 1000 Ang^3
#
#
#
# Elastic Constant Matrix: (Units=GPa)
#
#
# Indices 1 2 3 4 5 6 
#
# 1 109.9542 23.3355 14.3711 0.0000 0.0000 0.0000
# 2 23.3355 83.6783 -4.3244 0.0000 0.0000 0.0000
# 3 14.3711 -4.3244 72.3476 0.0000 0.0000 0.0000
# 4 0.0000 0.0000 0.0000 31.5637 0.0000 0.0000
# 5 0.0000 0.0000 0.0000 0.0000 7.3077 0.0000
# 6 0.0000 0.0000 0.0000 0.0000 0.0000 15.6075
#
#
#
# Elastic Compliance Matrix: (Units=1/GPa)
#
#
# Indices 1 2 3 4 5 6 
#
# 1 0.009992 -0.002898 -0.002158 0.000000 0.000000 0.000000
# 2 -0.002898 0.012828 0.001342 0.000000 0.000000 0.000000
# 3 -0.002158 0.001342 0.014331 0.000000 0.000000 0.000000
# 4 0.000000 0.000000 0.000000 0.031682 0.000000 0.000000
# 5 0.000000 0.000000 0.000000 0.000000 0.136843 0.000000
# 6 0.000000 0.000000 0.000000 0.000000 0.000000 0.064072
#
#
# Mechanical properties :
#
#
# Convention : Reuss Voigt Hill
#
# Bulk Modulus (GPa) = 33.64299 36.97160 35.30730
# Shear Modulus (GPa) = 17.41661 26.40230 21.90945
#
# Velocity S-wave (km/s) = 2.75560 3.39277 3.09065
# Velocity P-wave (km/s) = 4.97917 5.60953 5.30372
#
# Compressibility (1/GPa) = 0.02972387
#
# Stress axis : x y z
#
# Youngs Moduli (GPa) = 100.08240 77.95417 69.77855
#
# Poissons Ratio (x) = 0.22591 0.15058
# Poissons Ratio (y) = 0.29003 -0.09367
# Poissons Ratio (z) = 0.21598 -0.10465
#
# Static dielectric constant tensor:
#      x y z
#    x 1.876900 0.000000 0.000000 
#    y 0.000000 1.873970 0.000000 
#    z 0.000000 0.000000 1.870650 
# 
# From -- ./inp_files/797.got.cif
#   From: 2010.05.17/outbox.cif.g08.bks.cpg/sg18_1_cif.got.tgz:797.got - 2010.06.03 22:40:56.
