data_PCOD9312874
_publ_section_title
;
Structure prediction by ZEFSAII (Michael W. Deem and Ramdas Pophale) SiO2 
 PCOD9312874
Probable space group: P 21 21 2
;
_chemical_formula_sum "Si O2"
_cell_formula_units_Z 20
_cell_length_a 5.637851
_cell_length_b 29.769124
_cell_length_c 4.588889
_cell_angle_alpha 90.000000
_cell_angle_beta 90.000000
_cell_angle_gamma 90.000000
_cell_volume 770.171071
_symmetry_space_group_name_H-M "P 21 21 2"
_symmetry_group_IT_number 18
_symmetry_cell_setting 'orthorhombic'
loop_
_space_group_symop_operation_xyz
x,y,z
-x,-y,z
1/2+x,1/2-y,-z
1/2-x,1/2+y,-z
loop_
_atom_site_type_symbol
_atom_site_label
_atom_site_fract_x
_atom_site_fract_y
_atom_site_fract_z
Si Si1 0.750000 0.837310 0.574648
Si Si2 0.500000 0.500000 0.354461
Si Si3 0.000796 0.089199 0.249266
Si Si4 0.500797 0.910801 0.249265
Si Si5 0.750000 0.774174 0.074062
Si Si6 0.500000 0.000000 0.645538
O O1 0.533629 0.868292 0.465174
O O2 0.750000 0.789694 0.407906
O O3 0.966373 0.868292 0.465174
O O4 0.750001 0.821618 0.903442
O O5 0.498920 0.455909 0.557246
O O6 0.750000 0.500866 0.186800
O O7 0.750000 0.093106 0.091340
O O8 0.249999 0.087742 0.076088
O O9 0.498921 0.955909 0.442753
O O10 0.500001 0.750000 1.000000
#
# Coordination Sequence:
#
# PCOD9312874 Si02
#       6
#     4   2   4   4   4   2
#     4  10  24  42  66  92 120 160 202 246 308 362
#     4   8  12  24  44  84 112 158 186 234 276 334
#     4   8  16  28  55  84 119 155 194 237 282 353
#     4   8  16  28  55  84 119 155 194 237 282 353
#     4  12  28  44  68  88 122 152 204 260 316 364
#     4   8  12  24  44  84 112 158 186 234 276 334
#
# _framework density 25.968257999999999
#
# number of rings (size 3 to 8) (size 9 to 14) (size 15 to 20)
#    1.200    1.600    0.000    1.200    5.600    0.000 
#    0.000    0.000    0.000    2.400    0.000    0.000 
#    0.000    0.000    0.000    0.000    0.000    0.000 
#
# Total GULP energy -111625.457407 kJ/mol
# GULP energy per Si atom -5581.272870 kJ/mol
# Density = 2.590915 g / cm^3
# Si number density = 25.968258 Si / 1000 Ang^3
#
#
#
# Elastic Constant Matrix: (Units=GPa)
#
#
# Indices 1 2 3 4 5 6 
#
# 1 307.8592 35.7633 17.9077 0.0000 0.0000 0.0000
# 2 35.7633 150.5733 22.9887 0.0000 0.0000 0.0000
# 3 17.9077 22.9887 55.4391 0.0000 0.0000 0.0000
# 4 0.0000 0.0000 0.0000 60.3038 0.0000 0.0000
# 5 0.0000 0.0000 0.0000 0.0000 6.5438 0.0000
# 6 0.0000 0.0000 0.0000 0.0000 0.0000 33.4333
#
#
#
# Elastic Compliance Matrix: (Units=1/GPa)
#
#
# Indices 1 2 3 4 5 6 
#
# 1 0.003374 -0.000678 -0.000809 0.000000 0.000000 0.000000
# 2 -0.000678 0.007226 -0.002778 0.000000 0.000000 0.000000
# 3 -0.000809 -0.002778 0.019451 0.000000 0.000000 0.000000
# 4 0.000000 0.000000 0.000000 0.016583 0.000000 0.000000
# 5 0.000000 0.000000 0.000000 0.000000 0.152817 0.000000
# 6 0.000000 0.000000 0.000000 0.000000 0.000000 0.029910
#
#
# Mechanical properties :
#
#
# Convention : Reuss Voigt Hill
#
# Bulk Modulus (GPa) = 46.46245 74.13233 60.29739
# Shear Modulus (GPa) = 20.40287 49.20364 34.80326
#
# Velocity S-wave (km/s) = 2.80605 4.35761 3.66488
# Velocity P-wave (km/s) = 5.33192 7.34354 6.41705
#
# Compressibility (1/GPa) = 0.02152276
#
# Stress axis : x y z
#
# Youngs Moduli (GPa) = 296.38117 138.38229 51.41179
#
# Poissons Ratio (x) = 0.09381 0.04158
# Poissons Ratio (y) = 0.20092 0.14280
# Poissons Ratio (z) = 0.23970 0.38436
#
# Static dielectric constant tensor:
#      x y z
#    x 2.117780 0.000000 0.000000 
#    y 0.000000 2.004620 0.000000 
#    z 0.000000 0.000000 1.901500 
# 
# From -- ./inp_files/301.got.cif
#   From: 2010.05.17/outbox.cif.g08.bks.cpg/sg18_1_cif.got.tgz:301.got - 2010.06.03 22:40:56.
