data_PCOD9312998
_publ_section_title
;
Structure prediction by ZEFSAII (Michael W. Deem and Ramdas Pophale) SiO2 
 PCOD9312998
Probable space group: P 21 21 2
;
_chemical_formula_sum "Si O2"
_cell_formula_units_Z 20
_cell_length_a 12.373515
_cell_length_b 11.583271
_cell_length_c 5.937042
_cell_angle_alpha 90.000000
_cell_angle_beta 90.000000
_cell_angle_gamma 90.000000
_cell_volume 850.931161
_symmetry_space_group_name_H-M "P 21 21 2"
_symmetry_group_IT_number 18
_symmetry_cell_setting 'orthorhombic'
loop_
_space_group_symop_operation_xyz
x,y,z
-x,-y,z
1/2+x,1/2-y,-z
1/2-x,1/2+y,-z
loop_
_atom_site_type_symbol
_atom_site_label
_atom_site_fract_x
_atom_site_fract_y
_atom_site_fract_z
Si Si1 0.000000 0.500000 0.883066
Si Si2 0.174203 0.058162 0.603518
Si Si3 0.026690 0.281934 0.605587
Si Si4 0.378452 0.151598 0.770157
Si Si5 0.378778 0.350237 0.073575
Si Si6 0.500000 0.500000 0.762387
O O1 0.911764 0.439501 0.040646
O O2 0.052628 0.399706 0.732808
O O3 0.298894 0.092495 0.591151
O O4 0.113175 0.180689 0.629901
O O5 0.106033 0.005900 0.395035
O O6 0.167328 0.965787 0.809624
O O7 0.988542 0.311705 0.354914
O O8 0.920547 0.227362 0.722483
O O9 0.324111 0.261593 0.897831
O O10 0.481665 0.394199 0.929591
#
# Coordination Sequence:
#
# PCOD9312998 Si02
#       6
#     2   4   4   4   4   2
#     4  10  26  46  68  92 148 184 228 282 352 408
#     4  12  24  42  74 104 134 182 236 288 341 422
#     4  11  22  48  65 102 138 179 234 287 343 418
#     4  11  26  45  70 102 144 187 230 292 350 409
#     4  11  22  45  70 102 132 181 232 287 347 407
#     4  12  20  44  72 102 138 172 234 292 340 400
#
# _framework density 23.503663
#
# number of rings (size 3 to 8) (size 9 to 14) (size 15 to 20)
#    0.000    0.800    6.000    0.600    2.800    3.200 
#   10.800    0.000    0.000    0.000    0.000    0.000 
#    0.000    0.000    0.000    0.000    0.000    0.000 
#
# Total GULP energy -111576.847842 kJ/mol
# GULP energy per Si atom -5578.842392 kJ/mol
# Density = 2.345017 g / cm^3
# Si number density = 23.503663 Si / 1000 Ang^3
#
#
#
# Elastic Constant Matrix: (Units=GPa)
#
#
# Indices 1 2 3 4 5 6 
#
# 1 32.0181 27.5770 2.4259 0.0000 0.0000 0.0000
# 2 27.5770 159.1078 58.5833 0.0000 0.0000 0.0000
# 3 2.4259 58.5833 73.4872 0.0000 0.0000 0.0000
# 4 0.0000 0.0000 0.0000 18.4331 0.0000 0.0000
# 5 0.0000 0.0000 0.0000 0.0000 9.5401 0.0000
# 6 0.0000 0.0000 0.0000 0.0000 0.0000 20.9973
#
#
#
# Elastic Compliance Matrix: (Units=1/GPa)
#
#
# Indices 1 2 3 4 5 6 
#
# 1 0.038332 -0.008745 0.005706 0.000000 0.000000 0.000000
# 2 -0.008745 0.010891 -0.008394 0.000000 0.000000 0.000000
# 3 0.005706 -0.008394 0.020111 0.000000 0.000000 0.000000
# 4 0.000000 0.000000 0.000000 0.054250 0.000000 0.000000
# 5 0.000000 0.000000 0.000000 0.000000 0.104820 0.000000
# 6 0.000000 0.000000 0.000000 0.000000 0.000000 0.047625
#
#
# Mechanical properties :
#
#
# Convention : Reuss Voigt Hill
#
# Bulk Modulus (GPa) = 21.51988 49.08729 35.30358
# Shear Modulus (GPa) = 15.90410 21.52923 18.71666
#
# Velocity S-wave (km/s) = 2.60410 3.02982 2.82499
# Velocity P-wave (km/s) = 4.26821 5.75935 5.06891
#
# Compressibility (1/GPa) = 0.04646867
#
# Stress axis : x y z
#
# Youngs Moduli (GPa) = 26.08803 91.81679 49.72436
#
# Poissons Ratio (x) = 0.80290 -0.28371
# Poissons Ratio (y) = 0.22813 0.41737
# Poissons Ratio (z) = -0.14885 0.77069
#
# Static dielectric constant tensor:
#      x y z
#    x 1.895170 0.000000 0.000000 
#    y 0.000000 1.921210 0.000000 
#    z 0.000000 0.000000 1.861520 
# 
# From -- ./inp_files/999.got.cif
#   From: 2010.05.17/outbox.cif.g08.bks.cpg/sg18_1_cif.got.tgz:999.got - 2010.06.03 22:40:56.
