data_PCOD9312932
_publ_section_title
;
Structure prediction by ZEFSAII (Michael W. Deem and Ramdas Pophale) SiO2 
 PCOD9312932
Probable space group: P 21 21 2
;
_chemical_formula_sum "Si O2"
_cell_formula_units_Z 32
_cell_length_a 5.881672
_cell_length_b 23.722022
_cell_length_c 10.961556
_cell_angle_alpha 90.000000
_cell_angle_beta 90.000000
_cell_angle_gamma 90.000000
_cell_volume 1529.412773
_symmetry_space_group_name_H-M "P 21 21 2"
_symmetry_group_IT_number 18
_symmetry_cell_setting 'orthorhombic'
loop_
_space_group_symop_operation_xyz
x,y,z
-x,-y,z
1/2+x,1/2-y,-z
1/2-x,1/2+y,-z
loop_
_atom_site_type_symbol
_atom_site_label
_atom_site_fract_x
_atom_site_fract_y
_atom_site_fract_z
Si Si1 0.001100 0.930951 0.680501
Si Si2 0.960621 0.841966 0.469324
Si Si3 0.998746 0.436957 0.216319
Si Si4 0.662312 0.835592 0.236547
Si Si5 0.702584 0.241641 0.356231
Si Si6 0.475798 0.322093 0.974462
Si Si7 0.079685 0.389300 0.977060
Si Si8 0.843017 0.291233 0.126322
O O1 0.000236 0.895580 0.554769
O O2 0.751433 0.914837 0.740384
O O3 0.247353 0.914808 0.743691
O O4 0.000000 0.000000 0.670789
O O5 0.790249 0.855164 0.358023
O O6 0.865134 0.788747 0.546875
O O7 0.187466 0.814233 0.413215
O O8 0.000000 0.500000 0.265474
O O9 0.001129 0.436987 0.068498
O O10 0.503762 0.783268 0.275823
O O11 0.843938 0.817998 0.134786
O O12 0.523168 0.881464 0.156926
O O13 0.876246 0.273158 0.264587
O O14 0.331539 0.266409 0.950035
O O15 0.346196 0.380539 0.961812
O O16 0.597303 0.318472 0.103377
O O17 0.010793 0.335329 0.063789
#
# Coordination Sequence:
#
# PCOD9312932 Si02
#       8
#     4   4   4   4   4   4   4   4
#     4  10  25  49  76 102 132 176 238 293 339 407
#     4  12  25  40  67  92 137 182 228 282 350 411
#     4  10  24  47  74 104 129 165 229 300 350 400
#     4  11  23  39  55  88 136 167 226 260 338 408
#     4  12  24  38  56  93 130 177 216 280 337 416
#     4  11  20  34  54  84 122 171 204 264 312 405
#     4  11  23  36  65  89 127 175 209 272 346 407
#     4  11  20  33  53  85 126 161 216 253 326 394
#
# _framework density 20.923061000000001
#
# number of rings (size 3 to 8) (size 9 to 14) (size 15 to 20)
#    0.000    1.000    5.000    1.500    7.000    1.000 
#    0.000    0.000    5.500    0.000    0.000    0.000 
#    0.000    0.000    0.000    0.000    0.000    0.000 
#
# Total GULP energy -178149.142743 kJ/mol
# GULP energy per Si atom -5567.160711 kJ/mol
# Density = 2.087544 g / cm^3
# Si number density = 20.923061 Si / 1000 Ang^3
#
#
#
# Elastic Constant Matrix: (Units=GPa)
#
#
# Indices 1 2 3 4 5 6 
#
# 1 95.1562 30.8929 39.9279 0.0000 0.0000 0.0000
# 2 30.8929 57.0713 35.8835 0.0000 0.0000 0.0000
# 3 39.9279 35.8835 110.3555 0.0000 0.0000 0.0000
# 4 0.0000 0.0000 0.0000 28.3074 0.0000 0.0000
# 5 0.0000 0.0000 0.0000 0.0000 41.8115 0.0000
# 6 0.0000 0.0000 0.0000 0.0000 0.0000 16.3936
#
#
#
# Elastic Compliance Matrix: (Units=1/GPa)
#
#
# Indices 1 2 3 4 5 6 
#
# 1 0.013579 -0.005356 -0.003171 0.000000 0.000000 0.000000
# 2 -0.005356 0.024138 -0.005911 0.000000 0.000000 0.000000
# 3 -0.003171 -0.005911 0.012131 0.000000 0.000000 0.000000
# 4 0.000000 0.000000 0.000000 0.035326 0.000000 0.000000
# 5 0.000000 0.000000 0.000000 0.000000 0.023917 0.000000
# 6 0.000000 0.000000 0.000000 0.000000 0.000000 0.060999
#
#
# Mechanical properties :
#
#
# Convention : Reuss Voigt Hill
#
# Bulk Modulus (GPa) = 47.68533 52.88798 50.28666
# Shear Modulus (GPa) = 24.27697 27.69443 25.98570
#
# Velocity S-wave (km/s) = 3.41001 3.64212 3.52798
# Velocity P-wave (km/s) = 6.19229 6.55889 6.37822
#
# Compressibility (1/GPa) = 0.02097081
#
# Stress axis : x y z
#
# Youngs Moduli (GPa) = 73.64514 41.42909 82.43367
#
# Poissons Ratio (x) = 0.22190 0.26142
# Poissons Ratio (y) = 0.39446 0.48724
# Poissons Ratio (z) = 0.23355 0.24488
#
# Static dielectric constant tensor:
#      x y z
#    x 1.921480 0.000000 0.000000 
#    y 0.000000 1.776570 0.000000 
#    z 0.000000 0.000000 1.767940 
# 
# From -- ./inp_files/5285.got.cif
#   From: 2010.05.17/outbox.cif.g08.bks.cpg/sg18_3_cif.got.tgz:5285.got - 2010.06.03 22:40:56.
