data_PCOD9312842
_publ_section_title
;
Structure prediction by ZEFSAII (Michael W. Deem and Ramdas Pophale) SiO2 
 PCOD9312842
Probable space group: P 21 21 2
;
_chemical_formula_sum "Si O2"
_cell_formula_units_Z 20
_cell_length_a 5.006123
_cell_length_b 17.588615
_cell_length_c 9.138433
_cell_angle_alpha 90.000000
_cell_angle_beta 90.000000
_cell_angle_gamma 90.000000
_cell_volume 804.646063
_symmetry_space_group_name_H-M "P 21 21 2"
_symmetry_group_IT_number 18
_symmetry_cell_setting 'orthorhombic'
loop_
_space_group_symop_operation_xyz
x,y,z
-x,-y,z
1/2+x,1/2-y,-z
1/2-x,1/2+y,-z
loop_
_atom_site_type_symbol
_atom_site_label
_atom_site_fract_x
_atom_site_fract_y
_atom_site_fract_z
Si Si1 0.133558 0.332770 0.889213
Si Si2 0.989400 0.909109 0.325522
Si Si3 0.254014 0.051287 0.994476
Si Si4 0.489545 0.908025 0.527622
Si Si5 0.845238 0.319145 0.190442
O O1 0.404754 0.369844 0.824515
O O2 0.065784 0.308074 0.058119
O O3 0.154374 0.253761 0.802346
O O4 0.914927 0.401211 0.879318
O O5 0.217521 0.891511 0.444301
O O6 0.721644 0.889435 0.411358
O O7 0.000000 0.000000 0.307547
O O8 0.500000 0.000000 0.936266
O O9 0.171954 0.111873 0.873323
O O10 0.000000 0.000000 0.018156
O O11 0.524863 0.852361 0.664838
O O12 0.500000 0.000000 0.561468
#
# Coordination Sequence:
#
# PCOD9312842 Si02
#       5
#     4   4   4   4   4
#     4  10  26  46  73 116 162 202 264 342 413 485
#     4  10  24  48  74 109 157 208 268 322 399 487
#     4  10  25  44  72 106 150 201 258 319 403 474
#     4  10  23  46  76 111 151 210 268 326 387 491
#     4  10  25  46  74 115 161 202 269 340 415 479
#
# _framework density 24.855647999999999
#
# number of rings (size 3 to 8) (size 9 to 14) (size 15 to 20)
#    1.200    0.800    0.000    0.600    2.800   13.600 
#    0.000    3.000    0.000    0.000    0.000    0.000 
#    0.000    0.000    0.000    0.000    0.000    0.000 
#
# Total GULP energy -111500.907571 kJ/mol
# GULP energy per Si atom -5575.045379 kJ/mol
# Density = 2.479908 g / cm^3
# Si number density = 24.855648 Si / 1000 Ang^3
#
#
#
# Elastic Constant Matrix: (Units=GPa)
#
#
# Indices 1 2 3 4 5 6 
#
# 1 81.0186 32.5859 -0.4193 0.0000 0.0000 0.0000
# 2 32.5859 140.5946 13.7395 0.0000 0.0000 0.0000
# 3 -0.4193 13.7395 86.0550 0.0000 0.0000 0.0000
# 4 0.0000 0.0000 0.0000 47.0701 0.0000 0.0000
# 5 0.0000 0.0000 0.0000 0.0000 4.8158 0.0000
# 6 0.0000 0.0000 0.0000 0.0000 0.0000 36.8331
#
#
#
# Elastic Compliance Matrix: (Units=1/GPa)
#
#
# Indices 1 2 3 4 5 6 
#
# 1 0.013640 -0.003218 0.000580 0.000000 0.000000 0.000000
# 2 -0.003218 0.007985 -0.001291 0.000000 0.000000 0.000000
# 3 0.000580 -0.001291 0.011829 0.000000 0.000000 0.000000
# 4 0.000000 0.000000 0.000000 0.021245 0.000000 0.000000
# 5 0.000000 0.000000 0.000000 0.000000 0.207652 0.000000
# 6 0.000000 0.000000 0.000000 0.000000 0.000000 0.027150
#
#
# Mechanical properties :
#
#
# Convention : Reuss Voigt Hill
#
# Bulk Modulus (GPa) = 39.06641 44.38671 41.72656
# Shear Modulus (GPa) = 16.34577 35.19457 25.77017
#
# Velocity S-wave (km/s) = 2.56721 3.76701 3.22342
# Velocity P-wave (km/s) = 4.95367 6.06770 5.53877
#
# Compressibility (1/GPa) = 0.02559744
#
# Stress axis : x y z
#
# Youngs Moduli (GPa) = 73.31275 125.24051 84.53557
#
# Poissons Ratio (x) = 0.40304 -0.04905
# Poissons Ratio (y) = 0.23593 0.10909
# Poissons Ratio (z) = -0.04254 0.16162
#
# Static dielectric constant tensor:
#      x y z
#    x 1.724240 0.000000 0.000000 
#    y 0.000000 -2.128770 0.000000 
#    z 0.000000 0.000000 2.044230 
# 
# From -- ./inp_files/2471.got.cif
#   From: 2010.05.17/outbox.cif.g08.bks.cpg/sg18_2_cif.got.tgz:2471.got - 2010.06.03 22:40:56.
