data_PCOD9312511
_publ_section_title
;
Structure prediction by ZEFSAII (Michael W. Deem and Ramdas Pophale) SiO2 
 PCOD9312511
Probable space group: P 21 21 2
;
_chemical_formula_sum "Si O2"
_cell_formula_units_Z 28
_cell_length_a 13.043674
_cell_length_b 21.447649
_cell_length_c 5.069556
_cell_angle_alpha 90.000000
_cell_angle_beta 90.000000
_cell_angle_gamma 90.000000
_cell_volume 1418.239426
_symmetry_space_group_name_H-M "P 21 21 2"
_symmetry_group_IT_number 18
_symmetry_cell_setting 'orthorhombic'
loop_
_space_group_symop_operation_xyz
x,y,z
-x,-y,z
1/2+x,1/2-y,-z
1/2-x,1/2+y,-z
loop_
_atom_site_type_symbol
_atom_site_label
_atom_site_fract_x
_atom_site_fract_y
_atom_site_fract_z
Si Si1 0.668283 0.567704 0.726539
Si Si2 0.810035 0.985790 0.763588
Si Si3 0.767131 0.871423 0.062217
Si Si4 0.055069 0.097803 0.461476
Si Si5 0.911990 0.778261 0.733763
Si Si6 0.121731 0.735594 0.931061
Si Si7 0.220255 0.793960 0.435604
O O1 0.713725 0.521571 0.505229
O O2 0.545776 0.573523 0.679769
O O3 0.713112 0.635859 0.669861
O O4 0.683495 0.537718 0.011203
O O5 0.915471 0.947597 0.702743
O O6 0.740924 0.928698 0.869073
O O7 0.841408 0.898543 0.287879
O O8 0.668295 0.831882 0.143582
O O9 0.839347 0.819832 0.921736
O O10 0.036727 0.168536 0.552590
O O11 0.835312 0.733074 0.579586
O O12 0.001249 0.742753 0.885685
O O13 0.177398 0.783505 0.729048
O O14 0.153010 0.753145 0.228619
#
# Coordination Sequence:
#
# PCOD9312511 Si02
#       7
#     4   4   4   4   4   4   4
#     4  12  24  36  56  85 125 156 190 237 296 355
#     4  11  25  36  54  85 118 163 195 232 291 358
#     4  10  22  39  60  88 122 154 197 243 290 354
#     4  11  21  35  58  86 123 152 191 239 296 358
#     4  10  22  38  63  91 120 153 199 246 296 357
#     4  11  22  40  62  88 120 158 194 245 301 346
#     4  11  23  39  59  91 121 158 193 245 299 350
#
# _framework density 19.742788000000001
#
# number of rings (size 3 to 8) (size 9 to 14) (size 15 to 20)
#    0.000    1.143    4.286    2.143    6.000    0.000 
#    0.000    0.000    0.000    0.857    3.714    0.000 
#    0.000    0.000    0.000    0.000    0.000    0.000 
#
# Total GULP energy -156344.177919 kJ/mol
# GULP energy per Si atom -5583.720640 kJ/mol
# Density = 1.969785 g / cm^3
# Si number density = 19.742788 Si / 1000 Ang^3
#
#
#
# Elastic Constant Matrix: (Units=GPa)
#
#
# Indices 1 2 3 4 5 6 
#
# 1 28.1486 7.2964 -14.6669 0.0000 0.0000 0.0000
# 2 7.2964 92.9053 2.4066 0.0000 0.0000 0.0000
# 3 -14.6669 2.4066 59.7771 0.0000 0.0000 0.0000
# 4 0.0000 0.0000 0.0000 36.2012 0.0000 0.0000
# 5 0.0000 0.0000 0.0000 0.0000 15.1310 0.0000
# 6 0.0000 0.0000 0.0000 0.0000 0.0000 18.2602
#
#
#
# Elastic Compliance Matrix: (Units=1/GPa)
#
#
# Indices 1 2 3 4 5 6 
#
# 1 0.041877 -0.003559 0.010418 0.000000 0.000000 0.000000
# 2 -0.003559 0.011077 -0.001319 0.000000 0.000000 0.000000
# 3 0.010418 -0.001319 0.019338 0.000000 0.000000 0.000000
# 4 0.000000 0.000000 0.000000 0.027623 0.000000 0.000000
# 5 0.000000 0.000000 0.000000 0.000000 0.066090 0.000000
# 6 0.000000 0.000000 0.000000 0.000000 0.000000 0.054764
#
#
# Mechanical properties :
#
#
# Convention : Reuss Voigt Hill
#
# Bulk Modulus (GPa) = 11.99435 18.98925 15.49180
# Shear Modulus (GPa) = 21.05449 26.30481 23.67965
#
# Velocity S-wave (km/s) = 3.26918 3.65413 3.46700
# Velocity P-wave (km/s) = 4.50983 5.23859 4.88781
#
# Compressibility (1/GPa) = 0.08337256
#
# Stress axis : x y z
#
# Youngs Moduli (GPa) = 23.87967 90.27461 51.71141
#
# Poissons Ratio (x) = 0.32126 -0.53873
# Poissons Ratio (y) = 0.08498 0.06821
# Poissons Ratio (z) = -0.24878 0.11908
#
# Static dielectric constant tensor:
#      x y z
#    x 1.678370 0.000000 0.000000 
#    y 0.000000 1.742340 0.000000 
#    z 0.000000 0.000000 1.755230 
# 
# From -- ./inp_files/1232.got.cif
#   From: 2010.05.17/outbox.cif.g08.bks.cpg/sg18_1_cif.got.tgz:1232.got - 2010.06.03 22:40:56.
