data_PCOD9312702
_publ_section_title
;
Structure prediction by ZEFSAII (Michael W. Deem and Ramdas Pophale) SiO2 
 PCOD9312702
Probable space group: P 21 21 2
;
_chemical_formula_sum "Si O2"
_cell_formula_units_Z 16
_cell_length_a 18.625987
_cell_length_b 5.621215
_cell_length_c 5.056554
_cell_angle_alpha 90.000000
_cell_angle_beta 90.000000
_cell_angle_gamma 90.000000
_cell_volume 529.424630
_symmetry_space_group_name_H-M "P 21 21 2"
_symmetry_group_IT_number 18
_symmetry_cell_setting 'orthorhombic'
loop_
_space_group_symop_operation_xyz
x,y,z
-x,-y,z
1/2+x,1/2-y,-z
1/2-x,1/2+y,-z
loop_
_atom_site_type_symbol
_atom_site_label
_atom_site_fract_x
_atom_site_fract_y
_atom_site_fract_z
Si Si1 0.972771 0.245763 0.664947
Si Si2 0.276450 0.452307 0.871470
Si Si3 0.093988 0.226546 0.036784
Si Si4 0.846898 0.512746 0.533084
O O1 0.009943 0.237066 0.958299
O O2 0.000000 0.500000 0.554448
O O3 0.888157 0.276760 0.631734
O O4 0.000000 0.000000 0.539114
O O5 0.237740 0.479726 0.586089
O O6 0.255887 0.192229 0.985439
O O7 0.361777 0.494340 0.876169
O O8 0.124328 0.296590 0.747659
O O9 0.124254 0.413483 0.248209
#
# Coordination Sequence:
#
# PCOD9312702 Si02
#       4
#     4   4   4   4
#     4  10  22  44  68 100 138 182 230 280 342 410
#     4  10  22  44  70 104 142 182 232 286 348 414
#     4  10  23  43  69 101 140 183 229 284 345 412
#     4  10  23  43  69 101 140 183 229 284 345 412
#
# _framework density 30.221487
#
# number of rings (size 3 to 8) (size 9 to 14) (size 15 to 20)
#    0.000    2.000    0.000    1.500    0.000   17.000 
#    0.000   40.000    0.000    0.000    0.000    0.000 
#    0.000    0.000    0.000    0.000    0.000    0.000 
#
# Total GULP energy -89365.060727 kJ/mol
# GULP energy per Si atom -5585.316295 kJ/mol
# Density = 3.015270 g / cm^3
# Si number density = 30.221487 Si / 1000 Ang^3
#
#
#
# Elastic Constant Matrix: (Units=GPa)
#
#
# Indices 1 2 3 4 5 6 
#
# 1 110.2659 28.6973 69.9350 0.0000 0.0000 0.0000
# 2 28.6973 215.1894 67.0615 0.0000 0.0000 0.0000
# 3 69.9350 67.0615 116.4466 0.0000 0.0000 0.0000
# 4 0.0000 0.0000 0.0000 55.3199 0.0000 0.0000
# 5 0.0000 0.0000 0.0000 0.0000 41.7615 0.0000
# 6 0.0000 0.0000 0.0000 0.0000 0.0000 54.0146
#
#
#
# Elastic Compliance Matrix: (Units=1/GPa)
#
#
# Indices 1 2 3 4 5 6 
#
# 1 0.014814 0.000971 -0.009456 0.000000 0.000000 0.000000
# 2 0.000971 0.005727 -0.003882 0.000000 0.000000 0.000000
# 3 -0.009456 -0.003882 0.016502 0.000000 0.000000 0.000000
# 4 0.000000 0.000000 0.000000 0.018077 0.000000 0.000000
# 5 0.000000 0.000000 0.000000 0.000000 0.023946 0.000000
# 6 0.000000 0.000000 0.000000 0.000000 0.000000 0.018514
#
#
# Mechanical properties :
#
#
# Convention : Reuss Voigt Hill
#
# Bulk Modulus (GPa) = 81.23353 85.92107 83.57730
# Shear Modulus (GPa) = 39.55226 48.63306 44.09266
#
# Velocity S-wave (km/s) = 3.62158 4.01586 3.82381
# Velocity P-wave (km/s) = 6.66525 7.07072 6.87098
#
# Compressibility (1/GPa) = 0.01231019
#
# Stress axis : x y z
#
# Youngs Moduli (GPa) = 67.50543 174.60496 60.59795
#
# Poissons Ratio (x) = -0.16961 0.57302
# Poissons Ratio (y) = -0.06557 0.23522
# Poissons Ratio (z) = 0.63834 0.67776
#
# Static dielectric constant tensor:
#      x y z
#    x 2.669010 0.000000 0.000000 
#    y 0.000000 2.393560 0.000000 
#    z 0.000000 0.000000 2.315090 
# 
# From -- ./inp_files/2048.got.cif
#   From: 2010.05.17/outbox.cif.g08.bks.cpg/sg18_2_cif.got.tgz:2048.got - 2010.06.03 22:40:56.
