data_PCOD9312117
_publ_section_title
;
Structure prediction by ZEFSAII (Michael W. Deem and Ramdas Pophale) SiO2 
 PCOD9312117
Probable space group: P 21 21 2
;
_chemical_formula_sum "Si O2"
_cell_formula_units_Z 30
_cell_length_a 10.878344
_cell_length_b 8.437618
_cell_length_c 16.828619
_cell_angle_alpha 90.000000
_cell_angle_beta 90.000000
_cell_angle_gamma 90.000000
_cell_volume 1544.653688
_symmetry_space_group_name_H-M "P 21 21 2"
_symmetry_group_IT_number 18
_symmetry_cell_setting 'orthorhombic'
loop_
_space_group_symop_operation_xyz
x,y,z
-x,-y,z
1/2+x,1/2-y,-z
1/2-x,1/2+y,-z
loop_
_atom_site_type_symbol
_atom_site_label
_atom_site_fract_x
_atom_site_fract_y
_atom_site_fract_z
Si Si1 0.645148 0.022805 0.740160
Si Si2 0.270610 0.308035 0.112349
Si Si3 0.758945 0.164071 0.580658
Si Si4 0.130845 0.073289 0.004396
Si Si5 0.333317 0.755308 0.277958
Si Si6 0.000000 0.000000 0.636006
Si Si7 0.147094 0.480429 0.576545
Si Si8 0.033369 0.326364 0.878771
O O1 0.692024 0.116825 0.817301
O O2 0.688043 0.114382 0.660740
O O3 0.500000 0.000000 0.741274
O O4 0.716462 0.854948 0.739234
O O5 0.294852 0.438604 0.043394
O O6 0.405341 0.259426 0.143079
O O7 0.206244 0.154750 0.074454
O O8 0.789289 0.348863 0.577535
O O9 0.683805 0.109210 0.503959
O O10 0.889654 0.072688 0.584793
O O11 0.098079 0.212977 0.942242
O O12 0.000000 0.000000 0.030597
O O13 0.439440 0.635763 0.309596
O O14 0.310370 0.878668 0.347978
O O15 0.382690 0.838719 0.198953
O O16 0.000000 0.500000 0.581401
O O17 0.000000 0.500000 0.910682
#
# Coordination Sequence:
#
# PCOD9312117 Si02
#       8
#     4   4   4   4   4   2   4   4
#     4  11  25  45  66  93 135 180 217 279 342 406
#     4  11  23  43  67  98 135 177 226 280 338 406
#     4  11  24  43  66  98 133 173 224 271 338 391
#     4  10  23  42  65 100 135 176 225 277 342 406
#     4  11  22  42  67  99 130 172 227 274 331 392
#     4  10  20  38  66  94 128 172 214 274 322 386
#     4  12  25  43  69 101 133 175 224 280 326 402
#     4  11  22  38  69  98 130 172 224 280 331 401
#
# _framework density 19.42183
#
# number of rings (size 3 to 8) (size 9 to 14) (size 15 to 20)
#    0.000    1.067    2.667    4.800    2.800    2.667 
#    2.400    0.000    0.000    0.000    0.000    0.000 
#    0.000    0.000    0.000    0.000    0.000    0.000 
#
# Total GULP energy -167811.148172 kJ/mol
# GULP energy per Si atom -5593.704939 kJ/mol
# Density = 1.937763 g / cm^3
# Si number density = 19.421830 Si / 1000 Ang^3
#
#
#
# Elastic Constant Matrix: (Units=GPa)
#
#
# Indices 1 2 3 4 5 6 
#
# 1 102.4291 31.2794 58.6170 0.0000 0.0000 0.0000
# 2 31.2794 93.3557 29.3788 0.0000 0.0000 0.0000
# 3 58.6170 29.3788 89.2154 0.0000 0.0000 0.0000
# 4 0.0000 0.0000 0.0000 32.9693 0.0000 0.0000
# 5 0.0000 0.0000 0.0000 0.0000 18.7637 0.0000
# 6 0.0000 0.0000 0.0000 0.0000 0.0000 32.7842
#
#
#
# Elastic Compliance Matrix: (Units=1/GPa)
#
#
# Indices 1 2 3 4 5 6 
#
# 1 0.016077 -0.002301 -0.009805 0.000000 0.000000 0.000000
# 2 -0.002301 0.012279 -0.002532 0.000000 0.000000 0.000000
# 3 -0.009805 -0.002532 0.018485 0.000000 0.000000 0.000000
# 4 0.000000 0.000000 0.000000 0.030331 0.000000 0.000000
# 5 0.000000 0.000000 0.000000 0.000000 0.053294 0.000000
# 6 0.000000 0.000000 0.000000 0.000000 0.000000 0.030502
#
#
# Mechanical properties :
#
#
# Convention : Reuss Voigt Hill
#
# Bulk Modulus (GPa) = 56.93112 58.17227 57.55169
# Shear Modulus (GPa) = 25.49720 27.95177 26.72448
#
# Velocity S-wave (km/s) = 3.62720 3.79779 3.71347
# Velocity P-wave (km/s) = 6.84973 7.01769 6.93421
#
# Compressibility (1/GPa) = 0.01756509
#
# Stress axis : x y z
#
# Youngs Moduli (GPa) = 62.20195 81.43696 54.09850
#
# Poissons Ratio (x) = 0.18738 0.53044
# Poissons Ratio (y) = 0.14312 0.13697
# Poissons Ratio (z) = 0.60990 0.20619
#
# Static dielectric constant tensor:
#      x y z
#    x 1.659000 0.000000 0.000000 
#    y 0.000000 1.674640 0.000000 
#    z 0.000000 0.000000 1.650080 
# 
# From -- ./inp_files/6884.got.cif
#   From: 2010.05.17/outbox.cif.g08.bks.cpg/sg18_4_cif.got.tgz:6884.got - 2010.06.03 22:40:56.
