data_PCOD9312102
_publ_section_title
;
Structure prediction by ZEFSAII (Michael W. Deem and Ramdas Pophale) SiO2 
 PCOD9312102
Probable space group: P 21 21 2
;
_chemical_formula_sum "Si O2"
_cell_formula_units_Z 26
_cell_length_a 8.590630
_cell_length_b 9.677269
_cell_length_c 15.222716
_cell_angle_alpha 90.000000
_cell_angle_beta 90.000000
_cell_angle_gamma 90.000000
_cell_volume 1265.522797
_symmetry_space_group_name_H-M "P 21 21 2"
_symmetry_group_IT_number 18
_symmetry_cell_setting 'orthorhombic'
loop_
_space_group_symop_operation_xyz
x,y,z
-x,-y,z
1/2+x,1/2-y,-z
1/2-x,1/2+y,-z
loop_
_atom_site_type_symbol
_atom_site_label
_atom_site_fract_x
_atom_site_fract_y
_atom_site_fract_z
Si Si1 0.912709 0.645148 0.032231
Si Si2 0.544502 0.360662 0.831857
Si Si3 0.500000 0.000000 0.573656
Si Si4 0.256786 0.027391 0.419897
Si Si5 0.610412 0.875805 0.238016
Si Si6 0.461446 0.303355 0.635555
Si Si7 0.059177 0.845782 0.893179
O O1 0.989558 0.724409 0.114676
O O2 0.730244 0.644321 0.059800
O O3 0.000000 0.500000 0.018962
O O4 0.949319 0.745950 0.951100
O O5 0.500000 0.500000 0.882122
O O6 0.725024 0.383692 0.810963
O O7 0.466988 0.349767 0.736787
O O8 0.352833 0.017461 0.508652
O O9 0.493903 0.141106 0.628627
O O10 0.357573 0.095777 0.340908
O O11 0.101606 0.121600 0.417526
O O12 0.197935 0.871794 0.398442
O O13 0.557133 0.726709 0.203326
O O14 0.500000 0.000000 0.208175
O O15 0.000000 0.000000 0.886964
#
# Coordination Sequence:
#
# PCOD9312102 Si02
#       7
#     4   4   2   4   4   4   4
#     4  11  24  40  63  92 124 161 210 258 310 374
#     4  10  20  39  62  83 117 163 202 242 301 373
#     4  12  22  34  64  92 118 152 202 258 308 364
#     4  10  20  41  60  86 120 161 200 243 310 374
#     4  10  20  38  63  84 117 160 202 245 304 361
#     4  10  21  39  60  87 122 159 201 253 303 373
#     4  11  24  42  61  92 126 162 207 262 314 370
#
# _framework density 20.544868000000001
#
# number of rings (size 3 to 8) (size 9 to 14) (size 15 to 20)
#    0.000    1.538    3.846    2.769    1.077    4.923 
#    0.000    0.000    3.385    0.000    0.000    0.000 
#    0.000    0.000    0.000    0.000    0.000    0.000 
#
# Total GULP energy -144986.251208 kJ/mol
# GULP energy per Si atom -5576.394277 kJ/mol
# Density = 2.049811 g / cm^3
# Si number density = 20.544868 Si / 1000 Ang^3
#
#
#
# Elastic Constant Matrix: (Units=GPa)
#
#
# Indices 1 2 3 4 5 6 
#
# 1 23.1343 19.5014 10.2273 0.0000 0.0000 0.0000
# 2 19.5014 181.4781 35.9426 0.0000 0.0000 0.0000
# 3 10.2273 35.9426 48.3123 0.0000 0.0000 0.0000
# 4 0.0000 0.0000 0.0000 13.1957 0.0000 0.0000
# 5 0.0000 0.0000 0.0000 0.0000 12.1244 0.0000
# 6 0.0000 0.0000 0.0000 0.0000 0.0000 32.2545
#
#
#
# Elastic Compliance Matrix: (Units=1/GPa)
#
#
# Indices 1 2 3 4 5 6 
#
# 1 0.049862 -0.003832 -0.007704 0.000000 0.000000 0.000000
# 2 -0.003832 0.006757 -0.004216 0.000000 0.000000 0.000000
# 3 -0.007704 -0.004216 0.025466 0.000000 0.000000 0.000000
# 4 0.000000 0.000000 0.000000 0.075782 0.000000 0.000000
# 5 0.000000 0.000000 0.000000 0.000000 0.082479 0.000000
# 6 0.000000 0.000000 0.000000 0.000000 0.000000 0.031003
#
#
# Mechanical properties :
#
#
# Convention : Reuss Voigt Hill
#
# Bulk Modulus (GPa) = 19.77048 42.69638 31.23343
# Shear Modulus (GPa) = 15.63897 23.99847 19.81872
#
# Velocity S-wave (km/s) = 2.76200 3.42146 3.10926
# Velocity P-wave (km/s) = 4.45146 6.03619 5.30335
#
# Compressibility (1/GPa) = 0.05058047
#
# Stress axis : x y z
#
# Youngs Moduli (GPa) = 20.05527 147.99323 39.26806
#
# Poissons Ratio (x) = 0.56714 0.30254
# Poissons Ratio (y) = 0.07686 0.16554
# Poissons Ratio (z) = 0.15451 0.62390
#
# Static dielectric constant tensor:
#      x y z
#    x 1.773850 0.000000 0.000000 
#    y 0.000000 1.737100 0.000000 
#    z 0.000000 0.000000 1.744160 
# 
# From -- ./inp_files/7324.got.cif
#   From: 2010.05.17/outbox.cif.g08.bks.cpg/sg18_4_cif.got.tgz:7324.got - 2010.06.03 22:40:56.
