data_PCOD9312942
_publ_section_title
;
Structure prediction by ZEFSAII (Michael W. Deem and Ramdas Pophale) SiO2 
 PCOD9312942
Probable space group: P 21 21 2
;
_chemical_formula_sum "Si O2"
_cell_formula_units_Z 18
_cell_length_a 29.114487
_cell_length_b 5.148878
_cell_length_c 4.762488
_cell_angle_alpha 90.000000
_cell_angle_beta 90.000000
_cell_angle_gamma 90.000000
_cell_volume 713.930010
_symmetry_space_group_name_H-M "P 21 21 2"
_symmetry_group_IT_number 18
_symmetry_cell_setting 'orthorhombic'
loop_
_space_group_symop_operation_xyz
x,y,z
-x,-y,z
1/2+x,1/2-y,-z
1/2-x,1/2+y,-z
loop_
_atom_site_type_symbol
_atom_site_label
_atom_site_fract_x
_atom_site_fract_y
_atom_site_fract_z
Si Si1 0.000000 0.500000 0.629966
Si Si2 0.824044 0.876251 0.611113
Si Si3 0.613478 0.275301 0.894346
Si Si4 0.052172 0.716629 0.092926
Si Si5 0.255903 0.266463 0.198306
O O1 0.035305 0.622006 0.399993
O O2 0.010116 0.715043 0.873696
O O3 0.867785 0.812720 0.419926
O O4 0.753717 0.485359 0.998076
O O5 0.805389 0.170606 0.658856
O O6 0.841255 0.795935 0.915804
O O7 0.578894 0.515091 0.926172
O O8 0.718797 0.250016 0.552286
O O9 0.588109 0.012227 0.979021
#
# Coordination Sequence:
#
# PCOD9312942 Si02
#       5
#     2   4   4   4   4
#     4  10  24  48  78 100 148 180 240 284 358 468
#     4  12  28  48  73 105 150 196 250 313 357 440
#     4  12  28  45  73 108 149 182 243 306 373 419
#     4  11  26  46  73 110 137 192 229 296 371 438
#     4  12  28  50  74 108 144 210 262 308 370 438
#
# _framework density 25.212553
#
# number of rings (size 3 to 8) (size 9 to 14) (size 15 to 20)
#    0.000    0.444    2.222    4.000    3.111    8.889 
#    0.000    0.000    0.000    0.000    0.000    0.000 
#    0.000    0.000    0.000    0.000    0.000    0.000 
#
# Total GULP energy -100413.208168 kJ/mol
# GULP energy per Si atom -5578.511565 kJ/mol
# Density = 2.515517 g / cm^3
# Si number density = 25.212553 Si / 1000 Ang^3
#
#
#
# Elastic Constant Matrix: (Units=GPa)
#
#
# Indices 1 2 3 4 5 6 
#
# 1 73.0430 33.3195 14.6105 0.0000 0.0000 0.0000
# 2 33.3195 126.9938 25.7773 0.0000 0.0000 0.0000
# 3 14.6105 25.7773 126.6334 0.0000 0.0000 0.0000
# 4 0.0000 0.0000 0.0000 22.4022 0.0000 0.0000
# 5 0.0000 0.0000 0.0000 0.0000 66.1396 0.0000
# 6 0.0000 0.0000 0.0000 0.0000 0.0000 58.1904
#
#
#
# Elastic Compliance Matrix: (Units=1/GPa)
#
#
# Indices 1 2 3 4 5 6 
#
# 1 0.015676 -0.003907 -0.001013 0.000000 0.000000 0.000000
# 2 -0.003907 0.009188 -0.001419 0.000000 0.000000 0.000000
# 3 -0.001013 -0.001419 0.008303 0.000000 0.000000 0.000000
# 4 0.000000 0.000000 0.000000 0.044639 0.000000 0.000000
# 5 0.000000 0.000000 0.000000 0.000000 0.015120 0.000000
# 6 0.000000 0.000000 0.000000 0.000000 0.000000 0.017185
#
#
# Mechanical properties :
#
#
# Convention : Reuss Voigt Hill
#
# Bulk Modulus (GPa) = 48.81337 52.67608 50.74473
# Shear Modulus (GPa) = 38.57512 46.21062 42.39287
#
# Velocity S-wave (km/s) = 3.91576 4.28581 4.10496
# Velocity P-wave (km/s) = 6.31245 6.74011 6.52978
#
# Compressibility (1/GPa) = 0.02048619
#
# Stress axis : x y z
#
# Youngs Moduli (GPa) = 63.79363 108.84188 120.44343
#
# Poissons Ratio (x) = 0.42526 0.12204
# Poissons Ratio (y) = 0.24925 0.17096
# Poissons Ratio (z) = 0.06464 0.15449
#
# Static dielectric constant tensor:
#      x y z
#    x 2.101280 0.000000 0.000000 
#    y 0.000000 2.000520 0.000000 
#    z 0.000000 0.000000 1.945490 
# 
# From -- ./inp_files/2054.got.cif
#   From: 2010.05.17/outbox.cif.g08.bks.cpg/sg18_2_cif.got.tgz:2054.got - 2010.06.03 22:40:56.
