data_PCOD9312312
_publ_section_title
;
Structure prediction by ZEFSAII (Michael W. Deem and Ramdas Pophale) SiO2 
 PCOD9312312
Probable space group: P 21 21 2
;
_chemical_formula_sum "Si O2"
_cell_formula_units_Z 24
_cell_length_a 9.935074
_cell_length_b 10.868107
_cell_length_c 10.044058
_cell_angle_alpha 90.000000
_cell_angle_beta 90.000000
_cell_angle_gamma 90.000000
_cell_volume 1084.511655
_symmetry_space_group_name_H-M "P 21 21 2"
_symmetry_group_IT_number 18
_symmetry_cell_setting 'orthorhombic'
loop_
_space_group_symop_operation_xyz
x,y,z
-x,-y,z
1/2+x,1/2-y,-z
1/2-x,1/2+y,-z
loop_
_atom_site_type_symbol
_atom_site_label
_atom_site_fract_x
_atom_site_fract_y
_atom_site_fract_z
Si Si1 0.948988 0.324760 0.145911
Si Si2 0.739522 0.662833 0.195780
Si Si3 0.379979 0.150092 0.556399
Si Si4 0.808892 0.617513 0.492957
Si Si5 0.642200 0.562685 0.928563
Si Si6 0.886057 0.413913 0.852459
O O1 0.903771 0.381660 0.286180
O O2 0.109183 0.299103 0.151220
O O3 0.868470 0.199059 0.127358
O O4 0.919134 0.395927 0.009747
O O5 0.755174 0.613203 0.341967
O O6 0.685684 0.572658 0.082454
O O7 0.638820 0.778603 0.201675
O O8 0.288646 0.274686 0.552626
O O9 0.534998 0.164313 0.504830
O O10 0.316997 0.031162 0.478625
O O11 0.500000 0.500000 0.919649
O O12 0.748640 0.487133 0.845820
O O13 0.000000 0.500000 0.792331
#
# Coordination Sequence:
#
# PCOD9312312 Si02
#       6
#     4   4   4   4   4   4
#     4  10  21  38  64  88 122 172 208 254 325 387
#     4  10  21  39  61  91 124 163 214 259 316 386
#     4  10  23  45  70  91 127 171 225 269 328 382
#     4  10  23  46  67  95 125 174 219 273 324 386
#     4  11  21  36  58  93 126 160 207 255 315 390
#     4  11  21  36  60  90 126 164 203 257 321 382
#
# _framework density 22.129777000000001
#
# number of rings (size 3 to 8) (size 9 to 14) (size 15 to 20)
#    0.000    1.667    3.333    1.000    2.333    2.000 
#   12.000    0.000    0.000    0.000    0.000    0.000 
#    0.000    0.000    0.000    0.000    0.000    0.000 
#
# Total GULP energy -133955.703625 kJ/mol
# GULP energy per Si atom -5581.487651 kJ/mol
# Density = 2.207941 g / cm^3
# Si number density = 22.129777 Si / 1000 Ang^3
#
#
#
# Elastic Constant Matrix: (Units=GPa)
#
#
# Indices 1 2 3 4 5 6 
#
# 1 94.6264 29.4123 26.8810 0.0000 0.0000 0.0000
# 2 29.4123 97.4774 15.9214 0.0000 0.0000 0.0000
# 3 26.8810 15.9214 62.2452 0.0000 0.0000 0.0000
# 4 0.0000 0.0000 0.0000 -8.7092 0.0000 0.0000
# 5 0.0000 0.0000 0.0000 0.0000 28.8722 0.0000
# 6 0.0000 0.0000 0.0000 0.0000 0.0000 44.6311
#
#
#
# Elastic Compliance Matrix: (Units=1/GPa)
#
#
# Indices 1 2 3 4 5 6 
#
# 1 0.012890 -0.003110 -0.004771 0.000000 0.000000 0.000000
# 2 -0.003110 0.011456 -0.001587 0.000000 0.000000 0.000000
# 3 -0.004771 -0.001587 0.018532 0.000000 0.000000 0.000000
# 4 0.000000 0.000000 0.000000 -0.114820 0.000000 0.000000
# 5 0.000000 0.000000 0.000000 0.000000 0.034635 0.000000
# 6 0.000000 0.000000 0.000000 0.000000 0.000000 0.022406
#
#
# Mechanical properties :
#
#
# Convention : Reuss Voigt Hill
#
# Bulk Modulus (GPa) = 41.76861 44.30871 43.03866
# Shear Modulus (GPa) = 416.09811 25.10110 220.59961
#
# Velocity S-wave (km/s) = 13.72715 3.37154 9.99504
# Velocity P-wave (km/s) = 16.43659 5.93482 12.35685
#
# Compressibility (1/GPa) = 0.02394143
#
# Stress axis : x y z
#
# Youngs Moduli (GPa) = 77.58006 87.28706 53.96094
#
# Poissons Ratio (x) = 0.27147 0.25745
# Poissons Ratio (y) = 0.24128 0.08565
# Poissons Ratio (z) = 0.37014 0.13855
#
# Static dielectric constant tensor:
#      x y z
#    x 1.792950 0.000000 0.000000 
#    y 0.000000 1.874510 0.000000 
#    z 0.000000 0.000000 1.837090 
# 
# From -- ./inp_files/5481.got.cif
#   From: 2010.05.17/outbox.cif.g08.bks.cpg/sg18_3_cif.got.tgz:5481.got - 2010.06.03 22:40:56.
