data_PCOD9312697
_publ_section_title
;
Structure prediction by ZEFSAII (Michael W. Deem and Ramdas Pophale) SiO2 
 PCOD9312697
Probable space group: P 21 21 2
;
_chemical_formula_sum "Si O2"
_cell_formula_units_Z 28
_cell_length_a 12.595817
_cell_length_b 12.606801
_cell_length_c 8.336023
_cell_angle_alpha 90.000000
_cell_angle_beta 90.000000
_cell_angle_gamma 90.000000
_cell_volume 1323.701753
_symmetry_space_group_name_H-M "P 21 21 2"
_symmetry_group_IT_number 18
_symmetry_cell_setting 'orthorhombic'
loop_
_space_group_symop_operation_xyz
x,y,z
-x,-y,z
1/2+x,1/2-y,-z
1/2-x,1/2+y,-z
loop_
_atom_site_type_symbol
_atom_site_label
_atom_site_fract_x
_atom_site_fract_y
_atom_site_fract_z
Si Si1 0.018697 0.339564 0.303215
Si Si2 0.950607 0.742811 0.752907
Si Si3 0.851883 0.417922 0.802562
Si Si4 0.000000 0.000000 0.233776
Si Si5 0.138078 0.172597 0.089279
Si Si6 0.500000 0.000000 0.964086
Si Si7 0.586405 0.664243 0.508025
Si Si8 0.315831 0.910748 0.459286
O O1 0.096407 0.250100 0.229642
O O2 0.092302 0.417053 0.407913
O O3 0.977222 0.401296 0.149942
O O4 0.930977 0.280338 0.410667
O O5 0.046628 0.657531 0.772387
O O6 0.004846 0.833036 0.640833
O O7 0.858050 0.683968 0.654876
O O8 0.903626 0.784190 0.919758
O O9 0.762079 0.347650 0.885763
O O10 0.811617 0.481565 0.645799
O O11 0.896891 0.507418 0.923812
O O12 0.054186 0.916071 0.351558
O O13 0.915926 0.940303 0.124183
O O14 0.705211 0.628923 0.466301
#
# Coordination Sequence:
#
# PCOD9312697 Si02
#       8
#     4   4   4   2   4   2   4   4
#     4  10  24  42  66  99 139 171 223 281 337 410
#     4  11  24  42  69 100 140 175 234 291 340 424
#     4  12  23  43  71  99 138 182 230 284 350 410
#     4  10  22  44  64  94 138 172 226 282 332 418
#     4  11  23  44  67  99 139 186 222 284 353 403
#     4  12  24  44  62 102 134 170 228 282 332 426
#     4  10  23  43  67  96 132 178 226 276 345 407
#     4  11  22  43  70 100 134 182 227 286 350 409
#
# _framework density 21.152801
#
# number of rings (size 3 to 8) (size 9 to 14) (size 15 to 20)
#    0.000    1.143    4.286    0.857    6.000    0.571 
#    7.714    0.000    0.000    0.000    0.000    0.000 
#    0.000    0.000    0.000    0.000    0.000    0.000 
#
# Total GULP energy -156340.937922 kJ/mol
# GULP energy per Si atom -5583.604926 kJ/mol
# Density = 2.110466 g / cm^3
# Si number density = 21.152801 Si / 1000 Ang^3
#
#
#
# Elastic Constant Matrix: (Units=GPa)
#
#
# Indices 1 2 3 4 5 6 
#
# 1 57.9284 14.2556 4.5103 0.0000 0.0000 0.0000
# 2 14.2556 45.9731 12.6362 0.0000 0.0000 0.0000
# 3 4.5103 12.6362 84.1882 0.0000 0.0000 0.0000
# 4 0.0000 0.0000 0.0000 36.5586 0.0000 0.0000
# 5 0.0000 0.0000 0.0000 0.0000 25.3017 0.0000
# 6 0.0000 0.0000 0.0000 0.0000 0.0000 27.7003
#
#
#
# Elastic Compliance Matrix: (Units=1/GPa)
#
#
# Indices 1 2 3 4 5 6 
#
# 1 0.018690 -0.005758 -0.000137 0.000000 0.000000 0.000000
# 2 -0.005758 0.024462 -0.003363 0.000000 0.000000 0.000000
# 3 -0.000137 -0.003363 0.012390 0.000000 0.000000 0.000000
# 4 0.000000 0.000000 0.000000 0.027353 0.000000 0.000000
# 5 0.000000 0.000000 0.000000 0.000000 0.039523 0.000000
# 6 0.000000 0.000000 0.000000 0.000000 0.000000 0.036101
#
#
# Mechanical properties :
#
#
# Convention : Reuss Voigt Hill
#
# Bulk Modulus (GPa) = 27.00799 27.87710 27.44255
# Shear Modulus (GPa) = 26.40227 28.35795 27.38011
#
# Velocity S-wave (km/s) = 3.53678 3.66543 3.60168
# Velocity P-wave (km/s) = 5.42901 5.57865 5.50434
#
# Compressibility (1/GPa) = 0.03702608
#
# Stress axis : x y z
#
# Youngs Moduli (GPa) = 53.50360 40.88024 80.70843
#
# Poissons Ratio (x) = 0.23539 0.01106
# Poissons Ratio (y) = 0.30807 0.27143
# Poissons Ratio (z) = 0.00733 0.13748
#
# Static dielectric constant tensor:
#      x y z
#    x 1.767350 0.000000 0.000000 
#    y 0.000000 1.808020 0.000000 
#    z 0.000000 0.000000 1.780810 
# 
# From -- ./inp_files/3886.got.cif
#   From: 2010.05.17/outbox.cif.g08.bks.cpg/sg18_2_cif.got.tgz:3886.got - 2010.06.03 22:40:56.
