data_PCOD9312864
_publ_section_title
;
Structure prediction by ZEFSAII (Michael W. Deem and Ramdas Pophale) SiO2 
 PCOD9312864
Probable space group: P 21 21 2
;
_chemical_formula_sum "Si O2"
_cell_formula_units_Z 24
_cell_length_a 15.078441
_cell_length_b 5.928858
_cell_length_c 9.994817
_cell_angle_alpha 90.000000
_cell_angle_beta 90.000000
_cell_angle_gamma 90.000000
_cell_volume 893.516006
_symmetry_space_group_name_H-M "P 21 21 2"
_symmetry_group_IT_number 18
_symmetry_cell_setting 'orthorhombic'
loop_
_space_group_symop_operation_xyz
x,y,z
-x,-y,z
1/2+x,1/2-y,-z
1/2-x,1/2+y,-z
loop_
_atom_site_type_symbol
_atom_site_label
_atom_site_fract_x
_atom_site_fract_y
_atom_site_fract_z
Si Si1 0.785913 0.818249 0.888138
Si Si2 0.464204 0.251038 0.717339
Si Si3 0.278116 0.423610 0.665274
Si Si4 0.260887 0.356732 0.363902
Si Si5 0.042652 0.746146 0.695260
Si Si6 0.101193 0.820257 0.992634
O O1 0.789411 0.603681 0.789488
O O2 0.697201 0.794201 0.975117
O O3 0.772715 0.988788 0.764474
O O4 0.866959 0.917962 0.971219
O O5 0.500000 0.500000 0.669641
O O6 0.360788 0.259948 0.675657
O O7 0.458025 0.271092 0.878860
O O8 0.500000 0.000000 0.681161
O O9 0.239898 0.418937 0.516203
O O10 0.312234 0.676975 0.679401
O O11 0.361406 0.262813 0.372399
O O12 0.000000 0.500000 0.658832
O O13 0.056268 0.746341 0.855811
O O14 0.000000 0.000000 0.666357
#
# Coordination Sequence:
#
# PCOD9312864 Si02
#       6
#     4   4   4   4   4   4
#     4  10  24  42  66 114 138 186 254 314 378 426
#     4  11  27  46  70 106 151 198 246 305 382 454
#     4  11  25  45  76 106 148 194 258 317 372 449
#     4  11  25  45  76 106 148 194 258 317 372 449
#     4  11  27  46  70 106 151 198 246 305 382 454
#     4  10  24  40  74  98 152 188 252 302 382 446
#
# _framework density 26.860177
#
# number of rings (size 3 to 8) (size 9 to 14) (size 15 to 20)
#    0.000    1.333    1.667    1.000   18.667    1.333 
#    0.000    0.000    0.000    0.000    0.000    0.000 
#    0.000    0.000    0.000    0.000    0.000    0.000 
#
# Total GULP energy -133745.735060 kJ/mol
# GULP energy per Si atom -5572.738961 kJ/mol
# Density = 2.679904 g / cm^3
# Si number density = 26.860177 Si / 1000 Ang^3
#
#
#
# Elastic Constant Matrix: (Units=GPa)
#
#
# Indices 1 2 3 4 5 6 
#
# 1 79.2633 63.5644 9.3673 0.0000 0.0000 0.0000
# 2 63.5644 159.5740 33.4306 0.0000 0.0000 0.0000
# 3 9.3673 33.4306 145.8956 0.0000 0.0000 0.0000
# 4 0.0000 0.0000 0.0000 33.3307 0.0000 0.0000
# 5 0.0000 0.0000 0.0000 0.0000 16.2044 0.0000
# 6 0.0000 0.0000 0.0000 0.0000 0.0000 67.9003
#
#
#
# Elastic Compliance Matrix: (Units=1/GPa)
#
#
# Indices 1 2 3 4 5 6 
#
# 1 0.018577 -0.007510 0.000528 0.000000 0.000000 0.000000
# 2 -0.007510 0.009619 -0.001722 0.000000 0.000000 0.000000
# 3 0.000528 -0.001722 0.007215 0.000000 0.000000 0.000000
# 4 0.000000 0.000000 0.000000 0.030002 0.000000 0.000000
# 5 0.000000 0.000000 0.000000 0.000000 0.061712 0.000000
# 6 0.000000 0.000000 0.000000 0.000000 0.000000 0.014727
#
#
# Mechanical properties :
#
#
# Convention : Reuss Voigt Hill
#
# Bulk Modulus (GPa) = 55.54827 66.38418 60.96623
# Shear Modulus (GPa) = 30.25512 42.04511 36.15011
#
# Velocity S-wave (km/s) = 3.35982 3.96072 3.67258
# Velocity P-wave (km/s) = 5.98135 6.75905 6.38206
#
# Compressibility (1/GPa) = 0.01800236
#
# Stress axis : x y z
#
# Youngs Moduli (GPa) = 53.83089 103.95952 138.60280
#
# Poissons Ratio (x) = 0.78078 -0.07321
# Poissons Ratio (y) = 0.40430 0.23866
# Poissons Ratio (z) = -0.02843 0.17901
#
# Static dielectric constant tensor:
#      x y z
#    x 2.142440 0.000000 0.000000 
#    y 0.000000 2.903750 0.000000 
#    z 0.000000 0.000000 2.027840 
# 
# From -- ./inp_files/6182.got.cif
#   From: 2010.05.17/outbox.cif.g08.bks.cpg/sg18_4_cif.got.tgz:6182.got - 2010.06.03 22:40:56.
