data_PCOD9312237
_publ_section_title
;
Structure prediction by ZEFSAII (Michael W. Deem and Ramdas Pophale) SiO2 
 PCOD9312237
Probable space group: P 21 21 2
;
_chemical_formula_sum "Si O2"
_cell_formula_units_Z 18
_cell_length_a 9.472075
_cell_length_b 8.535303
_cell_length_c 11.197781
_cell_angle_alpha 90.000000
_cell_angle_beta 90.000000
_cell_angle_gamma 90.000000
_cell_volume 905.307338
_symmetry_space_group_name_H-M "P 21 21 2"
_symmetry_group_IT_number 18
_symmetry_cell_setting 'orthorhombic'
loop_
_space_group_symop_operation_xyz
x,y,z
-x,-y,z
1/2+x,1/2-y,-z
1/2-x,1/2+y,-z
loop_
_atom_site_type_symbol
_atom_site_label
_atom_site_fract_x
_atom_site_fract_y
_atom_site_fract_z
Si Si1 0.646987 0.573541 0.367967
Si Si2 0.217747 0.915782 0.897446
Si Si3 0.000000 0.500000 0.744588
Si Si4 0.367855 0.098504 0.481744
Si Si5 0.926512 0.756819 0.936810
O O1 0.500000 0.500000 0.328129
O O2 0.721430 0.620656 0.244085
O O3 0.618877 0.717317 0.458252
O O4 0.735131 0.445288 0.439942
O O5 0.081253 0.830926 0.957435
O O6 0.181312 0.099757 0.912294
O O7 0.356799 0.851882 0.962084
O O8 0.871086 0.465471 0.654274
O O9 0.954214 0.645615 0.823607
O O10 0.500000 0.000000 0.535363
#
# Coordination Sequence:
#
# PCOD9312237 Si02
#       5
#     4   4   2   4   4
#     4  12  22  44  68  98 134 172 218 274 327 389
#     4  11  23  41  66  97 131 176 218 269 324 391
#     4  10  20  44  64  90 128 176 210 272 320 384
#     4  10  23  40  67  94 130 173 221 266 329 385
#     4  11  22  42  67  94 132 175 218 268 329 381
#
# _framework density 19.882750000000001
#
# number of rings (size 3 to 8) (size 9 to 14) (size 15 to 20)
#    0.667    0.444    4.444    2.667    3.111    0.000 
#    6.000    2.222    0.000    0.000    0.000    0.000 
#    0.000    0.000    0.000    0.000    0.000    0.000 
#
# Total GULP energy -100328.004772 kJ/mol
# GULP energy per Si atom -5573.778043 kJ/mol
# Density = 1.983750 g / cm^3
# Si number density = 19.882750 Si / 1000 Ang^3
#
#
#
# Elastic Constant Matrix: (Units=GPa)
#
#
# Indices 1 2 3 4 5 6 
#
# 1 39.6832 16.8617 45.4459 0.0000 0.0000 0.0000
# 2 16.8617 71.9757 17.4298 0.0000 0.0000 0.0000
# 3 45.4459 17.4298 88.2347 0.0000 0.0000 0.0000
# 4 0.0000 0.0000 0.0000 26.3472 0.0000 0.0000
# 5 0.0000 0.0000 0.0000 0.0000 32.6496 0.0000
# 6 0.0000 0.0000 0.0000 0.0000 0.0000 39.6110
#
#
#
# Elastic Compliance Matrix: (Units=1/GPa)
#
#
# Indices 1 2 3 4 5 6 
#
# 1 0.065067 -0.007486 -0.032034 0.000000 0.000000 0.000000
# 2 -0.007486 0.015453 0.000803 0.000000 0.000000 0.000000
# 3 -0.032034 0.000803 0.027674 0.000000 0.000000 0.000000
# 4 0.000000 0.000000 0.000000 0.037955 0.000000 0.000000
# 5 0.000000 0.000000 0.000000 0.000000 0.030628 0.000000
# 6 0.000000 0.000000 0.000000 0.000000 0.000000 0.025246
#
#
# Mechanical properties :
#
#
# Convention : Reuss Voigt Hill
#
# Bulk Modulus (GPa) = 32.50996 39.92982 36.21989
# Shear Modulus (GPa) = 17.25865 27.73194 22.49530
#
# Velocity S-wave (km/s) = 2.94942 3.73872 3.36727
# Velocity P-wave (km/s) = 5.29009 6.22604 5.77705
#
# Compressibility (1/GPa) = 0.03075980
#
# Stress axis : x y z
#
# Youngs Moduli (GPa) = 15.36884 64.71327 36.13456
#
# Poissons Ratio (x) = 0.48442 1.15755
# Poissons Ratio (y) = 0.11505 -0.02902
# Poissons Ratio (z) = 0.49233 -0.05196
#
# Static dielectric constant tensor:
#      x y z
#    x 1.765890 0.000000 0.000000 
#    y 0.000000 1.773270 0.000000 
#    z 0.000000 0.000000 1.664910 
# 
# From -- ./inp_files/5365.got.cif
#   From: 2010.05.17/outbox.cif.g08.bks.cpg/sg18_3_cif.got.tgz:5365.got - 2010.06.03 22:40:56.
