data_PCOD9312026
_publ_section_title
;
Structure prediction by ZEFSAII (Michael W. Deem and Ramdas Pophale) SiO2 
 PCOD9312026
Probable space group: P 21 21 2
;
_chemical_formula_sum "Si O2"
_cell_formula_units_Z 20
_cell_length_a 7.553546
_cell_length_b 16.188050
_cell_length_c 6.866881
_cell_angle_alpha 90.000000
_cell_angle_beta 90.000000
_cell_angle_gamma 90.000000
_cell_volume 839.662846
_symmetry_space_group_name_H-M "P 21 21 2"
_symmetry_group_IT_number 18
_symmetry_cell_setting 'orthorhombic'
loop_
_space_group_symop_operation_xyz
x,y,z
-x,-y,z
1/2+x,1/2-y,-z
1/2-x,1/2+y,-z
loop_
_atom_site_type_symbol
_atom_site_label
_atom_site_fract_x
_atom_site_fract_y
_atom_site_fract_z
Si Si1 0.568105 0.329681 0.359292
Si Si2 0.222919 0.306222 0.875826
Si Si3 0.827365 0.053023 0.389206
Si Si4 0.418765 0.776226 0.713924
Si Si5 0.381476 0.064679 0.663595
O O1 0.568309 0.250150 0.220053
O O2 0.403960 0.381496 0.447144
O O3 0.652905 0.288501 0.556235
O O4 0.702074 0.393919 0.255999
O O5 0.236799 0.396521 0.783408
O O6 0.406885 0.265497 0.807044
O O7 0.200804 0.302462 0.105943
O O8 0.693921 0.988961 0.486763
O O9 0.000000 0.000000 0.326755
O O10 0.492495 0.858858 0.613514
O O11 0.500000 0.000000 0.785070
#
# Coordination Sequence:
#
# PCOD9312026 Si02
#       5
#     4   4   4   4   4
#     4   9  20  40  62  83 116 158 198 241 290 352
#     4  10  21  38  63  87 115 156 196 242 293 347
#     4   9  19  38  62  86 117 158 195 237 299 353
#     4  10  22  38  60  91 118 154 202 240 287 354
#     4  10  20  36  59  87 117 150 191 242 296 342
#
# _framework density 23.819085000000001
#
# number of rings (size 3 to 8) (size 9 to 14) (size 15 to 20)
#    0.000    2.400    0.000    1.200    0.000    8.000 
#    0.000   15.000    0.000    9.600    0.000    0.000 
#    0.000    0.000    0.000    0.000    0.000    0.000 
#
# Total GULP energy -111587.632695 kJ/mol
# GULP energy per Si atom -5579.381635 kJ/mol
# Density = 2.376487 g / cm^3
# Si number density = 23.819085 Si / 1000 Ang^3
#
#
#
# Elastic Constant Matrix: (Units=GPa)
#
#
# Indices 1 2 3 4 5 6 
#
# 1 89.6761 33.4760 27.6648 0.0000 0.0000 0.0000
# 2 33.4760 134.0165 43.7066 0.0000 0.0000 0.0000
# 3 27.6648 43.7066 99.0265 0.0000 0.0000 0.0000
# 4 0.0000 0.0000 0.0000 17.0253 0.0000 0.0000
# 5 0.0000 0.0000 0.0000 0.0000 32.4807 0.0000
# 6 0.0000 0.0000 0.0000 0.0000 0.0000 31.3629
#
#
#
# Elastic Compliance Matrix: (Units=1/GPa)
#
#
# Indices 1 2 3 4 5 6 
#
# 1 0.012820 -0.002376 -0.002533 0.000000 0.000000 0.000000
# 2 -0.002376 0.009157 -0.003378 0.000000 0.000000 0.000000
# 3 -0.002533 -0.003378 0.012297 0.000000 0.000000 0.000000
# 4 0.000000 0.000000 0.000000 0.058736 0.000000 0.000000
# 5 0.000000 0.000000 0.000000 0.000000 0.030787 0.000000
# 6 0.000000 0.000000 0.000000 0.000000 0.000000 0.031885
#
#
# Mechanical properties :
#
#
# Convention : Reuss Voigt Hill
#
# Bulk Modulus (GPa) = 56.49693 59.15709 57.82701
# Shear Modulus (GPa) = 28.06550 30.69855 29.38203
#
# Velocity S-wave (km/s) = 3.43633 3.59391 3.51600
# Velocity P-wave (km/s) = 6.28611 6.48934 6.38853
#
# Compressibility (1/GPa) = 0.01770008
#
# Stress axis : x y z
#
# Youngs Moduli (GPa) = 78.00564 109.20746 81.32323
#
# Poissons Ratio (x) = 0.25950 0.20596
# Poissons Ratio (y) = 0.18536 0.27468
# Poissons Ratio (z) = 0.19756 0.36887
#
# Static dielectric constant tensor:
#      x y z
#    x 2.045510 0.000000 0.000000 
#    y 0.000000 1.965150 0.000000 
#    z 0.000000 0.000000 1.842820 
# 
# From -- ./inp_files/518.got.cif
#   From: 2010.05.17/outbox.cif.g08.bks.cpg/sg18_1_cif.got.tgz:518.got - 2010.06.03 22:40:56.
