data_PCOD9312928
_publ_section_title
;
Structure prediction by ZEFSAII (Michael W. Deem and Ramdas Pophale) SiO2 
 PCOD9312928
Probable space group: P 21 21 2
;
_chemical_formula_sum "Si O2"
_cell_formula_units_Z 16
_cell_length_a 7.675102
_cell_length_b 8.379784
_cell_length_c 8.801442
_cell_angle_alpha 90.000000
_cell_angle_beta 90.000000
_cell_angle_gamma 90.000000
_cell_volume 566.070876
_symmetry_space_group_name_H-M "P 21 21 2"
_symmetry_group_IT_number 18
_symmetry_cell_setting 'orthorhombic'
loop_
_space_group_symop_operation_xyz
x,y,z
-x,-y,z
1/2+x,1/2-y,-z
1/2-x,1/2+y,-z
loop_
_atom_site_type_symbol
_atom_site_label
_atom_site_fract_x
_atom_site_fract_y
_atom_site_fract_z
Si Si1 0.500000 0.000000 0.762622
Si Si2 0.755863 0.993023 0.206045
Si Si3 0.351301 0.679625 0.302100
Si Si4 0.459572 0.259193 0.007793
Si Si5 0.500000 0.500000 0.544243
O O1 0.326095 0.072580 0.679342
O O2 0.544696 0.145504 0.878975
O O3 0.676218 0.131608 0.312975
O O4 0.854928 0.107250 0.084866
O O5 0.356324 0.133792 0.115197
O O6 0.875739 0.914547 0.333401
O O7 0.506264 0.637715 0.416958
O O8 0.411502 0.659422 0.128031
#
# Coordination Sequence:
#
# PCOD9312928 Si02
#       5
#     2   4   4   4   2
#     4  10  24  46  80 120 156 216 278 342 402 484
#     4  11  28  49  82 120 163 219 285 342 417 490
#     4  11  27  49  81 119 169 214 268 347 425 501
#     4  11  25  49  84 121 161 218 288 352 396 499
#     4  12  32  46  78 124 172 218 258 348 430 520
#
# _framework density 28.265013
#
# number of rings (size 3 to 8) (size 9 to 14) (size 15 to 20)
#    0.000    1.000    2.500    0.000   17.500    4.000 
#    0.000    0.000    0.000    0.000    0.000    0.000 
#    0.000    0.000    0.000    0.000    0.000    0.000 
#
# Total GULP energy -89255.826340 kJ/mol
# GULP energy per Si atom -5578.489146 kJ/mol
# Density = 2.820068 g / cm^3
# Si number density = 28.265013 Si / 1000 Ang^3
#
#
#
# Elastic Constant Matrix: (Units=GPa)
#
#
# Indices 1 2 3 4 5 6 
#
# 1 75.4357 48.5588 34.8053 0.0000 0.0000 0.0000
# 2 48.5588 128.6745 46.8844 0.0000 0.0000 0.0000
# 3 34.8053 46.8844 122.2545 0.0000 0.0000 0.0000
# 4 0.0000 0.0000 0.0000 37.1749 0.0000 0.0000
# 5 0.0000 0.0000 0.0000 0.0000 19.4150 0.0000
# 6 0.0000 0.0000 0.0000 0.0000 0.0000 65.2336
#
#
#
# Elastic Compliance Matrix: (Units=1/GPa)
#
#
# Indices 1 2 3 4 5 6 
#
# 1 0.018407 -0.005855 -0.002995 0.000000 0.000000 0.000000
# 2 -0.005855 0.010896 -0.002512 0.000000 0.000000 0.000000
# 3 -0.002995 -0.002512 0.009996 0.000000 0.000000 0.000000
# 4 0.000000 0.000000 0.000000 0.026900 0.000000 0.000000
# 5 0.000000 0.000000 0.000000 0.000000 0.051507 0.000000
# 6 0.000000 0.000000 0.000000 0.000000 0.000000 0.015330
#
#
# Mechanical properties :
#
#
# Convention : Reuss Voigt Hill
#
# Bulk Modulus (GPa) = 60.33099 65.20685 62.76892
# Shear Modulus (GPa) = 31.00116 37.43911 34.22014
#
# Velocity S-wave (km/s) = 3.31539 3.64342 3.48327
# Velocity P-wave (km/s) = 6.00391 6.38899 6.19944
#
# Compressibility (1/GPa) = 0.01657523
#
# Stress axis : x y z
#
# Youngs Moduli (GPa) = 54.32646 91.77370 100.04411
#
# Poissons Ratio (x) = 0.53735 0.29963
# Poissons Ratio (y) = 0.31809 0.25129
# Poissons Ratio (z) = 0.16271 0.23052
#
# Static dielectric constant tensor:
#      x y z
#    x 2.950690 0.000000 0.000000 
#    y 0.000000 2.290870 0.000000 
#    z 0.000000 0.000000 2.072690 
# 
# From -- ./inp_files/870.got.cif
#   From: 2010.05.17/outbox.cif.g08.bks.cpg/sg18_1_cif.got.tgz:870.got - 2010.06.03 22:40:56.
