data_PCOD9312983
_publ_section_title
;
Structure prediction by ZEFSAII (Michael W. Deem and Ramdas Pophale) SiO2 
 PCOD9312983
Probable space group: P 21 21 2
;
_chemical_formula_sum "Si O2"
_cell_formula_units_Z 16
_cell_length_a 7.315753
_cell_length_b 9.724197
_cell_length_c 9.225546
_cell_angle_alpha 90.000000
_cell_angle_beta 90.000000
_cell_angle_gamma 90.000000
_cell_volume 656.303713
_symmetry_space_group_name_H-M "P 21 21 2"
_symmetry_group_IT_number 18
_symmetry_cell_setting 'orthorhombic'
loop_
_space_group_symop_operation_xyz
x,y,z
-x,-y,z
1/2+x,1/2-y,-z
1/2-x,1/2+y,-z
loop_
_atom_site_type_symbol
_atom_site_label
_atom_site_fract_x
_atom_site_fract_y
_atom_site_fract_z
Si Si1 0.864431 0.173461 0.848686
Si Si2 0.292011 0.018259 0.086652
Si Si3 0.782186 0.718562 0.700731
Si Si4 0.080632 0.354154 0.393727
O O1 0.773080 0.319830 0.892028
O O2 0.754952 0.123774 0.707856
O O3 0.072942 0.203766 0.803600
O O4 0.831291 0.067825 0.977362
O O5 0.277352 0.937440 0.239322
O O6 0.500000 0.000000 0.031650
O O7 0.860282 0.724931 0.538135
O O8 0.579657 0.779115 0.695478
O O9 0.000000 0.500000 0.439949
#
# Coordination Sequence:
#
# PCOD9312983 Si02
#       4
#     4   4   4   4
#     4  11  25  50  75 106 151 189 245 301 362 438
#     4  10  25  49  73 107 147 192 244 301 360 437
#     4  11  26  49  74 107 145 193 239 305 370 431
#     4  12  26  48  74 110 146 187 249 305 364 440
#
# _framework density 24.378958000000001
#
# number of rings (size 3 to 8) (size 9 to 14) (size 15 to 20)
#    0.000    1.000    2.500    3.000   10.500    2.000 
#    4.500    0.000    0.000    0.000    0.000    0.000 
#    0.000    0.000    0.000    0.000    0.000    0.000 
#
# Total GULP energy -89714.148772 kJ/mol
# GULP energy per Si atom -5607.134298 kJ/mol
# Density = 2.432347 g / cm^3
# Si number density = 24.378958 Si / 1000 Ang^3
#
#
#
# Elastic Constant Matrix: (Units=GPa)
#
#
# Indices 1 2 3 4 5 6 
#
# 1 95.5422 19.8867 27.1352 0.0000 0.0000 0.0000
# 2 19.8867 69.8441 2.9796 0.0000 0.0000 0.0000
# 3 27.1352 2.9796 100.2399 0.0000 0.0000 0.0000
# 4 0.0000 0.0000 0.0000 25.3957 0.0000 0.0000
# 5 0.0000 0.0000 0.0000 0.0000 24.1253 0.0000
# 6 0.0000 0.0000 0.0000 0.0000 0.0000 32.5092
#
#
#
# Elastic Compliance Matrix: (Units=1/GPa)
#
#
# Indices 1 2 3 4 5 6 
#
# 1 0.012051 -0.003296 -0.003164 0.000000 0.000000 0.000000
# 2 -0.003296 0.015237 0.000439 0.000000 0.000000 0.000000
# 3 -0.003164 0.000439 0.010820 0.000000 0.000000 0.000000
# 4 0.000000 0.000000 0.000000 0.039377 0.000000 0.000000
# 5 0.000000 0.000000 0.000000 0.000000 0.041450 0.000000
# 6 0.000000 0.000000 0.000000 0.000000 0.000000 0.030761
#
#
# Mechanical properties :
#
#
# Convention : Reuss Voigt Hill
#
# Bulk Modulus (GPa) = 38.36449 40.62546 39.49497
# Shear Modulus (GPa) = 29.33802 30.78102 30.05952
#
# Velocity S-wave (km/s) = 3.47279 3.55717 3.51523
# Velocity P-wave (km/s) = 5.64369 5.79410 5.71939
#
# Compressibility (1/GPa) = 0.02606577
#
# Stress axis : x y z
#
# Youngs Moduli (GPa) = 82.97762 65.62782 92.42471
#
# Poissons Ratio (x) = 0.21634 0.29247
# Poissons Ratio (y) = 0.27353 -0.04061
# Poissons Ratio (z) = 0.26257 -0.02884
#
# Static dielectric constant tensor:
#      x y z
#    x 1.915030 0.000000 0.000000 
#    y 0.000000 1.943640 0.000000 
#    z 0.000000 0.000000 1.882200 
# 
# From -- ./inp_files/2780.got.cif
#   From: 2010.05.17/outbox.cif.g08.bks.cpg/sg18_2_cif.got.tgz:2780.got - 2010.06.03 22:40:56.
