data_PCOD9312382
_publ_section_title
;
Structure prediction by ZEFSAII (Michael W. Deem and Ramdas Pophale) SiO2 
 PCOD9312382
Probable space group: P 21 21 2
;
_chemical_formula_sum "Si O2"
_cell_formula_units_Z 26
_cell_length_a 10.484988
_cell_length_b 10.002573
_cell_length_c 12.042560
_cell_angle_alpha 90.000000
_cell_angle_beta 90.000000
_cell_angle_gamma 90.000000
_cell_volume 1262.985854
_symmetry_space_group_name_H-M "P 21 21 2"
_symmetry_group_IT_number 18
_symmetry_cell_setting 'orthorhombic'
loop_
_space_group_symop_operation_xyz
x,y,z
-x,-y,z
1/2+x,1/2-y,-z
1/2-x,1/2+y,-z
loop_
_atom_site_type_symbol
_atom_site_label
_atom_site_fract_x
_atom_site_fract_y
_atom_site_fract_z
Si Si1 0.500000 0.500000 0.732081
Si Si2 0.296573 0.500694 0.908040
Si Si3 0.132369 0.424724 0.552066
Si Si4 0.819831 0.259224 0.781144
Si Si5 0.184935 0.150892 0.428511
Si Si6 0.145912 0.024553 0.835203
Si Si7 0.383292 0.817375 0.201628
O O1 0.396354 0.441442 0.818185
O O2 0.569735 0.396478 0.650811
O O3 0.261847 0.646418 0.861136
O O4 0.173722 0.406066 0.897109
O O5 0.347350 0.514191 0.031488
O O6 0.143592 0.276244 0.501611
O O7 0.251330 0.519442 0.516523
O O8 0.137212 0.400064 0.685211
O O9 0.000000 0.500000 0.524438
O O10 0.796003 0.301070 0.654996
O O11 0.966913 0.287167 0.811320
O O12 0.781343 0.105018 0.791778
O O13 0.183229 0.172038 0.796573
O O14 0.000000 0.000000 0.798413
#
# Coordination Sequence:
#
# PCOD9312382 Si02
#       7
#     2   4   4   4   4   4   4
#     4  10  22  40  62  88 126 170 200 258 326 372
#     4  11  19  39  64  86 128 165 210 254 322 378
#     4  12  25  45  67  96 126 171 221 270 331 392
#     4  10  21  41  60  91 122 163 213 263 314 377
#     4  11  26  42  68  90 129 170 215 273 324 391
#     4  10  22  35  61  95 123 162 209 258 313 384
#     4  11  21  40  65  89 128 165 209 266 314 386
#
# _framework density 20.586137000000001
#
# number of rings (size 3 to 8) (size 9 to 14) (size 15 to 20)
#    0.000    1.231    5.385    1.385    4.308    0.000 
#    1.385    0.000    0.000    0.000    0.000    0.000 
#    0.000    0.000    0.000    0.000    0.000    0.000 
#
# Total GULP energy -145096.840781 kJ/mol
# GULP energy per Si atom -5580.647722 kJ/mol
# Density = 2.053928 g / cm^3
# Si number density = 20.586137 Si / 1000 Ang^3
#
#
#
# Elastic Constant Matrix: (Units=GPa)
#
#
# Indices 1 2 3 4 5 6 
#
# 1 57.3153 18.3799 3.2582 0.0000 0.0000 0.0000
# 2 18.3799 132.6328 16.2259 0.0000 0.0000 0.0000
# 3 3.2582 16.2259 25.9064 0.0000 0.0000 0.0000
# 4 0.0000 0.0000 0.0000 32.5637 0.0000 0.0000
# 5 0.0000 0.0000 0.0000 0.0000 16.3945 0.0000
# 6 0.0000 0.0000 0.0000 0.0000 0.0000 17.0198
#
#
#
# Elastic Compliance Matrix: (Units=1/GPa)
#
#
# Indices 1 2 3 4 5 6 
#
# 1 0.018273 -0.002438 -0.000771 0.000000 0.000000 0.000000
# 2 -0.002438 0.008491 -0.005011 0.000000 0.000000 0.000000
# 3 -0.000771 -0.005011 0.041836 0.000000 0.000000 0.000000
# 4 0.000000 0.000000 0.000000 0.030709 0.000000 0.000000
# 5 0.000000 0.000000 0.000000 0.000000 0.060996 0.000000
# 6 0.000000 0.000000 0.000000 0.000000 0.000000 0.058755
#
#
# Mechanical properties :
#
#
# Convention : Reuss Voigt Hill
#
# Bulk Modulus (GPa) = 19.17216 32.39807 25.78511
# Shear Modulus (GPa) = 19.77170 25.06165 22.41668
#
# Velocity S-wave (km/s) = 3.10246 3.49292 3.30346
# Velocity P-wave (km/s) = 4.70818 5.66032 5.20607
#
# Compressibility (1/GPa) = 0.05215897
#
# Stress axis : x y z
#
# Youngs Moduli (GPa) = 54.72566 117.77857 23.90274
#
# Poissons Ratio (x) = 0.28713 0.01843
# Poissons Ratio (y) = 0.13341 0.11978
# Poissons Ratio (z) = 0.04221 0.59022
#
# Static dielectric constant tensor:
#      x y z
#    x 1.785750 0.000000 0.000000 
#    y 0.000000 1.785820 0.000000 
#    z 0.000000 0.000000 1.712340 
# 
# From -- ./inp_files/5565.got.cif
#   From: 2010.05.17/outbox.cif.g08.bks.cpg/sg18_3_cif.got.tgz:5565.got - 2010.06.03 22:40:56.
