data_PCOD9312109
_publ_section_title
;
Structure prediction by ZEFSAII (Michael W. Deem and Ramdas Pophale) SiO2 
 PCOD9312109
Probable space group: P 21 21 2
;
_chemical_formula_sum "Si O2"
_cell_formula_units_Z 30
_cell_length_a 19.356877
_cell_length_b 14.227416
_cell_length_c 5.356492
_cell_angle_alpha 90.000000
_cell_angle_beta 90.000000
_cell_angle_gamma 90.000000
_cell_volume 1475.169013
_symmetry_space_group_name_H-M "P 21 21 2"
_symmetry_group_IT_number 18
_symmetry_cell_setting 'orthorhombic'
loop_
_space_group_symop_operation_xyz
x,y,z
-x,-y,z
1/2+x,1/2-y,-z
1/2-x,1/2+y,-z
loop_
_atom_site_type_symbol
_atom_site_label
_atom_site_fract_x
_atom_site_fract_y
_atom_site_fract_z
Si Si1 0.670149 0.399088 0.863818
Si Si2 0.074955 0.267657 0.240352
Si Si3 0.609962 0.478109 0.346811
Si Si4 0.519317 0.651771 0.385898
Si Si5 0.320391 0.048004 0.091318
Si Si6 0.536046 0.842652 0.118833
Si Si7 0.500000 0.000000 0.503755
Si Si8 0.145101 0.446740 0.393630
O O1 0.625782 0.303878 0.902947
O O2 0.649336 0.435381 0.586862
O O3 0.752330 0.388727 0.879338
O O4 0.650463 0.471238 0.086322
O O5 0.126128 0.336448 0.393318
O O6 0.019505 0.203844 0.387233
O O7 0.024718 0.335280 0.083545
O O8 0.582091 0.580311 0.427773
O O9 0.542487 0.414205 0.289481
O O10 0.543473 0.735574 0.209002
O O11 0.389317 0.111867 0.068315
O O12 0.327458 0.984704 0.342174
O O13 0.313338 0.981215 0.848285
O O14 0.503229 0.908255 0.331491
O O15 0.428680 0.998069 0.644608
#
# Coordination Sequence:
#
# PCOD9312109 Si02
#       8
#     4   4   4   4   4   4   2   4
#     4  11  24  46  63  91 136 182 217 270 335 403
#     4  11  22  40  72  99 128 173 228 282 328 393
#     4  10  23  42  69  91 129 169 217 274 334 388
#     4  10  22  38  67 102 122 159 223 281 326 382
#     4  11  26  42  62  93 138 177 217 269 338 400
#     4  11  21  39  65 101 130 163 223 278 329 389
#     4  10  20  38  64  96 130 164 204 280 342 388
#     4  11  22  41  64  94 126 170 215 268 330 401
#
# _framework density 20.336652000000001
#
# number of rings (size 3 to 8) (size 9 to 14) (size 15 to 20)
#    0.000    1.333    2.667    3.200    3.733    1.600 
#    4.800    0.000    0.000    0.000    0.000    0.000 
#    0.000    0.000    0.000    0.000    0.000    0.000 
#
# Total GULP energy -167227.017611 kJ/mol
# GULP energy per Si atom -5574.233920 kJ/mol
# Density = 2.029036 g / cm^3
# Si number density = 20.336652 Si / 1000 Ang^3
#
#
#
# Elastic Constant Matrix: (Units=GPa)
#
#
# Indices 1 2 3 4 5 6 
#
# 1 92.8502 22.6784 34.2171 0.0000 0.0000 0.0000
# 2 22.6784 91.5243 39.4210 0.0000 0.0000 0.0000
# 3 34.2171 39.4210 78.6499 0.0000 0.0000 0.0000
# 4 0.0000 0.0000 0.0000 26.6114 0.0000 0.0000
# 5 0.0000 0.0000 0.0000 0.0000 15.5719 0.0000
# 6 0.0000 0.0000 0.0000 0.0000 0.0000 18.7802
#
#
#
# Elastic Compliance Matrix: (Units=1/GPa)
#
#
# Indices 1 2 3 4 5 6 
#
# 1 0.012897 -0.000993 -0.005113 0.000000 0.000000 0.000000
# 2 -0.000993 0.014011 -0.006590 0.000000 0.000000 0.000000
# 3 -0.005113 -0.006590 0.018242 0.000000 0.000000 0.000000
# 4 0.000000 0.000000 0.000000 0.037578 0.000000 0.000000
# 5 0.000000 0.000000 0.000000 0.000000 0.064218 0.000000
# 6 0.000000 0.000000 0.000000 0.000000 0.000000 0.053248
#
#
# Mechanical properties :
#
#
# Convention : Reuss Voigt Hill
#
# Bulk Modulus (GPa) = 50.61623 50.62860 50.62241
# Shear Modulus (GPa) = 21.53569 23.30654 22.42112
#
# Velocity S-wave (km/s) = 3.25770 3.38899 3.32399
# Velocity P-wave (km/s) = 6.25246 6.34531 6.29906
#
# Compressibility (1/GPa) = 0.01975651
#
# Stress axis : x y z
#
# Youngs Moduli (GPa) = 77.53805 71.37367 54.81797
#
# Poissons Ratio (x) = 0.07091 0.28028
# Poissons Ratio (y) = 0.07703 0.36127
# Poissons Ratio (z) = 0.39645 0.47037
#
# Static dielectric constant tensor:
#      x y z
#    x 1.740300 0.000000 0.000000 
#    y 0.000000 1.766960 0.000000 
#    z 0.000000 0.000000 1.791970 
# 
# From -- ./inp_files/2004.got.cif
#   From: 2010.05.17/outbox.cif.g08.bks.cpg/sg18_2_cif.got.tgz:2004.got - 2010.06.03 22:40:56.
