data_PCOD9312719
_publ_section_title
;
Structure prediction by ZEFSAII (Michael W. Deem and Ramdas Pophale) SiO2 
 PCOD9312719
Probable space group: P 21 21 2
;
_chemical_formula_sum "Si O2"
_cell_formula_units_Z 26
_cell_length_a 10.975995
_cell_length_b 18.402402
_cell_length_c 5.250040
_cell_angle_alpha 90.000000
_cell_angle_beta 90.000000
_cell_angle_gamma 90.000000
_cell_volume 1060.427609
_symmetry_space_group_name_H-M "P 21 21 2"
_symmetry_group_IT_number 18
_symmetry_cell_setting 'orthorhombic'
loop_
_space_group_symop_operation_xyz
x,y,z
-x,-y,z
1/2+x,1/2-y,-z
1/2-x,1/2+y,-z
loop_
_atom_site_type_symbol
_atom_site_label
_atom_site_fract_x
_atom_site_fract_y
_atom_site_fract_z
Si Si1 0.813770 0.620142 0.049940
Si Si2 0.536257 0.205964 0.591069
Si Si3 0.500000 0.500000 0.765183
Si Si4 0.279697 0.742953 0.221398
Si Si5 0.761905 0.529611 0.544468
Si Si6 0.926163 0.844598 0.137640
Si Si7 0.672147 0.869146 0.437771
O O1 0.938525 0.651583 0.173506
O O2 0.762816 0.572275 0.279973
O O3 0.742401 0.694481 0.973932
O O4 0.812319 0.572171 0.792810
O O5 0.671084 0.216786 0.470666
O O6 0.502610 0.287721 0.681291
O O7 0.455185 0.168353 0.373408
O O8 0.622118 0.509149 0.603039
O O9 0.483858 0.576947 0.907726
O O10 0.192437 0.678540 0.305251
O O11 0.396926 0.700326 0.113083
O O12 0.835278 0.454309 0.516489
O O13 0.790736 0.856503 0.262804
#
# Coordination Sequence:
#
# PCOD9312719 Si02
#       7
#     4   4   2   4   4   4   4
#     4  11  24  48  70 102 142 184 239 292 347 432
#     4  10  22  45  68 102 136 195 236 292 360 423
#     4  10  24  46  70 108 142 192 230 300 364 420
#     4  10  22  46  68 104 142 184 244 294 353 431
#     4  11  26  48  71 106 145 186 242 297 357 423
#     4   9  22  41  66 102 144 179 243 289 359 428
#     4  10  24  44  69 102 145 188 235 305 349 426
#
# _framework density 24.518411
#
# number of rings (size 3 to 8) (size 9 to 14) (size 15 to 20)
#    0.000    1.846    1.538    0.000    6.462    3.692 
#   13.846    0.000    0.000    0.000    0.000    0.000 
#    0.000    0.000    0.000    0.000    0.000    0.000 
#
# Total GULP energy -145077.014092 kJ/mol
# GULP energy per Si atom -5579.885157 kJ/mol
# Density = 2.446261 g / cm^3
# Si number density = 24.518411 Si / 1000 Ang^3
#
#
#
# Elastic Constant Matrix: (Units=GPa)
#
#
# Indices 1 2 3 4 5 6 
#
# 1 64.7284 35.9198 14.0384 0.0000 0.0000 0.0000
# 2 35.9198 202.9578 70.9216 0.0000 0.0000 0.0000
# 3 14.0384 70.9216 126.3202 0.0000 0.0000 0.0000
# 4 0.0000 0.0000 0.0000 30.3720 0.0000 0.0000
# 5 0.0000 0.0000 0.0000 0.0000 21.4397 0.0000
# 6 0.0000 0.0000 0.0000 0.0000 0.0000 42.8018
#
#
#
# Elastic Compliance Matrix: (Units=1/GPa)
#
#
# Indices 1 2 3 4 5 6 
#
# 1 0.017138 -0.002945 -0.000251 0.000000 0.000000 0.000000
# 2 -0.002945 0.006636 -0.003398 0.000000 0.000000 0.000000
# 3 -0.000251 -0.003398 0.009852 0.000000 0.000000 0.000000
# 4 0.000000 0.000000 0.000000 0.032925 0.000000 0.000000
# 5 0.000000 0.000000 0.000000 0.000000 0.046642 0.000000
# 6 0.000000 0.000000 0.000000 0.000000 0.000000 0.023364
#
#
# Mechanical properties :
#
#
# Convention : Reuss Voigt Hill
#
# Bulk Modulus (GPa) = 48.93122 70.64067 59.78594
# Shear Modulus (GPa) = 31.93684 37.13115 34.53399
#
# Velocity S-wave (km/s) = 3.61302 3.89578 3.75706
# Velocity P-wave (km/s) = 6.11600 7.00785 6.57706
#
# Compressibility (1/GPa) = 0.02043685
#
# Stress axis : x y z
#
# Youngs Moduli (GPa) = 58.34952 150.69429 101.49945
#
# Poissons Ratio (x) = 0.44386 0.02547
# Poissons Ratio (y) = 0.17187 0.34493
# Poissons Ratio (z) = 0.01464 0.51212
#
# Static dielectric constant tensor:
#      x y z
#    x 2.202630 0.000000 0.000000 
#    y 0.000000 1.964520 0.000000 
#    z 0.000000 0.000000 1.971840 
# 
# From -- ./inp_files/1159.got.cif
#   From: 2010.05.17/outbox.cif.g08.bks.cpg/sg18_1_cif.got.tgz:1159.got - 2010.06.03 22:40:56.
