data_PCOD9312986
_publ_section_title
;
Structure prediction by ZEFSAII (Michael W. Deem and Ramdas Pophale) SiO2 
 PCOD9312986
Probable space group: P 21 21 2
;
_chemical_formula_sum "Si O2"
_cell_formula_units_Z 22
_cell_length_a 5.348221
_cell_length_b 13.659775
_cell_length_c 12.583517
_cell_angle_alpha 90.000000
_cell_angle_beta 90.000000
_cell_angle_gamma 90.000000
_cell_volume 919.295070
_symmetry_space_group_name_H-M "P 21 21 2"
_symmetry_group_IT_number 18
_symmetry_cell_setting 'orthorhombic'
loop_
_space_group_symop_operation_xyz
x,y,z
-x,-y,z
1/2+x,1/2-y,-z
1/2-x,1/2+y,-z
loop_
_atom_site_type_symbol
_atom_site_label
_atom_site_fract_x
_atom_site_fract_y
_atom_site_fract_z
Si Si1 0.000000 0.500000 0.222032
Si Si2 0.500000 0.500000 0.720648
Si Si3 0.810513 0.825761 0.743213
Si Si4 0.500000 0.000000 0.394118
Si Si5 0.900518 0.279784 0.557193
Si Si6 0.819101 0.145856 0.923572
Si Si7 0.520167 0.328139 0.858088
O O1 0.171780 0.574016 0.290996
O O2 0.151098 0.428725 0.143055
O O3 0.740833 0.539310 0.659170
O O4 0.627442 0.417072 0.792756
O O5 0.014557 0.779275 0.663993
O O6 0.622661 0.739440 0.773643
O O7 0.926470 0.855006 0.857178
O O8 0.598993 0.897569 0.440834
O O9 0.123217 0.251841 0.476158
O O10 0.713605 0.255702 0.913555
O O11 0.851790 0.127157 0.047682
#
# Coordination Sequence:
#
# PCOD9312986 Si02
#       7
#     2   2   4   2   4   4   4
#     4  10  26  40  72 100 150 186 250 294 378 440
#     4  12  26  42  80 106 150 198 244 308 370 440
#     4  11  24  49  68 103 146 190 240 310 364 442
#     4  12  26  54  76 114 146 192 252 318 376 454
#     4  12  29  52  82 109 147 194 250 316 383 445
#     4  11  23  43  64 106 148 197 243 299 363 452
#     4  11  24  39  71 101 146 197 244 297 366 437
#
# _framework density 23.931379
#
# number of rings (size 3 to 8) (size 9 to 14) (size 15 to 20)
#    0.000    0.727    3.636    2.727    7.636    1.455 
#    3.273    0.000    0.000    0.000    0.000    0.000 
#    0.000    0.000    0.000    0.000    0.000    0.000 
#
# Total GULP energy -122916.260763 kJ/mol
# GULP energy per Si atom -5587.102762 kJ/mol
# Density = 2.387691 g / cm^3
# Si number density = 23.931379 Si / 1000 Ang^3
#
#
#
# Elastic Constant Matrix: (Units=GPa)
#
#
# Indices 1 2 3 4 5 6 
#
# 1 53.5902 5.9758 5.4734 0.0000 0.0000 0.0000
# 2 5.9758 133.9679 9.3074 0.0000 0.0000 0.0000
# 3 5.4734 9.3074 58.5570 0.0000 0.0000 0.0000
# 4 0.0000 0.0000 0.0000 38.2644 0.0000 0.0000
# 5 0.0000 0.0000 0.0000 0.0000 26.3577 0.0000
# 6 0.0000 0.0000 0.0000 0.0000 0.0000 40.2334
#
#
#
# Elastic Compliance Matrix: (Units=1/GPa)
#
#
# Indices 1 2 3 4 5 6 
#
# 1 0.018910 -0.000729 -0.001652 0.000000 0.000000 0.000000
# 2 -0.000729 0.007576 -0.001136 0.000000 0.000000 0.000000
# 3 -0.001652 -0.001136 0.017412 0.000000 0.000000 0.000000
# 4 0.000000 0.000000 0.000000 0.026134 0.000000 0.000000
# 5 0.000000 0.000000 0.000000 0.000000 0.037940 0.000000
# 6 0.000000 0.000000 0.000000 0.000000 0.000000 0.024855
#
#
# Mechanical properties :
#
#
# Convention : Reuss Voigt Hill
#
# Bulk Modulus (GPa) = 27.12577 31.95869 29.54223
# Shear Modulus (GPa) = 32.86267 35.99499 34.42883
#
# Velocity S-wave (km/s) = 3.70970 3.88247 3.79707
# Velocity P-wave (km/s) = 5.45056 5.78631 5.62094
#
# Compressibility (1/GPa) = 0.03686531
#
# Stress axis : x y z
#
# Youngs Moduli (GPa) = 52.88180 131.99737 57.43055
#
# Poissons Ratio (x) = 0.09619 0.09486
# Poissons Ratio (y) = 0.03854 0.06524
# Poissons Ratio (z) = 0.08735 0.14995
#
# Static dielectric constant tensor:
#      x y z
#    x 1.921100 0.000000 0.000000 
#    y 0.000000 1.842700 0.000000 
#    z 0.000000 0.000000 1.957730 
# 
# From -- ./inp_files/5107.got.cif
#   From: 2010.05.17/outbox.cif.g08.bks.cpg/sg18_3_cif.got.tgz:5107.got - 2010.06.03 22:40:56.
