data_PCOD9312810
_publ_section_title
;
Structure prediction by ZEFSAII (Michael W. Deem and Ramdas Pophale) SiO2 
 PCOD9312810
Probable space group: P 21 21 2
;
_chemical_formula_sum "Si O2"
_cell_formula_units_Z 32
_cell_length_a 11.846946
_cell_length_b 8.237919
_cell_length_c 15.496054
_cell_angle_alpha 90.000000
_cell_angle_beta 90.000000
_cell_angle_gamma 90.000000
_cell_volume 1512.324707
_symmetry_space_group_name_H-M "P 21 21 2"
_symmetry_group_IT_number 18
_symmetry_cell_setting 'orthorhombic'
loop_
_space_group_symop_operation_xyz
x,y,z
-x,-y,z
1/2+x,1/2-y,-z
1/2-x,1/2+y,-z
loop_
_atom_site_type_symbol
_atom_site_label
_atom_site_fract_x
_atom_site_fract_y
_atom_site_fract_z
Si Si1 0.391121 0.714415 0.748790
Si Si2 0.740998 0.175026 0.584330
Si Si3 0.347333 0.328376 0.737080
Si Si4 0.320602 0.690302 0.406258
Si Si5 0.950498 0.320244 0.657711
Si Si6 0.542151 0.681138 0.164595
Si Si7 0.813608 0.663378 0.895634
Si Si8 0.748849 0.287284 0.919862
O O1 0.333884 0.809350 0.670090
O O2 0.362070 0.523634 0.733318
O O3 0.525731 0.738218 0.744154
O O4 0.339713 0.751616 0.843229
O O5 0.675498 0.219638 0.497851
O O6 0.847474 0.297306 0.592834
O O7 0.791038 0.996054 0.579721
O O8 0.274851 0.268498 0.655460
O O9 0.275531 0.284304 0.822212
O O10 0.442524 0.708444 0.363052
O O11 0.905135 0.262607 0.750322
O O12 0.000000 0.500000 0.660848
O O13 0.500000 0.500000 0.181488
O O14 0.437462 0.794017 0.138810
O O15 0.639765 0.678666 0.093767
O O16 0.790645 0.472759 0.910059
O O17 0.798849 0.754722 0.985880
#
# Coordination Sequence:
#
# PCOD9312810 Si02
#       8
#     4   4   4   4   4   4   4   4
#     4  10  23  44  67  93 132 176 218 269 328 388
#     4  12  26  44  68  98 132 174 220 269 328 393
#     4  10  23  44  67  93 132 176 218 269 328 388
#     4  12  26  44  68  98 132 174 220 269 328 393
#     4  12  24  44  70  97 130 169 220 278 334 390
#     4  12  24  42  68  97 130 171 222 274 332 396
#     4  11  24  42  67  98 133 174 220 272 330 390
#     4  11  24  42  67  98 133 174 220 272 330 390
#
# _framework density 21.159476000000002
#
# number of rings (size 3 to 8) (size 9 to 14) (size 15 to 20)
#    0.000    0.750    2.500    5.250    3.500    1.500 
#    0.000    0.000    0.000    0.000    0.000    0.000 
#    0.000    0.000    0.000    0.000    0.000    0.000 
#
# Total GULP energy -179127.206817 kJ/mol
# GULP energy per Si atom -5597.725213 kJ/mol
# Density = 2.111132 g / cm^3
# Si number density = 21.159476 Si / 1000 Ang^3
#
#
#
# Elastic Constant Matrix: (Units=GPa)
#
#
# Indices 1 2 3 4 5 6 
#
# 1 79.1648 -17.4546 12.2380 0.0000 0.0000 0.0000
# 2 -17.4546 42.1324 10.6249 0.0000 0.0000 0.0000
# 3 12.2380 10.6249 103.8571 0.0000 0.0000 0.0000
# 4 0.0000 0.0000 0.0000 35.0556 0.0000 0.0000
# 5 0.0000 0.0000 0.0000 0.0000 -1.9823 0.0000
# 6 0.0000 0.0000 0.0000 0.0000 0.0000 12.2671
#
#
#
# Elastic Compliance Matrix: (Units=1/GPa)
#
#
# Indices 1 2 3 4 5 6 
#
# 1 0.014451 0.006586 -0.002377 0.000000 0.000000 0.000000
# 2 0.006586 0.027365 -0.003576 0.000000 0.000000 0.000000
# 3 -0.002377 -0.003576 0.010274 0.000000 0.000000 0.000000
# 4 0.000000 0.000000 0.000000 0.028526 0.000000 0.000000
# 5 0.000000 0.000000 0.000000 0.000000 -0.504459 0.000000
# 6 0.000000 0.000000 0.000000 0.000000 0.000000 0.081519
#
#
# Mechanical properties :
#
#
# Convention : Reuss Voigt Hill
#
# Bulk Modulus (GPa) = 18.74103 26.21900 22.48001
# Shear Modulus (GPa) = -15.34661 23.71781 4.18560
#
# Velocity S-wave (km/s) = -2.69603 3.35163 1.40798
# Velocity P-wave (km/s) = 0.90287 5.23411 3.64560
#
# Compressibility (1/GPa) = 0.05335887
#
# Stress axis : x y z
#
# Youngs Moduli (GPa) = 69.19715 36.54306 97.32865
#
# Poissons Ratio (x) = -0.24068 0.23132
# Poissons Ratio (y) = -0.45575 0.34801
# Poissons Ratio (z) = 0.16446 0.13066
#
# Static dielectric constant tensor:
#      x y z
#    x 1.712440 0.000000 0.000000 
#    y 0.000000 1.766770 0.000000 
#    z 0.000000 0.000000 1.724620 
# 
# From -- ./inp_files/6913.got.cif
#   From: 2010.05.17/outbox.cif.g08.bks.cpg/sg18_4_cif.got.tgz:6913.got - 2010.06.03 22:40:56.
