data_PCOD9312628
_publ_section_title
;
Structure prediction by ZEFSAII (Michael W. Deem and Ramdas Pophale) SiO2 
 PCOD9312628
Probable space group: P 21 21 2
;
_chemical_formula_sum "Si O2"
_cell_formula_units_Z 30
_cell_length_a 11.935825
_cell_length_b 21.221933
_cell_length_c 5.547633
_cell_angle_alpha 90.000000
_cell_angle_beta 90.000000
_cell_angle_gamma 90.000000
_cell_volume 1405.222531
_symmetry_space_group_name_H-M "P 21 21 2"
_symmetry_group_IT_number 18
_symmetry_cell_setting 'orthorhombic'
loop_
_space_group_symop_operation_xyz
x,y,z
-x,-y,z
1/2+x,1/2-y,-z
1/2-x,1/2+y,-z
loop_
_atom_site_type_symbol
_atom_site_label
_atom_site_fract_x
_atom_site_fract_y
_atom_site_fract_z
Si Si1 0.949361 0.876341 0.393504
Si Si2 0.660410 0.892819 0.918632
Si Si3 0.834884 0.976973 0.715265
Si Si4 0.697515 0.062373 0.392836
Si Si5 0.818430 0.173723 0.623735
Si Si6 0.386429 0.408687 0.983268
Si Si7 0.500000 0.000000 0.094039
Si Si8 0.706602 0.821889 0.416857
O O1 0.906199 0.939172 0.522263
O O2 0.840726 0.832859 0.407936
O O3 0.061007 0.848507 0.518269
O O4 0.996161 0.891061 0.129953
O O5 0.779278 0.929374 0.904596
O O6 0.658860 0.853848 0.664734
O O7 0.566349 0.946954 0.942992
O O8 0.659079 0.852586 0.167857
O O9 0.727837 0.009226 0.585908
O O10 0.896910 0.036514 0.823985
O O11 0.716876 0.131399 0.513081
O O12 0.586612 0.040476 0.257341
O O13 0.800987 0.062326 0.207555
O O14 0.827832 0.152290 0.901174
O O15 0.810395 0.247276 0.582616
#
# Coordination Sequence:
#
# PCOD9312628 Si02
#       8
#     4   4   4   4   4   4   2   4
#     4  10  24  41  69  99 134 190 228 299 372 412
#     4  11  26  45  73 102 144 189 234 307 350 441
#     4  10  22  43  64 107 142 172 237 305 364 435
#     4  10  23  42  70 104 144 186 234 308 358 440
#     4  10  25  46  68 102 140 190 249 301 349 440
#     4  10  22  42  66 103 138 176 236 298 364 425
#     4  12  22  46  76 108 148 192 244 292 400 424
#     4  11  27  50  68 102 147 188 253 292 355 438
#
# _framework density 21.348934
#
# number of rings (size 3 to 8) (size 9 to 14) (size 15 to 20)
#    0.000    1.600    1.333    1.600    7.467    9.067 
#    2.400    0.000    0.000    0.000    0.000    0.000 
#    0.000    0.000    0.000    0.000    0.000    0.000 
#
# Total GULP energy -167506.275198 kJ/mol
# GULP energy per Si atom -5583.542507 kJ/mol
# Density = 2.130034 g / cm^3
# Si number density = 21.348934 Si / 1000 Ang^3
#
#
#
# Elastic Constant Matrix: (Units=GPa)
#
#
# Indices 1 2 3 4 5 6 
#
# 1 92.8124 59.7293 45.4702 0.0000 0.0000 0.0000
# 2 59.7293 177.1953 76.2855 0.0000 0.0000 0.0000
# 3 45.4702 76.2855 108.7570 0.0000 0.0000 0.0000
# 4 0.0000 0.0000 0.0000 4.2136 0.0000 0.0000
# 5 0.0000 0.0000 0.0000 0.0000********** 0.0000
# 6 0.0000 0.0000 0.0000 0.0000 0.0000 30.4453
#
#
#
# Elastic Compliance Matrix: (Units=1/GPa)
#
#
# Indices 1 2 3 4 5 6 
#
# 1 0.014807 -0.003332 -0.003853 0.000000 0.000000 0.000000
# 2 -0.003332 0.008835 -0.004804 0.000000 0.000000 0.000000
# 3 -0.003853 -0.004804 0.014175 0.000000 0.000000 0.000000
# 4 0.000000 0.000000 0.000000 0.237325 0.000000 0.000000
# 5 0.000000 0.000000 0.000000 0.000000 -0.000057 0.000000
# 6 0.000000 0.000000 0.000000 0.000000 0.000000 0.032846
#
#
# Mechanical properties :
#
#
# Convention : Reuss Voigt Hill
#
# Bulk Modulus (GPa) = 72.26319 82.41499 77.33909
# Shear Modulus (GPa) = 14.85790 -3461.46086 -1723.30148
#
# Velocity S-wave (km/s) = 2.64096 -40.30997 -28.44222
# Velocity P-wave (km/s) = 6.57432 46.12849 32.28480
#
# Compressibility (1/GPa) = 0.01383830
#
# Stress axis : x y z
#
# Youngs Moduli (GPa) = 67.53760 113.18804 70.54476
#
# Poissons Ratio (x) = 0.37716 0.27182
# Poissons Ratio (y) = 0.22505 0.33889
# Poissons Ratio (z) = 0.26024 0.54374
#
# Static dielectric constant tensor:
#      x y z
#    x 1.801940 0.000000 0.000000 
#    y 0.000000 12.348780 0.000000 
#    z 0.000000 0.000000 1.894800 
# 
# From -- ./inp_files/1273.got.cif
#   From: 2010.05.17/outbox.cif.g08.bks.cpg/sg18_1_cif.got.tgz:1273.got - 2010.06.03 22:40:56.
