data_PCOD9312422
_publ_section_title
;
Structure prediction by ZEFSAII (Michael W. Deem and Ramdas Pophale) SiO2 
 PCOD9312422
Probable space group: P 21 21 2
;
_chemical_formula_sum "Si O2"
_cell_formula_units_Z 24
_cell_length_a 7.898441
_cell_length_b 11.442431
_cell_length_c 12.633313
_cell_angle_alpha 90.000000
_cell_angle_beta 90.000000
_cell_angle_gamma 90.000000
_cell_volume 1141.765555
_symmetry_space_group_name_H-M "P 21 21 2"
_symmetry_group_IT_number 18
_symmetry_cell_setting 'orthorhombic'
loop_
_space_group_symop_operation_xyz
x,y,z
-x,-y,z
1/2+x,1/2-y,-z
1/2-x,1/2+y,-z
loop_
_atom_site_type_symbol
_atom_site_label
_atom_site_fract_x
_atom_site_fract_y
_atom_site_fract_z
Si Si1 0.851280 0.686166 0.768368
Si Si2 0.796352 0.533420 0.583277
Si Si3 0.327340 0.931586 0.650357
Si Si4 0.684826 0.442902 0.144074
Si Si5 0.250970 0.182362 0.276866
Si Si6 0.701138 0.477032 0.909459
O O1 0.766557 0.646513 0.657499
O O2 0.805180 0.806450 0.825415
O O3 0.805875 0.577521 0.846502
O O4 0.047097 0.700750 0.734320
O O5 0.737868 0.553716 0.463546
O O6 0.714271 0.424115 0.643397
O O7 0.000000 0.500000 0.585879
O O8 0.339772 0.796106 0.679551
O O9 0.500000 0.000000 0.635103
O O10 0.250921 0.990102 0.753818
O O11 0.500000 0.500000 0.131322
O O12 0.767149 0.463159 0.029009
O O13 0.208669 0.141301 0.158771
O O14 0.500000 0.500000 0.910466
#
# Coordination Sequence:
#
# PCOD9312422 Si02
#       6
#     4   4   4   4   4   4
#     4  10  21  42  67  86 130 170 210 255 318 397
#     4   8  19  40  62  90 122 172 210 254 315 380
#     4  11  24  39  62  97 129 159 215 269 317 372
#     4  11  24  41  61  95 125 164 214 260 321 382
#     4  10  21  43  66  87 128 174 212 250 328 398
#     4  10  24  40  62  94 124 164 217 267 317 376
#
# _framework density 21.020076
#
# number of rings (size 3 to 8) (size 9 to 14) (size 15 to 20)
#    0.000    2.000    1.667    1.500    7.000    1.333 
#    0.000    3.333    0.000    0.000    0.000    0.000 
#    0.000    0.000    0.000    0.000    0.000    0.000 
#
# Total GULP energy -133781.253553 kJ/mol
# GULP energy per Si atom -5574.218898 kJ/mol
# Density = 2.097223 g / cm^3
# Si number density = 21.020076 Si / 1000 Ang^3
#
#
#
# Elastic Constant Matrix: (Units=GPa)
#
#
# Indices 1 2 3 4 5 6 
#
# 1 19.1201 15.0770 2.7866 0.0000 0.0000 0.0000
# 2 15.0770 128.1862 61.1240 0.0000 0.0000 0.0000
# 3 2.7866 61.1240 199.2670 0.0000 0.0000 0.0000
# 4 0.0000 0.0000 0.0000 13.0008 0.0000 0.0000
# 5 0.0000 0.0000 0.0000 0.0000 19.0501 0.0000
# 6 0.0000 0.0000 0.0000 0.0000 0.0000 25.1276
#
#
#
# Elastic Compliance Matrix: (Units=1/GPa)
#
#
# Indices 1 2 3 4 5 6 
#
# 1 0.058029 -0.007541 0.001502 0.000000 0.000000 0.000000
# 2 -0.007541 0.010118 -0.002998 0.000000 0.000000 0.000000
# 3 0.001502 -0.002998 0.005917 0.000000 0.000000 0.000000
# 4 0.000000 0.000000 0.000000 0.076919 0.000000 0.000000
# 5 0.000000 0.000000 0.000000 0.000000 0.052493 0.000000
# 6 0.000000 0.000000 0.000000 0.000000 0.000000 0.039797
#
#
# Mechanical properties :
#
#
# Convention : Reuss Voigt Hill
#
# Bulk Modulus (GPa) = 17.86086 56.06097 36.96091
# Shear Modulus (GPa) = 17.85648 29.27474 23.56561
#
# Velocity S-wave (km/s) = 2.91777 3.73594 3.35192
# Velocity P-wave (km/s) = 4.45721 6.73333 5.70984
#
# Compressibility (1/GPa) = 0.05598833
#
# Stress axis : x y z
#
# Youngs Moduli (GPa) = 17.23279 98.83610 169.00332
#
# Poissons Ratio (x) = 0.74536 -0.25380
# Poissons Ratio (y) = 0.12996 0.50669
# Poissons Ratio (z) = -0.02588 0.29632
#
# Static dielectric constant tensor:
#      x y z
#    x 2.097550 0.000000 0.000000 
#    y 0.000000 1.716620 0.000000 
#    z 0.000000 0.000000 1.816620 
# 
# From -- ./inp_files/5482.got.cif
#   From: 2010.05.17/outbox.cif.g08.bks.cpg/sg18_3_cif.got.tgz:5482.got - 2010.06.03 22:40:56.
