data_PCOD9312072
_publ_section_title
;
Structure prediction by ZEFSAII (Michael W. Deem and Ramdas Pophale) SiO2 
 PCOD9312072
Probable space group: P 21 21 2
;
_chemical_formula_sum "Si O2"
_cell_formula_units_Z 24
_cell_length_a 16.069846
_cell_length_b 8.776018
_cell_length_c 7.938040
_cell_angle_alpha 90.000000
_cell_angle_beta 90.000000
_cell_angle_gamma 90.000000
_cell_volume 1119.495889
_symmetry_space_group_name_H-M "P 21 21 2"
_symmetry_group_IT_number 18
_symmetry_cell_setting 'orthorhombic'
loop_
_space_group_symop_operation_xyz
x,y,z
-x,-y,z
1/2+x,1/2-y,-z
1/2-x,1/2+y,-z
loop_
_atom_site_type_symbol
_atom_site_label
_atom_site_fract_x
_atom_site_fract_y
_atom_site_fract_z
Si Si1 0.500000 0.000000 0.693367
Si Si2 0.000000 0.500000 0.838157
Si Si3 0.363916 0.041687 0.431627
Si Si4 0.769770 0.147250 0.620703
Si Si5 0.957875 0.832115 0.864130
Si Si6 0.366521 0.767737 0.827950
Si Si7 0.586661 0.421775 0.498271
O O1 0.564649 0.916414 0.568641
O O2 0.438602 0.893951 0.798880
O O3 0.914542 0.506074 0.731959
O O4 0.008860 0.676240 0.903799
O O5 0.306138 0.186740 0.409379
O O6 0.304573 0.907932 0.498513
O O7 0.723016 0.152926 0.801162
O O8 0.845766 0.035352 0.582790
O O9 0.937554 0.822625 0.665470
O O10 0.882047 0.816487 0.996392
O O11 0.000000 0.000000 0.888103
O O12 0.378896 0.655954 0.667277
O O13 0.500000 0.500000 0.548890
#
# Coordination Sequence:
#
# PCOD9312072 Si02
#       7
#     2   2   4   4   4   4   4
#     4   9  19  36  64  91 131 168 219 275 338 409
#     4  11  23  44  70  97 141 190 225 281 356 417
#     4  10  20  37  66  98 131 179 225 275 346 408
#     4  11  21  38  63 101 138 174 229 287 340 405
#     4  11  24  43  70 102 134 178 236 279 339 418
#     4  11  22  41  65 101 134 174 231 279 343 408
#     4  11  22  41  68  95 136 182 224 282 343 413
#
# _framework density 21.438220999999999
#
# number of rings (size 3 to 8) (size 9 to 14) (size 15 to 20)
#    0.000    1.333    1.667    7.000    0.000    0.000 
#    3.000    0.000    7.333    0.000    0.000    0.000 
#    0.000    0.000    0.000    0.000    0.000    0.000 
#
# Total GULP energy -133653.950118 kJ/mol
# GULP energy per Si atom -5568.914588 kJ/mol
# Density = 2.138943 g / cm^3
# Si number density = 21.438221 Si / 1000 Ang^3
#
#
#
# Elastic Constant Matrix: (Units=GPa)
#
#
# Indices 1 2 3 4 5 6 
#
# 1 89.3094 21.7002 -21.9837 0.0000 0.0000 0.0000
# 2 21.7002 118.5239 -4.0851 0.0000 0.0000 0.0000
# 3 -21.9837 -4.0851 22.7921 0.0000 0.0000 0.0000
# 4 0.0000 0.0000 0.0000 -4.3154 0.0000 0.0000
# 5 0.0000 0.0000 0.0000 0.0000 336.8973 0.0000
# 6 0.0000 0.0000 0.0000 0.0000 0.0000 48.0709
#
#
#
# Elastic Compliance Matrix: (Units=1/GPa)
#
#
# Indices 1 2 3 4 5 6 
#
# 1 0.015284 -0.002304 0.014329 0.000000 0.000000 0.000000
# 2 -0.002304 0.008837 -0.000639 0.000000 0.000000 0.000000
# 3 0.014329 -0.000639 0.057581 0.000000 0.000000 0.000000
# 4 0.000000 0.000000 0.000000 -0.231726 0.000000 0.000000
# 5 0.000000 0.000000 0.000000 0.000000 0.002968 0.000000
# 6 0.000000 0.000000 0.000000 0.000000 0.000000 0.020803
#
#
# Mechanical properties :
#
#
# Convention : Reuss Voigt Hill
#
# Bulk Modulus (GPa) = 9.57180 24.65424 17.11302
# Shear Modulus (GPa) = -43.78277 91.79682 24.00702
#
# Velocity S-wave (km/s) = -4.52406 6.55074 3.35001
# Velocity P-wave (km/s) = 4.77650 8.29104 4.79199
#
# Compressibility (1/GPa) = 0.10447352
#
# Stress axis : x y z
#
# Youngs Moduli (GPa) = 65.42767 113.16038 17.36679
#
# Poissons Ratio (x) = 0.26077 -0.24885
# Poissons Ratio (y) = 0.15077 0.01109
# Poissons Ratio (z) = -0.93751 0.07229
#
# Static dielectric constant tensor:
#      x y z
#    x 1.879120 0.000000 0.000000 
#    y 0.000000 1.803030 0.000000 
#    z 0.000000 0.000000 1.842160 
# 
# From -- ./inp_files/4203.got.cif
#   From: 2010.05.17/outbox.cif.g08.bks.cpg/sg18_3_cif.got.tgz:4203.got - 2010.06.03 22:40:56.
