data_PCOD9312607
_publ_section_title
;
Structure prediction by ZEFSAII (Michael W. Deem and Ramdas Pophale) SiO2 
 PCOD9312607
Probable space group: P 21 21 2
;
_chemical_formula_sum "Si O2"
_cell_formula_units_Z 14
_cell_length_a 7.325673
_cell_length_b 11.187995
_cell_length_c 8.648677
_cell_angle_alpha 90.000000
_cell_angle_beta 90.000000
_cell_angle_gamma 90.000000
_cell_volume 708.842046
_symmetry_space_group_name_H-M "P 21 21 2"
_symmetry_group_IT_number 18
_symmetry_cell_setting 'orthorhombic'
loop_
_space_group_symop_operation_xyz
x,y,z
-x,-y,z
1/2+x,1/2-y,-z
1/2-x,1/2+y,-z
loop_
_atom_site_type_symbol
_atom_site_label
_atom_site_fract_x
_atom_site_fract_y
_atom_site_fract_z
Si Si1 0.000000 0.000000 0.944145
Si Si2 0.776448 0.080913 0.224441
Si Si3 0.500058 0.281125 0.285065
Si Si4 0.137399 0.162056 0.373052
O O1 0.029726 0.114428 0.837263
O O2 0.830791 0.026492 0.058993
O O3 0.597631 0.160069 0.228325
O O4 0.949510 0.162373 0.276096
O O5 0.779805 0.970410 0.344205
O O6 0.286948 0.255165 0.313921
O O7 0.588799 0.315840 0.449335
#
# Coordination Sequence:
#
# PCOD9312607 Si02
#       4
#     2   4   4   4
#     4  10  26  40  68  96 132 166 212 266 318 396
#     4  10  24  45  61  96 134 163 217 261 321 385
#     4  12  22  43  70  94 130 167 214 264 328 370
#     4  10  22  41  67  94 125 170 211 269 307 379
#
# _framework density 19.750520999999999
#
# number of rings (size 3 to 8) (size 9 to 14) (size 15 to 20)
#    0.000    1.714    2.857    2.571    8.000    0.000 
#    0.000    1.429    0.000    0.000    0.000    0.000 
#    0.000    0.000    0.000    0.000    0.000    0.000 
#
# Total GULP energy -78210.590972 kJ/mol
# GULP energy per Si atom -5586.470784 kJ/mol
# Density = 1.970557 g / cm^3
# Si number density = 19.750521 Si / 1000 Ang^3
#
#
#
# Elastic Constant Matrix: (Units=GPa)
#
#
# Indices 1 2 3 4 5 6 
#
# 1 67.6743 19.9333 31.9423 0.0000 0.0000 0.0000
# 2 19.9333 46.8675 28.1554 0.0000 0.0000 0.0000
# 3 31.9423 28.1554 103.2136 0.0000 0.0000 0.0000
# 4 0.0000 0.0000 0.0000 28.5253 0.0000 0.0000
# 5 0.0000 0.0000 0.0000 0.0000 22.0453 0.0000
# 6 0.0000 0.0000 0.0000 0.0000 0.0000 29.2560
#
#
#
# Elastic Compliance Matrix: (Units=1/GPa)
#
#
# Indices 1 2 3 4 5 6 
#
# 1 0.018323 -0.005246 -0.004239 0.000000 0.000000 0.000000
# 2 -0.005246 0.027021 -0.005747 0.000000 0.000000 0.000000
# 3 -0.004239 -0.005747 0.012568 0.000000 0.000000 0.000000
# 4 0.000000 0.000000 0.000000 0.035057 0.000000 0.000000
# 5 0.000000 0.000000 0.000000 0.000000 0.045361 0.000000
# 6 0.000000 0.000000 0.000000 0.000000 0.000000 0.034181
#
#
# Mechanical properties :
#
#
# Convention : Reuss Voigt Hill
#
# Bulk Modulus (GPa) = 36.43490 41.97971 39.20731
# Shear Modulus (GPa) = 23.57094 25.14692 24.35893
#
# Velocity S-wave (km/s) = 3.45836 3.57210 3.51569
# Velocity P-wave (km/s) = 5.86810 6.18986 6.03113
#
# Compressibility (1/GPa) = 0.02744621
#
# Stress axis : x y z
#
# Youngs Moduli (GPa) = 54.57650 37.00868 79.56412
#
# Poissons Ratio (x) = 0.19415 0.33731
# Poissons Ratio (y) = 0.28631 0.45728
# Poissons Ratio (z) = 0.23137 0.21270
#
# Static dielectric constant tensor:
#      x y z
#    x 1.723720 0.000000 0.000000 
#    y 0.000000 1.696130 0.000000 
#    z 0.000000 0.000000 1.673280 
# 
# From -- ./inp_files/2719.got.cif
#   From: 2010.05.17/outbox.cif.g08.bks.cpg/sg18_2_cif.got.tgz:2719.got - 2010.06.03 22:40:56.
