data_PCOD9312295
_publ_section_title
;
Structure prediction by ZEFSAII (Michael W. Deem and Ramdas Pophale) SiO2 
 PCOD9312295
Probable space group: P 21 21 2
;
_chemical_formula_sum "Si O2"
_cell_formula_units_Z 32
_cell_length_a 14.114471
_cell_length_b 8.051517
_cell_length_c 11.776717
_cell_angle_alpha 90.000000
_cell_angle_beta 90.000000
_cell_angle_gamma 90.000000
_cell_volume 1338.340310
_symmetry_space_group_name_H-M "P 21 21 2"
_symmetry_group_IT_number 18
_symmetry_cell_setting 'orthorhombic'
loop_
_space_group_symop_operation_xyz
x,y,z
-x,-y,z
1/2+x,1/2-y,-z
1/2-x,1/2+y,-z
loop_
_atom_site_type_symbol
_atom_site_label
_atom_site_fract_x
_atom_site_fract_y
_atom_site_fract_z
Si Si1 0.629900 0.596858 0.943741
Si Si2 0.829560 0.351310 0.696705
Si Si3 0.096823 0.642941 0.454950
Si Si4 0.075287 0.144690 0.507291
Si Si5 0.988990 0.199072 0.848914
Si Si6 0.646911 0.541181 0.696060
Si Si7 0.812478 0.798401 0.903244
Si Si8 0.243366 0.021670 0.673573
O O1 0.598237 0.592181 0.813273
O O2 0.730821 0.686173 0.951785
O O3 0.557619 0.687717 0.027161
O O4 0.647947 0.417492 0.998247
O O5 0.855550 0.408988 0.571627
O O6 0.750730 0.481749 0.736417
O O7 0.920440 0.307473 0.771459
O O8 0.786309 0.168319 0.679696
O O9 0.139306 0.812790 0.397127
O O10 0.146685 0.523717 0.364030
O O11 0.990070 0.690850 0.493369
O O12 0.167827 0.118902 0.588409
O O13 0.103832 0.106422 0.377584
O O14 0.000000 0.000000 0.544317
O O15 0.092085 0.279427 0.852621
O O16 0.000000 0.000000 0.813145
O O17 0.768717 0.900505 0.797987
#
# Coordination Sequence:
#
# PCOD9312295 Si02
#       8
#     4   4   4   4   4   4   4   4
#     4  11  23  42  63  95 125 163 210 261 310 367
#     4  12  20  39  65  94 123 160 214 253 312 363
#     4  11  22  38  65  94 126 166 205 261 313 366
#     4  10  21  37  64  94 122 169 214 246 303 382
#     4  10  22  39  68  95 113 168 217 253 295 381
#     4  11  23  38  62  90 130 164 203 260 312 369
#     4  11  24  41  67  92 124 161 213 261 310 366
#     4  12  21  40  66  94 129 159 212 265 305 368
#
# _framework density 23.910212999999999
#
# number of rings (size 3 to 8) (size 9 to 14) (size 15 to 20)
#    0.000    1.000    7.500    1.500    0.000    4.500 
#    0.000    3.125    0.000    1.500    0.000    0.000 
#    0.000    0.000    0.000    0.000    0.000    0.000 
#
# Total GULP energy -178711.069867 kJ/mol
# GULP energy per Si atom -5584.720933 kJ/mol
# Density = 2.385579 g / cm^3
# Si number density = 23.910213 Si / 1000 Ang^3
#
#
#
# Elastic Constant Matrix: (Units=GPa)
#
#
# Indices 1 2 3 4 5 6 
#
# 1 97.9093 37.4891 0.5345 0.0000 0.0000 0.0000
# 2 37.4891 32.0639 -3.6687 0.0000 0.0000 0.0000
# 3 0.5345 -3.6687 103.0713 0.0000 0.0000 0.0000
# 4 0.0000 0.0000 0.0000 27.9410 0.0000 0.0000
# 5 0.0000 0.0000 0.0000 0.0000 39.8457 0.0000
# 6 0.0000 0.0000 0.0000 0.0000 0.0000 51.7149
#
#
#
# Elastic Compliance Matrix: (Units=1/GPa)
#
#
# Indices 1 2 3 4 5 6 
#
# 1 0.018570 -0.021812 -0.000873 0.000000 0.000000 0.000000
# 2 -0.021812 0.056935 0.002140 0.000000 0.000000 0.000000
# 3 -0.000873 0.002140 0.009783 0.000000 0.000000 0.000000
# 4 0.000000 0.000000 0.000000 0.035790 0.000000 0.000000
# 5 0.000000 0.000000 0.000000 0.000000 0.025097 0.000000
# 6 0.000000 0.000000 0.000000 0.000000 0.000000 0.019337
#
#
# Mechanical properties :
#
#
# Convention : Reuss Voigt Hill
#
# Bulk Modulus (GPa) = 22.62555 33.52826 28.07691
# Shear Modulus (GPa) = 22.59036 37.14629 29.86833
#
# Velocity S-wave (km/s) = 3.07709 3.94582 3.53822
# Velocity P-wave (km/s) = 4.70191 5.90020 5.33480
#
# Compressibility (1/GPa) = 0.04419782
#
# Stress axis : x y z
#
# Youngs Moduli (GPa) = 53.85035 17.56391 102.22121
#
# Poissons Ratio (x) = 0.38310 0.08920
# Poissons Ratio (y) = 1.17458 -0.21871
# Poissons Ratio (z) = 0.04699 -0.03758
#
# Static dielectric constant tensor:
#      x y z
#    x 2.015200 0.000000 0.000000 
#    y 0.000000 2.018550 0.000000 
#    z 0.000000 0.000000 1.913270 
# 
# From -- ./inp_files/6133.got.cif
#   From: 2010.05.17/outbox.cif.g08.bks.cpg/sg18_4_cif.got.tgz:6133.got - 2010.06.03 22:40:56.
