data_PCOD9312948
_publ_section_title
;
Structure prediction by ZEFSAII (Michael W. Deem and Ramdas Pophale) SiO2 
 PCOD9312948
Probable space group: P 21 21 2
;
_chemical_formula_sum "Si O2"
_cell_formula_units_Z 26
_cell_length_a 7.608347
_cell_length_b 15.254382
_cell_length_c 10.802104
_cell_angle_alpha 90.000000
_cell_angle_beta 90.000000
_cell_angle_gamma 90.000000
_cell_volume 1253.699012
_symmetry_space_group_name_H-M "P 21 21 2"
_symmetry_group_IT_number 18
_symmetry_cell_setting 'orthorhombic'
loop_
_space_group_symop_operation_xyz
x,y,z
-x,-y,z
1/2+x,1/2-y,-z
1/2-x,1/2+y,-z
loop_
_atom_site_type_symbol
_atom_site_label
_atom_site_fract_x
_atom_site_fract_y
_atom_site_fract_z
Si Si1 0.416837 0.737872 0.315754
Si Si2 0.668882 0.060750 0.563229
Si Si3 0.012313 0.738049 0.405255
Si Si4 0.656875 0.451195 0.223309
Si Si5 0.406675 0.910144 0.166334
Si Si6 0.090423 0.908695 0.327782
Si Si7 0.500000 0.000000 0.927400
O O1 0.209518 0.735426 0.352798
O O2 0.514675 0.749301 0.446562
O O3 0.425389 0.643470 0.252457
O O4 0.469142 0.819116 0.227836
O O5 0.594534 0.150325 0.624450
O O6 0.797232 0.004162 0.649948
O O7 0.767483 0.090854 0.439650
O O8 0.500000 0.000000 0.536166
O O9 0.952358 0.830143 0.346828
O O10 0.500000 0.500000 0.153311
O O11 0.840704 0.459820 0.151407
O O12 0.202302 0.908179 0.202795
O O13 0.500000 0.000000 0.217695
O O14 0.565484 0.076462 0.020607
O O15 0.000000 0.000000 0.338694
#
# Coordination Sequence:
#
# PCOD9312948 Si02
#       7
#     4   4   4   4   4   4   2
#     4  11  22  40  64 103 133 177 216 274 337 426
#     4  12  21  37  64  96 140 182 204 273 355 408
#     4  11  21  35  60  95 144 164 210 259 341 422
#     4  12  25  44  72  99 133 179 237 282 335 398
#     4   9  22  44  67  86 131 174 221 273 346 386
#     4  11  23  36  61  99 132 170 222 271 338 425
#     4  10  24  52  66  90 134 186 232 296 332 382
#
# _framework density 20.738631000000002
#
# number of rings (size 3 to 8) (size 9 to 14) (size 15 to 20)
#    0.462    0.615    5.385    2.769    0.000    0.615 
#    2.769    0.000    0.000    0.000    0.000    0.000 
#    0.000    0.000    0.000    0.000    0.000    0.000 
#
# Total GULP energy -144946.266058 kJ/mol
# GULP energy per Si atom -5574.856387 kJ/mol
# Density = 2.069143 g / cm^3
# Si number density = 20.738631 Si / 1000 Ang^3
#
#
#
# Elastic Constant Matrix: (Units=GPa)
#
#
# Indices 1 2 3 4 5 6 
#
# 1 42.8553 20.6153 7.1778 0.0000 0.0000 0.0000
# 2 20.6153 169.8222 17.6919 0.0000 0.0000 0.0000
# 3 7.1778 17.6919 55.1548 0.0000 0.0000 0.0000
# 4 0.0000 0.0000 0.0000 13.6127 0.0000 0.0000
# 5 0.0000 0.0000 0.0000 0.0000 6.5436 0.0000
# 6 0.0000 0.0000 0.0000 0.0000 0.0000 38.4565
#
#
#
# Elastic Compliance Matrix: (Units=1/GPa)
#
#
# Indices 1 2 3 4 5 6 
#
# 1 0.025076 -0.002798 -0.002366 0.000000 0.000000 0.000000
# 2 -0.002798 0.006404 -0.001690 0.000000 0.000000 0.000000
# 3 -0.002366 -0.001690 0.018981 0.000000 0.000000 0.000000
# 4 0.000000 0.000000 0.000000 0.073461 0.000000 0.000000
# 5 0.000000 0.000000 0.000000 0.000000 0.152821 0.000000
# 6 0.000000 0.000000 0.000000 0.000000 0.000000 0.026003
#
#
# Mechanical properties :
#
#
# Convention : Reuss Voigt Hill
#
# Bulk Modulus (GPa) = 27.20805 39.86691 33.53748
# Shear Modulus (GPa) = 15.21118 26.54572 20.87845
#
# Velocity S-wave (km/s) = 2.71120 3.58161 3.17636
# Velocity P-wave (km/s) = 4.79049 6.03068 5.44601
#
# Compressibility (1/GPa) = 0.03675383
#
# Stress axis : x y z
#
# Youngs Moduli (GPa) = 39.87812 156.14738 52.68465
#
# Poissons Ratio (x) = 0.43684 0.12465
# Poissons Ratio (y) = 0.11156 0.08905
# Poissons Ratio (z) = 0.09435 0.26392
#
# Static dielectric constant tensor:
#      x y z
#    x 1.801940 0.000000 0.000000 
#    y 0.000000 1.843710 0.000000 
#    z 0.000000 0.000000 1.717290 
# 
# From -- ./inp_files/5603.got.cif
#   From: 2010.05.17/outbox.cif.g08.bks.cpg/sg18_3_cif.got.tgz:5603.got - 2010.06.03 22:40:56.
