data_PCOD9312417
_publ_section_title
;
Structure prediction by ZEFSAII (Michael W. Deem and Ramdas Pophale) SiO2 
 PCOD9312417
Probable space group: P 21 21 2
;
_chemical_formula_sum "Si O2"
_cell_formula_units_Z 32
_cell_length_a 8.798091
_cell_length_b 12.241611
_cell_length_c 14.468954
_cell_angle_alpha 90.000000
_cell_angle_beta 90.000000
_cell_angle_gamma 90.000000
_cell_volume 1558.346968
_symmetry_space_group_name_H-M "P 21 21 2"
_symmetry_group_IT_number 18
_symmetry_cell_setting 'orthorhombic'
loop_
_space_group_symop_operation_xyz
x,y,z
-x,-y,z
1/2+x,1/2-y,-z
1/2-x,1/2+y,-z
loop_
_atom_site_type_symbol
_atom_site_label
_atom_site_fract_x
_atom_site_fract_y
_atom_site_fract_z
Si Si1 0.588362 0.114123 0.968870
Si Si2 0.010335 0.743906 0.680949
Si Si3 0.144007 0.042114 0.964526
Si Si4 0.851835 0.553750 0.577428
Si Si5 0.173676 0.255185 0.862983
Si Si6 0.987878 0.827931 0.140328
Si Si7 0.331379 0.646705 0.668227
Si Si8 0.453244 0.374018 0.503435
O O1 0.563512 0.204913 0.890261
O O2 0.500000 0.000000 0.960006
O O3 0.757372 0.065870 0.974112
O O4 0.566156 0.176781 0.066418
O O5 0.930840 0.629978 0.652921
O O6 0.921787 0.776054 0.772934
O O7 0.191107 0.727080 0.689895
O O8 0.994967 0.819190 0.591162
O O9 0.221999 0.143498 0.914238
O O10 0.079664 0.095665 0.059090
O O11 0.000000 0.000000 0.907573
O O12 0.751784 0.460748 0.627398
O O13 0.728960 0.623928 0.519714
O O14 0.000000 0.500000 0.527026
O O15 0.329716 0.321159 0.847238
O O16 0.917867 0.868011 0.236083
O O17 0.455409 0.678037 0.589996
O O18 0.500000 0.500000 0.499274
#
# Coordination Sequence:
#
# PCOD9312417 Si02
#       8
#     4   4   4   4   4   4   4   4
#     4  11  24  43  65  92 131 172 217 274 334 399
#     4  11  23  38  63  93 129 167 214 268 322 386
#     4  11  24  41  65  89 128 172 216 270 332 396
#     4   9  20  39  63  94 125 166 216 269 325 384
#     4  11  25  40  62  96 128 172 221 269 331 405
#     4  11  24  41  63  98 127 172 223 269 336 395
#     4  10  23  38  64  94 127 164 217 270 318 389
#     4  10  21  42  65  91 126 170 214 268 324 390
#
# _framework density 20.534578
#
# number of rings (size 3 to 8) (size 9 to 14) (size 15 to 20)
#    0.000    1.500    2.500    1.500    5.250    2.500 
#    0.000    1.250    0.000    0.750    0.000    0.000 
#    0.000    0.000    0.000    0.000    0.000    0.000 
#
# Total GULP energy -178378.515592 kJ/mol
# GULP energy per Si atom -5574.328612 kJ/mol
# Density = 2.048784 g / cm^3
# Si number density = 20.534578 Si / 1000 Ang^3
#
#
#
# Elastic Constant Matrix: (Units=GPa)
#
#
# Indices 1 2 3 4 5 6 
#
# 1 97.4774 18.1051 41.6387 0.0000 0.0000 0.0000
# 2 18.1051 55.4429 19.6957 0.0000 0.0000 0.0000
# 3 41.6387 19.6957 100.7719 0.0000 0.0000 0.0000
# 4 0.0000 0.0000 0.0000 -0.0072 0.0000 0.0000
# 5 0.0000 0.0000 0.0000 0.0000 27.4591 0.0000
# 6 0.0000 0.0000 0.0000 0.0000 0.0000 35.0586
#
#
#
# Elastic Compliance Matrix: (Units=1/GPa)
#
#
# Indices 1 2 3 4 5 6 
#
# 1 0.012764 -0.002466 -0.004792 0.000000 0.000000 0.000000
# 2 -0.002466 0.019859 -0.002863 0.000000 0.000000 0.000000
# 3 -0.004792 -0.002863 0.012463 0.000000 0.000000 0.000000
# 4 0.000000 0.000000 0.000000********** 0.000000 0.000000
# 5 0.000000 0.000000 0.000000 0.000000 0.036418 0.000000
# 6 0.000000 0.000000 0.000000 0.000000 0.000000 0.028524
#
#
# Mechanical properties :
#
#
# Convention : Reuss Voigt Hill
#
# Bulk Modulus (GPa) = 40.24984 45.84123 43.04553
# Shear Modulus (GPa) = -0.03593 24.11894 12.04150
#
# Velocity S-wave (km/s) = -0.13243 3.43089 2.42420
# Velocity P-wave (km/s) = 4.42947 6.16985 5.37063
#
# Compressibility (1/GPa) = 0.02484482
#
# Stress axis : x y z
#
# Youngs Moduli (GPa) = 78.34696 50.35587 80.23793
#
# Poissons Ratio (x) = 0.12416 0.38450
# Poissons Ratio (y) = 0.19318 0.22968
# Poissons Ratio (z) = 0.37544 0.14414
#
# Static dielectric constant tensor:
#      x y z
#    x 1.841160 0.000000 0.000000 
#    y 0.000000 1.766300 0.000000 
#    z 0.000000 0.000000 1.704250 
# 
# From -- ./inp_files/6761.got.cif
#   From: 2010.05.17/outbox.cif.g08.bks.cpg/sg18_4_cif.got.tgz:6761.got - 2010.06.03 22:40:56.
