data_PCOD9312884
_publ_section_title
;
Structure prediction by ZEFSAII (Michael W. Deem and Ramdas Pophale) SiO2 
 PCOD9312884
Probable space group: P 21 21 2
;
_chemical_formula_sum "Si O2"
_cell_formula_units_Z 16
_cell_length_a 9.181170
_cell_length_b 5.780134
_cell_length_c 10.859845
_cell_angle_alpha 90.000000
_cell_angle_beta 90.000000
_cell_angle_gamma 90.000000
_cell_volume 576.314521
_symmetry_space_group_name_H-M "P 21 21 2"
_symmetry_group_IT_number 18
_symmetry_cell_setting 'orthorhombic'
loop_
_space_group_symop_operation_xyz
x,y,z
-x,-y,z
1/2+x,1/2-y,-z
1/2-x,1/2+y,-z
loop_
_atom_site_type_symbol
_atom_site_label
_atom_site_fract_x
_atom_site_fract_y
_atom_site_fract_z
Si Si1 0.876151 0.217769 0.673611
Si Si2 0.703144 0.418826 0.870140
Si Si3 0.559159 0.249063 0.564392
Si Si4 0.784875 0.423160 0.155059
O O1 0.851269 0.389028 0.789598
O O2 0.731770 0.251963 0.586628
O O3 0.841496 0.976453 0.745636
O O4 0.004039 0.250399 0.576907
O O5 0.631533 0.169492 0.841155
O O6 0.649609 0.670010 0.831276
O O7 0.720443 0.422789 0.016601
O O8 0.500000 0.500000 0.609706
O O9 0.500000 0.000000 0.612688
#
# Coordination Sequence:
#
# PCOD9312884 Si02
#       4
#     4   4   4   4
#     4  10  24  42  72  98 138 170 228 276 338 400
#     4   8  16  32  63  99 127 165 221 279 325 383
#     4  12  28  44  66  98 138 184 224 272 332 402
#     4   8  16  32  63  99 127 165 221 279 325 383
#
# _framework density 27.762616000000001
#
# number of rings (size 3 to 8) (size 9 to 14) (size 15 to 20)
#    1.500    1.000    0.000    1.500    7.000    0.000 
#    0.000    0.000    0.000    9.000    0.000    3.500 
#    0.000    0.000    0.000    0.000    0.000    0.000 
#
# Total GULP energy -89115.158029 kJ/mol
# GULP energy per Si atom -5569.697377 kJ/mol
# Density = 2.769943 g / cm^3
# Si number density = 27.762616 Si / 1000 Ang^3
#
#
#
# Elastic Constant Matrix: (Units=GPa)
#
#
# Indices 1 2 3 4 5 6 
#
# 1 51.5302 15.0740 77.6267 0.0000 0.0000 0.0000
# 2 15.0740 330.0026 46.1153 0.0000 0.0000 0.0000
# 3 77.6267 46.1153 226.8591 0.0000 0.0000 0.0000
# 4 0.0000 0.0000 0.0000 109.8397 0.0000 0.0000
# 5 0.0000 0.0000 0.0000 0.0000 -17.5637 0.0000
# 6 0.0000 0.0000 0.0000 0.0000 0.0000 21.3986
#
#
#
# Elastic Compliance Matrix: (Units=1/GPa)
#
#
# Indices 1 2 3 4 5 6 
#
# 1 0.040054 0.000088 -0.013724 0.000000 0.000000 0.000000
# 2 0.000088 0.003119 -0.000664 0.000000 0.000000 0.000000
# 3 -0.013724 -0.000664 0.009239 0.000000 0.000000 0.000000
# 4 0.000000 0.000000 0.000000 0.009104 0.000000 0.000000
# 5 0.000000 0.000000 0.000000 0.000000 -0.056936 0.000000
# 6 0.000000 0.000000 0.000000 0.000000 0.000000 0.046732
#
#
# Mechanical properties :
#
#
# Convention : Reuss Voigt Hill
#
# Bulk Modulus (GPa) = 41.99436 98.44708 70.22072
# Shear Modulus (GPa) = 56.91566 54.03999 55.47783
#
# Velocity S-wave (km/s) = 4.53270 4.41670 4.47508
# Velocity P-wave (km/s) = 6.52325 7.84519 7.21456
#
# Compressibility (1/GPa) = 0.02381272
#
# Stress axis : x y z
#
# Youngs Moduli (GPa) = 24.96636 320.60847 108.23718
#
# Poissons Ratio (x) = -0.02826 1.48540
# Poissons Ratio (y) = -0.00220 0.07189
# Poissons Ratio (z) = 0.34263 0.21295
#
# Static dielectric constant tensor:
#      x y z
#    x 2.093460 0.000000 0.000000 
#    y 0.000000 2.369000 0.000000 
#    z 0.000000 0.000000 2.114350 
# 
# From -- ./inp_files/5801.got.cif
#   From: 2010.05.17/outbox.cif.g08.bks.cpg/sg18_3_cif.got.tgz:5801.got - 2010.06.03 22:40:56.
