data_PCOD9312653
_publ_section_title
;
Structure prediction by ZEFSAII (Michael W. Deem and Ramdas Pophale) SiO2 
 PCOD9312653
Probable space group: P 21 21 2
;
_chemical_formula_sum "Si O2"
_cell_formula_units_Z 18
_cell_length_a 10.227398
_cell_length_b 10.349413
_cell_length_c 7.078421
_cell_angle_alpha 90.000000
_cell_angle_beta 90.000000
_cell_angle_gamma 90.000000
_cell_volume 749.233633
_symmetry_space_group_name_H-M "P 21 21 2"
_symmetry_group_IT_number 18
_symmetry_cell_setting 'orthorhombic'
loop_
_space_group_symop_operation_xyz
x,y,z
-x,-y,z
1/2+x,1/2-y,-z
1/2-x,1/2+y,-z
loop_
_atom_site_type_symbol
_atom_site_label
_atom_site_fract_x
_atom_site_fract_y
_atom_site_fract_z
Si Si1 0.196493 0.658561 0.377459
Si Si2 0.863814 0.062119 0.441812
Si Si3 0.000000 0.500000 0.116965
Si Si4 0.443317 0.378297 0.976953
Si Si5 0.678972 0.211822 0.024018
O O1 0.154670 0.786615 0.493229
O O2 0.254459 0.537829 0.490594
O O3 0.300091 0.719340 0.226533
O O4 0.079463 0.598549 0.251732
O O5 0.874393 0.070439 0.213551
O O6 0.000000 0.000000 0.502518
O O7 0.892754 0.573569 0.989573
O O8 0.500000 0.500000 0.086722
O O9 0.323324 0.300274 0.066002
O O10 0.571309 0.299125 0.922165
#
# Coordination Sequence:
#
# PCOD9312653 Si02
#       5
#     4   4   2   4   4
#     4  11  26  46  77 110 152 207 247 320 394 463
#     4  10  24  48  68 108 151 202 251 307 389 466
#     4  12  24  46  76 110 156 190 262 326 382 460
#     4  10  22  42  72 105 152 192 249 318 377 450
#     4  11  22  45  70 114 145 198 255 316 387 443
#
# _framework density 24.024549
#
# number of rings (size 3 to 8) (size 9 to 14) (size 15 to 20)
#    0.000    1.333    4.444    1.333    3.111    2.667 
#    8.000    0.000    0.000    0.000    0.000    0.000 
#    0.000    0.000    0.000    0.000    0.000    0.000 
#
# Total GULP energy -100386.497032 kJ/mol
# GULP energy per Si atom -5577.027613 kJ/mol
# Density = 2.396987 g / cm^3
# Si number density = 24.024549 Si / 1000 Ang^3
#
#
#
# Elastic Constant Matrix: (Units=GPa)
#
#
# Indices 1 2 3 4 5 6 
#
# 1 155.7219 78.8930 31.2156 0.0000 0.0000 0.0000
# 2 78.8930 181.7259 36.2864 0.0000 0.0000 0.0000
# 3 31.2156 36.2864 103.4924 0.0000 0.0000 0.0000
# 4 0.0000 0.0000 0.0000 2.4692 0.0000 0.0000
# 5 0.0000 0.0000 0.0000 0.0000 14.1509 0.0000
# 6 0.0000 0.0000 0.0000 0.0000 0.0000 68.3855
#
#
#
# Elastic Compliance Matrix: (Units=1/GPa)
#
#
# Indices 1 2 3 4 5 6 
#
# 1 0.008404 -0.003379 -0.001350 0.000000 0.000000 0.000000
# 2 -0.003379 0.007276 -0.001532 0.000000 0.000000 0.000000
# 3 -0.001350 -0.001532 0.010607 0.000000 0.000000 0.000000
# 4 0.000000 0.000000 0.000000 0.404996 0.000000 0.000000
# 5 0.000000 0.000000 0.000000 0.000000 0.070667 0.000000
# 6 0.000000 0.000000 0.000000 0.000000 0.000000 0.014623
#
#
# Mechanical properties :
#
#
# Convention : Reuss Voigt Hill
#
# Bulk Modulus (GPa) = 72.64889 81.52557 77.08723
# Shear Modulus (GPa) = 9.36885 36.63745 23.00315
#
# Velocity S-wave (km/s) = 1.97691 3.90936 3.09768
# Velocity P-wave (km/s) = 5.95953 7.37465 6.70453
#
# Compressibility (1/GPa) = 0.01376483
#
# Stress axis : x y z
#
# Youngs Moduli (GPa) = 118.98786 137.44645 94.27855
#
# Poissons Ratio (x) = 0.46442 0.12729
# Poissons Ratio (y) = 0.40205 0.14441
# Poissons Ratio (z) = 0.16065 0.21054
#
# Static dielectric constant tensor:
#      x y z
#    x 2.164850 0.000000 0.000000 
#    y 0.000000 2.057060 0.000000 
#    z 0.000000 0.000000 1.940840 
# 
# From -- ./inp_files/2899.got.cif
#   From: 2010.05.17/outbox.cif.g08.bks.cpg/sg18_2_cif.got.tgz:2899.got - 2010.06.03 22:40:56.
