data_PCOD9312836
_publ_section_title
;
Structure prediction by ZEFSAII (Michael W. Deem and Ramdas Pophale) SiO2 
 PCOD9312836
Probable space group: P 21 21 2
;
_chemical_formula_sum "Si O2"
_cell_formula_units_Z 16
_cell_length_a 19.042374
_cell_length_b 4.822011
_cell_length_c 6.684374
_cell_angle_alpha 90.000000
_cell_angle_beta 90.000000
_cell_angle_gamma 90.000000
_cell_volume 613.776178
_symmetry_space_group_name_H-M "P 21 21 2"
_symmetry_group_IT_number 18
_symmetry_cell_setting 'orthorhombic'
loop_
_space_group_symop_operation_xyz
x,y,z
-x,-y,z
1/2+x,1/2-y,-z
1/2-x,1/2+y,-z
loop_
_atom_site_type_symbol
_atom_site_label
_atom_site_fract_x
_atom_site_fract_y
_atom_site_fract_z
Si Si1 0.290896 0.118915 0.059685
Si Si2 0.570486 0.165222 0.975566
Si Si3 0.078150 0.915111 0.366017
Si Si4 0.625129 0.112935 0.400824
O O1 0.359763 0.019064 0.940442
O O2 0.227311 0.937502 0.971036
O O3 0.309331 0.025015 0.284811
O O4 0.576891 0.452247 0.857385
O O5 0.500000 0.000000 0.918568
O O6 0.574055 0.193779 0.215058
O O7 0.091450 0.609486 0.449560
O O8 0.135694 0.107460 0.477419
O O9 0.000000 0.000000 0.437515
#
# Coordination Sequence:
#
# PCOD9312836 Si02
#       4
#     4   4   4   4
#     4  10  23  46  70 100 143 196 244 294 366 445
#     4  10  24  43  74 106 142 192 243 302 370 433
#     4  12  23  41  67 110 148 179 240 308 361 439
#     4  10  25  42  70 102 145 187 241 294 372 423
#
# _framework density 26.068135999999999
#
# number of rings (size 3 to 8) (size 9 to 14) (size 15 to 20)
#    1.500    0.000    0.000    5.250    0.000    9.000 
#    0.000    5.000    0.000    0.000    0.000    0.000 
#    0.000    0.000    0.000    0.000    0.000    0.000 
#
# Total GULP energy -89425.045093 kJ/mol
# GULP energy per Si atom -5589.065318 kJ/mol
# Density = 2.600880 g / cm^3
# Si number density = 26.068136 Si / 1000 Ang^3
#
#
#
# Elastic Constant Matrix: (Units=GPa)
#
#
# Indices 1 2 3 4 5 6 
#
# 1 100.1746 3.7735 27.2881 0.0000 0.0000 0.0000
# 2 3.7735 124.2831 54.7465 0.0000 0.0000 0.0000
# 3 27.2881 54.7465 159.8325 0.0000 0.0000 0.0000
# 4 0.0000 0.0000 0.0000 36.5626 0.0000 0.0000
# 5 0.0000 0.0000 0.0000 0.0000 28.3716 0.0000
# 6 0.0000 0.0000 0.0000 0.0000 0.0000 47.0682
#
#
#
# Elastic Compliance Matrix: (Units=1/GPa)
#
#
# Indices 1 2 3 4 5 6 
#
# 1 0.010502 0.000555 -0.001983 0.000000 0.000000 0.000000
# 2 0.000555 0.009505 -0.003350 0.000000 0.000000 0.000000
# 3 -0.001983 -0.003350 0.007743 0.000000 0.000000 0.000000
# 4 0.000000 0.000000 0.000000 0.027350 0.000000 0.000000
# 5 0.000000 0.000000 0.000000 0.000000 0.035246 0.000000
# 6 0.000000 0.000000 0.000000 0.000000 0.000000 0.021246
#
#
# Mechanical properties :
#
#
# Convention : Reuss Voigt Hill
#
# Bulk Modulus (GPa) = 54.96864 61.76739 58.36802
# Shear Modulus (GPa) = 39.30389 42.29930 40.80160
#
# Velocity S-wave (km/s) = 3.88717 4.03258 3.96054
# Velocity P-wave (km/s) = 6.42488 6.74005 6.58435
#
# Compressibility (1/GPa) = 0.01819219
#
# Stress axis : x y z
#
# Youngs Moduli (GPa) = 95.22142 105.20589 129.15387
#
# Poissons Ratio (x) = -0.05835 0.25610
# Poissons Ratio (y) = -0.05281 0.43272
# Poissons Ratio (z) = 0.18882 0.35249
#
# Static dielectric constant tensor:
#      x y z
#    x 2.089920 0.000000 0.000000 
#    y 0.000000 2.011090 0.000000 
#    z 0.000000 0.000000 2.092430 
# 
# From -- ./inp_files/2038.got.cif
#   From: 2010.05.17/outbox.cif.g08.bks.cpg/sg18_2_cif.got.tgz:2038.got - 2010.06.03 22:40:56.
