data_PCOD9312304
_publ_section_title
;
Structure prediction by ZEFSAII (Michael W. Deem and Ramdas Pophale) SiO2 
 PCOD9312304
Probable space group: P 21 21 2
;
_chemical_formula_sum "Si O2"
_cell_formula_units_Z 30
_cell_length_a 16.336255
_cell_length_b 7.190023
_cell_length_c 11.933246
_cell_angle_alpha 90.000000
_cell_angle_beta 90.000000
_cell_angle_gamma 90.000000
_cell_volume 1401.655796
_symmetry_space_group_name_H-M "P 21 21 2"
_symmetry_group_IT_number 18
_symmetry_cell_setting 'orthorhombic'
loop_
_space_group_symop_operation_xyz
x,y,z
-x,-y,z
1/2+x,1/2-y,-z
1/2-x,1/2+y,-z
loop_
_atom_site_type_symbol
_atom_site_label
_atom_site_fract_x
_atom_site_fract_y
_atom_site_fract_z
Si Si1 0.517623 0.285745 0.033039
Si Si2 0.161552 0.713287 0.905373
Si Si3 0.312828 0.126621 0.726137
Si Si4 0.305497 0.648383 0.085455
Si Si5 0.500000 0.500000 0.590445
Si Si6 0.326763 0.401284 0.532577
Si Si7 0.244291 0.239926 0.318609
Si Si8 0.487811 0.215590 0.779915
O O1 0.500000 0.500000 0.066714
O O2 0.521834 0.276851 0.898338
O O3 0.435124 0.173854 0.070181
O O4 0.610862 0.236322 0.068505
O O5 0.196828 0.669794 0.781276
O O6 0.167263 0.935739 0.914148
O O7 0.231124 0.652792 0.995245
O O8 0.233617 0.188694 0.794286
O O9 0.315372 0.210546 0.602213
O O10 0.389326 0.229769 0.784328
O O11 0.316239 0.900553 0.732166
O O12 0.422199 0.444234 0.519935
O O13 0.519772 0.333802 0.676404
O O14 0.289643 0.366194 0.411476
O O15 0.292280 0.566623 0.612091
O O16 0.500000 0.000000 0.759257
#
# Coordination Sequence:
#
# PCOD9312304 Si02
#       8
#     4   4   4   4   2   4   4   4
#     4  10  21  38  56  87 129 166 201 248 310 386
#     4  10  23  39  60  91 125 166 204 251 317 378
#     4  10  22  41  61  92 123 162 211 260 312 376
#     4  10  22  36  61  90 122 165 204 249 311 378
#     4  10  24  40  62  90 120 166 208 268 316 354
#     4  11  23  43  67  89 123 163 216 264 316 367
#     4  11  23  42  67  89 123 168 210 262 314 374
#     4  11  21  35  61  91 124 157 207 263 308 367
#
# _framework density 21.403258000000001
#
# number of rings (size 3 to 8) (size 9 to 14) (size 15 to 20)
#    0.000    1.600    3.333    0.800    7.467    0.000 
#    6.000    0.000    0.000    1.600    0.000    0.000 
#    0.000    0.000    0.000    0.000    0.000    0.000 
#
# Total GULP energy -167315.202126 kJ/mol
# GULP energy per Si atom -5577.173404 kJ/mol
# Density = 2.135454 g / cm^3
# Si number density = 21.403258 Si / 1000 Ang^3
#
#
#
# Elastic Constant Matrix: (Units=GPa)
#
#
# Indices 1 2 3 4 5 6 
#
# 1 91.5083 2.6856 7.6472 0.0000 0.0000 0.0000
# 2 2.6856 53.6461 -15.9330 0.0000 0.0000 0.0000
# 3 7.6472 -15.9330 20.0228 0.0000 0.0000 0.0000
# 4 0.0000 0.0000 0.0000 17.0931 0.0000 0.0000
# 5 0.0000 0.0000 0.0000 0.0000 9.7282 0.0000
# 6 0.0000 0.0000 0.0000 0.0000 0.0000 24.8174
#
#
#
# Elastic Compliance Matrix: (Units=1/GPa)
#
#
# Indices 1 2 3 4 5 6 
#
# 1 0.011533 -0.002469 -0.006369 0.000000 0.000000 0.000000
# 2 -0.002469 0.024938 0.020787 0.000000 0.000000 0.000000
# 3 -0.006369 0.020787 0.068917 0.000000 0.000000 0.000000
# 4 0.000000 0.000000 0.000000 0.058503 0.000000 0.000000
# 5 0.000000 0.000000 0.000000 0.000000 0.102794 0.000000
# 6 0.000000 0.000000 0.000000 0.000000 0.000000 0.040294
#
#
# Mechanical properties :
#
#
# Convention : Reuss Voigt Hill
#
# Bulk Modulus (GPa) = 7.73479 17.10852 12.42166
# Shear Modulus (GPa) = 15.32911 21.71290 18.52100
#
# Velocity S-wave (km/s) = 2.67910 3.18852 2.94485
# Velocity P-wave (km/s) = 3.63205 4.64396 4.16882
#
# Compressibility (1/GPa) = 0.12928597
#
# Stress axis : x y z
#
# Youngs Moduli (GPa) = 86.70989 40.09911 14.51019
#
# Poissons Ratio (x) = 0.09901 0.09242
# Poissons Ratio (y) = 0.21409 -0.30163
# Poissons Ratio (z) = 0.55229 -0.83356
#
# Static dielectric constant tensor:
#      x y z
#    x 1.858720 0.000000 0.000000 
#    y 0.000000 1.853820 0.000000 
#    z 0.000000 0.000000 1.760550 
# 
# From -- ./inp_files/5637.got.cif
#   From: 2010.05.17/outbox.cif.g08.bks.cpg/sg18_3_cif.got.tgz:5637.got - 2010.06.03 22:40:56.
