data_PCOD9312439
_publ_section_title
;
Structure prediction by ZEFSAII (Michael W. Deem and Ramdas Pophale) SiO2 
 PCOD9312439
Probable space group: P 21 21 2
;
_chemical_formula_sum "Si O2"
_cell_formula_units_Z 16
_cell_length_a 6.855414
_cell_length_b 10.828509
_cell_length_c 9.609966
_cell_angle_alpha 90.000000
_cell_angle_beta 90.000000
_cell_angle_gamma 90.000000
_cell_volume 713.385372
_symmetry_space_group_name_H-M "P 21 21 2"
_symmetry_group_IT_number 18
_symmetry_cell_setting 'orthorhombic'
loop_
_space_group_symop_operation_xyz
x,y,z
-x,-y,z
1/2+x,1/2-y,-z
1/2-x,1/2+y,-z
loop_
_atom_site_type_symbol
_atom_site_label
_atom_site_fract_x
_atom_site_fract_y
_atom_site_fract_z
Si Si1 0.536178 0.863299 0.885104
Si Si2 0.499592 0.325814 0.678351
Si Si3 0.388289 0.126947 0.449659
Si Si4 0.366466 0.811103 0.182337
O O1 0.410725 0.764637 0.796634
O O2 0.757643 0.816972 0.858371
O O3 0.500000 0.000000 0.832622
O O4 0.472761 0.857267 0.045021
O O5 0.401089 0.228733 0.570538
O O6 0.324488 0.389088 0.765420
O O7 0.663910 0.394180 0.591963
O O8 0.493001 0.183211 0.313483
O O9 0.500000 0.000000 0.484940
#
# Coordination Sequence:
#
# PCOD9312439 Si02
#       4
#     4   4   4   4
#     4  10  21  43  65  93 130 171 206 264 319 368
#     4  10  23  42  64  97 127 167 217 265 311 386
#     4  12  23  44  66  93 133 166 213 268 321 377
#     4  10  23  41  65  95 131 163 218 266 302 397
#
# _framework density 22.428272
#
# number of rings (size 3 to 8) (size 9 to 14) (size 15 to 20)
#    1.500    0.000    2.500    3.000    0.000    1.000 
#    4.500    6.250    0.000    0.000    0.000    0.000 
#    0.000    0.000    0.000    0.000    0.000    0.000 
#
# Total GULP energy -89137.946658 kJ/mol
# GULP energy per Si atom -5571.121666 kJ/mol
# Density = 2.237722 g / cm^3
# Si number density = 22.428272 Si / 1000 Ang^3
#
#
#
# Elastic Constant Matrix: (Units=GPa)
#
#
# Indices 1 2 3 4 5 6 
#
# 1 80.3943 -5.7199 26.2471 0.0000 0.0000 0.0000
# 2 -5.7199 46.7241 5.5978 0.0000 0.0000 0.0000
# 3 26.2471 5.5978 123.2047 0.0000 0.0000 0.0000
# 4 0.0000 0.0000 0.0000 20.5653 0.0000 0.0000
# 5 0.0000 0.0000 0.0000 0.0000 45.6881 0.0000
# 6 0.0000 0.0000 0.0000 0.0000 0.0000 26.2683
#
#
#
# Elastic Compliance Matrix: (Units=1/GPa)
#
#
# Indices 1 2 3 4 5 6 
#
# 1 0.013555 0.002016 -0.002979 0.000000 0.000000 0.000000
# 2 0.002016 0.021819 -0.001421 0.000000 0.000000 0.000000
# 3 -0.002979 -0.001421 0.008816 0.000000 0.000000 0.000000
# 4 0.000000 0.000000 0.000000 0.048626 0.000000 0.000000
# 5 0.000000 0.000000 0.000000 0.000000 0.021888 0.000000
# 6 0.000000 0.000000 0.000000 0.000000 0.000000 0.038069
#
#
# Mechanical properties :
#
#
# Convention : Reuss Voigt Hill
#
# Bulk Modulus (GPa) = 25.36643 33.61923 29.49283
# Shear Modulus (GPa) = 29.29454 33.45090 31.37272
#
# Velocity S-wave (km/s) = 3.61798 3.86613 3.74411
# Velocity P-wave (km/s) = 5.36541 5.91198 5.64531
#
# Compressibility (1/GPa) = 0.03942218
#
# Stress axis : x y z
#
# Youngs Moduli (GPa) = 73.77453 45.83100 113.43242
#
# Poissons Ratio (x) = -0.09241 0.33795
# Poissons Ratio (y) = -0.14875 0.16118
# Poissons Ratio (z) = 0.21979 0.06512
#
# Static dielectric constant tensor:
#      x y z
#    x 1.894740 0.000000 0.000000 
#    y 0.000000 1.870730 0.000000 
#    z 0.000000 0.000000 1.815500 
# 
# From -- ./inp_files/2824.got.cif
#   From: 2010.05.17/outbox.cif.g08.bks.cpg/sg18_2_cif.got.tgz:2824.got - 2010.06.03 22:40:56.
