data_PCOD9312043
_publ_section_title
;
Structure prediction by ZEFSAII (Michael W. Deem and Ramdas Pophale) SiO2 
 PCOD9312043
Probable space group: P 21 21 2
;
_chemical_formula_sum "Si O2"
_cell_formula_units_Z 26
_cell_length_a 8.944169
_cell_length_b 13.380863
_cell_length_c 8.301175
_cell_angle_alpha 90.000000
_cell_angle_beta 90.000000
_cell_angle_gamma 90.000000
_cell_volume 993.490435
_symmetry_space_group_name_H-M "P 21 21 2"
_symmetry_group_IT_number 18
_symmetry_cell_setting 'orthorhombic'
loop_
_space_group_symop_operation_xyz
x,y,z
-x,-y,z
1/2+x,1/2-y,-z
1/2-x,1/2+y,-z
loop_
_atom_site_type_symbol
_atom_site_label
_atom_site_fract_x
_atom_site_fract_y
_atom_site_fract_z
Si Si1 0.744701 0.869365 0.598119
Si Si2 0.080305 0.118747 0.279041
Si Si3 0.414134 0.860569 0.720404
Si Si4 0.450595 0.163144 0.032503
Si Si5 0.000000 0.500000 0.731039
Si Si6 0.869458 0.856157 0.918636
Si Si7 0.760040 0.127440 0.428532
O O1 0.570139 0.892752 0.633763
O O2 0.847479 0.907603 0.745921
O O3 0.754542 0.747682 0.593819
O O4 0.805551 0.904527 0.425622
O O5 0.087156 0.240214 0.271056
O O6 0.914698 0.096179 0.346782
O O7 0.096035 0.090786 0.089579
O O8 0.432701 0.887288 0.907086
O O9 0.270122 0.891179 0.618604
O O10 0.297705 0.188586 0.942541
O O11 0.516984 0.264644 0.100602
O O12 0.412965 0.080483 0.161590
O O13 0.879771 0.571709 0.649384
#
# Coordination Sequence:
#
# PCOD9312043 Si02
#       7
#     4   4   4   4   2   4   4
#     4   9  17  34  60  88 115 149 208 252 297 354
#     4   9  19  33  59  92 118 153 204 256 301 358
#     4   8  18  35  58  84 117 157 204 249 289 369
#     4  10  22  38  62  92 123 166 209 258 315 377
#     4  12  24  36  60  92 130 162 194 264 332 372
#     4  10  20  37  63  93 122 162 214 262 300 374
#     4  10  20  37  53  87 124 159 195 246 316 376
#
# _framework density 26.170359000000001
#
# number of rings (size 3 to 8) (size 9 to 14) (size 15 to 20)
#    0.000    2.462    1.538    0.923    2.154    4.308 
#    0.000    0.769    0.000    0.000    0.000    0.000 
#    0.000    0.000    0.000    0.000    0.000    0.000 
#
# Total GULP energy -145377.003618 kJ/mol
# GULP energy per Si atom -5591.423216 kJ/mol
# Density = 2.611079 g / cm^3
# Si number density = 26.170359 Si / 1000 Ang^3
#
#
#
# Elastic Constant Matrix: (Units=GPa)
#
#
# Indices 1 2 3 4 5 6 
#
# 1 61.7230 25.4792 50.7646 0.0000 0.0000 0.0000
# 2 25.4792 88.2526 32.5498 0.0000 0.0000 0.0000
# 3 50.7646 32.5498 196.2438 0.0000 0.0000 0.0000
# 4 0.0000 0.0000 0.0000 17.2091 0.0000 0.0000
# 5 0.0000 0.0000 0.0000 0.0000 43.7371 0.0000
# 6 0.0000 0.0000 0.0000 0.0000 0.0000 36.7912
#
#
#
# Elastic Compliance Matrix: (Units=1/GPa)
#
#
# Indices 1 2 3 4 5 6 
#
# 1 0.022183 -0.004567 -0.004981 0.000000 0.000000 0.000000
# 2 -0.004567 0.013010 -0.000976 0.000000 0.000000 0.000000
# 3 -0.004981 -0.000976 0.006546 0.000000 0.000000 0.000000
# 4 0.000000 0.000000 0.000000 0.058109 0.000000 0.000000
# 5 0.000000 0.000000 0.000000 0.000000 0.022864 0.000000
# 6 0.000000 0.000000 0.000000 0.000000 0.000000 0.027180
#
#
# Mechanical properties :
#
#
# Convention : Reuss Voigt Hill
#
# Bulk Modulus (GPa) = 48.33241 62.64518 55.48880
# Shear Modulus (GPa) = 28.11538 35.37585 31.74561
#
# Velocity S-wave (km/s) = 3.28124 3.68061 3.48665
# Velocity P-wave (km/s) = 5.73270 6.48474 6.12028
#
# Compressibility (1/GPa) = 0.02069005
#
# Stress axis : x y z
#
# Youngs Moduli (GPa) = 45.07868 76.86472 152.76265
#
# Poissons Ratio (x) = 0.35108 0.76089
# Poissons Ratio (y) = 0.20590 0.14915
# Poissons Ratio (z) = 0.22453 0.07505
#
# Static dielectric constant tensor:
#      x y z
#    x 2.019940 0.000000 0.000000 
#    y 0.000000 2.050610 0.000000 
#    z 0.000000 0.000000 2.146310 
# 
# From -- ./inp_files/3383.got.cif
#   From: 2010.05.17/outbox.cif.g08.bks.cpg/sg18_2_cif.got.tgz:3383.got - 2010.06.03 22:40:56.
