data_PCOD9312792
_publ_section_title
;
Structure prediction by ZEFSAII (Michael W. Deem and Ramdas Pophale) SiO2 
 PCOD9312792
Probable space group: P 21 21 2
;
_chemical_formula_sum "Si O2"
_cell_formula_units_Z 32
_cell_length_a 9.776798
_cell_length_b 10.923015
_cell_length_c 15.077832
_cell_angle_alpha 90.000000
_cell_angle_beta 90.000000
_cell_angle_gamma 90.000000
_cell_volume 1610.193512
_symmetry_space_group_name_H-M "P 21 21 2"
_symmetry_group_IT_number 18
_symmetry_cell_setting 'orthorhombic'
loop_
_space_group_symop_operation_xyz
x,y,z
-x,-y,z
1/2+x,1/2-y,-z
1/2-x,1/2+y,-z
loop_
_atom_site_type_symbol
_atom_site_label
_atom_site_fract_x
_atom_site_fract_y
_atom_site_fract_z
Si Si1 0.896833 0.597113 0.987996
Si Si2 0.156799 0.839608 0.536764
Si Si3 0.259513 0.293293 0.260692
Si Si4 0.015842 0.721561 0.164664
Si Si5 0.218980 0.078654 0.763279
Si Si6 0.330829 0.625265 0.444869
Si Si7 0.888458 0.097843 0.023471
Si Si8 0.506918 0.725996 0.139147
O O1 0.753349 0.532181 0.990793
O O2 0.000000 0.500000 0.952630
O O3 0.890349 0.697091 0.911274
O O4 0.947197 0.649123 0.081552
O O5 0.209692 0.804396 0.635402
O O6 0.229761 0.734248 0.477507
O O7 0.989985 0.839049 0.535413
O O8 0.193870 0.984576 0.519014
O O9 0.108062 0.249449 0.232473
O O10 0.266262 0.433588 0.226596
O O11 0.385838 0.225189 0.212008
O O12 0.139930 0.643275 0.205860
O O13 0.078922 0.840871 0.117215
O O14 0.190058 0.110207 0.660618
O O15 0.084769 0.122788 0.815257
O O16 0.896783 0.196449 0.945051
O O17 0.000000 0.000000 0.003357
#
# Coordination Sequence:
#
# PCOD9312792 Si02
#       8
#     4   4   4   4   4   4   4   4
#     4  11  24  38  56  83 120 160 202 249 299 356
#     4  10  23  43  67  98 129 162 203 255 316 382
#     4  11  21  38  65  92 114 156 202 254 300 354
#     4  11  24  38  57  89 121 152 205 254 296 351
#     4  11  21  40  63  90 118 154 204 254 297 352
#     4  10  23  43  68  96 130 162 203 255 316 381
#     4  11  24  38  57  81 119 165 200 245 303 355
#     4  11  22  38  59  83 117 155 201 248 299 351
#
# _framework density 19.873387000000001
#
# number of rings (size 3 to 8) (size 9 to 14) (size 15 to 20)
#    0.000    1.250    3.750    2.250    5.250    0.500 
#    0.000    2.500    0.000    0.000    0.000    0.000 
#    0.000    0.000    0.000    0.000    0.000    0.000 
#
# Total GULP energy -178320.300453 kJ/mol
# GULP energy per Si atom -5572.509389 kJ/mol
# Density = 1.982815 g / cm^3
# Si number density = 19.873387 Si / 1000 Ang^3
#
#
#
# Elastic Constant Matrix: (Units=GPa)
#
#
# Indices 1 2 3 4 5 6 
#
# 1 130.9097 19.9591 22.5986 0.0000 0.0000 0.0000
# 2 19.9591 48.9884 29.9786 0.0000 0.0000 0.0000
# 3 22.5986 29.9786 63.5184 0.0000 0.0000 0.0000
# 4 0.0000 0.0000 0.0000 24.2595 0.0000 0.0000
# 5 0.0000 0.0000 0.0000 0.0000 -3.8531 0.0000
# 6 0.0000 0.0000 0.0000 0.0000 0.0000 26.7936
#
#
#
# Elastic Compliance Matrix: (Units=1/GPa)
#
#
# Indices 1 2 3 4 5 6 
#
# 1 0.008306 -0.002216 -0.001909 0.000000 0.000000 0.000000
# 2 -0.002216 0.029294 -0.013038 0.000000 0.000000 0.000000
# 3 -0.001909 -0.013038 0.022576 0.000000 0.000000 0.000000
# 4 0.000000 0.000000 0.000000 0.041221 0.000000 0.000000
# 5 0.000000 0.000000 0.000000 0.000000 -0.259533 0.000000
# 6 0.000000 0.000000 0.000000 0.000000 0.000000 0.037322
#
#
# Mechanical properties :
#
#
# Convention : Reuss Voigt Hill
#
# Bulk Modulus (GPa) = 38.68312 43.16545 40.92429
# Shear Modulus (GPa) = -64.20903 20.83201 -21.68851
#
# Velocity S-wave (km/s) = -5.69027 3.24116 -3.30712
# Velocity P-wave (km/s) = 4.86469 5.98115 2.46059
#
# Compressibility (1/GPa) = 0.02585107
#
# Stress axis : x y z
#
# Youngs Moduli (GPa) = 120.39061 34.13660 44.29457
#
# Poissons Ratio (x) = 0.07564 0.08458
# Poissons Ratio (y) = 0.26675 0.57749
# Poissons Ratio (z) = 0.22988 0.44506
#
# Static dielectric constant tensor:
#      x y z
#    x 1.763600 0.000000 0.000000 
#    y 0.000000 1.771750 0.000000 
#    z 0.000000 0.000000 1.689320 
# 
# From -- ./inp_files/6744.got.cif
#   From: 2010.05.17/outbox.cif.g08.bks.cpg/sg18_4_cif.got.tgz:6744.got - 2010.06.03 22:40:56.
