data_PCOD9312000
_publ_section_title
;
Structure prediction by ZEFSAII (Michael W. Deem and Ramdas Pophale) SiO2 
 PCOD9312000
Probable space group: P 21 21 2
;
_chemical_formula_sum "Si O2"
_cell_formula_units_Z 32
_cell_length_a 16.558594
_cell_length_b 7.687541
_cell_length_c 11.534637
_cell_angle_alpha 90.000000
_cell_angle_beta 90.000000
_cell_angle_gamma 90.000000
_cell_volume 1468.300121
_symmetry_space_group_name_H-M "P 21 21 2"
_symmetry_group_IT_number 18
_symmetry_cell_setting 'orthorhombic'
loop_
_space_group_symop_operation_xyz
x,y,z
-x,-y,z
1/2+x,1/2-y,-z
1/2-x,1/2+y,-z
loop_
_atom_site_type_symbol
_atom_site_label
_atom_site_fract_x
_atom_site_fract_y
_atom_site_fract_z
Si Si1 0.324494 0.231779 0.666457
Si Si2 0.986233 0.697405 0.981623
Si Si3 0.342347 0.805480 0.423550
Si Si4 0.106606 0.696223 0.567799
Si Si5 0.681923 0.188725 0.922155
Si Si6 0.721113 0.180653 0.661353
Si Si7 0.341989 0.226869 0.931358
Si Si8 0.531674 0.317891 0.264924
O O1 0.247809 0.339400 0.621763
O O2 0.392298 0.246193 0.567756
O O3 0.345026 0.281468 0.796829
O O4 0.295969 0.028002 0.660616
O O5 0.967780 0.693000 0.844845
O O6 0.000000 0.500000 0.024529
O O7 0.073916 0.780750 0.007188
O O8 0.903572 0.770599 0.037293
O O9 0.333359 0.744040 0.556062
O O10 0.383974 0.678099 0.332036
O O11 0.388701 0.987855 0.422438
O O12 0.187711 0.772662 0.626408
O O13 0.031132 0.763406 0.637377
O O14 0.701722 0.242390 0.790610
O O15 0.666137 0.982287 0.927416
O O16 0.760329 0.217008 0.002755
O O17 0.500000 0.500000 0.217364
#
# Coordination Sequence:
#
# PCOD9312000 Si02
#       8
#     4   4   4   4   4   4   4   4
#     4   9  19  36  57  82 111 142 179 224 275 329
#     4  10  22  39  58  82 110 145 191 234 277 338
#     4  10  20  35  57  82 109 143 181 223 273 331
#     4  10  20  35  57  82 109 143 181 223 273 331
#     4  10  21  37  58  83 113 149 187 229 277 329
#     4   9  19  36  57  82 111 142 179 224 275 329
#     4  10  21  37  58  83 113 149 187 229 277 329
#     4  12  24  37  54  78 110 143 181 230 279 326
#
# _framework density 21.793907999999998
#
# number of rings (size 3 to 8) (size 9 to 14) (size 15 to 20)
#    0.000    2.000    0.000    3.375    0.000    8.000 
#    0.000    3.750    0.000    1.500    0.000    0.000 
#    0.000    0.000    0.000    0.000    0.000    0.000 
#
# Total GULP energy -178650.254734 kJ/mol
# GULP energy per Si atom -5582.820460 kJ/mol
# Density = 2.174430 g / cm^3
# Si number density = 21.793908 Si / 1000 Ang^3
#
#
#
# Elastic Constant Matrix: (Units=GPa)
#
#
# Indices 1 2 3 4 5 6 
#
# 1 112.4195 -1.8466 65.0267 0.0000 0.0000 0.0000
# 2 -1.8466 22.0148 1.5330 0.0000 0.0000 0.0000
# 3 65.0267 1.5330 150.5116 0.0000 0.0000 0.0000
# 4 0.0000 0.0000 0.0000 17.6688 0.0000 0.0000
# 5 0.0000 0.0000 0.0000 0.0000 29.7418 0.0000
# 6 0.0000 0.0000 0.0000 0.0000 0.0000 27.5321
#
#
#
# Elastic Compliance Matrix: (Units=1/GPa)
#
#
# Indices 1 2 3 4 5 6 
#
# 1 0.011899 0.001357 -0.005155 0.000000 0.000000 0.000000
# 2 0.001357 0.045611 -0.001051 0.000000 0.000000 0.000000
# 3 -0.005155 -0.001051 0.008882 0.000000 0.000000 0.000000
# 4 0.000000 0.000000 0.000000 0.056597 0.000000 0.000000
# 5 0.000000 0.000000 0.000000 0.000000 0.033623 0.000000
# 6 0.000000 0.000000 0.000000 0.000000 0.000000 0.036321
#
#
# Mechanical properties :
#
#
# Convention : Reuss Voigt Hill
#
# Bulk Modulus (GPa) = 17.63828 46.04132 31.83980
# Shear Modulus (GPa) = 22.57049 29.67072 26.12061
#
# Velocity S-wave (km/s) = 3.22162 3.69375 3.46573
# Velocity P-wave (km/s) = 4.68500 6.27402 5.53681
#
# Compressibility (1/GPa) = 0.05669486
#
# Stress axis : x y z
#
# Youngs Moduli (GPa) = 84.03935 21.92456 112.59050
#
# Poissons Ratio (x) = -0.02975 0.58037
# Poissons Ratio (y) = -0.11405 0.11832
# Poissons Ratio (z) = 0.43320 0.02304
#
# Static dielectric constant tensor:
#      x y z
#    x 1.783610 0.000000 0.000000 
#    y 0.000000 1.850060 0.000000 
#    z 0.000000 0.000000 1.777000 
# 
# From -- ./inp_files/6155.got.cif
#   From: 2010.05.17/outbox.cif.g08.bks.cpg/sg18_4_cif.got.tgz:6155.got - 2010.06.03 22:40:56.
