data_PCOD9312950
_publ_section_title
;
Structure prediction by ZEFSAII (Michael W. Deem and Ramdas Pophale) SiO2 
 PCOD9312950
Probable space group: P 21 21 2
;
_chemical_formula_sum "Si O2"
_cell_formula_units_Z 20
_cell_length_a 17.685857
_cell_length_b 8.459403
_cell_length_c 4.811195
_cell_angle_alpha 90.000000
_cell_angle_beta 90.000000
_cell_angle_gamma 90.000000
_cell_volume 719.811504
_symmetry_space_group_name_H-M "P 21 21 2"
_symmetry_group_IT_number 18
_symmetry_cell_setting 'orthorhombic'
loop_
_space_group_symop_operation_xyz
x,y,z
-x,-y,z
1/2+x,1/2-y,-z
1/2-x,1/2+y,-z
loop_
_atom_site_type_symbol
_atom_site_label
_atom_site_fract_x
_atom_site_fract_y
_atom_site_fract_z
Si Si1 0.358371 0.454861 0.449861
Si Si2 0.500000 0.500000 0.204807
Si Si3 0.396141 0.729090 0.863457
Si Si4 0.853288 0.384666 0.560530
Si Si5 0.279565 0.955335 0.946563
Si Si6 0.500000 0.000000 0.089500
O O1 0.444652 0.400591 0.393063
O O2 0.368120 0.625152 0.597027
O O3 0.334062 0.286084 0.581302
O O4 0.303237 0.454608 0.183001
O O5 0.441493 0.595217 0.027415
O O6 0.322723 0.794421 0.026653
O O7 0.461006 0.866524 0.895033
O O8 0.833313 0.504160 0.316277
O O9 0.932532 0.429138 0.714954
O O10 0.792821 0.425433 0.801988
#
# Coordination Sequence:
#
# PCOD9312950 Si02
#       6
#     4   2   4   4   4   2
#     4  12  28  48  80 117 164 215 278 346 420 494
#     4  12  28  46  76 116 160 214 274 346 414 492
#     4  11  27  49  77 118 161 217 276 342 411 499
#     4  11  27  51  80 117 161 219 271 350 411 507
#     4  11  29  49  84 116 166 219 284 339 423 500
#     4  10  24  54  82 114 164 216 282 334 432 492
#
# _framework density 27.785050999999999
#
# number of rings (size 3 to 8) (size 9 to 14) (size 15 to 20)
#    0.000    0.800    2.000    1.800   14.000    8.000 
#    0.000    0.000    0.000    0.000    0.000    0.000 
#    0.000    0.000    0.000    0.000    0.000    0.000 
#
# Total GULP energy -111585.669662 kJ/mol
# GULP energy per Si atom -5579.283483 kJ/mol
# Density = 2.772181 g / cm^3
# Si number density = 27.785051 Si / 1000 Ang^3
#
#
#
# Elastic Constant Matrix: (Units=GPa)
#
#
# Indices 1 2 3 4 5 6 
#
# 1 111.9030 26.5835 28.2639 0.0000 0.0000 0.0000
# 2 26.5835 136.7756 22.6167 0.0000 0.0000 0.0000
# 3 28.2639 22.6167 102.6923 0.0000 0.0000 0.0000
# 4 0.0000 0.0000 0.0000 37.7540 0.0000 0.0000
# 5 0.0000 0.0000 0.0000 0.0000 17.4733 0.0000
# 6 0.0000 0.0000 0.0000 0.0000 0.0000 46.4924
#
#
#
# Elastic Compliance Matrix: (Units=1/GPa)
#
#
# Indices 1 2 3 4 5 6 
#
# 1 0.009903 -0.001530 -0.002389 0.000000 0.000000 0.000000
# 2 -0.001530 0.007824 -0.001302 0.000000 0.000000 0.000000
# 3 -0.002389 -0.001302 0.010682 0.000000 0.000000 0.000000
# 4 0.000000 0.000000 0.000000 0.026487 0.000000 0.000000
# 5 0.000000 0.000000 0.000000 0.000000 0.057230 0.000000
# 6 0.000000 0.000000 0.000000 0.000000 0.000000 0.021509
#
#
# Mechanical properties :
#
#
# Convention : Reuss Voigt Hill
#
# Bulk Modulus (GPa) = 55.65484 56.25547 55.95515
# Shear Modulus (GPa) = 33.31879 38.60441 35.96160
#
# Velocity S-wave (km/s) = 3.46665 3.73150 3.60151
# Velocity P-wave (km/s) = 6.00812 6.23347 6.12183
#
# Compressibility (1/GPa) = 0.01796789
#
# Stress axis : x y z
#
# Youngs Moduli (GPa) = 100.97911 127.81392 93.61513
#
# Poissons Ratio (x) = 0.19552 0.22362
# Poissons Ratio (y) = 0.15447 0.12189
# Poissons Ratio (z) = 0.24121 0.16642
#
# Static dielectric constant tensor:
#      x y z
#    x 2.301200 0.000000 0.000000 
#    y 0.000000 3.120290 0.000000 
#    z 0.000000 0.000000 2.249940 
# 
# From -- ./inp_files/1760.got.cif
#   From: 2010.05.17/outbox.cif.g08.bks.cpg/sg18_1_cif.got.tgz:1760.got - 2010.06.03 22:40:56.
