data_PCOD9312569
_publ_section_title
;
Structure prediction by ZEFSAII (Michael W. Deem and Ramdas Pophale) SiO2 
 PCOD9312569
Probable space group: P 21 21 2
;
_chemical_formula_sum "Si O2"
_cell_formula_units_Z 24
_cell_length_a 16.171025
_cell_length_b 5.213069
_cell_length_c 11.692268
_cell_angle_alpha 90.000000
_cell_angle_beta 90.000000
_cell_angle_gamma 90.000000
_cell_volume 985.666016
_symmetry_space_group_name_H-M "P 21 21 2"
_symmetry_group_IT_number 18
_symmetry_cell_setting 'orthorhombic'
loop_
_space_group_symop_operation_xyz
x,y,z
-x,-y,z
1/2+x,1/2-y,-z
1/2-x,1/2+y,-z
loop_
_atom_site_type_symbol
_atom_site_label
_atom_site_fract_x
_atom_site_fract_y
_atom_site_fract_z
Si Si1 0.336268 0.404141 0.432100
Si Si2 0.000000 0.500000 0.822770
Si Si3 0.945685 0.251217 0.141526
Si Si4 0.698117 0.603279 0.029200
Si Si5 0.830875 0.423830 0.771831
Si Si6 0.500000 0.500000 0.325019
Si Si7 0.806789 0.268953 0.320643
O O1 0.347015 0.136147 0.362776
O O2 0.418263 0.557782 0.396817
O O3 0.252208 0.521141 0.380834
O O4 0.334857 0.387119 0.567550
O O5 0.097103 0.449624 0.851227
O O6 0.983222 0.241194 0.753980
O O7 0.885874 0.343638 0.244778
O O8 0.000000 0.500000 0.105229
O O9 0.887022 0.152259 0.038700
O O10 0.000000 0.000000 0.174098
O O11 0.685831 0.655986 0.163774
O O12 0.739103 0.333157 0.003234
O O13 0.749701 0.596577 0.762632
#
# Coordination Sequence:
#
# PCOD9312569 Si02
#       7
#     4   2   4   4   4   2   4
#     4  11  24  43  72 107 146 191 247 302 377 452
#     4  10  22  40  64  98 134 174 218 304 348 418
#     4  12  30  53  75 112 159 204 261 315 391 464
#     4  12  26  49  80 105 143 196 257 319 376 453
#     4  11  24  44  70 104 142 185 246 304 376 439
#     4  10  22  42  62 100 142 172 232 290 354 424
#     4  12  24  46  74 103 150 201 248 303 379 465
#
# _framework density 24.349018000000001
#
# number of rings (size 3 to 8) (size 9 to 14) (size 15 to 20)
#    0.000    0.667    5.000    2.000    4.667    0.000 
#   12.000    0.000    0.000    0.000    0.000    0.000 
#    0.000    0.000    0.000    0.000    0.000    0.000 
#
# Total GULP energy -133966.297146 kJ/mol
# GULP energy per Si atom -5581.929048 kJ/mol
# Density = 2.429360 g / cm^3
# Si number density = 24.349018 Si / 1000 Ang^3
#
#
#
# Elastic Constant Matrix: (Units=GPa)
#
#
# Indices 1 2 3 4 5 6 
#
# 1 98.8756 16.8788 7.0964 0.0000 0.0000 0.0000
# 2 16.8788 73.8376 -2.6363 0.0000 0.0000 0.0000
# 3 7.0964 -2.6363 97.2600 0.0000 0.0000 0.0000
# 4 0.0000 0.0000 0.0000 34.5910 0.0000 0.0000
# 5 0.0000 0.0000 0.0000 0.0000 39.4491 0.0000
# 6 0.0000 0.0000 0.0000 0.0000 0.0000 44.1441
#
#
#
# Elastic Compliance Matrix: (Units=1/GPa)
#
#
# Indices 1 2 3 4 5 6 
#
# 1 0.010592 -0.002451 -0.000839 0.000000 0.000000 0.000000
# 2 -0.002451 0.014124 0.000562 0.000000 0.000000 0.000000
# 3 -0.000839 0.000562 0.010358 0.000000 0.000000 0.000000
# 4 0.000000 0.000000 0.000000 0.028909 0.000000 0.000000
# 5 0.000000 0.000000 0.000000 0.000000 0.025349 0.000000
# 6 0.000000 0.000000 0.000000 0.000000 0.000000 0.022653
#
#
# Mechanical properties :
#
#
# Convention : Reuss Voigt Hill
#
# Bulk Modulus (GPa) = 33.76510 34.73899 34.25204
# Shear Modulus (GPa) = 39.27246 40.21247 39.74247
#
# Velocity S-wave (km/s) = 4.02045 4.06828 4.04443
# Velocity P-wave (km/s) = 5.95392 6.03042 5.99229
#
# Compressibility (1/GPa) = 0.02961638
#
# Stress axis : x y z
#
# Youngs Moduli (GPa) = 94.40719 70.80321 96.54207
#
# Poissons Ratio (x) = 0.17356 0.08103
# Poissons Ratio (y) = 0.23142 -0.05423
# Poissons Ratio (z) = 0.07924 -0.03977
#
# Static dielectric constant tensor:
#      x y z
#    x 1.975090 0.000000 0.000000 
#    y 0.000000 1.937100 0.000000 
#    z 0.000000 0.000000 1.930190 
# 
# From -- ./inp_files/6185.got.cif
#   From: 2010.05.17/outbox.cif.g08.bks.cpg/sg18_4_cif.got.tgz:6185.got - 2010.06.03 22:40:56.
