data_PCOD9312147
_publ_section_title
;
Structure prediction by ZEFSAII (Michael W. Deem and Ramdas Pophale) SiO2 
 PCOD9312147
Probable space group: P 21 21 2
;
_chemical_formula_sum "Si O2"
_cell_formula_units_Z 24
_cell_length_a 7.624254
_cell_length_b 24.607721
_cell_length_c 5.274440
_cell_angle_alpha 90.000000
_cell_angle_beta 90.000000
_cell_angle_gamma 90.000000
_cell_volume 989.566778
_symmetry_space_group_name_H-M "P 21 21 2"
_symmetry_group_IT_number 18
_symmetry_cell_setting 'orthorhombic'
loop_
_space_group_symop_operation_xyz
x,y,z
-x,-y,z
1/2+x,1/2-y,-z
1/2-x,1/2+y,-z
loop_
_atom_site_type_symbol
_atom_site_label
_atom_site_fract_x
_atom_site_fract_y
_atom_site_fract_z
Si Si1 0.022625 0.226463 0.536944
Si Si2 0.200929 0.021347 0.607570
Si Si3 0.043863 0.297866 0.028934
Si Si4 0.217793 0.141338 0.827478
Si Si5 0.877174 0.146145 0.183158
Si Si6 0.300713 0.477257 0.889250
O O1 0.047741 0.261267 0.282079
O O2 0.187658 0.190687 0.630277
O O3 0.892027 0.178305 0.447868
O O4 0.985804 0.263379 0.781216
O O5 0.201735 0.083534 0.692953
O O6 0.283584 0.012715 0.332772
O O7 0.000000 0.000000 0.572858
O O8 0.280884 0.985579 0.834459
O O9 0.906731 0.346770 0.058004
O O10 0.234798 0.321096 0.975327
O O11 0.064062 0.145235 0.038153
O O12 0.815123 0.084334 0.202028
O O13 0.500000 0.500000 0.927115
#
# Coordination Sequence:
#
# PCOD9312147 Si02
#       6
#     4   4   4   4   4   4
#     4  12  28  48  73 108 153 198 248 308 374 442
#     4  10  20  39  69 104 132 179 247 292 362 450
#     4  12  32  46  71 116 149 194 266 302 366 462
#     4  12  27  47  78 105 149 202 243 317 377 439
#     4  12  27  47  78 105 149 202 243 317 377 439
#     4  10  20  39  69 104 132 179 247 292 362 450
#
# _framework density 24.253036999999999
#
# number of rings (size 3 to 8) (size 9 to 14) (size 15 to 20)
#    0.000    0.667    5.000    3.000    9.333    0.000 
#    0.000    0.833    0.000    4.000    0.000    0.000 
#    0.000    0.000    0.000    0.000    0.000    0.000 
#
# Total GULP energy -134347.280567 kJ/mol
# GULP energy per Si atom -5597.803357 kJ/mol
# Density = 2.419784 g / cm^3
# Si number density = 24.253037 Si / 1000 Ang^3
#
#
#
# Elastic Constant Matrix: (Units=GPa)
#
#
# Indices 1 2 3 4 5 6 
#
# 1 51.4150 -10.5761 -3.3048 0.0000 0.0000 0.0000
# 2 -10.5761 79.1444 -4.2878 0.0000 0.0000 0.0000
# 3 -3.3048 -4.2878 136.3363 0.0000 0.0000 0.0000
# 4 0.0000 0.0000 0.0000 29.4406 0.0000 0.0000
# 5 0.0000 0.0000 0.0000 0.0000 14.3769 0.0000
# 6 0.0000 0.0000 0.0000 0.0000 0.0000 4.7792
#
#
#
# Elastic Compliance Matrix: (Units=1/GPa)
#
#
# Indices 1 2 3 4 5 6 
#
# 1 0.020044 0.002709 0.000571 0.000000 0.000000 0.000000
# 2 0.002709 0.013023 0.000475 0.000000 0.000000 0.000000
# 3 0.000571 0.000475 0.007364 0.000000 0.000000 0.000000
# 4 0.000000 0.000000 0.000000 0.033967 0.000000 0.000000
# 5 0.000000 0.000000 0.000000 0.000000 0.069556 0.000000
# 6 0.000000 0.000000 0.000000 0.000000 0.000000 0.209241
#
#
# Mechanical properties :
#
#
# Convention : Reuss Voigt Hill
#
# Bulk Modulus (GPa) = 20.85878 25.61761 23.23819
# Shear Modulus (GPa) = 13.82504 28.72364 21.27434
#
# Velocity S-wave (km/s) = 2.39013 3.44515 2.96494
# Velocity P-wave (km/s) = 4.02940 5.13916 4.61774
#
# Compressibility (1/GPa) = 0.04794145
#
# Stress axis : x y z
#
# Youngs Moduli (GPa) = 49.89128 76.78766 135.80331
#
# Poissons Ratio (x) = -0.20805 -0.07755
# Poissons Ratio (y) = -0.13517 -0.06454
# Poissons Ratio (z) = -0.02849 -0.03649
#
# Static dielectric constant tensor:
#      x y z
#    x 2.053470 0.000000 0.000000 
#    y 0.000000 1.901650 0.000000 
#    z 0.000000 0.000000 1.996200 
# 
# From -- ./inp_files/607.got.cif
#   From: 2010.05.17/outbox.cif.g08.bks.cpg/sg18_1_cif.got.tgz:607.got - 2010.06.03 22:40:56.
