data_PCOD9312749
_publ_section_title
;
Structure prediction by ZEFSAII (Michael W. Deem and Ramdas Pophale) SiO2 
 PCOD9312749
Probable space group: P 21 21 2
;
_chemical_formula_sum "Si O2"
_cell_formula_units_Z 16
_cell_length_a 9.252187
_cell_length_b 9.341415
_cell_length_c 6.944243
_cell_angle_alpha 90.000000
_cell_angle_beta 90.000000
_cell_angle_gamma 90.000000
_cell_volume 600.180634
_symmetry_space_group_name_H-M "P 21 21 2"
_symmetry_group_IT_number 18
_symmetry_cell_setting 'orthorhombic'
loop_
_space_group_symop_operation_xyz
x,y,z
-x,-y,z
1/2+x,1/2-y,-z
1/2-x,1/2+y,-z
loop_
_atom_site_type_symbol
_atom_site_label
_atom_site_fract_x
_atom_site_fract_y
_atom_site_fract_z
Si Si1 0.327813 0.652338 0.295671
Si Si2 0.845493 0.603975 0.169920
Si Si3 0.592525 0.821334 0.125292
Si Si4 0.721793 0.052129 0.411621
O O1 0.252461 0.540988 0.148338
O O2 0.482155 0.715991 0.241212
O O3 0.230909 0.794793 0.329744
O O4 0.332854 0.557127 0.489535
O O5 0.735477 0.727043 0.108042
O O6 0.871852 0.599234 0.400030
O O7 0.008724 0.362075 0.055740
O O8 0.640232 0.959001 0.251972
#
# Coordination Sequence:
#
# PCOD9312749 Si02
#       4
#     4   4   4   4
#     4  10  23  47  80 122 167 224 289 351 436 525
#     4  10  25  50  84 128 171 224 292 364 434 527
#     4  12  24  51  88 126 174 231 291 364 444 525
#     4  10  22  51  83 118 169 234 285 351 438 522
#
# _framework density 26.658640999999999
#
# number of rings (size 3 to 8) (size 9 to 14) (size 15 to 20)
#    1.500    0.000    2.500    1.500    0.000    4.000 
#    9.000    2.500    0.000    0.000    0.000    0.000 
#    0.000    0.000    0.000    0.000    0.000    0.000 
#
# Total GULP energy -89428.343310 kJ/mol
# GULP energy per Si atom -5589.271457 kJ/mol
# Density = 2.659797 g / cm^3
# Si number density = 26.658641 Si / 1000 Ang^3
#
#
#
# Elastic Constant Matrix: (Units=GPa)
#
#
# Indices 1 2 3 4 5 6 
#
# 1 102.3081 63.5570 46.7272 0.0000 0.0000 0.0000
# 2 63.5570 243.9755 70.6356 0.0000 0.0000 0.0000
# 3 46.7272 70.6356 172.3062 0.0000 0.0000 0.0000
# 4 0.0000 0.0000 0.0000 60.5102 0.0000 0.0000
# 5 0.0000 0.0000 0.0000 0.0000 33.2579 0.0000
# 6 0.0000 0.0000 0.0000 0.0000 0.0000 41.1385
#
#
#
# Elastic Compliance Matrix: (Units=1/GPa)
#
#
# Indices 1 2 3 4 5 6 
#
# 1 0.012427 -0.002566 -0.002318 0.000000 0.000000 0.000000
# 2 -0.002566 0.005181 -0.001428 0.000000 0.000000 0.000000
# 3 -0.002318 -0.001428 0.007018 0.000000 0.000000 0.000000
# 4 0.000000 0.000000 0.000000 0.016526 0.000000 0.000000
# 5 0.000000 0.000000 0.000000 0.000000 0.030068 0.000000
# 6 0.000000 0.000000 0.000000 0.000000 0.000000 0.024308
#
#
# Mechanical properties :
#
#
# Convention : Reuss Voigt Hill
#
# Bulk Modulus (GPa) = 83.32490 97.82547 90.57519
# Shear Modulus (GPa) = 44.58201 49.49266 47.03733
#
# Velocity S-wave (km/s) = 4.09385 4.31343 4.20507
# Velocity P-wave (km/s) = 7.32600 7.84747 7.59121
#
# Compressibility (1/GPa) = 0.01200121
#
# Stress axis : x y z
#
# Youngs Moduli (GPa) = 80.46737 193.02457 142.49887
#
# Poissons Ratio (x) = 0.49535 0.33033
# Poissons Ratio (y) = 0.20650 0.20347
# Poissons Ratio (z) = 0.18653 0.27561
#
# Static dielectric constant tensor:
#      x y z
#    x 2.085480 0.000000 0.000000 
#    y 0.000000 2.323190 0.000000 
#    z 0.000000 0.000000 2.242140 
# 
# From -- ./inp_files/2869.got.cif
#   From: 2010.05.17/outbox.cif.g08.bks.cpg/sg18_2_cif.got.tgz:2869.got - 2010.06.03 22:40:56.
