data_PCOD9312639
_publ_section_title
;
Structure prediction by ZEFSAII (Michael W. Deem and Ramdas Pophale) SiO2 
 PCOD9312639
Probable space group: P 21 21 2
;
_chemical_formula_sum "Si O2"
_cell_formula_units_Z 20
_cell_length_a 21.734963
_cell_length_b 7.152681
_cell_length_c 5.339305
_cell_angle_alpha 90.000000
_cell_angle_beta 90.000000
_cell_angle_gamma 90.000000
_cell_volume 830.065745
_symmetry_space_group_name_H-M "P 21 21 2"
_symmetry_group_IT_number 18
_symmetry_cell_setting 'orthorhombic'
loop_
_space_group_symop_operation_xyz
x,y,z
-x,-y,z
1/2+x,1/2-y,-z
1/2-x,1/2+y,-z
loop_
_atom_site_type_symbol
_atom_site_label
_atom_site_fract_x
_atom_site_fract_y
_atom_site_fract_z
Si Si1 0.846998 0.155464 0.763691
Si Si2 0.517866 0.781491 0.201294
Si Si3 0.338465 0.728528 0.479964
Si Si4 0.219576 0.892454 0.270224
Si Si5 0.533247 0.199704 0.701367
O O1 0.818918 0.212374 0.492838
O O2 0.909764 0.256818 0.835274
O O3 0.859525 0.934353 0.712693
O O4 0.800396 0.170726 0.995819
O O5 0.500693 0.701533 0.471301
O O6 0.500000 0.000000 0.225274
O O7 0.478659 0.706168 0.968251
O O8 0.290561 0.859650 0.336712
O O9 0.301352 0.605600 0.684751
O O10 0.396488 0.819622 0.614915
O O11 0.500000 0.000000 0.730481
#
# Coordination Sequence:
#
# PCOD9312639 Si02
#       5
#     4   4   4   4   4
#     4  10  24  43  65  99 135 175 225 280 331 409
#     4  10  22  42  67  97 131 174 224 275 338 401
#     4  10  26  44  69  99 141 173 236 277 342 407
#     4  10  25  43  70  97 133 183 223 285 343 390
#     4  10  23  42  67 101 131 180 223 282 338 406
#
# _framework density 24.094476
#
# number of rings (size 3 to 8) (size 9 to 14) (size 15 to 20)
#    1.200    0.800    0.000    1.200    5.600    7.200 
#    0.000    0.000    0.000    0.000    0.000    0.000 
#    0.000    0.000    0.000    0.000    0.000    0.000 
#
# Total GULP energy -111660.289455 kJ/mol
# GULP energy per Si atom -5583.014473 kJ/mol
# Density = 2.403964 g / cm^3
# Si number density = 24.094476 Si / 1000 Ang^3
#
#
#
# Elastic Constant Matrix: (Units=GPa)
#
#
# Indices 1 2 3 4 5 6 
#
# 1 75.1355 31.8810 -18.7251 0.0000 0.0000 0.0000
# 2 31.8810 90.3661 -4.6186 0.0000 0.0000 0.0000
# 3 -18.7251 -4.6186 152.9481 0.0000 0.0000 0.0000
# 4 0.0000 0.0000 0.0000 4.4929 0.0000 0.0000
# 5 0.0000 0.0000 0.0000 0.0000 39.1640 0.0000
# 6 0.0000 0.0000 0.0000 0.0000 0.0000 39.2935
#
#
#
# Elastic Compliance Matrix: (Units=1/GPa)
#
#
# Indices 1 2 3 4 5 6 
#
# 1 0.016136 -0.005600 0.001806 0.000000 0.000000 0.000000
# 2 -0.005600 0.013027 -0.000292 0.000000 0.000000 0.000000
# 3 0.001806 -0.000292 0.006750 0.000000 0.000000 0.000000
# 4 0.000000 0.000000 0.000000 0.222572 0.000000 0.000000
# 5 0.000000 0.000000 0.000000 0.000000 0.025534 0.000000
# 6 0.000000 0.000000 0.000000 0.000000 0.000000 0.025450
#
#
# Mechanical properties :
#
#
# Convention : Reuss Voigt Hill
#
# Bulk Modulus (GPa) = 36.04811 37.28047 36.66429
# Shear Modulus (GPa) = 15.29578 37.25090 26.27334
#
# Velocity S-wave (km/s) = 2.52231 3.93623 3.30575
# Velocity P-wave (km/s) = 4.84524 6.01371 5.46082
#
# Compressibility (1/GPa) = 0.02774070
#
# Stress axis : x y z
#
# Youngs Moduli (GPa) = 61.97414 76.76395 148.13743
#
# Poissons Ratio (x) = 0.42990 -0.26759
# Poissons Ratio (y) = 0.34708 0.04330
# Poissons Ratio (z) = -0.11195 0.02244
#
# Static dielectric constant tensor:
#      x y z
#    x 1.884030 0.000000 0.000000 
#    y 0.000000 1.898310 0.000000 
#    z 0.000000 0.000000 1.969720 
# 
# From -- ./inp_files/1727.got.cif
#   From: 2010.05.17/outbox.cif.g08.bks.cpg/sg18_1_cif.got.tgz:1727.got - 2010.06.03 22:40:56.
