data_PCOD9312705
_publ_section_title
;
Structure prediction by ZEFSAII (Michael W. Deem and Ramdas Pophale) SiO2 
 PCOD9312705
Probable space group: P 21 21 2
;
_chemical_formula_sum "Si O2"
_cell_formula_units_Z 30
_cell_length_a 11.927320
_cell_length_b 13.654767
_cell_length_c 9.254724
_cell_angle_alpha 90.000000
_cell_angle_beta 90.000000
_cell_angle_gamma 90.000000
_cell_volume 1507.268547
_symmetry_space_group_name_H-M "P 21 21 2"
_symmetry_group_IT_number 18
_symmetry_cell_setting 'orthorhombic'
loop_
_space_group_symop_operation_xyz
x,y,z
-x,-y,z
1/2+x,1/2-y,-z
1/2-x,1/2+y,-z
loop_
_atom_site_type_symbol
_atom_site_label
_atom_site_fract_x
_atom_site_fract_y
_atom_site_fract_z
Si Si1 0.192469 0.159658 0.932835
Si Si2 0.505541 0.613889 0.847696
Si Si3 0.746747 0.132552 0.170733
Si Si4 0.640158 0.321882 0.608469
Si Si5 0.171516 0.585950 0.818141
Si Si6 0.711139 0.110579 0.502948
Si Si7 0.874602 0.963388 0.662779
Si Si8 0.500000 0.000000 0.373849
O O1 0.183780 0.271036 0.880145
O O2 0.187508 0.086582 0.797865
O O3 0.300875 0.145596 0.036884
O O4 0.085761 0.132805 0.030298
O O5 0.500000 0.500000 0.803047
O O6 0.630283 0.634360 0.897648
O O7 0.468842 0.676733 0.709758
O O8 0.760265 0.133287 0.344144
O O9 0.692149 0.027625 0.139619
O O10 0.735471 0.378872 0.701400
O O11 0.678834 0.212626 0.575655
O O12 0.617480 0.381928 0.463253
O O13 0.054808 0.582595 0.731349
O O14 0.599794 0.046113 0.468216
O O15 0.799432 0.050452 0.597507
O O16 0.000000 0.000000 0.699921
#
# Coordination Sequence:
#
# PCOD9312705 Si02
#       8
#     4   4   4   4   4   4   4   2
#     4  11  25  40  64 105 131 171 233 278 339 400
#     4  11  21  43  68  91 129 184 224 278 334 398
#     4  11  21  41  67  90 141 170 223 282 335 397
#     4  11  21  41  69  98 127 179 234 261 343 406
#     4  10  23  43  66  91 136 183 223 272 337 410
#     4  11  24  42  66 106 137 177 225 282 340 410
#     4  12  24  42  67 102 136 170 229 289 327 394
#     4  10  22  44  70  92 146 182 212 284 344 402
#
# _framework density 19.903555000000001
#
# number of rings (size 3 to 8) (size 9 to 14) (size 15 to 20)
#    0.000    1.067    6.667    1.600    0.000    7.467 
#    0.000    0.667    0.000    0.000    0.000    0.000 
#    0.000    0.000    0.000    0.000    0.000    0.000 
#
# Total GULP energy -167538.496794 kJ/mol
# GULP energy per Si atom -5584.616560 kJ/mol
# Density = 1.985825 g / cm^3
# Si number density = 19.903555 Si / 1000 Ang^3
#
#
#
# Elastic Constant Matrix: (Units=GPa)
#
#
# Indices 1 2 3 4 5 6 
#
# 1 62.3977 11.6558 -9.0010 0.0000 0.0000 0.0000
# 2 11.6558 118.3987 19.9560 0.0000 0.0000 0.0000
# 3 -9.0010 19.9560 60.7763 0.0000 0.0000 0.0000
# 4 0.0000 0.0000 0.0000 24.9803 0.0000 0.0000
# 5 0.0000 0.0000 0.0000 0.0000 16.9504 0.0000
# 6 0.0000 0.0000 0.0000 0.0000 0.0000 21.0073
#
#
#
# Elastic Compliance Matrix: (Units=1/GPa)
#
#
# Indices 1 2 3 4 5 6 
#
# 1 0.016904 -0.002208 0.003229 0.000000 0.000000 0.000000
# 2 -0.002208 0.009229 -0.003358 0.000000 0.000000 0.000000
# 3 0.003229 -0.003358 0.018034 0.000000 0.000000 0.000000
# 4 0.000000 0.000000 0.000000 0.040031 0.000000 0.000000
# 5 0.000000 0.000000 0.000000 0.000000 0.058996 0.000000
# 6 0.000000 0.000000 0.000000 0.000000 0.000000 0.047602
#
#
# Mechanical properties :
#
#
# Convention : Reuss Voigt Hill
#
# Bulk Modulus (GPa) = 25.32041 31.86604 28.59322
# Shear Modulus (GPa) = 23.96508 27.18507 25.57507
#
# Velocity S-wave (km/s) = 3.47372 3.69974 3.58851
# Velocity P-wave (km/s) = 5.37012 5.85625 5.61845
#
# Compressibility (1/GPa) = 0.03949383
#
# Stress axis : x y z
#
# Youngs Moduli (GPa) = 59.15590 108.34996 55.44955
#
# Poissons Ratio (x) = 0.23928 -0.17903
# Poissons Ratio (y) = 0.13064 0.18617
# Poissons Ratio (z) = -0.19100 0.36379
#
# Static dielectric constant tensor:
#      x y z
#    x 1.725890 0.000000 0.000000 
#    y 0.000000 1.697220 0.000000 
#    z 0.000000 0.000000 1.701960 
# 
# From -- ./inp_files/3896.got.cif
#   From: 2010.05.17/outbox.cif.g08.bks.cpg/sg18_2_cif.got.tgz:3896.got - 2010.06.03 22:40:56.
