data_PCOD9312972
_publ_section_title
;
Structure prediction by ZEFSAII (Michael W. Deem and Ramdas Pophale) SiO2 
 PCOD9312972
Probable space group: P 21 21 2
;
_chemical_formula_sum "Si O2"
_cell_formula_units_Z 26
_cell_length_a 11.217583
_cell_length_b 8.091625
_cell_length_c 12.854420
_cell_angle_alpha 90.000000
_cell_angle_beta 90.000000
_cell_angle_gamma 90.000000
_cell_volume 1166.776101
_symmetry_space_group_name_H-M "P 21 21 2"
_symmetry_group_IT_number 18
_symmetry_cell_setting 'orthorhombic'
loop_
_space_group_symop_operation_xyz
x,y,z
-x,-y,z
1/2+x,1/2-y,-z
1/2-x,1/2+y,-z
loop_
_atom_site_type_symbol
_atom_site_label
_atom_site_fract_x
_atom_site_fract_y
_atom_site_fract_z
Si Si1 0.531327 0.738843 0.621230
Si Si2 0.272217 0.955932 0.900963
Si Si3 0.942480 0.330780 0.607259
Si Si4 0.301371 0.536255 0.669777
Si Si5 0.195869 0.340097 0.869028
Si Si6 0.000000 0.500000 0.218339
Si Si7 0.459041 0.320242 0.181408
O O1 0.503111 0.797412 0.505337
O O2 0.416903 0.654538 0.676122
O O3 0.641021 0.615029 0.606773
O O4 0.567242 0.880550 0.701037
O O5 0.178343 0.825375 0.851869
O O6 0.244053 0.148968 0.872967
O O7 0.401972 0.918323 0.854885
O O8 0.270529 0.928895 0.024000
O O9 0.801974 0.368115 0.609252
O O10 0.967184 0.194489 0.694109
O O11 0.000000 0.500000 0.647049
O O12 0.248626 0.449060 0.773831
O O13 0.052704 0.312345 0.861570
O O14 0.500000 0.500000 0.144150
#
# Coordination Sequence:
#
# PCOD9312972 Si02
#       7
#     4   4   4   4   4   2   4
#     4  11  27  46  71 106 138 190 235 300 361 432
#     4  11  27  43  73 105 143 194 243 304 361 439
#     4  12  25  42  74 100 139 187 235 292 363 428
#     4  11  26  48  70 102 146 182 239 300 357 442
#     4  11  25  47  72 103 141 192 242 300 372 422
#     4  12  24  46  70 100 150 180 244 294 370 426
#     4  10  25  47  69 106 141 184 245 297 352 436
#
# _framework density 22.283624
#
# number of rings (size 3 to 8) (size 9 to 14) (size 15 to 20)
#    0.000    0.923    3.846    0.923   10.769    1.231 
#    5.538    0.000    0.000    0.000    0.000    0.000 
#    0.000    0.000    0.000    0.000    0.000    0.000 
#
# Total GULP energy -145122.809904 kJ/mol
# GULP energy per Si atom -5581.646535 kJ/mol
# Density = 2.223291 g / cm^3
# Si number density = 22.283624 Si / 1000 Ang^3
#
#
#
# Elastic Constant Matrix: (Units=GPa)
#
#
# Indices 1 2 3 4 5 6 
#
# 1 65.9261 -2.6604 47.8125 0.0000 0.0000 0.0000
# 2 -2.6604 63.6517 33.3641 0.0000 0.0000 0.0000
# 3 47.8125 33.3641 102.6378 0.0000 0.0000 0.0000
# 4 0.0000 0.0000 0.0000 31.2058 0.0000 0.0000
# 5 0.0000 0.0000 0.0000 0.0000 26.7606 0.0000
# 6 0.0000 0.0000 0.0000 0.0000 0.0000 25.8088
#
#
#
# Elastic Compliance Matrix: (Units=1/GPa)
#
#
# Indices 1 2 3 4 5 6 
#
# 1 0.026753 0.009222 -0.015460 0.000000 0.000000 0.000000
# 2 0.009222 0.022116 -0.011485 0.000000 0.000000 0.000000
# 3 -0.015460 -0.011485 0.020678 0.000000 0.000000 0.000000
# 4 0.000000 0.000000 0.000000 0.032045 0.000000 0.000000
# 5 0.000000 0.000000 0.000000 0.000000 0.037368 0.000000
# 6 0.000000 0.000000 0.000000 0.000000 0.000000 0.038746
#
#
# Mechanical properties :
#
#
# Convention : Reuss Voigt Hill
#
# Bulk Modulus (GPa) = 29.32494 43.24979 36.28736
# Shear Modulus (GPa) = 22.26954 27.00168 24.63561
#
# Velocity S-wave (km/s) = 3.16471 3.48476 3.32858
# Velocity P-wave (km/s) = 5.15192 5.97012 5.57605
#
# Compressibility (1/GPa) = 0.03410066
#
# Stress axis : x y z
#
# Youngs Moduli (GPa) = 37.37869 45.21596 48.35945
#
# Poissons Ratio (x) = -0.41698 0.74766
# Poissons Ratio (y) = -0.34471 0.55542
# Poissons Ratio (z) = 0.57789 0.51931
#
# Static dielectric constant tensor:
#      x y z
#    x 1.880210 0.000000 0.000000 
#    y 0.000000 1.890110 0.000000 
#    z 0.000000 0.000000 1.750230 
# 
# From -- ./inp_files/5864.got.cif
#   From: 2010.05.17/outbox.cif.g08.bks.cpg/sg18_3_cif.got.tgz:5864.got - 2010.06.03 22:40:56.
