data_PCOD9312174
_publ_section_title
;
Structure prediction by ZEFSAII (Michael W. Deem and Ramdas Pophale) SiO2 
 PCOD9312174
Probable space group: P 21 21 2
;
_chemical_formula_sum "Si O2"
_cell_formula_units_Z 26
_cell_length_a 8.050475
_cell_length_b 18.477793
_cell_length_c 7.394864
_cell_angle_alpha 90.000000
_cell_angle_beta 90.000000
_cell_angle_gamma 90.000000
_cell_volume 1100.023073
_symmetry_space_group_name_H-M "P 21 21 2"
_symmetry_group_IT_number 18
_symmetry_cell_setting 'orthorhombic'
loop_
_space_group_symop_operation_xyz
x,y,z
-x,-y,z
1/2+x,1/2-y,-z
1/2-x,1/2+y,-z
loop_
_atom_site_type_symbol
_atom_site_label
_atom_site_fract_x
_atom_site_fract_y
_atom_site_fract_z
Si Si1 0.000000 0.500000 0.751151
Si Si2 0.058428 0.643098 0.283720
Si Si3 0.391380 0.680656 0.491875
Si Si4 0.563304 0.608342 0.180731
Si Si5 0.234692 0.524723 0.073271
Si Si6 0.926518 0.201888 0.154680
Si Si7 0.617458 0.155370 0.395552
O O1 0.968639 0.578476 0.657905
O O2 0.839131 0.487889 0.876703
O O3 0.205439 0.659384 0.431284
O O4 0.099277 0.569295 0.186026
O O5 0.076145 0.711212 0.152261
O O6 0.884172 0.645758 0.387009
O O7 0.421737 0.682801 0.706866
O O8 0.439122 0.759032 0.404595
O O9 0.509686 0.625303 0.384696
O O10 0.588616 0.675857 0.049241
O O11 0.398873 0.573491 0.085977
O O12 0.706412 0.550176 0.156948
O O13 0.775225 0.165527 0.266631
#
# Coordination Sequence:
#
# PCOD9312174 Si02
#       7
#     2   4   4   4   4   4   4
#     4  12  24  36  56  88 126 160 194 252 314 374
#     4   9  21  41  62  87 126 160 205 256 312 369
#     4   9  21  40  65  89 117 160 214 256 302 365
#     4  10  21  42  64  89 121 162 215 256 303 370
#     4  10  23  41  58  90 125 161 205 254 313 374
#     4  10  20  40  64  92 119 162 208 259 303 367
#     4  10  22  40  56  91 125 157 205 251 310 373
#
# _framework density 23.635867999999999
#
# number of rings (size 3 to 8) (size 9 to 14) (size 15 to 20)
#    0.000    2.154    1.538    0.000    4.308    3.077 
#    0.000    1.538    0.000    0.000    0.000    0.000 
#    0.000    0.000    0.000    0.000    0.000    0.000 
#
# Total GULP energy -144901.965545 kJ/mol
# GULP energy per Si atom -5573.152521 kJ/mol
# Density = 2.358207 g / cm^3
# Si number density = 23.635868 Si / 1000 Ang^3
#
#
#
# Elastic Constant Matrix: (Units=GPa)
#
#
# Indices 1 2 3 4 5 6 
#
# 1 34.2418 13.0955 -17.2362 0.0000 0.0000 0.0000
# 2 13.0955 119.6695 27.5053 0.0000 0.0000 0.0000
# 3 -17.2362 27.5053 45.9029 0.0000 0.0000 0.0000
# 4 0.0000 0.0000 0.0000 48.5081 0.0000 0.0000
# 5 0.0000 0.0000 0.0000 0.0000 26.5403 0.0000
# 6 0.0000 0.0000 0.0000 0.0000 0.0000 32.2997
#
#
#
# Elastic Compliance Matrix: (Units=1/GPa)
#
#
# Indices 1 2 3 4 5 6 
#
# 1 0.044538 -0.010110 0.022782 0.000000 0.000000 0.000000
# 2 -0.010110 0.011986 -0.010978 0.000000 0.000000 0.000000
# 3 0.022782 -0.010978 0.036918 0.000000 0.000000 0.000000
# 4 0.000000 0.000000 0.000000 0.020615 0.000000 0.000000
# 5 0.000000 0.000000 0.000000 0.000000 0.037679 0.000000
# 6 0.000000 0.000000 0.000000 0.000000 0.000000 0.030960
#
#
# Mechanical properties :
#
#
# Convention : Reuss Voigt Hill
#
# Bulk Modulus (GPa) = 10.32750 27.39370 18.86060
# Shear Modulus (GPa) = 23.63111 33.23291 28.43201
#
# Velocity S-wave (km/s) = 3.16539 3.75378 3.47207
# Velocity P-wave (km/s) = 4.21171 5.51388 4.90619
#
# Compressibility (1/GPa) = 0.09682887
#
# Stress axis : x y z
#
# Youngs Moduli (GPa) = 22.45260 83.43054 27.08717
#
# Poissons Ratio (x) = 0.84349 -0.61710
# Poissons Ratio (y) = 0.22700 0.29737
# Poissons Ratio (z) = -0.51151 0.91593
#
# Static dielectric constant tensor:
#      x y z
#    x 1.989330 0.000000 0.000000 
#    y 0.000000 1.898300 0.000000 
#    z 0.000000 0.000000 1.906420 
# 
# From -- ./inp_files/3340.got.cif
#   From: 2010.05.17/outbox.cif.g08.bks.cpg/sg18_2_cif.got.tgz:3340.got - 2010.06.03 22:40:56.
