data_PCOD9312943
_publ_section_title
;
Structure prediction by ZEFSAII (Michael W. Deem and Ramdas Pophale) SiO2 
 PCOD9312943
Probable space group: P 21 21 2
;
_chemical_formula_sum "Si O2"
_cell_formula_units_Z 16
_cell_length_a 11.306886
_cell_length_b 10.475360
_cell_length_c 4.910022
_cell_angle_alpha 90.000000
_cell_angle_beta 90.000000
_cell_angle_gamma 90.000000
_cell_volume 581.561179
_symmetry_space_group_name_H-M "P 21 21 2"
_symmetry_group_IT_number 18
_symmetry_cell_setting 'orthorhombic'
loop_
_space_group_symop_operation_xyz
x,y,z
-x,-y,z
1/2+x,1/2-y,-z
1/2-x,1/2+y,-z
loop_
_atom_site_type_symbol
_atom_site_label
_atom_site_fract_x
_atom_site_fract_y
_atom_site_fract_z
Si Si1 0.868938 0.185508 0.754663
Si Si2 0.516747 0.133551 0.963062
Si Si3 0.255714 0.926592 0.264784
Si Si4 0.075751 0.119820 0.386564
O O1 0.796000 0.178262 0.475488
O O2 0.001989 0.144469 0.662635
O O3 0.894181 0.316414 0.911503
O O4 0.803366 0.095409 0.968902
O O5 0.565689 0.251165 0.785627
O O6 0.500000 0.000000 0.807310
O O7 0.608244 0.097951 0.202864
O O8 0.204527 0.056883 0.393893
O O9 0.000000 0.000000 0.265104
#
# Coordination Sequence:
#
# PCOD9312943 Si02
#       4
#     4   4   4   4
#     4  11  25  51  73 111 150 203 252 310 380 460
#     4  12  29  50  76 121 158 195 261 328 382 460
#     4  11  28  45  83 111 150 205 257 313 387 452
#     4  10  24  48  80 106 150 205 253 310 379 465
#
# _framework density 27.512156000000001
#
# number of rings (size 3 to 8) (size 9 to 14) (size 15 to 20)
#    0.000    1.000    5.000    0.000   17.500    1.000 
#    0.000    0.000    0.000    0.000    0.000    0.000 
#    0.000    0.000    0.000    0.000    0.000    0.000 
#
# Total GULP energy -89524.611453 kJ/mol
# GULP energy per Si atom -5595.288216 kJ/mol
# Density = 2.744954 g / cm^3
# Si number density = 27.512156 Si / 1000 Ang^3
#
#
#
# Elastic Constant Matrix: (Units=GPa)
#
#
# Indices 1 2 3 4 5 6 
#
# 1 66.7484 14.3571 21.8116 0.0000 0.0000 0.0000
# 2 14.3571 207.8661 30.9021 0.0000 0.0000 0.0000
# 3 21.8116 30.9021 139.9548 0.0000 0.0000 0.0000
# 4 0.0000 0.0000 0.0000 38.2215 0.0000 0.0000
# 5 0.0000 0.0000 0.0000 0.0000 46.7408 0.0000
# 6 0.0000 0.0000 0.0000 0.0000 0.0000 43.3504
#
#
#
# Elastic Compliance Matrix: (Units=1/GPa)
#
#
# Indices 1 2 3 4 5 6 
#
# 1 0.015899 -0.000755 -0.002311 0.000000 0.000000 0.000000
# 2 -0.000755 0.005010 -0.000989 0.000000 0.000000 0.000000
# 3 -0.002311 -0.000989 0.007724 0.000000 0.000000 0.000000
# 4 0.000000 0.000000 0.000000 0.026163 0.000000 0.000000
# 5 0.000000 0.000000 0.000000 0.000000 0.021395 0.000000
# 6 0.000000 0.000000 0.000000 0.000000 0.000000 0.023068
#
#
# Mechanical properties :
#
#
# Convention : Reuss Voigt Hill
#
# Bulk Modulus (GPa) = 48.72359 60.96790 54.84574
# Shear Modulus (GPa) = 43.77960 48.82912 46.30436
#
# Velocity S-wave (km/s) = 3.99342 4.21743 4.10695
# Velocity P-wave (km/s) = 6.24591 6.77673 6.51673
#
# Compressibility (1/GPa) = 0.02052394
#
# Stress axis : x y z
#
# Youngs Moduli (GPa) = 62.89635 199.60592 129.47255
#
# Poissons Ratio (x) = 0.15061 0.29924
# Poissons Ratio (y) = 0.04746 0.12800
# Poissons Ratio (z) = 0.14537 0.19733
#
# Static dielectric constant tensor:
#      x y z
#    x 2.257960 0.000000 0.000000 
#    y 0.000000 2.253850 0.000000 
#    z 0.000000 0.000000 2.066290 
# 
# From -- ./inp_files/837.got.cif
#   From: 2010.05.17/outbox.cif.g08.bks.cpg/sg18_1_cif.got.tgz:837.got - 2010.06.03 22:40:56.
