data_PCOD9312745
_publ_section_title
;
Structure prediction by ZEFSAII (Michael W. Deem and Ramdas Pophale) SiO2 
 PCOD9312745
Probable space group: P 21 21 2
;
_chemical_formula_sum "Si O2"
_cell_formula_units_Z 20
_cell_length_a 18.060653
_cell_length_b 9.638348
_cell_length_c 5.010057
_cell_angle_alpha 90.000000
_cell_angle_beta 90.000000
_cell_angle_gamma 90.000000
_cell_volume 872.124964
_symmetry_space_group_name_H-M "P 21 21 2"
_symmetry_group_IT_number 18
_symmetry_cell_setting 'orthorhombic'
loop_
_space_group_symop_operation_xyz
x,y,z
-x,-y,z
1/2+x,1/2-y,-z
1/2-x,1/2+y,-z
loop_
_atom_site_type_symbol
_atom_site_label
_atom_site_fract_x
_atom_site_fract_y
_atom_site_fract_z
Si Si1 0.102232 0.736763 0.272712
Si Si2 0.859924 0.816314 0.242528
Si Si3 0.119175 0.353169 0.753659
Si Si4 0.500000 0.000000 0.544804
Si Si5 0.810412 0.347120 0.759655
Si Si6 0.000000 0.000000 0.251622
O O1 0.056612 0.593034 0.290710
O O2 0.168045 0.731666 0.488350
O O3 0.044918 0.860547 0.346460
O O4 0.141513 0.731158 0.985732
O O5 0.859848 0.773118 0.554462
O O6 0.775967 0.853612 0.174361
O O7 0.877670 0.684140 0.061544
O O8 0.924439 0.922523 0.154419
O O9 0.038482 0.391794 0.652414
O O10 0.165394 0.493490 0.717704
#
# Coordination Sequence:
#
# PCOD9312745 Si02
#       6
#     4   4   4   2   4   2
#     4  11  26  48  75 106 145 191 239 304 357 438
#     4  12  28  46  73 105 149 186 243 306 364 426
#     4  11  25  46  74 103 137 194 242 299 345 445
#     4  10  22  48  76 100 140 186 256 280 364 428
#     4  11  27  47  76 101 145 197 246 291 362 439
#     4  12  30  48  72 118 148 190 236 318 370 418
#
# _framework density 22.932492
#
# number of rings (size 3 to 8) (size 9 to 14) (size 15 to 20)
#    0.000    0.800    2.000    3.600   11.200    4.800 
#    0.000    0.000    0.000    0.000    0.000    0.000 
#    0.000    0.000    0.000    0.000    0.000    0.000 
#
# Total GULP energy -111460.384570 kJ/mol
# GULP energy per Si atom -5573.019229 kJ/mol
# Density = 2.288030 g / cm^3
# Si number density = 22.932492 Si / 1000 Ang^3
#
#
#
# Elastic Constant Matrix: (Units=GPa)
#
#
# Indices 1 2 3 4 5 6 
#
# 1 135.8122 25.4219 9.9512 0.0000 0.0000 0.0000
# 2 25.4219 79.7691 3.4773 0.0000 0.0000 0.0000
# 3 9.9512 3.4773 71.5997 0.0000 0.0000 0.0000
# 4 0.0000 0.0000 0.0000 -80.0510 0.0000 0.0000
# 5 0.0000 0.0000 0.0000 0.0000 22.6378 0.0000
# 6 0.0000 0.0000 0.0000 0.0000 0.0000 11.0589
#
#
#
# Elastic Compliance Matrix: (Units=1/GPa)
#
#
# Indices 1 2 3 4 5 6 
#
# 1 0.007898 -0.002474 -0.000978 0.000000 0.000000 0.000000
# 2 -0.002474 0.013338 -0.000304 0.000000 0.000000 0.000000
# 3 -0.000978 -0.000304 0.014117 0.000000 0.000000 0.000000
# 4 0.000000 0.000000 0.000000 -0.012492 0.000000 0.000000
# 5 0.000000 0.000000 0.000000 0.000000 0.044174 0.000000
# 6 0.000000 0.000000 0.000000 0.000000 0.000000 0.090425
#
#
# Mechanical properties :
#
#
# Convention : Reuss Voigt Hill
#
# Bulk Modulus (GPa) = 35.91758 40.54240 38.22999
# Shear Modulus (GPa) = 28.69412 7.28451 17.98932
#
# Velocity S-wave (km/s) = 3.54113 1.78421 2.80384
# Velocity P-wave (km/s) = 5.69348 4.68636 5.21429
#
# Compressibility (1/GPa) = 0.02784152
#
# Stress axis : x y z
#
# Youngs Moduli (GPa) = 126.61595 74.97376 70.83580
#
# Poissons Ratio (x) = 0.18551 0.06924
# Poissons Ratio (y) = 0.31330 0.02152
# Poissons Ratio (z) = 0.12377 0.02278
#
# Static dielectric constant tensor:
#      x y z
#    x 2.571740 0.000000 0.000000 
#    y 0.000000 1.878210 0.000000 
#    z 0.000000 0.000000 1.894970 
# 
# From -- ./inp_files/564.got.cif
#   From: 2010.05.17/outbox.cif.g08.bks.cpg/sg18_1_cif.got.tgz:564.got - 2010.06.03 22:40:56.
