data_PCOD9312879
_publ_section_title
;
Structure prediction by ZEFSAII (Michael W. Deem and Ramdas Pophale) SiO2 
 PCOD9312879
Probable space group: P 21 21 2
;
_chemical_formula_sum "Si O2"
_cell_formula_units_Z 14
_cell_length_a 8.257675
_cell_length_b 4.975014
_cell_length_c 13.489101
_cell_angle_alpha 90.000000
_cell_angle_beta 90.000000
_cell_angle_gamma 90.000000
_cell_volume 554.159905
_symmetry_space_group_name_H-M "P 21 21 2"
_symmetry_group_IT_number 18
_symmetry_cell_setting 'orthorhombic'
loop_
_space_group_symop_operation_xyz
x,y,z
-x,-y,z
1/2+x,1/2-y,-z
1/2-x,1/2+y,-z
loop_
_atom_site_type_symbol
_atom_site_label
_atom_site_fract_x
_atom_site_fract_y
_atom_site_fract_z
Si Si1 0.189877 0.997033 0.053093
Si Si2 0.228361 0.342218 0.566512
Si Si3 0.000000 0.000000 0.687154
Si Si4 0.827583 0.367828 0.237134
O O1 0.225803 0.856231 0.157602
O O2 0.000000 0.500000 0.208977
O O3 0.252852 0.796288 0.968208
O O4 0.000000 0.000000 0.044474
O O5 0.245690 0.638242 0.524748
O O6 0.062662 0.240437 0.617885
O O7 0.352025 0.270648 0.655301
O O8 0.833610 0.053330 0.747689
#
# Coordination Sequence:
#
# PCOD9312879 Si02
#       4
#     4   4   2   4
#     4  12  28  53  81 116 154 201 259 327 399 473
#     4  10  24  42  69 107 150 199 254 307 372 456
#     4   8  24  44  74 106 150 212 252 316 392 444
#     4  10  24  47  74 111 155 197 263 318 388 457
#
# _framework density 25.263465
#
# number of rings (size 3 to 8) (size 9 to 14) (size 15 to 20)
#    1.714    0.000    0.000    2.571    6.000    4.571 
#    5.143    0.000    0.000    0.000    0.000    0.000 
#    0.000    0.000    0.000    0.000    0.000    0.000 
#
# Total GULP energy -78243.592359 kJ/mol
# GULP energy per Si atom -5588.828026 kJ/mol
# Density = 2.520596 g / cm^3
# Si number density = 25.263465 Si / 1000 Ang^3
#
#
#
# Elastic Constant Matrix: (Units=GPa)
#
#
# Indices 1 2 3 4 5 6 
#
# 1 134.0986 43.1528 47.4775 0.0000 0.0000 0.0000
# 2 43.1528 -31.1014 -134.8428 0.0000 0.0000 0.0000
# 3 47.4775 -134.8428 -79.7296 0.0000 0.0000 0.0000
# 4 0.0000 0.0000 0.0000 -55.8675 0.0000 0.0000
# 5 0.0000 0.0000 0.0000 0.0000 58.5309 0.0000
# 6 0.0000 0.0000 0.0000 0.0000 0.0000 44.2037
#
#
#
# Elastic Compliance Matrix: (Units=1/GPa)
#
#
# Indices 1 2 3 4 5 6 
#
# 1 0.006436 0.001214 0.001780 0.000000 0.000000 0.000000
# 2 0.001214 0.005306 -0.008251 0.000000 0.000000 0.000000
# 3 0.001780 -0.008251 0.002473 0.000000 0.000000 0.000000
# 4 0.000000 0.000000 0.000000 -0.017900 0.000000 0.000000
# 5 0.000000 0.000000 0.000000 0.000000 0.017085 0.000000
# 6 0.000000 0.000000 0.000000 0.000000 0.000000 0.022623
#
#
# Mechanical properties :
#
#
# Convention : Reuss Voigt Hill
#
# Bulk Modulus (GPa) = 270.27345 -7.23970 131.51688
# Shear Modulus (GPa) = 104.66284 13.87210 59.26747
#
# Velocity S-wave (km/s) = 6.44348 2.34582 4.84878
# Velocity P-wave (km/s) = 12.75038 2.11312 9.13886
#
# Compressibility (1/GPa) = 0.00369996
#
# Stress axis : x y z
#
# Youngs Moduli (GPa) = 155.36562 188.45497 404.40262
#
# Poissons Ratio (x) = -0.22876 -0.71977
# Poissons Ratio (y) = -0.18859 3.33692
# Poissons Ratio (z) = -0.27652 1.55503
#
# Static dielectric constant tensor:
#      x y z
#    x 2.018150 0.000000 0.000000 
#    y 0.000000 1.849150 0.000000 
#    z 0.000000 0.000000 2.067090 
# 
# From -- ./inp_files/5768.got.cif
#   From: 2010.05.17/outbox.cif.g08.bks.cpg/sg18_3_cif.got.tgz:5768.got - 2010.06.03 22:40:56.
