data_PCOD9312221
_publ_section_title
;
Structure prediction by ZEFSAII (Michael W. Deem and Ramdas Pophale) SiO2 
 PCOD9312221
Probable space group: P 21 21 2
;
_chemical_formula_sum "Si O2"
_cell_formula_units_Z 22
_cell_length_a 7.516377
_cell_length_b 13.296922
_cell_length_c 9.475296
_cell_angle_alpha 90.000000
_cell_angle_beta 90.000000
_cell_angle_gamma 90.000000
_cell_volume 947.005414
_symmetry_space_group_name_H-M "P 21 21 2"
_symmetry_group_IT_number 18
_symmetry_cell_setting 'orthorhombic'
loop_
_space_group_symop_operation_xyz
x,y,z
-x,-y,z
1/2+x,1/2-y,-z
1/2-x,1/2+y,-z
loop_
_atom_site_type_symbol
_atom_site_label
_atom_site_fract_x
_atom_site_fract_y
_atom_site_fract_z
Si Si1 0.000000 0.000000 0.481750
Si Si2 0.248545 0.848469 0.997932
Si Si3 0.207809 0.629949 0.657769
Si Si4 0.292081 0.361521 0.324896
Si Si5 0.000000 0.000000 0.021287
Si Si6 0.833810 0.375386 0.993752
Si Si7 0.000000 0.500000 0.452295
O O1 0.850028 0.953842 0.384233
O O2 0.050302 0.906474 0.581863
O O3 0.166804 0.854055 0.840521
O O4 0.235018 0.733293 0.043216
O O5 0.107759 0.909203 0.094366
O O6 0.453683 0.883091 0.981097
O O7 0.255007 0.746962 0.631720
O O8 0.173384 0.619328 0.823607
O O9 0.050016 0.592320 0.556392
O O10 0.144832 0.447339 0.352968
O O11 0.178877 0.049597 0.952388
#
# Coordination Sequence:
#
# PCOD9312221 Si02
#       7
#     2   4   4   4   2   4   2
#     4  10  20  42  68  94 120 168 226 268 326 394
#     4  11  24  44  65  99 136 176 221 270 333 402
#     4  10  22  40  62  91 126 163 211 272 321 382
#     4  10  22  40  62  91 126 163 211 272 321 382
#     4  12  24  40  68  90 132 182 214 268 322 388
#     4  11  24  44  65  99 136 176 221 270 333 402
#     4  10  22  38  62  92 116 162 210 256 328 384
#
# _framework density 23.231121999999999
#
# number of rings (size 3 to 8) (size 9 to 14) (size 15 to 20)
#    0.000    1.455    1.818    2.727    5.091    0.000 
#    0.000    1.818    0.000    0.000    0.000    0.000 
#    0.000    0.000    0.000    0.000    0.000    0.000 
#
# Total GULP energy -122579.748642 kJ/mol
# GULP energy per Si atom -5571.806756 kJ/mol
# Density = 2.317825 g / cm^3
# Si number density = 23.231122 Si / 1000 Ang^3
#
#
#
# Elastic Constant Matrix: (Units=GPa)
#
#
# Indices 1 2 3 4 5 6 
#
# 1 123.2273 12.9602 9.4334 0.0000 0.0000 0.0000
# 2 12.9602 114.6011 17.4827 0.0000 0.0000 0.0000
# 3 9.4334 17.4827 61.9072 0.0000 0.0000 0.0000
# 4 0.0000 0.0000 0.0000 24.1772 0.0000 0.0000
# 5 0.0000 0.0000 0.0000 0.0000 19.1942 0.0000
# 6 0.0000 0.0000 0.0000 0.0000 0.0000 43.6484
#
#
#
# Elastic Compliance Matrix: (Units=1/GPa)
#
#
# Indices 1 2 3 4 5 6 
#
# 1 0.008277 -0.000777 -0.001042 0.000000 0.000000 0.000000
# 2 -0.000777 0.009192 -0.002477 0.000000 0.000000 0.000000
# 3 -0.001042 -0.002477 0.017012 0.000000 0.000000 0.000000
# 4 0.000000 0.000000 0.000000 0.041361 0.000000 0.000000
# 5 0.000000 0.000000 0.000000 0.000000 0.052099 0.000000
# 6 0.000000 0.000000 0.000000 0.000000 0.000000 0.022910
#
#
# Mechanical properties :
#
#
# Convention : Reuss Voigt Hill
#
# Bulk Modulus (GPa) = 38.62863 42.16535 40.39699
# Shear Modulus (GPa) = 29.74913 34.72790 32.23852
#
# Velocity S-wave (km/s) = 3.58239 3.87057 3.72927
# Velocity P-wave (km/s) = 5.81166 6.17777 5.99751
#
# Compressibility (1/GPa) = 0.02588754
#
# Stress axis : x y z
#
# Youngs Moduli (GPa) = 120.82314 108.79350 58.78357
#
# Poissons Ratio (x) = 0.08454 0.06124
# Poissons Ratio (y) = 0.09389 0.14563
# Poissons Ratio (z) = 0.12587 0.26952
#
# Static dielectric constant tensor:
#      x y z
#    x 1.964050 0.000000 0.000000 
#    y 0.000000 1.936570 0.000000 
#    z 0.000000 0.000000 1.854910 
# 
# From -- ./inp_files/5595.got.cif
#   From: 2010.05.17/outbox.cif.g08.bks.cpg/sg18_3_cif.got.tgz:5595.got - 2010.06.03 22:40:56.
