data_PCOD9312223
_publ_section_title
;
Structure prediction by ZEFSAII (Michael W. Deem and Ramdas Pophale) SiO2 
 PCOD9312223
Probable space group: P 21 21 2
;
_chemical_formula_sum "Si O2"
_cell_formula_units_Z 24
_cell_length_a 12.022216
_cell_length_b 8.362350
_cell_length_c 11.880974
_cell_angle_alpha 90.000000
_cell_angle_beta 90.000000
_cell_angle_gamma 90.000000
_cell_volume 1194.441578
_symmetry_space_group_name_H-M "P 21 21 2"
_symmetry_group_IT_number 18
_symmetry_cell_setting 'orthorhombic'
loop_
_space_group_symop_operation_xyz
x,y,z
-x,-y,z
1/2+x,1/2-y,-z
1/2-x,1/2+y,-z
loop_
_atom_site_type_symbol
_atom_site_label
_atom_site_fract_x
_atom_site_fract_y
_atom_site_fract_z
Si Si1 0.697133 0.772453 0.622796
Si Si2 0.758611 0.566122 0.838937
Si Si3 0.500000 0.000000 0.074478
Si Si4 0.098698 0.197387 0.247037
Si Si5 0.382235 0.539737 0.506672
Si Si6 0.057292 0.840772 0.039496
Si Si7 0.000000 0.500000 0.313834
O O1 0.730962 0.694010 0.741578
O O2 0.674821 0.624568 0.541305
O O3 0.799940 0.867904 0.573370
O O4 0.584329 0.878153 0.625155
O O5 0.702907 0.395558 0.805614
O O6 0.688621 0.626826 0.947229
O O7 0.888426 0.543244 0.857701
O O8 0.529214 0.834028 0.008808
O O9 0.089132 0.388482 0.249386
O O10 0.994157 0.159184 0.166427
O O11 0.093810 0.132755 0.375126
O O12 0.500000 0.500000 0.452366
O O13 0.000000 0.000000 0.985241
#
# Coordination Sequence:
#
# PCOD9312223 Si02
#       7
#     4   4   2   4   4   4   2
#     4  11  24  41  68  99 132 175 230 275 339 403
#     4  10  24  46  64  99 141 170 222 289 338 405
#     4  12  27  46  71 100 140 180 223 292 363 392
#     4  10  20  42  69  94 132 169 221 274 328 404
#     4  11  21  42  64  96 135 176 217 278 330 401
#     4  10  22  43  73 100 128 178 234 280 333 418
#     4  12  19  38  69 100 118 186 229 266 327 416
#
# _framework density 20.093071999999999
#
# number of rings (size 3 to 8) (size 9 to 14) (size 15 to 20)
#    0.000    1.333    3.333    3.000    4.667    0.000 
#   12.000    0.000    0.000    0.000    0.000    0.000 
#    0.000    0.000    0.000    0.000    0.000    0.000 
#
# Total GULP energy -133750.418910 kJ/mol
# GULP energy per Si atom -5572.934121 kJ/mol
# Density = 2.004734 g / cm^3
# Si number density = 20.093072 Si / 1000 Ang^3
#
#
#
# Elastic Constant Matrix: (Units=GPa)
#
#
# Indices 1 2 3 4 5 6 
#
# 1 185.0329 62.2483 47.2043 0.0000 0.0000 0.0000
# 2 62.2483 161.7995 37.0954 0.0000 0.0000 0.0000
# 3 47.2043 37.0954 37.5512 0.0000 0.0000 0.0000
# 4 0.0000 0.0000 0.0000 7.8958 0.0000 0.0000
# 5 0.0000 0.0000 0.0000 0.0000 15.9676 0.0000
# 6 0.0000 0.0000 0.0000 0.0000 0.0000 45.1910
#
#
#
# Elastic Compliance Matrix: (Units=1/GPa)
#
#
# Indices 1 2 3 4 5 6 
#
# 1 0.008081 -0.001008 -0.009162 0.000000 0.000000 0.000000
# 2 -0.001008 0.008116 -0.006750 0.000000 0.000000 0.000000
# 3 -0.009162 -0.006750 0.044816 0.000000 0.000000 0.000000
# 4 0.000000 0.000000 0.000000 0.126649 0.000000 0.000000
# 5 0.000000 0.000000 0.000000 0.000000 0.062627 0.000000
# 6 0.000000 0.000000 0.000000 0.000000 0.000000 0.022128
#
#
# Mechanical properties :
#
#
# Convention : Reuss Voigt Hill
#
# Bulk Modulus (GPa) = 36.80278 75.27553 56.03915
# Shear Modulus (GPa) = 15.85712 29.66657 22.76185
#
# Velocity S-wave (km/s) = 2.81229 3.84664 3.36939
# Velocity P-wave (km/s) = 5.37598 7.56793 6.56410
#
# Compressibility (1/GPa) = 0.02717186
#
# Stress axis : x y z
#
# Youngs Moduli (GPa) = 123.74514 123.21398 22.31344
#
# Poissons Ratio (x) = 0.12425 0.20444
# Poissons Ratio (y) = 0.12478 0.15061
# Poissons Ratio (z) = 1.13380 0.83168
#
# Static dielectric constant tensor:
#      x y z
#    x 1.713530 0.000000 0.000000 
#    y 0.000000 1.760880 0.000000 
#    z 0.000000 0.000000 1.721880 
# 
# From -- ./inp_files/5542.got.cif
#   From: 2010.05.17/outbox.cif.g08.bks.cpg/sg18_3_cif.got.tgz:5542.got - 2010.06.03 22:40:56.
