data_PCOD9312530
_publ_section_title
;
Structure prediction by ZEFSAII (Michael W. Deem and Ramdas Pophale) SiO2 
 PCOD9312530
Probable space group: P 21 21 2
;
_chemical_formula_sum "Si O2"
_cell_formula_units_Z 24
_cell_length_a 20.241345
_cell_length_b 6.960027
_cell_length_c 8.842513
_cell_angle_alpha 90.000000
_cell_angle_beta 90.000000
_cell_angle_gamma 90.000000
_cell_volume 1245.735952
_symmetry_space_group_name_H-M "P 21 21 2"
_symmetry_group_IT_number 18
_symmetry_cell_setting 'orthorhombic'
loop_
_space_group_symop_operation_xyz
x,y,z
-x,-y,z
1/2+x,1/2-y,-z
1/2-x,1/2+y,-z
loop_
_atom_site_type_symbol
_atom_site_label
_atom_site_fract_x
_atom_site_fract_y
_atom_site_fract_z
Si Si1 0.000000 0.000000 0.266535
Si Si2 0.813869 0.326828 0.115415
Si Si3 0.900574 0.983449 0.001993
Si Si4 0.438559 0.100406 0.678896
Si Si5 0.820460 0.641733 0.859747
Si Si6 0.500000 0.500000 0.254156
Si Si7 0.937813 0.611635 0.641560
O O1 0.035022 0.819183 0.348312
O O2 0.056461 0.067129 0.149231
O O3 0.870214 0.400090 0.230656
O O4 0.745233 0.257147 0.188618
O O5 0.846758 0.138595 0.044797
O O6 0.802339 0.476448 0.979450
O O7 0.944968 0.071819 0.866477
O O8 0.866692 0.792230 0.945881
O O9 0.431231 0.978301 0.525440
O O10 0.500000 0.000000 0.765761
O O11 0.868525 0.576864 0.724882
O O12 0.462295 0.666469 0.347179
O O13 0.000000 0.500000 0.715471
#
# Coordination Sequence:
#
# PCOD9312530 Si02
#       7
#     2   4   4   4   4   2   4
#     4   9  18  35  62  90 120 148 202 254 302 356
#     4  11  21  37  62  90 123 158 200 250 304 364
#     4   9  18  34  60  94 115 152 198 256 307 352
#     4  10  22  39  61  87 122 161 204 249 301 359
#     4  11  21  37  62  90 123 158 200 250 304 364
#     4   9  18  35  62  90 120 148 202 254 302 356
#     4  10  22  39  61  87 122 161 204 249 301 359
#
# _framework density 19.265719000000001
#
# number of rings (size 3 to 8) (size 9 to 14) (size 15 to 20)
#    0.000    2.000    1.667    2.000    0.000    6.000 
#    0.000    1.667   14.667    0.000    0.000    0.000 
#    0.000    0.000    0.000    0.000    0.000    0.000 
#
# Total GULP energy -133699.600238 kJ/mol
# GULP energy per Si atom -5570.816677 kJ/mol
# Density = 1.922187 g / cm^3
# Si number density = 19.265719 Si / 1000 Ang^3
#
#
#
# Elastic Constant Matrix: (Units=GPa)
#
#
# Indices 1 2 3 4 5 6 
#
# 1 117.2806 2.6146 34.4393 0.0000 0.0000 0.0000
# 2 2.6146 50.2309 23.7390 0.0000 0.0000 0.0000
# 3 34.4393 23.7390 74.6843 0.0000 0.0000 0.0000
# 4 0.0000 0.0000 0.0000 -1.0415 0.0000 0.0000
# 5 0.0000 0.0000 0.0000 0.0000-2243.4327 0.0000
# 6 0.0000 0.0000 0.0000 0.0000 0.0000 38.0413
#
#
#
# Elastic Compliance Matrix: (Units=1/GPa)
#
#
# Indices 1 2 3 4 5 6 
#
# 1 0.010023 0.001956 -0.005244 0.000000 0.000000 0.000000
# 2 0.001956 0.023809 -0.008470 0.000000 0.000000 0.000000
# 3 -0.005244 -0.008470 0.018500 0.000000 0.000000 0.000000
# 4 0.000000 0.000000 0.000000 -0.960184 0.000000 0.000000
# 5 0.000000 0.000000 0.000000 0.000000 -0.000446 0.000000
# 6 0.000000 0.000000 0.000000 0.000000 0.000000 0.026287
#
#
# Mechanical properties :
#
#
# Convention : Reuss Voigt Hill
#
# Bulk Modulus (GPa) = 34.70147 40.42020 37.56084
# Shear Modulus (GPa) = -5.89004 -429.19306 -217.54155
#
# Velocity S-wave (km/s) = -1.75040 -14.94186 -10.63774
# Velocity P-wave (km/s) = 3.73710 16.63289 11.46052
#
# Compressibility (1/GPa) = 0.02881722
#
# Stress axis : x y z
#
# Youngs Moduli (GPa) = 99.77303 42.00063 54.05397
#
# Poissons Ratio (x) = -0.08217 0.28344
# Poissons Ratio (y) = -0.19520 0.45784
# Poissons Ratio (z) = 0.52318 0.35575
#
# Static dielectric constant tensor:
#      x y z
#    x 1.724710 0.000000 0.000000 
#    y 0.000000 3.647460 0.000000 
#    z 0.000000 0.000000 1.707550 
# 
# From -- ./inp_files/4492.got.cif
#   From: 2010.05.17/outbox.cif.g08.bks.cpg/sg18_3_cif.got.tgz:4492.got - 2010.06.03 22:40:56.
