data_PCOD9312363
_publ_section_title
;
Structure prediction by ZEFSAII (Michael W. Deem and Ramdas Pophale) SiO2 
 PCOD9312363
Probable space group: P 21 21 2
;
_chemical_formula_sum "Si O2"
_cell_formula_units_Z 32
_cell_length_a 32.188899
_cell_length_b 8.979955
_cell_length_c 4.988336
_cell_angle_alpha 90.000000
_cell_angle_beta 90.000000
_cell_angle_gamma 90.000000
_cell_volume 1441.902787
_symmetry_space_group_name_H-M "P 21 21 2"
_symmetry_group_IT_number 18
_symmetry_cell_setting 'orthorhombic'
loop_
_space_group_symop_operation_xyz
x,y,z
-x,-y,z
1/2+x,1/2-y,-z
1/2-x,1/2+y,-z
loop_
_atom_site_type_symbol
_atom_site_label
_atom_site_fract_x
_atom_site_fract_y
_atom_site_fract_z
Si Si1 0.218252 0.060368 0.734679
Si Si2 0.351333 0.235962 0.751892
Si Si3 0.457391 0.073911 0.094603
Si Si4 0.406323 0.980163 0.597168
Si Si5 0.870190 0.074944 0.762458
Si Si6 0.068482 0.175286 0.589894
Si Si7 0.737874 0.636998 0.785343
Si Si8 0.987785 0.833485 0.077060
O O1 0.228368 0.235405 0.730430
O O2 0.169769 0.032127 0.803249
O O3 0.229260 0.976193 0.458730
O O4 0.243805 0.969015 0.959732
O O5 0.367203 0.068133 0.718997
O O6 0.356722 0.308355 0.461963
O O7 0.303952 0.264854 0.833466
O O8 0.377659 0.333218 0.965416
O O9 0.424758 0.066090 0.336617
O O10 0.472598 0.231596 0.980329
O O11 0.500000 0.000000 0.198850
O O12 0.440312 0.990980 0.832294
O O13 0.401890 0.809195 0.509549
O O14 0.907129 0.976776 0.642254
O O15 0.048193 0.215360 0.872611
O O16 0.031382 0.166204 0.374024
O O17 0.000000 0.000000 0.005475
#
# Coordination Sequence:
#
# PCOD9312363 Si02
#       8
#     4   4   4   4   4   4   4   4
#     4  10  21  40  65  96 129 171 207 260 311 369
#     4  10  23  41  62  93 124 166 209 253 309 380
#     4  12  23  43  62  86 121 158 205 269 314 364
#     4  12  24  40  65  89 120 164 208 256 321 369
#     4  10  23  41  62  90 130 164 204 256 316 368
#     4  12  24  43  60  90 125 158 209 262 312 378
#     4  10  21  40  65  96 132 164 215 255 309 375
#     4  12  27  41  61  90 119 158 213 262 314 375
#
# _framework density 22.192898
#
# number of rings (size 3 to 8) (size 9 to 14) (size 15 to 20)
#    0.000    1.000    2.500    3.750    5.250    1.000 
#    0.000    2.500    0.000    0.000    0.000    0.000 
#    0.000    0.000    0.000    0.000    0.000    0.000 
#
# Total GULP energy -178875.821744 kJ/mol
# GULP energy per Si atom -5589.869429 kJ/mol
# Density = 2.214239 g / cm^3
# Si number density = 22.192898 Si / 1000 Ang^3
#
#
#
# Elastic Constant Matrix: (Units=GPa)
#
#
# Indices 1 2 3 4 5 6 
#
# 1 19.7196 -9.6592 -0.1719 0.0000 0.0000 0.0000
# 2 -9.6592 51.5539 1.2482 0.0000 0.0000 0.0000
# 3 -0.1719 1.2482 84.5515 0.0000 0.0000 0.0000
# 4 0.0000 0.0000 0.0000 31.3495 0.0000 0.0000
# 5 0.0000 0.0000 0.0000 0.0000 15.0898 0.0000
# 6 0.0000 0.0000 0.0000 0.0000 0.0000 30.0207
#
#
#
# Elastic Compliance Matrix: (Units=1/GPa)
#
#
# Indices 1 2 3 4 5 6 
#
# 1 0.055835 0.010462 -0.000041 0.000000 0.000000 0.000000
# 2 0.010462 0.021365 -0.000294 0.000000 0.000000 0.000000
# 3 -0.000041 -0.000294 0.011831 0.000000 0.000000 0.000000
# 4 0.000000 0.000000 0.000000 0.031898 0.000000 0.000000
# 5 0.000000 0.000000 0.000000 0.000000 0.066270 0.000000
# 6 0.000000 0.000000 0.000000 0.000000 0.000000 0.033310
#
#
# Mechanical properties :
#
#
# Convention : Reuss Voigt Hill
#
# Bulk Modulus (GPa) = 9.15029 15.40658 12.27844
# Shear Modulus (GPa) = 21.12519 26.25251 23.68885
#
# Velocity S-wave (km/s) = 3.08862 3.44310 3.27066
# Velocity P-wave (km/s) = 4.10505 4.77114 4.45057
#
# Compressibility (1/GPa) = 0.10928611
#
# Stress axis : x y z
#
# Youngs Moduli (GPa) = 17.90976 46.80648 84.52110
#
# Poissons Ratio (x) = -0.48971 0.00346
# Poissons Ratio (y) = -0.18738 0.02486
# Poissons Ratio (z) = 0.00073 0.01377
#
# Static dielectric constant tensor:
#      x y z
#    x 1.861950 0.000000 0.000000 
#    y 0.000000 1.855070 0.000000 
#    z 0.000000 0.000000 1.787050 
# 
# From -- ./inp_files/2313.got.cif
#   From: 2010.05.17/outbox.cif.g08.bks.cpg/sg18_2_cif.got.tgz:2313.got - 2010.06.03 22:40:56.
