data_PCOD9312348
_publ_section_title
;
Structure prediction by ZEFSAII (Michael W. Deem and Ramdas Pophale) SiO2 
 PCOD9312348
Probable space group: P 21 21 2
;
_chemical_formula_sum "Si O2"
_cell_formula_units_Z 26
_cell_length_a 7.919859
_cell_length_b 25.341475
_cell_length_c 5.174120
_cell_angle_alpha 90.000000
_cell_angle_beta 90.000000
_cell_angle_gamma 90.000000
_cell_volume 1038.450587
_symmetry_space_group_name_H-M "P 21 21 2"
_symmetry_group_IT_number 18
_symmetry_cell_setting 'orthorhombic'
loop_
_space_group_symop_operation_xyz
x,y,z
-x,-y,z
1/2+x,1/2-y,-z
1/2-x,1/2+y,-z
loop_
_atom_site_type_symbol
_atom_site_label
_atom_site_fract_x
_atom_site_fract_y
_atom_site_fract_z
Si Si1 0.581858 0.591574 0.141200
Si Si2 0.740579 0.510924 0.516461
Si Si3 0.500000 0.500000 0.983087
Si Si4 0.198777 0.243971 0.150764
Si Si5 0.540814 0.301297 0.329701
Si Si6 0.567578 0.143126 0.013209
Si Si7 0.941748 0.410394 0.489050
O O1 0.631747 0.533472 0.273114
O O2 0.425020 0.563193 0.012648
O O3 0.523490 0.638296 0.328431
O O4 0.744141 0.616460 0.999489
O O5 0.786029 0.449952 0.497047
O O6 0.901961 0.548566 0.510805
O O7 0.645257 0.520622 0.777992
O O8 0.379200 0.265691 0.247478
O O9 0.109036 0.216535 0.393928
O O10 0.102625 0.296838 0.059118
O O11 0.179345 0.207199 0.897545
O O12 0.463139 0.117165 0.783486
O O13 0.475029 0.131269 0.282306
#
# Coordination Sequence:
#
# PCOD9312348 Si02
#       7
#     4   4   2   4   4   4   4
#     4  10  24  42  66  92 137 182 219 266 355 407
#     4  10  23  38  62  93 131 172 223 266 321 400
#     4  12  22  42  60  92 132 172 218 264 330 410
#     4  11  24  46  72 104 136 181 233 290 353 417
#     4  11  25  47  74 101 139 183 233 292 353 418
#     4  10  21  42  69  96 130 176 219 272 339 399
#     4  10  21  39  67  95 127 171 225 270 319 388
#
# _framework density 25.037299999999998
#
# number of rings (size 3 to 8) (size 9 to 14) (size 15 to 20)
#    0.000    1.538    1.538    2.308    4.308    3.692 
#    8.308    0.000    0.000    0.000    0.000    0.000 
#    0.000    0.000    0.000    0.000    0.000    0.000 
#
# Total GULP energy -145136.443542 kJ/mol
# GULP energy per Si atom -5582.170905 kJ/mol
# Density = 2.498031 g / cm^3
# Si number density = 25.037300 Si / 1000 Ang^3
#
#
#
# Elastic Constant Matrix: (Units=GPa)
#
#
# Indices 1 2 3 4 5 6 
#
# 1 58.7367 38.1977 10.5464 0.0000 0.0000 0.0000
# 2 38.1977 99.7803 -18.7066 0.0000 0.0000 0.0000
# 3 10.5464 -18.7066 48.9612 0.0000 0.0000 0.0000
# 4 0.0000 0.0000 0.0000 45.5434 0.0000 0.0000
# 5 0.0000 0.0000 0.0000 0.0000 12.8281 0.0000
# 6 0.0000 0.0000 0.0000 0.0000 0.0000 15.9384
#
#
#
# Elastic Compliance Matrix: (Units=1/GPa)
#
#
# Indices 1 2 3 4 5 6 
#
# 1 0.026870 -0.012249 -0.010468 0.000000 0.000000 0.000000
# 2 -0.012249 0.016379 0.008896 0.000000 0.000000 0.000000
# 3 -0.010468 0.008896 0.026078 0.000000 0.000000 0.000000
# 4 0.000000 0.000000 0.000000 0.021957 0.000000 0.000000
# 5 0.000000 0.000000 0.000000 0.000000 0.077954 0.000000
# 6 0.000000 0.000000 0.000000 0.000000 0.000000 0.062742
#
#
# Mechanical properties :
#
#
# Convention : Reuss Voigt Hill
#
# Bulk Modulus (GPa) = 23.98851 29.72812 26.85832
# Shear Modulus (GPa) = 18.28038 26.69135 22.48586
#
# Velocity S-wave (km/s) = 2.70502 3.26860 3.00007
# Velocity P-wave (km/s) = 4.39978 5.11315 4.76982
#
# Compressibility (1/GPa) = 0.04168663
#
# Stress axis : x y z
#
# Youngs Moduli (GPa) = 37.21556 61.05357 38.34613
#
# Poissons Ratio (x) = 0.74785 0.40141
# Poissons Ratio (y) = 0.45585 -0.34114
# Poissons Ratio (z) = 0.38957 -0.54316
#
# Static dielectric constant tensor:
#      x y z
#    x 1.815950 0.000000 0.000000 
#    y 0.000000 1.796590 0.000000 
#    z 0.000000 0.000000 2.077930 
# 
# From -- ./inp_files/637.got.cif
#   From: 2010.05.17/outbox.cif.g08.bks.cpg/sg18_1_cif.got.tgz:637.got - 2010.06.03 22:40:56.
