data_PCOD9312004
_publ_section_title
;
Structure prediction by ZEFSAII (Michael W. Deem and Ramdas Pophale) SiO2 
 PCOD9312004
Probable space group: P 21 21 2
;
_chemical_formula_sum "Si O2"
_cell_formula_units_Z 32
_cell_length_a 8.607448
_cell_length_b 19.543605
_cell_length_c 9.967767
_cell_angle_alpha 90.000000
_cell_angle_beta 90.000000
_cell_angle_gamma 90.000000
_cell_volume 1676.783384
_symmetry_space_group_name_H-M "P 21 21 2"
_symmetry_group_IT_number 18
_symmetry_cell_setting 'orthorhombic'
loop_
_space_group_symop_operation_xyz
x,y,z
-x,-y,z
1/2+x,1/2-y,-z
1/2-x,1/2+y,-z
loop_
_atom_site_type_symbol
_atom_site_label
_atom_site_fract_x
_atom_site_fract_y
_atom_site_fract_z
Si Si1 0.565870 0.425625 0.038944
Si Si2 0.433823 0.786139 0.404583
Si Si3 0.435491 0.073970 0.970030
Si Si4 0.064993 0.074456 0.282136
Si Si5 0.071326 0.783539 0.343722
Si Si6 0.433935 0.074171 0.291269
Si Si7 0.925722 0.714812 0.092138
Si Si8 0.565290 0.711368 0.156490
O O1 0.500000 0.500000 0.075657
O O2 0.751589 0.421589 0.057022
O O3 0.538186 0.416976 0.878643
O O4 0.481384 0.365940 0.120480
O O5 0.252249 0.778415 0.375372
O O6 0.476171 0.763988 0.554187
O O7 0.487568 0.862793 0.367586
O O8 0.525633 0.734886 0.305578
O O9 0.461685 0.081190 0.130804
O O10 0.500000 0.000000 0.930267
O O11 0.525353 0.135857 0.900913
O O12 0.248616 0.076796 0.308629
O O13 0.982713 0.137821 0.353618
O O14 0.000000 0.000000 0.319511
O O15 0.029777 0.757814 0.195159
O O16 0.500000 0.000000 0.331533
O O17 0.745681 0.724340 0.125891
O O18 0.963739 0.742099 0.944141
#
# Coordination Sequence:
#
# PCOD9312004 Si02
#       8
#     4   4   4   4   4   4   4   4
#     4  10  20  35  58  89 124 159 200 250 304 359
#     4  12  25  42  63  89 124 163 205 252 305 362
#     4  10  20  35  58  89 124 159 200 250 304 359
#     4  10  20  36  60  89 122 158 202 248 300 360
#     4  12  25  42  63  89 124 163 205 252 305 362
#     4  10  20  36  60  89 122 158 202 248 300 360
#     4  12  23  38  61  90 122 158 201 249 302 357
#     4  12  23  38  61  90 122 158 201 249 302 357
#
# _framework density 19.084157999999999
#
# number of rings (size 3 to 8) (size 9 to 14) (size 15 to 20)
#    0.000    1.000    2.500    6.000    0.000    2.000 
#    0.000    1.250    0.000    0.000    0.000    0.000 
#    0.000    0.000    0.000    0.000    0.000    0.000 
#
# Total GULP energy -178985.007941 kJ/mol
# GULP energy per Si atom -5593.281498 kJ/mol
# Density = 1.904072 g / cm^3
# Si number density = 19.084158 Si / 1000 Ang^3
#
#
#
# Elastic Constant Matrix: (Units=GPa)
#
#
# Indices 1 2 3 4 5 6 
#
# 1 81.7868 17.9503 -12.5157 0.0000 0.0000 0.0000
# 2 17.9503 112.2140 -9.5671 0.0000 0.0000 0.0000
# 3 -12.5157 -9.5671 11.6745 0.0000 0.0000 0.0000
# 4 0.0000 0.0000 0.0000 25.6064 0.0000 0.0000
# 5 0.0000 0.0000 0.0000 0.0000 23.6199 0.0000
# 6 0.0000 0.0000 0.0000 0.0000 0.0000 32.3447
#
#
#
# Elastic Compliance Matrix: (Units=1/GPa)
#
#
# Indices 1 2 3 4 5 6 
#
# 1 0.014749 -0.001087 0.014921 0.000000 0.000000 0.000000
# 2 -0.001087 0.009661 0.006752 0.000000 0.000000 0.000000
# 3 0.014921 0.006752 0.107185 0.000000 0.000000 0.000000
# 4 0.000000 0.000000 0.000000 0.039053 0.000000 0.000000
# 5 0.000000 0.000000 0.000000 0.000000 0.042337 0.000000
# 6 0.000000 0.000000 0.000000 0.000000 0.000000 0.030917
#
#
# Mechanical properties :
#
#
# Convention : Reuss Voigt Hill
#
# Bulk Modulus (GPa) = 5.78823 21.93448 13.86135
# Shear Modulus (GPa) = 19.20713 30.30139 24.75426
#
# Velocity S-wave (km/s) = 3.17589 3.98902 3.60545
# Velocity P-wave (km/s) = 4.06054 5.72144 4.96099
#
# Compressibility (1/GPa) = 0.17276449
#
# Stress axis : x y z
#
# Youngs Moduli (GPa) = 67.80210 103.50811 9.32968
#
# Poissons Ratio (x) = 0.11253 -0.13920
# Poissons Ratio (y) = 0.07371 -0.06299
# Poissons Ratio (z) = -1.01165 -0.69884
#
# Static dielectric constant tensor:
#      x y z
#    x 1.639660 0.000000 0.000000 
#    y 0.000000 1.655510 0.000000 
#    z 0.000000 0.000000 1.629850 
# 
# From -- ./inp_files/5744.got.cif
#   From: 2010.05.17/outbox.cif.g08.bks.cpg/sg18_3_cif.got.tgz:5744.got - 2010.06.03 22:40:56.
