data_PCOD9312859
_publ_section_title
;
Structure prediction by ZEFSAII (Michael W. Deem and Ramdas Pophale) SiO2 
 PCOD9312859
Probable space group: P 21 21 2
;
_chemical_formula_sum "Si O2"
_cell_formula_units_Z 28
_cell_length_a 23.443981
_cell_length_b 9.372992
_cell_length_c 5.187470
_cell_angle_alpha 90.000000
_cell_angle_beta 90.000000
_cell_angle_gamma 90.000000
_cell_volume 1139.895936
_symmetry_space_group_name_H-M "P 21 21 2"
_symmetry_group_IT_number 18
_symmetry_cell_setting 'orthorhombic'
loop_
_space_group_symop_operation_xyz
x,y,z
-x,-y,z
1/2+x,1/2-y,-z
1/2-x,1/2+y,-z
loop_
_atom_site_type_symbol
_atom_site_label
_atom_site_fract_x
_atom_site_fract_y
_atom_site_fract_z
Si Si1 0.276940 0.215976 0.738368
Si Si2 0.500000 0.500000 0.357242
Si Si3 0.216672 0.907473 0.735346
Si Si4 0.000000 0.500000 0.551163
Si Si5 0.620401 0.407144 0.478246
Si Si6 0.390652 0.063826 0.756089
Si Si7 0.516814 0.757435 0.044816
Si Si8 0.386285 0.766658 0.960505
O O1 0.255721 0.315898 0.501536
O O2 0.338227 0.152035 0.649185
O O3 0.243250 0.066286 0.780899
O O4 0.282392 0.311024 0.002526
O O5 0.553316 0.441826 0.512517
O O6 0.529861 0.607265 0.161387
O O7 0.155314 0.954769 0.615312
O O8 0.061714 0.489862 0.420337
O O9 0.006668 0.638801 0.718211
O O10 0.641028 0.334817 0.743141
O O11 0.624441 0.294455 0.243608
O O12 0.368669 0.931809 0.930148
O O13 0.431190 0.178164 0.893144
O O14 0.454776 0.759213 0.917920
#
# Coordination Sequence:
#
# PCOD9312859 Si02
#       8
#     4   2   4   2   4   4   4   4
#     4  12  31  50  88 107 160 201 270 331 401 460
#     4  10  24  40  64 102 138 198 220 306 376 448
#     4  12  29  58  77 121 149 211 261 337 394 472
#     4  12  22  44  68 106 158 192 256 320 370 486
#     4  11  26  42  74 100 158 180 255 295 391 453
#     4  12  25  41  75 108 147 203 261 315 391 454
#     4  11  23  42  64 105 153 191 252 301 376 465
#     4  11  23  42  69 110 140 201 226 316 363 464
#
# _framework density 24.563647
#
# number of rings (size 3 to 8) (size 9 to 14) (size 15 to 20)
#    0.000    0.571    2.857    4.286    8.000    3.429 
#    0.000    0.000    0.000    0.000    0.000    0.000 
#    0.000    0.000    0.000    0.000    0.000    0.000 
#
# Total GULP energy -156464.141546 kJ/mol
# GULP energy per Si atom -5588.005055 kJ/mol
# Density = 2.450774 g / cm^3
# Si number density = 24.563647 Si / 1000 Ang^3
#
#
#
# Elastic Constant Matrix: (Units=GPa)
#
#
# Indices 1 2 3 4 5 6 
#
# 1 130.2580 136.0955 61.1043 0.0000 0.0000 0.0000
# 2 136.0955 451.1482 173.3054 0.0000 0.0000 0.0000
# 3 61.1043 173.3054 151.4824 0.0000 0.0000 0.0000
# 4 0.0000 0.0000 0.0000 61.4802 0.0000 0.0000
# 5 0.0000 0.0000 0.0000 0.0000 19.1843 0.0000
# 6 0.0000 0.0000 0.0000 0.0000 0.0000 45.8863
#
#
#
# Elastic Compliance Matrix: (Units=1/GPa)
#
#
# Indices 1 2 3 4 5 6 
#
# 1 0.011327 -0.002965 -0.001177 0.000000 0.000000 0.000000
# 2 -0.002965 0.004730 -0.004216 0.000000 0.000000 0.000000
# 3 -0.001177 -0.004216 0.011900 0.000000 0.000000 0.000000
# 4 0.000000 0.000000 0.000000 0.016265 0.000000 0.000000
# 5 0.000000 0.000000 0.000000 0.000000 0.052126 0.000000
# 6 0.000000 0.000000 0.000000 0.000000 0.000000 0.021793
#
#
# Mechanical properties :
#
#
# Convention : Reuss Voigt Hill
#
# Bulk Modulus (GPa) = 88.95876 163.76654 126.36265
# Shear Modulus (GPa) = 36.07388 49.46905 42.77147
#
# Velocity S-wave (km/s) = 3.83637 4.49253 4.17736
# Velocity P-wave (km/s) = 7.47783 9.68119 8.64995
#
# Compressibility (1/GPa) = 0.01124116
#
# Stress axis : x y z
#
# Youngs Moduli (GPa) = 88.28575 211.39420 84.03550
#
# Poissons Ratio (x) = 0.62672 0.09892
# Poissons Ratio (y) = 0.26174 0.35430
# Poissons Ratio (z) = 0.10393 0.89126
#
# Static dielectric constant tensor:
#      x y z
#    x 1.951940 0.000000 0.000000 
#    y 0.000000 1.982100 0.000000 
#    z 0.000000 0.000000 1.985810 
# 
# From -- ./inp_files/2225.got.cif
#   From: 2010.05.17/outbox.cif.g08.bks.cpg/sg18_2_cif.got.tgz:2225.got - 2010.06.03 22:40:56.
