data_PCOD9312440
_publ_section_title
;
Structure prediction by ZEFSAII (Michael W. Deem and Ramdas Pophale) SiO2 
 PCOD9312440
Probable space group: P 21 21 2
;
_chemical_formula_sum "Si O2"
_cell_formula_units_Z 24
_cell_length_a 23.692516
_cell_length_b 7.716543
_cell_length_c 6.207521
_cell_angle_alpha 90.000000
_cell_angle_beta 90.000000
_cell_angle_gamma 90.000000
_cell_volume 1134.885796
_symmetry_space_group_name_H-M "P 21 21 2"
_symmetry_group_IT_number 18
_symmetry_cell_setting 'orthorhombic'
loop_
_space_group_symop_operation_xyz
x,y,z
-x,-y,z
1/2+x,1/2-y,-z
1/2-x,1/2+y,-z
loop_
_atom_site_type_symbol
_atom_site_label
_atom_site_fract_x
_atom_site_fract_y
_atom_site_fract_z
Si Si1 0.120283 0.758561 0.043786
Si Si2 0.923065 0.616976 0.531280
Si Si3 0.817052 0.455223 0.390398
Si Si4 0.408620 0.521421 0.585842
Si Si5 0.195086 0.893081 0.664541
Si Si6 0.031853 0.728030 0.677610
O O1 0.146548 0.602651 0.182666
O O2 0.098727 0.908918 0.201340
O O3 0.168596 0.840966 0.892738
O O4 0.069577 0.701935 0.888166
O O5 0.856724 0.576413 0.539130
O O6 0.947904 0.422525 0.509917
O O7 0.965426 0.695119 0.713440
O O8 0.927661 0.781668 0.371246
O O9 0.805622 0.280545 0.521913
O O10 0.758000 0.536842 0.324819
O O11 0.348833 0.519863 0.457992
O O12 0.448833 0.407378 0.429817
#
# Coordination Sequence:
#
# PCOD9312440 Si02
#       6
#     4   4   4   4   4   4
#     4  10  21  44  64  95 140 165 226 287 324 398
#     4  11  21  42  69  89 131 182 215 267 343 387
#     4  11  22  41  65  97 131 179 219 275 344 396
#     4  10  21  43  65  96 134 170 219 276 340 392
#     4  10  22  41  63  93 136 169 213 282 330 407
#     4  10  22  45  64  94 135 173 225 280 322 403
#
# _framework density 21.147504000000001
#
# number of rings (size 3 to 8) (size 9 to 14) (size 15 to 20)
#    0.000    1.667    5.000    1.500    0.000    4.000 
#   15.000    3.333    0.000    0.000    0.000    0.000 
#    0.000    0.000    0.000    0.000    0.000    0.000 
#
# Total GULP energy -133669.233710 kJ/mol
# GULP energy per Si atom -5569.551405 kJ/mol
# Density = 2.109937 g / cm^3
# Si number density = 21.147504 Si / 1000 Ang^3
#
#
#
# Elastic Constant Matrix: (Units=GPa)
#
#
# Indices 1 2 3 4 5 6 
#
# 1 142.7142 42.9265 62.0053 0.0000 0.0000 0.0000
# 2 42.9265 115.6721 21.4782 0.0000 0.0000 0.0000
# 3 62.0053 21.4782 84.1570 0.0000 0.0000 0.0000
# 4 0.0000 0.0000 0.0000 3.7417 0.0000 0.0000
# 5 0.0000 0.0000 0.0000 0.0000 5.5896 0.0000
# 6 0.0000 0.0000 0.0000 0.0000 0.0000 40.3982
#
#
#
# Elastic Compliance Matrix: (Units=1/GPa)
#
#
# Indices 1 2 3 4 5 6 
#
# 1 0.011066 -0.002722 -0.007459 0.000000 0.000000 0.000000
# 2 -0.002722 0.009745 -0.000482 0.000000 0.000000 0.000000
# 3 -0.007459 -0.000482 0.017501 0.000000 0.000000 0.000000
# 4 0.000000 0.000000 0.000000 0.267261 0.000000 0.000000
# 5 0.000000 0.000000 0.000000 0.000000 0.178904 0.000000
# 6 0.000000 0.000000 0.000000 0.000000 0.000000 0.024754
#
#
# Mechanical properties :
#
#
# Convention : Reuss Voigt Hill
#
# Bulk Modulus (GPa) = 58.86689 66.15148 62.50919
# Shear Modulus (GPa) = 9.32457 24.35478 16.83967
#
# Velocity S-wave (km/s) = 2.10211 3.39730 2.82493
# Velocity P-wave (km/s) = 5.81280 6.83650 6.34533
#
# Compressibility (1/GPa) = 0.01698748
#
# Stress axis : x y z
#
# Youngs Moduli (GPa) = 90.36412 102.62063 57.13961
#
# Poissons Ratio (x) = 0.27931 0.42619
# Poissons Ratio (y) = 0.24595 0.02752
# Poissons Ratio (z) = 0.67401 0.04942
#
# Static dielectric constant tensor:
#      x y z
#    x 1.824010 0.000000 0.000000 
#    y 0.000000 1.787730 0.000000 
#    z 0.000000 0.000000 1.745660 
# 
# From -- ./inp_files/2064.got.cif
#   From: 2010.05.17/outbox.cif.g08.bks.cpg/sg18_2_cif.got.tgz:2064.got - 2010.06.03 22:40:56.
