data_PCOD9312894
_publ_section_title
;
Structure prediction by ZEFSAII (Michael W. Deem and Ramdas Pophale) SiO2 
 PCOD9312894
Probable space group: P 21 21 2
;
_chemical_formula_sum "Si O2"
_cell_formula_units_Z 32
_cell_length_a 13.895849
_cell_length_b 18.205115
_cell_length_c 5.077718
_cell_angle_alpha 90.000000
_cell_angle_beta 90.000000
_cell_angle_gamma 90.000000
_cell_volume 1284.538398
_symmetry_space_group_name_H-M "P 21 21 2"
_symmetry_group_IT_number 18
_symmetry_cell_setting 'orthorhombic'
loop_
_space_group_symop_operation_xyz
x,y,z
-x,-y,z
1/2+x,1/2-y,-z
1/2-x,1/2+y,-z
loop_
_atom_site_type_symbol
_atom_site_label
_atom_site_fract_x
_atom_site_fract_y
_atom_site_fract_z
Si Si1 0.604684 0.708631 0.930551
Si Si2 0.974259 0.682108 0.836456
Si Si3 0.461623 0.377390 0.440942
Si Si4 0.100920 0.018285 0.747492
Si Si5 0.615079 0.136313 0.671108
Si Si6 0.283141 0.079175 0.002581
Si Si7 0.800405 0.759896 0.027494
Si Si8 0.114071 0.518671 0.485616
O O1 0.570995 0.787668 0.040978
O O2 0.581511 0.656453 0.175023
O O3 0.716928 0.716211 0.874596
O O4 0.549798 0.678839 0.677234
O O5 0.967168 0.657893 0.538932
O O6 0.929089 0.623190 0.037742
O O7 0.900749 0.750667 0.875510
O O8 0.570492 0.406456 0.399105
O O9 0.399941 0.452787 0.465991
O O10 0.192466 0.027283 0.926384
O O11 0.000000 0.000000 0.900467
O O12 0.680568 0.208421 0.716102
O O13 0.660675 0.061730 0.569839
O O14 0.233459 0.157522 0.062115
O O15 0.346488 0.051029 0.244185
O O16 0.350288 0.072685 0.744375
O O17 0.000000 0.500000 0.484064
#
# Coordination Sequence:
#
# PCOD9312894 Si02
#       8
#     4   4   4   4   4   4   4   4
#     4  12  23  41  71 105 143 197 247 309 389 445
#     4  10  24  43  73  99 150 187 250 314 380 447
#     4   9  24  40  70 104 151 181 245 300 378 481
#     4   8  23  47  72 110 151 194 248 309 401 477
#     4  10  25  48  71 103 151 197 254 320 381 452
#     4  12  27  49  80 109 154 207 259 336 392 464
#     4  10  29  42  78 108 152 188 274 306 392 459
#     4  12  30  49  79 111 161 208 275 319 397 470
#
# _framework density 24.911674999999999
#
# number of rings (size 3 to 8) (size 9 to 14) (size 15 to 20)
#    1.500    0.000    0.000    2.625    8.750    5.000 
#    0.000    0.000    0.000    0.000    0.000    0.000 
#    0.000    0.000    0.000    0.000    0.000    0.000 
#
# Total GULP energy -178707.407633 kJ/mol
# GULP energy per Si atom -5584.606489 kJ/mol
# Density = 2.485497 g / cm^3
# Si number density = 24.911675 Si / 1000 Ang^3
#
#
#
# Elastic Constant Matrix: (Units=GPa)
#
#
# Indices 1 2 3 4 5 6 
#
# 1 110.7236 7.9092 24.5924 0.0000 0.0000 0.0000
# 2 7.9092 99.5128 30.2712 0.0000 0.0000 0.0000
# 3 24.5924 30.2712 117.4703 0.0000 0.0000 0.0000
# 4 0.0000 0.0000 0.0000 20.9248 0.0000 0.0000
# 5 0.0000 0.0000 0.0000 0.0000 31.3273 0.0000
# 6 0.0000 0.0000 0.0000 0.0000 0.0000 33.1218
#
#
#
# Elastic Compliance Matrix: (Units=1/GPa)
#
#
# Indices 1 2 3 4 5 6 
#
# 1 0.009474 -0.000162 -0.001942 0.000000 0.000000 0.000000
# 2 -0.000162 0.010906 -0.002777 0.000000 0.000000 0.000000
# 3 -0.001942 -0.002777 0.009635 0.000000 0.000000 0.000000
# 4 0.000000 0.000000 0.000000 0.047790 0.000000 0.000000
# 5 0.000000 0.000000 0.000000 0.000000 0.031921 0.000000
# 6 0.000000 0.000000 0.000000 0.000000 0.000000 0.030192
#
#
# Mechanical properties :
#
#
# Convention : Reuss Voigt Hill
#
# Bulk Modulus (GPa) = 49.37166 50.36137 49.86652
# Shear Modulus (GPa) = 31.96300 34.73704 33.35002
#
# Velocity S-wave (km/s) = 3.58586 3.73823 3.66284
# Velocity P-wave (km/s) = 6.08327 6.23637 6.16030
#
# Compressibility (1/GPa) = 0.02025453
#
# Stress axis : x y z
#
# Youngs Moduli (GPa) = 105.54823 91.68876 103.79088
#
# Poissons Ratio (x) = 0.01489 0.20152
# Poissons Ratio (y) = 0.01714 0.28818
# Poissons Ratio (z) = 0.20493 0.25458
#
# Static dielectric constant tensor:
#      x y z
#    x 2.012760 0.000000 0.000000 
#    y 0.000000 2.068980 0.000000 
#    z 0.000000 0.000000 1.922110 
# 
# From -- ./inp_files/1628.got.cif
#   From: 2010.05.17/outbox.cif.g08.bks.cpg/sg18_1_cif.got.tgz:1628.got - 2010.06.03 22:40:56.
