data_PCOD9312491
_publ_section_title
;
Structure prediction by ZEFSAII (Michael W. Deem and Ramdas Pophale) SiO2 
 PCOD9312491
Probable space group: P 21 21 2
;
_chemical_formula_sum "Si O2"
_cell_formula_units_Z 20
_cell_length_a 9.848547
_cell_length_b 11.118088
_cell_length_c 7.643964
_cell_angle_alpha 90.000000
_cell_angle_beta 90.000000
_cell_angle_gamma 90.000000
_cell_volume 836.991220
_symmetry_space_group_name_H-M "P 21 21 2"
_symmetry_group_IT_number 18
_symmetry_cell_setting 'orthorhombic'
loop_
_space_group_symop_operation_xyz
x,y,z
-x,-y,z
1/2+x,1/2-y,-z
1/2-x,1/2+y,-z
loop_
_atom_site_type_symbol
_atom_site_label
_atom_site_fract_x
_atom_site_fract_y
_atom_site_fract_z
Si Si1 0.842483 0.904848 0.691184
Si Si2 0.093587 0.757413 0.319975
Si Si3 0.164700 0.378839 0.162056
Si Si4 0.090804 0.752313 0.736746
Si Si5 0.500000 0.000000 0.136984
Si Si6 0.500000 0.500000 0.638534
O O1 0.736842 0.798586 0.725757
O O2 0.978077 0.853780 0.785226
O O3 0.755959 0.021750 0.740449
O O4 0.891499 0.934825 0.492205
O O5 0.106707 0.769166 0.529576
O O6 0.969725 0.670867 0.260983
O O7 0.065810 0.892003 0.253648
O O8 0.272321 0.270907 0.153766
O O9 0.114401 0.443660 0.988645
O O10 0.046970 0.614967 0.756405
#
# Coordination Sequence:
#
# PCOD9312491 Si02
#       6
#     4   4   4   4   2   2
#     4  11  21  42  70  95 135 174 223 285 339 391
#     4  11  23  42  74 101 139 168 234 289 345 406
#     4  12  24  47  66 102 136 182 228 287 343 400
#     4  11  26  45  69 101 134 183 232 277 345 412
#     4  12  30  42  70  98 144 190 228 276 346 416
#     4  10  22  36  64 110 128 174 218 286 350 388
#
# _framework density 23.895115000000001
#
# number of rings (size 3 to 8) (size 9 to 14) (size 15 to 20)
#    0.000    0.800    6.000    2.400    5.600    1.600 
#    0.000    0.000    0.000    0.000    0.000    0.000 
#    0.000    0.000    0.000    0.000    0.000    0.000 
#
# Total GULP energy -111731.172423 kJ/mol
# GULP energy per Si atom -5586.558621 kJ/mol
# Density = 2.384073 g / cm^3
# Si number density = 23.895115 Si / 1000 Ang^3
#
#
#
# Elastic Constant Matrix: (Units=GPa)
#
#
# Indices 1 2 3 4 5 6 
#
# 1 143.7439 20.7134 6.4566 0.0000 0.0000 0.0000
# 2 20.7134 98.7768 1.8606 0.0000 0.0000 0.0000
# 3 6.4566 1.8606 24.2398 0.0000 0.0000 0.0000
# 4 0.0000 0.0000 0.0000 -2.2884 0.0000 0.0000
# 5 0.0000 0.0000 0.0000 0.0000 18.4259 0.0000
# 6 0.0000 0.0000 0.0000 0.0000 0.0000 46.0663
#
#
#
# Elastic Compliance Matrix: (Units=1/GPa)
#
#
# Indices 1 2 3 4 5 6 
#
# 1 0.007253 -0.001487 -0.001818 0.000000 0.000000 0.000000
# 2 -0.001487 0.010443 -0.000406 0.000000 0.000000 0.000000
# 3 -0.001818 -0.000406 0.041770 0.000000 0.000000 0.000000
# 4 0.000000 0.000000 0.000000 -0.436991 0.000000 0.000000
# 5 0.000000 0.000000 0.000000 0.000000 0.054272 0.000000
# 6 0.000000 0.000000 0.000000 0.000000 0.000000 0.021708
#
#
# Mechanical properties :
#
#
# Convention : Reuss Voigt Hill
#
# Bulk Modulus (GPa) = 19.21390 36.09132 27.65261
# Shear Modulus (GPa) = -18.06507 28.28941 5.11217
#
# Velocity S-wave (km/s) = -2.75256 3.44452 1.46426
# Velocity P-wave (km/s) = 1.42958 5.56385 3.80215
#
# Compressibility (1/GPa) = 0.05204566
#
# Stress axis : x y z
#
# Youngs Moduli (GPa) = 137.87989 95.75588 23.94076
#
# Poissons Ratio (x) = 0.14235 0.04352
# Poissons Ratio (y) = 0.20498 0.00971
# Poissons Ratio (z) = 0.25063 0.03884
#
# Static dielectric constant tensor:
#      x y z
#    x 2.049120 0.000000 0.000000 
#    y 0.000000 1.966180 0.000000 
#    z 0.000000 0.000000 1.894790 
# 
# From -- ./inp_files/2980.got.cif
#   From: 2010.05.17/outbox.cif.g08.bks.cpg/sg18_2_cif.got.tgz:2980.got - 2010.06.03 22:40:56.
