data_PCOD9312849
_publ_section_title
;
Structure prediction by ZEFSAII (Michael W. Deem and Ramdas Pophale) SiO2 
 PCOD9312849
Probable space group: P 21 21 2
;
_chemical_formula_sum "Si O2"
_cell_formula_units_Z 16
_cell_length_a 11.532383
_cell_length_b 9.471861
_cell_length_c 6.697575
_cell_angle_alpha 90.000000
_cell_angle_beta 90.000000
_cell_angle_gamma 90.000000
_cell_volume 731.597072
_symmetry_space_group_name_H-M "P 21 21 2"
_symmetry_group_IT_number 18
_symmetry_cell_setting 'orthorhombic'
loop_
_space_group_symop_operation_xyz
x,y,z
-x,-y,z
1/2+x,1/2-y,-z
1/2-x,1/2+y,-z
loop_
_atom_site_type_symbol
_atom_site_label
_atom_site_fract_x
_atom_site_fract_y
_atom_site_fract_z
Si Si1 0.449333 0.147873 0.813620
Si Si2 0.715891 0.976026 0.102458
Si Si3 0.699083 0.291574 0.223093
Si Si4 0.406251 0.623203 0.619565
O O1 0.333101 0.199544 0.702047
O O2 0.543773 0.265769 0.778499
O O3 0.500000 0.000000 0.738633
O O4 0.397290 0.113393 0.034826
O O5 0.783055 0.933873 0.301398
O O6 0.689601 0.141577 0.111723
O O7 0.803255 0.927619 0.923747
O O8 0.613323 0.304561 0.406471
O O9 0.500000 0.500000 0.603922
#
# Coordination Sequence:
#
# PCOD9312849 Si02
#       4
#     4   4   4   4
#     4  10  24  45  67 103 139 184 231 289 357 414
#     4  10  23  49  64 103 141 180 236 290 344 436
#     4  10  25  45  70 101 142 180 239 289 339 438
#     4  12  24  46  72 105 138 186 238 292 358 408
#
# _framework density 21.869959999999999
#
# number of rings (size 3 to 8) (size 9 to 14) (size 15 to 20)
#    1.500    0.000    2.500    1.500    3.500    1.000 
#   13.500    0.000    0.000    0.000    0.000    0.000 
#    0.000    0.000    0.000    0.000    0.000    0.000 
#
# Total GULP energy -89125.541815 kJ/mol
# GULP energy per Si atom -5570.346363 kJ/mol
# Density = 2.182018 g / cm^3
# Si number density = 21.869960 Si / 1000 Ang^3
#
#
#
# Elastic Constant Matrix: (Units=GPa)
#
#
# Indices 1 2 3 4 5 6 
#
# 1 55.5001 56.7565 43.2124 0.0000 0.0000 0.0000
# 2 56.7565 158.9549 66.4375 0.0000 0.0000 0.0000
# 3 43.2124 66.4375 90.0670 0.0000 0.0000 0.0000
# 4 0.0000 0.0000 0.0000 25.2297 0.0000 0.0000
# 5 0.0000 0.0000 0.0000 0.0000 6.3060 0.0000
# 6 0.0000 0.0000 0.0000 0.0000 0.0000 40.8671
#
#
#
# Elastic Compliance Matrix: (Units=1/GPa)
#
#
# Indices 1 2 3 4 5 6 
#
# 1 0.034321 -0.007767 -0.010737 0.000000 0.000000 0.000000
# 2 -0.007767 0.010853 -0.004279 0.000000 0.000000 0.000000
# 3 -0.010737 -0.004279 0.019411 0.000000 0.000000 0.000000
# 4 0.000000 0.000000 0.000000 0.039636 0.000000 0.000000
# 5 0.000000 0.000000 0.000000 0.000000 0.158578 0.000000
# 6 0.000000 0.000000 0.000000 0.000000 0.000000 0.024470
#
#
# Mechanical properties :
#
#
# Convention : Reuss Voigt Hill
#
# Bulk Modulus (GPa) = 52.58196 70.81496 61.69846
# Shear Modulus (GPa) = 14.74171 23.68829 19.21500
#
# Velocity S-wave (km/s) = 2.59909 3.29468 2.96734
# Velocity P-wave (km/s) = 5.75345 6.85008 6.32557
#
# Compressibility (1/GPa) = 0.01901793
#
# Stress axis : x y z
#
# Youngs Moduli (GPa) = 29.13707 92.14180 51.51738
#
# Poissons Ratio (x) = 0.71564 0.55315
# Poissons Ratio (y) = 0.22630 0.22045
# Poissons Ratio (z) = 0.31285 0.39430
#
# Static dielectric constant tensor:
#      x y z
#    x 1.879540 0.000000 0.000000 
#    y 0.000000 1.775010 0.000000 
#    z 0.000000 0.000000 1.782480 
# 
# From -- ./inp_files/883.got.cif
#   From: 2010.05.17/outbox.cif.g08.bks.cpg/sg18_1_cif.got.tgz:883.got - 2010.06.03 22:40:56.
