data_PCOD9312703
_publ_section_title
;
Structure prediction by ZEFSAII (Michael W. Deem and Ramdas Pophale) SiO2 
 PCOD9312703
Probable space group: P 21 21 2
;
_chemical_formula_sum "Si O2"
_cell_formula_units_Z 24
_cell_length_a 8.456546
_cell_length_b 22.939434
_cell_length_c 5.406133
_cell_angle_alpha 90.000000
_cell_angle_beta 90.000000
_cell_angle_gamma 90.000000
_cell_volume 1048.726976
_symmetry_space_group_name_H-M "P 21 21 2"
_symmetry_group_IT_number 18
_symmetry_cell_setting 'orthorhombic'
loop_
_space_group_symop_operation_xyz
x,y,z
-x,-y,z
1/2+x,1/2-y,-z
1/2-x,1/2+y,-z
loop_
_atom_site_type_symbol
_atom_site_label
_atom_site_fract_x
_atom_site_fract_y
_atom_site_fract_z
Si Si1 0.523867 0.776906 0.921927
Si Si2 0.619641 0.173089 0.413075
Si Si3 0.523662 0.666520 0.626725
Si Si4 0.782128 0.855680 0.760612
Si Si5 0.905473 0.941439 0.130488
Si Si6 0.078953 0.561688 0.579998
O O1 0.465187 0.801955 0.656799
O O2 0.528932 0.708316 0.867015
O O3 0.689620 0.812015 0.943330
O O4 0.424242 0.792258 0.163312
O O5 0.803360 0.175454 0.481334
O O6 0.557321 0.107877 0.346717
O O7 0.373207 0.679635 0.452971
O O8 0.499710 0.598169 0.674999
O O9 0.662132 0.902718 0.641002
O O10 0.901036 0.898290 0.899251
O O11 0.723831 0.948091 0.225975
O O12 0.000000 0.000000 0.085601
O O13 0.000000 0.500000 0.518252
#
# Coordination Sequence:
#
# PCOD9312703 Si02
#       6
#     4   4   4   4   4   4
#     4  11  25  45  71 101 146 184 238 294 363 428
#     4  11  25  44  69 107 137 187 238 297 356 429
#     4  11  26  41  72  98 141 183 240 291 365 426
#     4  10  24  45  65 103 140 189 233 308 360 431
#     4  11  24  43  68  99 139 184 240 296 361 432
#     4  10  22  44  68  94 140 183 239 296 362 430
#
# _framework density 22.884889000000001
#
# number of rings (size 3 to 8) (size 9 to 14) (size 15 to 20)
#    0.000    1.333    1.667    2.000    7.000    4.667 
#    3.000    0.000    0.000    0.000    0.000    0.000 
#    0.000    0.000    0.000    0.000    0.000    0.000 
#
# Total GULP energy -134004.573721 kJ/mol
# GULP energy per Si atom -5583.523905 kJ/mol
# Density = 2.283280 g / cm^3
# Si number density = 22.884889 Si / 1000 Ang^3
#
#
#
# Elastic Constant Matrix: (Units=GPa)
#
#
# Indices 1 2 3 4 5 6 
#
# 1 70.9565 40.8113 11.1204 0.0000 0.0000 0.0000
# 2 40.8113 158.1108 27.5517 0.0000 0.0000 0.0000
# 3 11.1204 27.5517 70.2833 0.0000 0.0000 0.0000
# 4 0.0000 0.0000 0.0000 27.4317 0.0000 0.0000
# 5 0.0000 0.0000 0.0000 0.0000 23.7141 0.0000
# 6 0.0000 0.0000 0.0000 0.0000 0.0000 42.6353
#
#
#
# Elastic Compliance Matrix: (Units=1/GPa)
#
#
# Indices 1 2 3 4 5 6 
#
# 1 0.016618 -0.004112 -0.001017 0.000000 0.000000 0.000000
# 2 -0.004112 0.007806 -0.002409 0.000000 0.000000 0.000000
# 3 -0.001017 -0.002409 0.015334 0.000000 0.000000 0.000000
# 4 0.000000 0.000000 0.000000 0.036454 0.000000 0.000000
# 5 0.000000 0.000000 0.000000 0.000000 0.042169 0.000000
# 6 0.000000 0.000000 0.000000 0.000000 0.000000 0.023455
#
#
# Mechanical properties :
#
#
# Convention : Reuss Voigt Hill
#
# Bulk Modulus (GPa) = 40.51918 50.92416 45.72167
# Shear Modulus (GPa) = 30.27749 33.41404 31.84577
#
# Velocity S-wave (km/s) = 3.64130 3.82526 3.73441
# Velocity P-wave (km/s) = 5.95171 6.46612 6.21424
#
# Compressibility (1/GPa) = 0.02467967
#
# Stress axis : x y z
#
# Youngs Moduli (GPa) = 60.17693 128.10794 65.21634
#
# Poissons Ratio (x) = 0.52679 0.06635
# Poissons Ratio (y) = 0.24745 0.15713
# Poissons Ratio (z) = 0.06122 0.30866
#
# Static dielectric constant tensor:
#      x y z
#    x 1.908660 0.000000 0.000000 
#    y 0.000000 1.833680 0.000000 
#    z 0.000000 0.000000 1.901400 
# 
# From -- ./inp_files/605.got.cif
#   From: 2010.05.17/outbox.cif.g08.bks.cpg/sg18_1_cif.got.tgz:605.got - 2010.06.03 22:40:56.
