data_PCOD9312982
_publ_section_title
;
Structure prediction by ZEFSAII (Michael W. Deem and Ramdas Pophale) SiO2 
 PCOD9312982
Probable space group: P 21 21 2
;
_chemical_formula_sum "Si O2"
_cell_formula_units_Z 26
_cell_length_a 9.917617
_cell_length_b 11.255734
_cell_length_c 10.489645
_cell_angle_alpha 90.000000
_cell_angle_beta 90.000000
_cell_angle_gamma 90.000000
_cell_volume 1170.959689
_symmetry_space_group_name_H-M "P 21 21 2"
_symmetry_group_IT_number 18
_symmetry_cell_setting 'orthorhombic'
loop_
_space_group_symop_operation_xyz
x,y,z
-x,-y,z
1/2+x,1/2-y,-z
1/2-x,1/2+y,-z
loop_
_atom_site_type_symbol
_atom_site_label
_atom_site_fract_x
_atom_site_fract_y
_atom_site_fract_z
Si Si1 0.500000 0.500000 0.992161
Si Si2 0.298192 0.452952 0.759332
Si Si3 0.000000 0.500000 0.839932
Si Si4 0.158080 0.174998 0.404396
Si Si5 0.836461 0.694952 0.143176
Si Si6 0.000000 0.500000 0.231656
Si Si7 0.059257 0.754998 0.968524
Si Si8 0.879403 0.279538 0.384775
O O1 0.373242 0.484164 0.893564
O O2 0.502086 0.617868 0.079887
O O3 0.139847 0.480121 0.767663
O O4 0.353248 0.544184 0.654048
O O5 0.321451 0.319587 0.711629
O O6 0.021545 0.627274 0.910519
O O7 0.200785 0.255729 0.281780
O O8 0.267573 0.186619 0.513171
O O9 0.012447 0.221290 0.447301
O O10 0.719537 0.729946 0.045485
O O11 0.877242 0.557219 0.151568
O O12 0.977862 0.752873 0.101217
O O13 0.065240 0.603205 0.315448
#
# Coordination Sequence:
#
# PCOD9312982 Si02
#       8
#     2   4   2   4   4   2   4   4
#     4  12  22  44  72  96 152 198 240 308 372 432
#     4  12  24  47  70 105 144 194 240 306 366 443
#     4  12  27  41  74 110 146 192 260 298 354 448
#     4  11  24  46  70 107 137 187 238 298 350 454
#     4  11  24  46  68 102 148 181 243 295 357 429
#     4  10  25  49  70 108 144 186 232 312 358 444
#     4  12  24  43  69 103 142 200 242 303 359 428
#     4  11  26  44  78 100 147 189 235 298 384 424
#
# _framework density 22.204008999999999
#
# number of rings (size 3 to 8) (size 9 to 14) (size 15 to 20)
#    0.000    0.615    4.615    2.308    6.462    2.462 
#    0.000    0.000    0.000    0.000    0.000    0.000 
#    0.000    0.000    0.000    0.000    0.000    0.000 
#
# Total GULP energy -145145.444484 kJ/mol
# GULP energy per Si atom -5582.517096 kJ/mol
# Density = 2.215347 g / cm^3
# Si number density = 22.204009 Si / 1000 Ang^3
#
#
#
# Elastic Constant Matrix: (Units=GPa)
#
#
# Indices 1 2 3 4 5 6 
#
# 1 153.7514 50.6225 48.0282 0.0000 0.0000 0.0000
# 2 50.6225 185.3306 36.7400 0.0000 0.0000 0.0000
# 3 48.0282 36.7400 45.8536 0.0000 0.0000 0.0000
# 4 0.0000 0.0000 0.0000 12.0444 0.0000 0.0000
# 5 0.0000 0.0000 0.0000 0.0000 31.8986 0.0000
# 6 0.0000 0.0000 0.0000 0.0000 0.0000 38.0895
#
#
#
# Elastic Compliance Matrix: (Units=1/GPa)
#
#
# Indices 1 2 3 4 5 6 
#
# 1 0.009756 -0.000760 -0.009610 0.000000 0.000000 0.000000
# 2 -0.000760 0.006474 -0.004391 0.000000 0.000000 0.000000
# 3 -0.009610 -0.004391 0.035393 0.000000 0.000000 0.000000
# 4 0.000000 0.000000 0.000000 0.083026 0.000000 0.000000
# 5 0.000000 0.000000 0.000000 0.000000 0.031349 0.000000
# 6 0.000000 0.000000 0.000000 0.000000 0.000000 0.026254
#
#
# Mechanical properties :
#
#
# Convention : Reuss Voigt Hill
#
# Bulk Modulus (GPa) = 45.24774 72.85742 59.05258
# Shear Modulus (GPa) = 21.82061 33.04283 27.43172
#
# Velocity S-wave (km/s) = 3.13826 3.86184 3.51870
# Velocity P-wave (km/s) = 5.79258 7.26423 6.56974
#
# Compressibility (1/GPa) = 0.02210055
#
# Stress axis : x y z
#
# Youngs Moduli (GPa) = 102.50012 154.46815 28.25431
#
# Poissons Ratio (x) = 0.11736 0.27152
# Poissons Ratio (y) = 0.07788 0.12407
# Poissons Ratio (z) = 0.98503 0.67832
#
# Static dielectric constant tensor:
#      x y z
#    x 1.815870 0.000000 0.000000 
#    y 0.000000 1.911580 0.000000 
#    z 0.000000 0.000000 1.827450 
# 
# From -- ./inp_files/5579.got.cif
#   From: 2010.05.17/outbox.cif.g08.bks.cpg/sg18_3_cif.got.tgz:5579.got - 2010.06.03 22:40:56.
