data_PCOD9312176
_publ_section_title
;
Structure prediction by ZEFSAII (Michael W. Deem and Ramdas Pophale) SiO2 
 PCOD9312176
Probable space group: P 21 21 2
;
_chemical_formula_sum "Si O2"
_cell_formula_units_Z 32
_cell_length_a 13.576834
_cell_length_b 8.451406
_cell_length_c 11.982707
_cell_angle_alpha 90.000000
_cell_angle_beta 90.000000
_cell_angle_gamma 90.000000
_cell_volume 1374.935779
_symmetry_space_group_name_H-M "P 21 21 2"
_symmetry_group_IT_number 18
_symmetry_cell_setting 'orthorhombic'
loop_
_space_group_symop_operation_xyz
x,y,z
-x,-y,z
1/2+x,1/2-y,-z
1/2-x,1/2+y,-z
loop_
_atom_site_type_symbol
_atom_site_label
_atom_site_fract_x
_atom_site_fract_y
_atom_site_fract_z
Si Si1 0.746236 0.907296 0.682565
Si Si2 0.235441 0.980292 0.040489
Si Si3 0.132361 0.677661 0.103195
Si Si4 0.920056 0.720228 0.600575
Si Si5 0.105323 0.529458 0.790189
Si Si6 0.078495 0.368600 0.356999
Si Si7 0.062178 0.163356 0.144262
Si Si8 0.425679 0.387420 0.232248
O O1 0.675331 0.816860 0.770420
O O2 0.811839 0.798493 0.602932
O O3 0.678211 0.034319 0.621911
O O4 0.831352 0.004743 0.746289
O O5 0.303113 0.954589 0.148689
O O6 0.154383 0.115852 0.067150
O O7 0.175248 0.820462 0.028722
O O8 0.314306 0.024384 0.946565
O O9 0.016189 0.707630 0.099518
O O10 0.905822 0.558424 0.671339
O O11 0.956083 0.697557 0.475482
O O12 0.998985 0.829149 0.667986
O O13 0.116193 0.716594 0.797612
O O14 0.000000 0.500000 0.847969
O O15 0.094343 0.236075 0.263202
O O16 0.000000 0.500000 0.317407
O O17 0.000000 0.000000 0.839333
O O18 0.500000 0.500000 0.839138
#
# Coordination Sequence:
#
# PCOD9312176 Si02
#       8
#     4   4   4   4   4   4   4   4
#     4  11  23  44  65  97 140 181 229 295 333 429
#     4  11  25  43  74  95 136 181 228 294 351 421
#     4  11  25  47  67 101 135 178 236 285 361 418
#     4  10  23  43  63 101 139 180 232 285 345 413
#     4  10  20  40  64  97 136 175 224 287 340 403
#     4  12  24  40  72  99 137 187 227 283 349 414
#     4  10  25  48  66 102 142 179 230 292 349 427
#     4   9  20  38  63  92 135 171 224 281 334 397
#
# _framework density 23.273814000000002
#
# number of rings (size 3 to 8) (size 9 to 14) (size 15 to 20)
#    0.000    1.500    2.500    1.875    3.500    5.500 
#    0.000    0.000    0.000    0.000    0.000    0.000 
#    0.000    0.000    0.000    0.000    0.000    0.000 
#
# Total GULP energy -178596.703605 kJ/mol
# GULP energy per Si atom -5581.146988 kJ/mol
# Density = 2.322084 g / cm^3
# Si number density = 23.273814 Si / 1000 Ang^3
#
#
#
# Elastic Constant Matrix: (Units=GPa)
#
#
# Indices 1 2 3 4 5 6 
#
# 1 108.7320 4.5049 7.0992 0.0000 0.0000 0.0000
# 2 4.5049 69.2679 9.7571 0.0000 0.0000 0.0000
# 3 7.0992 9.7571 49.9398 0.0000 0.0000 0.0000
# 4 0.0000 0.0000 0.0000 31.0705 0.0000 0.0000
# 5 0.0000 0.0000 0.0000 0.0000 25.7133 0.0000
# 6 0.0000 0.0000 0.0000 0.0000 0.0000 48.3191
#
#
#
# Elastic Compliance Matrix: (Units=1/GPa)
#
#
# Indices 1 2 3 4 5 6 
#
# 1 0.009296 -0.000430 -0.001237 0.000000 0.000000 0.000000
# 2 -0.000430 0.014865 -0.002843 0.000000 0.000000 0.000000
# 3 -0.001237 -0.002843 0.020755 0.000000 0.000000 0.000000
# 4 0.000000 0.000000 0.000000 0.032185 0.000000 0.000000
# 5 0.000000 0.000000 0.000000 0.000000 0.038890 0.000000
# 6 0.000000 0.000000 0.000000 0.000000 0.000000 0.020696
#
#
# Mechanical properties :
#
#
# Convention : Reuss Voigt Hill
#
# Bulk Modulus (GPa) = 27.85927 30.07356 28.96642
# Shear Modulus (GPa) = 31.71109 34.79249 33.25179
#
# Velocity S-wave (km/s) = 3.69524 3.87061 3.78394
# Velocity P-wave (km/s) = 5.49569 5.73805 5.61818
#
# Compressibility (1/GPa) = 0.03589469
#
# Stress axis : x y z
#
# Youngs Moduli (GPa) = 107.57853 67.27135 48.18004
#
# Poissons Ratio (x) = 0.02894 0.05961
# Poissons Ratio (y) = 0.04629 0.13698
# Poissons Ratio (z) = 0.13311 0.19126
#
# Static dielectric constant tensor:
#      x y z
#    x 1.921370 0.000000 0.000000 
#    y 0.000000 1.930110 0.000000 
#    z 0.000000 0.000000 1.895470 
# 
# From -- ./inp_files/6907.got.cif
#   From: 2010.05.17/outbox.cif.g08.bks.cpg/sg18_4_cif.got.tgz:6907.got - 2010.06.03 22:40:56.
