data_PCOD9312762
_publ_section_title
;
Structure prediction by ZEFSAII (Michael W. Deem and Ramdas Pophale) SiO2 
 PCOD9312762
Probable space group: P 21 21 2
;
_chemical_formula_sum "Si O2"
_cell_formula_units_Z 24
_cell_length_a 9.003474
_cell_length_b 8.852329
_cell_length_c 16.151065
_cell_angle_alpha 90.000000
_cell_angle_beta 90.000000
_cell_angle_gamma 90.000000
_cell_volume 1287.267563
_symmetry_space_group_name_H-M "P 21 21 2"
_symmetry_group_IT_number 18
_symmetry_cell_setting 'orthorhombic'
loop_
_space_group_symop_operation_xyz
x,y,z
-x,-y,z
1/2+x,1/2-y,-z
1/2-x,1/2+y,-z
loop_
_atom_site_type_symbol
_atom_site_label
_atom_site_fract_x
_atom_site_fract_y
_atom_site_fract_z
Si Si1 0.686720 0.324046 0.394220
Si Si2 0.000000 0.000000 0.724328
Si Si3 0.245915 0.994471 0.863669
Si Si4 0.004518 0.745567 0.140166
Si Si5 0.987584 0.172950 0.327110
Si Si6 0.640947 0.108792 0.550493
Si Si7 0.500000 0.500000 0.996550
O O1 0.551224 0.358854 0.332367
O O2 0.828621 0.250276 0.347851
O O3 0.657489 0.212592 0.470250
O O4 0.729353 0.490588 0.429012
O O5 0.860031 0.030081 0.784354
O O6 0.359729 0.857128 0.873274
O O7 0.350674 0.139777 0.853328
O O8 0.141151 0.013404 0.943122
O O9 0.987999 0.823944 0.229101
O O10 0.018418 0.858428 0.064031
O O11 0.106071 0.280062 0.373164
O O12 0.000000 0.000000 0.357268
O O13 0.500000 0.000000 0.538488
#
# Coordination Sequence:
#
# PCOD9312762 Si02
#       7
#     4   2   4   4   4   4   2
#     4  11  23  40  62  90 126 166 213 265 320 370
#     4  11  22  38  63  90 122 164 209 254 318 367
#     4  10  23  40  64  89 126 163 202 254 314 384
#     4  11  21  41  63  92 122 164 206 252 312 383
#     4  11  22  40  63  90 122 166 218 260 314 379
#     4  10  24  39  61  89 122 166 216 258 316 373
#     4  11  22  40  65  96 120 156 205 258 312 371
#
# _framework density 18.644143
#
# number of rings (size 3 to 8) (size 9 to 14) (size 15 to 20)
#    0.000    1.333    2.500    3.000   10.500    0.000 
#    3.000    0.000    0.000    0.000    0.000    0.000 
#    0.000    0.000    0.000    0.000    0.000    0.000 
#
# Total GULP energy -134034.103739 kJ/mol
# GULP energy per Si atom -5584.754322 kJ/mol
# Density = 1.860171 g / cm^3
# Si number density = 18.644143 Si / 1000 Ang^3
#
#
#
# Elastic Constant Matrix: (Units=GPa)
#
#
# Indices 1 2 3 4 5 6 
#
# 1 81.9296 33.5560 32.9212 0.0000 0.0000 0.0000
# 2 33.5560 119.4732 39.9884 0.0000 0.0000 0.0000
# 3 32.9212 39.9884 111.8873 0.0000 0.0000 0.0000
# 4 0.0000 0.0000 0.0000 32.2780 0.0000 0.0000
# 5 0.0000 0.0000 0.0000 0.0000 17.7785 0.0000
# 6 0.0000 0.0000 0.0000 0.0000 0.0000 10.6782
#
#
#
# Elastic Compliance Matrix: (Units=1/GPa)
#
#
# Indices 1 2 3 4 5 6 
#
# 1 0.014765 -0.003059 -0.003251 0.000000 0.000000 0.000000
# 2 -0.003059 0.010141 -0.002724 0.000000 0.000000 0.000000
# 3 -0.003251 -0.002724 0.010868 0.000000 0.000000 0.000000
# 4 0.000000 0.000000 0.000000 0.030981 0.000000 0.000000
# 5 0.000000 0.000000 0.000000 0.000000 0.056248 0.000000
# 6 0.000000 0.000000 0.000000 0.000000 0.000000 0.093648
#
#
# Mechanical properties :
#
#
# Convention : Reuss Voigt Hill
#
# Bulk Modulus (GPa) = 56.48089 58.46904 57.47496
# Shear Modulus (GPa) = 20.77958 25.93526 23.35742
#
# Velocity S-wave (km/s) = 3.34209 3.73375 3.54333
# Velocity P-wave (km/s) = 6.72701 7.07223 6.90178
#
# Compressibility (1/GPa) = 0.01770510
#
# Stress axis : x y z
#
# Youngs Moduli (GPa) = 67.72893 98.60909 92.01444
#
# Poissons Ratio (x) = 0.30162 0.29915
# Poissons Ratio (y) = 0.20717 0.25069
# Poissons Ratio (z) = 0.22019 0.26865
#
# Static dielectric constant tensor:
#      x y z
#    x 1.651110 0.000000 0.000000 
#    y 0.000000 1.627450 0.000000 
#    z 0.000000 0.000000 1.636810 
# 
# From -- ./inp_files/6685.got.cif
#   From: 2010.05.17/outbox.cif.g08.bks.cpg/sg18_4_cif.got.tgz:6685.got - 2010.06.03 22:40:56.
