data_PCOD9312677
_publ_section_title
;
Structure prediction by ZEFSAII (Michael W. Deem and Ramdas Pophale) SiO2 
 PCOD9312677
Probable space group: P 21 21 2
;
_chemical_formula_sum "Si O2"
_cell_formula_units_Z 22
_cell_length_a 13.266362
_cell_length_b 9.548009
_cell_length_c 7.470107
_cell_angle_alpha 90.000000
_cell_angle_beta 90.000000
_cell_angle_gamma 90.000000
_cell_volume 946.218611
_symmetry_space_group_name_H-M "P 21 21 2"
_symmetry_group_IT_number 18
_symmetry_cell_setting 'orthorhombic'
loop_
_space_group_symop_operation_xyz
x,y,z
-x,-y,z
1/2+x,1/2-y,-z
1/2-x,1/2+y,-z
loop_
_atom_site_type_symbol
_atom_site_label
_atom_site_fract_x
_atom_site_fract_y
_atom_site_fract_z
Si Si1 0.764684 0.878896 0.301644
Si Si2 0.806801 0.799063 0.798856
Si Si3 0.682812 0.638925 0.515946
Si Si4 0.805481 0.536207 0.043275
Si Si5 0.000000 0.500000 0.289445
Si Si6 0.960520 0.794055 0.470272
O O1 0.718768 0.731157 0.351900
O O2 0.885296 0.852675 0.315414
O O3 0.756043 0.996125 0.458319
O O4 0.705177 0.947668 0.140223
O O5 0.713120 0.731187 0.689972
O O6 0.898145 0.788503 0.656672
O O7 0.787705 0.959762 0.854309
O O8 0.812623 0.696493 0.972455
O O9 0.564024 0.622732 0.509472
O O10 0.902915 0.502169 0.160201
O O11 0.008283 0.362352 0.411858
#
# Coordination Sequence:
#
# PCOD9312677 Si02
#       6
#     4   4   4   4   2   4
#     4  10  24  42  69  99 143 183 232 283 350 400
#     4  10  24  43  72  99 142 181 230 283 357 402
#     4  10  22  43  68 100 140 188 232 281 332 432
#     4  11  24  44  68 104 141 176 227 299 344 401
#     4  12  26  40  72 106 134 184 240 286 342 412
#     4  11  24  42  72 100 137 192 236 277 343 433
#
# _framework density 23.250440000000001
#
# number of rings (size 3 to 8) (size 9 to 14) (size 15 to 20)
#    0.000    1.455    1.818    1.636   10.182    2.909 
#    0.000    0.000    0.000    0.000    0.000    0.000 
#    0.000    0.000    0.000    0.000    0.000    0.000 
#
# Total GULP energy -122836.345971 kJ/mol
# GULP energy per Si atom -5583.470271 kJ/mol
# Density = 2.319752 g / cm^3
# Si number density = 23.250440 Si / 1000 Ang^3
#
#
#
# Elastic Constant Matrix: (Units=GPa)
#
#
# Indices 1 2 3 4 5 6 
#
# 1 127.2476 25.5131 38.1642 0.0000 0.0000 0.0000
# 2 25.5131 144.7537 38.6485 0.0000 0.0000 0.0000
# 3 38.1642 38.6485 115.5974 0.0000 0.0000 0.0000
# 4 0.0000 0.0000 0.0000 50.7674 0.0000 0.0000
# 5 0.0000 0.0000 0.0000 0.0000 23.8595 0.0000
# 6 0.0000 0.0000 0.0000 0.0000 0.0000 36.9883
#
#
#
# Elastic Compliance Matrix: (Units=1/GPa)
#
#
# Indices 1 2 3 4 5 6 
#
# 1 0.008817 -0.000853 -0.002626 0.000000 0.000000 0.000000
# 2 -0.000853 0.007668 -0.002282 0.000000 0.000000 0.000000
# 3 -0.002626 -0.002282 0.010281 0.000000 0.000000 0.000000
# 4 0.000000 0.000000 0.000000 0.019698 0.000000 0.000000
# 5 0.000000 0.000000 0.000000 0.000000 0.041912 0.000000
# 6 0.000000 0.000000 0.000000 0.000000 0.000000 0.027036
#
#
# Mechanical properties :
#
#
# Convention : Reuss Voigt Hill
#
# Bulk Modulus (GPa) = 65.59927 65.80557 65.70242
# Shear Modulus (GPa) = 37.87474 41.34123 39.60799
#
# Velocity S-wave (km/s) = 4.04045 4.22131 4.13187
# Velocity P-wave (km/s) = 7.07407 7.21967 7.14724
#
# Compressibility (1/GPa) = 0.01524407
#
# Stress axis : x y z
#
# Youngs Moduli (GPa) = 113.41401 130.41340 97.27066
#
# Poissons Ratio (x) = 0.11124 0.25541
# Poissons Ratio (y) = 0.09674 0.22198
# Poissons Ratio (z) = 0.29780 0.29761
#
# Static dielectric constant tensor:
#      x y z
#    x 1.851650 0.000000 0.000000 
#    y 0.000000 1.943100 0.000000 
#    z 0.000000 0.000000 1.949300 
# 
# From -- ./inp_files/4128.got.cif
#   From: 2010.05.17/outbox.cif.g08.bks.cpg/sg18_3_cif.got.tgz:4128.got - 2010.06.03 22:40:56.
