data_PCOD9312590
_publ_section_title
;
Structure prediction by ZEFSAII (Michael W. Deem and Ramdas Pophale) SiO2 
 PCOD9312590
Probable space group: P 21 21 2
;
_chemical_formula_sum "Si O2"
_cell_formula_units_Z 16
_cell_length_a 13.335188
_cell_length_b 6.579707
_cell_length_c 8.284823
_cell_angle_alpha 90.000000
_cell_angle_beta 90.000000
_cell_angle_gamma 90.000000
_cell_volume 726.923873
_symmetry_space_group_name_H-M "P 21 21 2"
_symmetry_group_IT_number 18
_symmetry_cell_setting 'orthorhombic'
loop_
_space_group_symop_operation_xyz
x,y,z
-x,-y,z
1/2+x,1/2-y,-z
1/2-x,1/2+y,-z
loop_
_atom_site_type_symbol
_atom_site_label
_atom_site_fract_x
_atom_site_fract_y
_atom_site_fract_z
Si Si1 0.678619 0.277078 0.372564
Si Si2 0.500000 0.000000 0.339717
Si Si3 0.300181 0.589197 0.724980
Si Si4 0.869761 0.167212 0.847160
Si Si5 0.000000 0.000000 0.133888
O O1 0.725267 0.346640 0.541447
O O2 0.756783 0.139993 0.271834
O O3 0.640790 0.465388 0.263635
O O4 0.584732 0.135138 0.422468
O O5 0.561935 0.837051 0.236649
O O6 0.239778 0.730043 0.849747
O O7 0.418184 0.609404 0.755145
O O8 0.925549 0.118791 0.013108
#
# Coordination Sequence:
#
# PCOD9312590 Si02
#       5
#     4   2   4   4   2
#     4  11  22  46  71 103 136 185 236 296 341 419
#     4  10  22  40  76  94 138 184 230 286 352 412
#     4  11  27  44  72 103 140 186 244 290 354 420
#     4  11  24  47  67 102 145 180 230 294 359 418
#     4  12  28  44  70 106 146 188 230 292 368 440
#
# _framework density 22.010556000000001
#
# number of rings (size 3 to 8) (size 9 to 14) (size 15 to 20)
#    0.000    1.000    5.000    0.000    7.000    0.000 
#    0.000    0.000    0.000    0.000    0.000    0.000 
#    0.000    0.000    0.000    0.000    0.000    0.000 
#
# Total GULP energy -89299.731811 kJ/mol
# GULP energy per Si atom -5581.233238 kJ/mol
# Density = 2.196046 g / cm^3
# Si number density = 22.010556 Si / 1000 Ang^3
#
#
#
# Elastic Constant Matrix: (Units=GPa)
#
#
# Indices 1 2 3 4 5 6 
#
# 1 144.4895 31.1193 32.0498 0.0000 0.0000 0.0000
# 2 31.1193 109.0182 39.1739 0.0000 0.0000 0.0000
# 3 32.0498 39.1739 72.4104 0.0000 0.0000 0.0000
# 4 0.0000 0.0000 0.0000 10.1693 0.0000 0.0000
# 5 0.0000 0.0000 0.0000 0.0000 36.2832 0.0000
# 6 0.0000 0.0000 0.0000 0.0000 0.0000 46.0418
#
#
#
# Elastic Compliance Matrix: (Units=1/GPa)
#
#
# Indices 1 2 3 4 5 6 
#
# 1 0.007804 -0.001224 -0.002792 0.000000 0.000000 0.000000
# 2 -0.001224 0.011578 -0.005722 0.000000 0.000000 0.000000
# 3 -0.002792 -0.005722 0.018141 0.000000 0.000000 0.000000
# 4 0.000000 0.000000 0.000000 0.098335 0.000000 0.000000
# 5 0.000000 0.000000 0.000000 0.000000 0.027561 0.000000
# 6 0.000000 0.000000 0.000000 0.000000 0.000000 0.021719
#
#
# Mechanical properties :
#
#
# Convention : Reuss Voigt Hill
#
# Bulk Modulus (GPa) = 55.40936 58.95601 57.18269
# Shear Modulus (GPa) = 23.73819 33.40387 28.57103
#
# Velocity S-wave (km/s) = 3.28760 3.89990 3.60677
# Velocity P-wave (km/s) = 6.29601 6.86458 6.58643
#
# Compressibility (1/GPa) = 0.01804749
#
# Stress axis : x y z
#
# Youngs Moduli (GPa) = 128.14152 86.36791 55.12276
#
# Poissons Ratio (x) = 0.10576 0.15388
# Poissons Ratio (y) = 0.15691 0.31541
# Poissons Ratio (z) = 0.35773 0.49419
#
# Static dielectric constant tensor:
#      x y z
#    x 1.826970 0.000000 0.000000 
#    y 0.000000 1.850270 0.000000 
#    z 0.000000 0.000000 1.788330 
# 
# From -- ./inp_files/2404.got.cif
#   From: 2010.05.17/outbox.cif.g08.bks.cpg/sg18_2_cif.got.tgz:2404.got - 2010.06.03 22:40:56.
