data_PCOD9312438
_publ_section_title
;
Structure prediction by ZEFSAII (Michael W. Deem and Ramdas Pophale) SiO2 
 PCOD9312438
Probable space group: P 21 21 2
;
_chemical_formula_sum "Si O2"
_cell_formula_units_Z 24
_cell_length_a 7.534825
_cell_length_b 11.126177
_cell_length_c 12.605734
_cell_angle_alpha 90.000000
_cell_angle_beta 90.000000
_cell_angle_gamma 90.000000
_cell_volume 1056.786540
_symmetry_space_group_name_H-M "P 21 21 2"
_symmetry_group_IT_number 18
_symmetry_cell_setting 'orthorhombic'
loop_
_space_group_symop_operation_xyz
x,y,z
-x,-y,z
1/2+x,1/2-y,-z
1/2-x,1/2+y,-z
loop_
_atom_site_type_symbol
_atom_site_label
_atom_site_fract_x
_atom_site_fract_y
_atom_site_fract_z
Si Si1 0.500000 0.000000 0.139246
Si Si2 0.000000 0.000000 0.856846
Si Si3 0.500000 0.500000 0.520550
Si Si4 0.486985 0.246746 0.837120
Si Si5 0.000000 0.500000 0.277749
Si Si6 0.360281 0.359902 0.333579
Si Si7 0.236058 0.362004 0.008900
Si Si8 0.787102 0.900459 0.299033
O O1 0.435122 0.898251 0.058561
O O2 0.665517 0.967014 0.213576
O O3 0.022414 0.892733 0.770762
O O4 0.163514 0.975268 0.936947
O O5 0.464243 0.391569 0.440046
O O6 0.334900 0.524633 0.597258
O O7 0.359254 0.295559 0.926158
O O8 0.529266 0.350111 0.752234
O O9 0.435838 0.117453 0.788338
O O10 0.673633 0.221104 0.895324
O O11 0.821177 0.557174 0.330862
O O12 0.310510 0.221852 0.331709
#
# Coordination Sequence:
#
# PCOD9312438 Si02
#       8
#     2   2   2   4   2   4   4   4
#     4  12  27  43  66 104 134 190 229 279 344 420
#     4  11  22  43  66  98 146 177 230 283 330 418
#     4  11  26  45  74  96 134 175 236 305 356 410
#     4  11  24  40  64 102 138 184 222 284 336 422
#     4  10  21  43  64  94 144 170 235 279 348 412
#     4  10  25  44  71 102 130 186 231 292 356 411
#     4  12  24  38  69  98 144 184 233 266 350 407
#     4  11  24  48  65 100 139 176 232 291 356 407
#
# _framework density 22.710356000000001
#
# number of rings (size 3 to 8) (size 9 to 14) (size 15 to 20)
#    0.000    1.000    3.333    3.500    2.333    6.000 
#    0.000    0.000    0.000    0.000    0.000    0.000 
#    0.000    0.000    0.000    0.000    0.000    0.000 
#
# Total GULP energy -134056.782641 kJ/mol
# GULP energy per Si atom -5585.699277 kJ/mol
# Density = 2.265867 g / cm^3
# Si number density = 22.710356 Si / 1000 Ang^3
#
#
#
# Elastic Constant Matrix: (Units=GPa)
#
#
# Indices 1 2 3 4 5 6 
#
# 1 49.2245 1.9673 14.9781 0.0000 0.0000 0.0000
# 2 1.9673 46.2404 21.5971 0.0000 0.0000 0.0000
# 3 14.9781 21.5971 104.8915 0.0000 0.0000 0.0000
# 4 0.0000 0.0000 0.0000 9.7941 0.0000 0.0000
# 5 0.0000 0.0000 0.0000 0.0000 40.4502 0.0000
# 6 0.0000 0.0000 0.0000 0.0000 0.0000 44.5654
#
#
#
# Elastic Compliance Matrix: (Units=1/GPa)
#
#
# Indices 1 2 3 4 5 6 
#
# 1 0.021251 0.000568 -0.003152 0.000000 0.000000 0.000000
# 2 0.000568 0.023942 -0.005011 0.000000 0.000000 0.000000
# 3 -0.003152 -0.005011 0.011015 0.000000 0.000000 0.000000
# 4 0.000000 0.000000 0.000000 0.102102 0.000000 0.000000
# 5 0.000000 0.000000 0.000000 0.000000 0.024722 0.000000
# 6 0.000000 0.000000 0.000000 0.000000 0.000000 0.022439
#
#
# Mechanical properties :
#
#
# Convention : Reuss Voigt Hill
#
# Bulk Modulus (GPa) = 24.37829 30.82680 27.60255
# Shear Modulus (GPa) = 21.33703 29.74954 25.54329
#
# Velocity S-wave (km/s) = 3.06850 3.62326 3.35736
# Velocity P-wave (km/s) = 4.82825 5.57740 5.21629
#
# Compressibility (1/GPa) = 0.04102010
#
# Stress axis : x y z
#
# Youngs Moduli (GPa) = 47.05584 41.76707 90.78203
#
# Poissons Ratio (x) = -0.02372 0.28610
# Poissons Ratio (y) = -0.02672 0.45489
# Poissons Ratio (z) = 0.14830 0.20929
#
# Static dielectric constant tensor:
#      x y z
#    x 1.905010 0.000000 0.000000 
#    y 0.000000 1.963230 0.000000 
#    z 0.000000 0.000000 1.789330 
# 
# From -- ./inp_files/5571.got.cif
#   From: 2010.05.17/outbox.cif.g08.bks.cpg/sg18_3_cif.got.tgz:5571.got - 2010.06.03 22:40:56.
