data_PCOD9312981
_publ_section_title
;
Structure prediction by ZEFSAII (Michael W. Deem and Ramdas Pophale) SiO2 
 PCOD9312981
Probable space group: P 21 21 2
;
_chemical_formula_sum "Si O2"
_cell_formula_units_Z 32
_cell_length_a 8.944338
_cell_length_b 15.619345
_cell_length_c 11.152760
_cell_angle_alpha 90.000000
_cell_angle_beta 90.000000
_cell_angle_gamma 90.000000
_cell_volume 1558.093001
_symmetry_space_group_name_H-M "P 21 21 2"
_symmetry_group_IT_number 18
_symmetry_cell_setting 'orthorhombic'
loop_
_space_group_symop_operation_xyz
x,y,z
-x,-y,z
1/2+x,1/2-y,-z
1/2-x,1/2+y,-z
loop_
_atom_site_type_symbol
_atom_site_label
_atom_site_fract_x
_atom_site_fract_y
_atom_site_fract_z
Si Si1 0.679874 0.990901 0.530498
Si Si2 0.552156 0.591533 0.158334
Si Si3 0.856574 0.051174 0.109255
Si Si4 0.229014 0.748154 0.730369
Si Si5 0.309791 0.644666 0.297561
Si Si6 0.928627 0.206527 0.270253
Si Si7 0.146983 0.557599 0.734517
Si Si8 0.894152 0.154885 0.535405
O O1 0.722139 0.933546 0.643964
O O2 0.720328 0.952371 0.398615
O O3 0.500000 0.000000 0.533064
O O4 0.779277 0.075981 0.545098
O O5 0.500000 0.500000 0.218882
O O6 0.664079 0.664075 0.210958
O O7 0.389166 0.635793 0.167463
O O8 0.621035 0.564967 0.031706
O O9 0.861145 0.142179 0.173304
O O10 0.726624 0.990601 0.155917
O O11 0.000000 0.000000 0.155191
O O12 0.403458 0.736721 0.760131
O O13 0.143166 0.659394 0.760565
O O14 0.198752 0.764925 0.588861
O O15 0.191568 0.719722 0.290485
O O16 0.454024 0.653659 0.385850
O O17 0.939292 0.160751 0.398362
O O18 0.000000 0.500000 0.720967
#
# Coordination Sequence:
#
# PCOD9312981 Si02
#       8
#     4   4   4   4   4   4   4   4
#     4  11  22  38  66 102 147 182 223 285 354 431
#     4  10  25  49  68  92 136 185 236 294 356 415
#     4  11  24  46  69  93 136 184 234 294 358 415
#     4  11  24  43  67 101 140 182 239 290 355 435
#     4  11  24  38  65 100 134 182 227 280 352 424
#     4  12  23  39  65 103 136 181 233 287 349 428
#     4  11  24  42  69 107 144 183 237 300 358 437
#     4  11  22  38  64  97 147 182 221 280 356 425
#
# _framework density 20.537927
#
# number of rings (size 3 to 8) (size 9 to 14) (size 15 to 20)
#    0.000    1.000    2.500    4.875    3.500    2.000 
#    0.000    0.000    0.000    0.750    0.000    0.000 
#    0.000    0.000    0.000    0.000    0.000    0.000 
#
# Total GULP energy -178226.306914 kJ/mol
# GULP energy per Si atom -5569.572091 kJ/mol
# Density = 2.049118 g / cm^3
# Si number density = 20.537927 Si / 1000 Ang^3
#
#
#
# Elastic Constant Matrix: (Units=GPa)
#
#
# Indices 1 2 3 4 5 6 
#
# 1 64.8900 65.7301 5.5416 0.0000 0.0000 0.0000
# 2 65.7301 148.2914 32.9454 0.0000 0.0000 0.0000
# 3 5.5416 32.9454 69.5704 0.0000 0.0000 0.0000
# 4 0.0000 0.0000 0.0000 24.2282 0.0000 0.0000
# 5 0.0000 0.0000 0.0000 0.0000 0.2391 0.0000
# 6 0.0000 0.0000 0.0000 0.0000 0.0000 38.3059
#
#
#
# Elastic Compliance Matrix: (Units=1/GPa)
#
#
# Indices 1 2 3 4 5 6 
#
# 1 0.029039 -0.013811 0.004227 0.000000 0.000000 0.000000
# 2 -0.013811 0.014105 -0.005579 0.000000 0.000000 0.000000
# 3 0.004227 -0.005579 0.016679 0.000000 0.000000 0.000000
# 4 0.000000 0.000000 0.000000 0.041274 0.000000 0.000000
# 5 0.000000 0.000000 0.000000 0.000000 4.182420 0.000000
# 6 0.000000 0.000000 0.000000 0.000000 0.000000 0.026106
#
#
# Mechanical properties :
#
#
# Convention : Reuss Voigt Hill
#
# Bulk Modulus (GPa) = 33.90142 54.57624 44.23883
# Shear Modulus (GPa) = 1.14948 24.45695 12.80322
#
# Velocity S-wave (km/s) = 0.74893 3.45457 2.49949
# Velocity P-wave (km/s) = 4.15818 6.52251 5.46962
#
# Compressibility (1/GPa) = 0.02949729
#
# Stress axis : x y z
#
# Youngs Moduli (GPa) = 34.43620 70.89892 59.95460
#
# Poissons Ratio (x) = 0.97917 -0.25343
# Poissons Ratio (y) = 0.47559 0.33450
# Poissons Ratio (z) = -0.14556 0.39556
#
# Static dielectric constant tensor:
#      x y z
#    x 1.741970 0.000000 0.000000 
#    y 0.000000 1.879630 0.000000 
#    z 0.000000 0.000000 1.783450 
# 
# From -- ./inp_files/5674.got.cif
#   From: 2010.05.17/outbox.cif.g08.bks.cpg/sg18_3_cif.got.tgz:5674.got - 2010.06.03 22:40:56.
