data_PCOD9312867
_publ_section_title
;
Structure prediction by ZEFSAII (Michael W. Deem and Ramdas Pophale) SiO2 
 PCOD9312867
Probable space group: P 21 21 2
;
_chemical_formula_sum "Si O2"
_cell_formula_units_Z 12
_cell_length_a 7.568690
_cell_length_b 13.551895
_cell_length_c 5.273611
_cell_angle_alpha 90.000000
_cell_angle_beta 90.000000
_cell_angle_gamma 90.000000
_cell_volume 540.914766
_symmetry_space_group_name_H-M "P 21 21 2"
_symmetry_group_IT_number 18
_symmetry_cell_setting 'orthorhombic'
loop_
_space_group_symop_operation_xyz
x,y,z
-x,-y,z
1/2+x,1/2-y,-z
1/2-x,1/2+y,-z
loop_
_atom_site_type_symbol
_atom_site_label
_atom_site_fract_x
_atom_site_fract_y
_atom_site_fract_z
Si Si1 0.588392 0.896187 0.791923
Si Si2 0.944616 0.892800 0.531123
Si Si3 0.129860 0.708722 0.704838
O O1 0.799170 0.909506 0.752049
O O2 0.531716 0.853808 0.517656
O O3 0.500000 0.000000 0.847344
O O4 0.559631 0.821165 0.021547
O O5 0.829178 0.830678 0.329199
O O6 0.098197 0.822344 0.635429
O O7 0.000000 0.000000 0.436803
#
# Coordination Sequence:
#
# PCOD9312867 Si02
#       3
#     4   4   4
#     4  10  24  41  67  94 130 172 216 264 322 380
#     4  10  26  42  69  97 131 173 217 265 325 384
#     4  10  25  43  64  97 132 167 216 269 319 383
#
# _framework density 22.184640000000002
#
# number of rings (size 3 to 8) (size 9 to 14) (size 15 to 20)
#    2.000    0.000    0.000    1.000    9.333    1.333 
#    0.000    0.000    0.000    0.000    0.000    0.000 
#    0.000    0.000    0.000    0.000    0.000    0.000 
#
# Total GULP energy -66861.747551 kJ/mol
# GULP energy per Si atom -5571.812296 kJ/mol
# Density = 2.213415 g / cm^3
# Si number density = 22.184640 Si / 1000 Ang^3
#
#
#
# Elastic Constant Matrix: (Units=GPa)
#
#
# Indices 1 2 3 4 5 6 
#
# 1 67.4079 56.4917 19.9148 0.0000 0.0000 0.0000
# 2 56.4917 131.5424 -0.3280 0.0000 0.0000 0.0000
# 3 19.9148 -0.3280 93.5061 0.0000 0.0000 0.0000
# 4 0.0000 0.0000 0.0000 20.5612 0.0000 0.0000
# 5 0.0000 0.0000 0.0000 0.0000 11.9883 0.0000
# 6 0.0000 0.0000 0.0000 0.0000 0.0000 48.3023
#
#
#
# Elastic Compliance Matrix: (Units=1/GPa)
#
#
# Indices 1 2 3 4 5 6 
#
# 1 0.025743 -0.011069 -0.005522 0.000000 0.000000 0.000000
# 2 -0.011069 0.012362 0.002401 0.000000 0.000000 0.000000
# 3 -0.005522 0.002401 0.011879 0.000000 0.000000 0.000000
# 4 0.000000 0.000000 0.000000 0.048635 0.000000 0.000000
# 5 0.000000 0.000000 0.000000 0.000000 0.083415 0.000000
# 6 0.000000 0.000000 0.000000 0.000000 0.000000 0.020703
#
#
# Mechanical properties :
#
#
# Convention : Reuss Voigt Hill
#
# Bulk Modulus (GPa) = 46.28794 49.40149 47.84472
# Shear Modulus (GPa) = 20.98038 30.59555 25.78797
#
# Velocity S-wave (km/s) = 3.07859 3.71770 3.41313
# Velocity P-wave (km/s) = 5.79198 6.38318 6.09476
#
# Compressibility (1/GPa) = 0.02160390
#
# Stress axis : x y z
#
# Youngs Moduli (GPa) = 38.84551 80.89394 84.18294
#
# Poissons Ratio (x) = 0.89544 0.46482
# Poissons Ratio (y) = 0.42999 -0.20211
# Poissons Ratio (z) = 0.21449 -0.19422
#
# Static dielectric constant tensor:
#      x y z
#    x 1.871960 0.000000 0.000000 
#    y 0.000000 1.776380 0.000000 
#    z 0.000000 0.000000 1.789580 
# 
# From -- ./inp_files/54.got.cif
#   From: 2010.05.17/outbox.cif.g08.bks.cpg/sg18_1_cif.got.tgz:54.got - 2010.06.03 22:40:56.
