data_PCOD9312390
_publ_section_title
;
Structure prediction by ZEFSAII (Michael W. Deem and Ramdas Pophale) SiO2 
 PCOD9312390
Probable space group: P 21 21 2
;
_chemical_formula_sum "Si O2"
_cell_formula_units_Z 20
_cell_length_a 4.897356
_cell_length_b 12.436880
_cell_length_c 13.487245
_cell_angle_alpha 90.000000
_cell_angle_beta 90.000000
_cell_angle_gamma 90.000000
_cell_volume 821.478811
_symmetry_space_group_name_H-M "P 21 21 2"
_symmetry_group_IT_number 18
_symmetry_cell_setting 'orthorhombic'
loop_
_space_group_symop_operation_xyz
x,y,z
-x,-y,z
1/2+x,1/2-y,-z
1/2-x,1/2+y,-z
loop_
_atom_site_type_symbol
_atom_site_label
_atom_site_fract_x
_atom_site_fract_y
_atom_site_fract_z
Si Si1 0.269198 0.924042 0.959881
Si Si2 0.901772 0.107966 0.491163
Si Si3 0.902069 0.334325 0.388949
Si Si4 0.670759 0.247334 0.793634
Si Si5 0.148253 0.389086 0.809954
O O1 0.262582 0.816106 0.894888
O O2 0.500000 0.000000 0.914483
O O3 0.368368 0.893173 0.070254
O O4 0.000000 0.000000 0.965470
O O5 0.927064 0.209650 0.420788
O O6 0.102217 0.125347 0.585420
O O7 0.600883 0.107241 0.533823
O O8 0.000000 0.000000 0.439539
O O9 0.028831 0.336737 0.280583
O O10 0.461267 0.348954 0.798878
O O11 0.960660 0.296406 0.761859
O O12 0.000000 0.500000 0.776150
#
# Coordination Sequence:
#
# PCOD9312390 Si02
#       5
#     4   4   4   4   4
#     4  11  23  40  61  89 124 165 209 247 301 371
#     4  10  21  41  63  84 122 163 194 250 317 371
#     4  10  23  39  60  94 119 151 211 251 302 388
#     4  12  23  40  63  91 125 159 203 265 312 356
#     4  11  23  40  61  88 124 166 209 251 308 372
#
# _framework density 24.346336999999998
#
# number of rings (size 3 to 8) (size 9 to 14) (size 15 to 20)
#    0.000    1.200    0.000    7.200    0.000    4.000 
#    0.000    0.000    0.000    0.000    0.000    0.000 
#    0.000    0.000    0.000    0.000    0.000    0.000 
#
# Total GULP energy -111730.549050 kJ/mol
# GULP energy per Si atom -5586.527452 kJ/mol
# Density = 2.429092 g / cm^3
# Si number density = 24.346337 Si / 1000 Ang^3
#
#
#
# Elastic Constant Matrix: (Units=GPa)
#
#
# Indices 1 2 3 4 5 6 
#
# 1 107.5352 34.2015 -4.3456 0.0000 0.0000 0.0000
# 2 34.2015 105.8705 -0.3039 0.0000 0.0000 0.0000
# 3 -4.3456 -0.3039 59.2925 0.0000 0.0000 0.0000
# 4 0.0000 0.0000 0.0000 -16.2338 0.0000 0.0000
# 5 0.0000 0.0000 0.0000 0.0000 53.9961 0.0000
# 6 0.0000 0.0000 0.0000 0.0000 0.0000 44.9190
#
#
#
# Elastic Compliance Matrix: (Units=1/GPa)
#
#
# Indices 1 2 3 4 5 6 
#
# 1 0.010397 -0.003357 0.000745 0.000000 0.000000 0.000000
# 2 -0.003357 0.010529 -0.000192 0.000000 0.000000 0.000000
# 3 0.000745 -0.000192 0.016919 0.000000 0.000000 0.000000
# 4 0.000000 0.000000 0.000000 -0.061600 0.000000 0.000000
# 5 0.000000 0.000000 0.000000 0.000000 0.018520 0.000000
# 6 0.000000 0.000000 0.000000 0.000000 0.000000 0.022262
#
#
# Mechanical properties :
#
#
# Convention : Reuss Voigt Hill
#
# Bulk Modulus (GPa) = 31.01956 36.86688 33.94322
# Shear Modulus (GPa) = 149.78516 32.74603 91.26559
#
# Velocity S-wave (km/s) = 7.85215 3.67141 6.12925
# Velocity P-wave (km/s) = 9.74561 5.75742 8.00390
#
# Compressibility (1/GPa) = 0.03223773
#
# Stress axis : x y z
#
# Youngs Moduli (GPa) = 96.18213 94.97307 59.10464
#
# Poissons Ratio (x) = 0.31879 -0.04402
# Poissons Ratio (y) = 0.32284 0.01135
# Poissons Ratio (z) = -0.07164 0.01824
#
# Static dielectric constant tensor:
#      x y z
#    x 1.909170 0.000000 0.000000 
#    y 0.000000 -3.493900 0.000000 
#    z 0.000000 0.000000 1.919020 
# 
# From -- ./inp_files/6400.got.cif
#   From: 2010.05.17/outbox.cif.g08.bks.cpg/sg18_4_cif.got.tgz:6400.got - 2010.06.03 22:40:56.
