data_PCOD9312828
_publ_section_title
;
Structure prediction by ZEFSAII (Michael W. Deem and Ramdas Pophale) SiO2 
 PCOD9312828
Probable space group: P 21 21 2
;
_chemical_formula_sum "Si O2"
_cell_formula_units_Z 20
_cell_length_a 4.800042
_cell_length_b 26.370019
_cell_length_c 5.512728
_cell_angle_alpha 90.000000
_cell_angle_beta 90.000000
_cell_angle_gamma 90.000000
_cell_volume 697.785668
_symmetry_space_group_name_H-M "P 21 21 2"
_symmetry_group_IT_number 18
_symmetry_cell_setting 'orthorhombic'
loop_
_space_group_symop_operation_xyz
x,y,z
-x,-y,z
1/2+x,1/2-y,-z
1/2-x,1/2+y,-z
loop_
_atom_site_type_symbol
_atom_site_label
_atom_site_fract_x
_atom_site_fract_y
_atom_site_fract_z
Si Si1 0.500000 0.000000 0.331589
Si Si2 0.552796 0.428065 0.868181
Si Si3 0.445640 0.779233 0.091616
Si Si4 0.000000 0.000000 0.515796
Si Si5 0.734922 0.632599 0.229172
Si Si6 0.264980 0.159831 0.455999
O O1 0.326690 0.037797 0.135023
O O2 0.288142 0.024728 0.560934
O O3 0.349083 0.457915 0.673352
O O4 0.631118 0.374168 0.756815
O O5 0.396237 0.418801 0.120135
O O6 0.605006 0.789779 0.341046
O O7 0.664072 0.752578 0.911958
O O8 0.362595 0.834064 0.986583
O O9 0.480521 0.663472 0.349133
O O10 0.977916 0.630547 0.423372
#
# Coordination Sequence:
#
# PCOD9312828 Si02
#       6
#     2   4   4   2   4   4
#     4   8  20  36  72  96 134 194 224 276 340 396
#     4  10  23  45  70  98 150 180 230 287 341 388
#     4  12  27  51  74  98 142 182 222 293 353 408
#     4   8  20  36  72  96 134 194 224 276 340 396
#     4  12  27  44  75 107 135 183 234 282 348 419
#     4  12  27  44  75 107 135 183 234 282 348 419
#
# _framework density 28.662096999999999
#
# number of rings (size 3 to 8) (size 9 to 14) (size 15 to 20)
#    1.200    0.000    0.000    6.000    8.400    3.200 
#    0.000    8.000    0.000    0.000    0.000    0.000 
#    0.000    0.000    0.000    0.000    0.000    0.000 
#
# Total GULP energy -111532.494896 kJ/mol
# GULP energy per Si atom -5576.624745 kJ/mol
# Density = 2.859686 g / cm^3
# Si number density = 28.662097 Si / 1000 Ang^3
#
#
#
# Elastic Constant Matrix: (Units=GPa)
#
#
# Indices 1 2 3 4 5 6 
#
# 1 139.9711 18.0390 35.5662 0.0000 0.0000 0.0000
# 2 18.0390 54.3919 -3.1829 0.0000 0.0000 0.0000
# 3 35.5662 -3.1829 88.8872 0.0000 0.0000 0.0000
# 4 0.0000 0.0000 0.0000 -274.5812 0.0000 0.0000
# 5 0.0000 0.0000 0.0000 0.0000 70.9820 0.0000
# 6 0.0000 0.0000 0.0000 0.0000 0.0000 79.5778
#
#
#
# Elastic Compliance Matrix: (Units=1/GPa)
#
#
# Indices 1 2 3 4 5 6 
#
# 1 0.008413 -0.002993 -0.003473 0.000000 0.000000 0.000000
# 2 -0.002993 0.019489 0.001896 0.000000 0.000000 0.000000
# 3 -0.003473 0.001896 0.012708 0.000000 0.000000 0.000000
# 4 0.000000 0.000000 0.000000 -0.003642 0.000000 0.000000
# 5 0.000000 0.000000 0.000000 0.000000 0.014088 0.000000
# 6 0.000000 0.000000 0.000000 0.000000 0.000000 0.012566
#
#
# Mechanical properties :
#
#
# Convention : Reuss Voigt Hill
#
# Bulk Modulus (GPa) = 31.77921 42.67721 37.22821
# Shear Modulus (GPa) = 60.05796 -9.28243 25.38776
#
# Velocity S-wave (km/s) = 4.58250 -1.80156 2.97940
# Velocity P-wave (km/s) = 6.25385 3.25494 4.98524
#
# Compressibility (1/GPa) = 0.03146712
#
# Stress axis : x y z
#
# Youngs Moduli (GPa) = 118.86852 51.31172 78.69142
#
# Poissons Ratio (x) = 0.15359 0.27332
# Poissons Ratio (y) = 0.35581 -0.14916
# Poissons Ratio (z) = 0.41287 -0.09726
#
# Static dielectric constant tensor:
#      x y z
#    x 66.429100 0.000000 0.000000 
#    y 0.000000 2.794440 0.000000 
#    z 0.000000 0.000000 2.530370 
# 
# From -- ./inp_files/315.got.cif
#   From: 2010.05.17/outbox.cif.g08.bks.cpg/sg18_1_cif.got.tgz:315.got - 2010.06.03 22:40:56.
