data_PCOD9312801
_publ_section_title
;
Structure prediction by ZEFSAII (Michael W. Deem and Ramdas Pophale) SiO2 
 PCOD9312801
Probable space group: P 21 21 2
;
_chemical_formula_sum "Si O2"
_cell_formula_units_Z 14
_cell_length_a 8.419789
_cell_length_b 5.199851
_cell_length_c 13.063684
_cell_angle_alpha 90.000000
_cell_angle_beta 90.000000
_cell_angle_gamma 90.000000
_cell_volume 571.949618
_symmetry_space_group_name_H-M "P 21 21 2"
_symmetry_group_IT_number 18
_symmetry_cell_setting 'orthorhombic'
loop_
_space_group_symop_operation_xyz
x,y,z
-x,-y,z
1/2+x,1/2-y,-z
1/2-x,1/2+y,-z
loop_
_atom_site_type_symbol
_atom_site_label
_atom_site_fract_x
_atom_site_fract_y
_atom_site_fract_z
Si Si1 0.000000 0.500000 0.477417
Si Si2 0.500000 0.500000 0.662893
Si Si3 0.652130 0.370517 0.016957
Si Si4 0.000000 0.000000 0.784607
Si Si5 0.831138 0.391392 0.675482
O O1 0.852006 0.450652 0.554749
O O2 0.017050 0.251931 0.407485
O O3 0.669249 0.503711 0.718423
O O4 0.500000 0.500000 0.960287
O O5 0.583986 0.319156 0.130369
O O6 0.778244 0.604816 0.024405
O O7 0.859944 0.099809 0.710498
O O8 0.000000 0.500000 0.713010
#
# Coordination Sequence:
#
# PCOD9312801 Si02
#       5
#     2   2   4   2   4
#     4  10  24  40  70  94 146 182 246 286 344 408
#     4  12  23  44  63 106 136 192 244 282 341 434
#     4  10  23  43  72 101 137 179 231 281 357 433
#     4  10  25  44  71  98 150 174 240 294 365 420
#     4  10  25  40  70  97 146 183 232 295 362 392
#
# _framework density 24.477681
#
# number of rings (size 3 to 8) (size 9 to 14) (size 15 to 20)
#    1.714    0.000    0.000    3.429    8.000    0.000 
#    2.571    2.857    0.000    0.000    0.000    0.000 
#    0.000    0.000    0.000    0.000    0.000    0.000 
#
# Total GULP energy -77937.123917 kJ/mol
# GULP energy per Si atom -5566.937423 kJ/mol
# Density = 2.442197 g / cm^3
# Si number density = 24.477681 Si / 1000 Ang^3
#
#
#
# Elastic Constant Matrix: (Units=GPa)
#
#
# Indices 1 2 3 4 5 6 
#
# 1 167.3488 16.8055 18.2598 0.0000 0.0000 0.0000
# 2 16.8055 98.3271 31.0564 0.0000 0.0000 0.0000
# 3 18.2598 31.0564 48.2327 0.0000 0.0000 0.0000
# 4 0.0000 0.0000 0.0000 -36.3665 0.0000 0.0000
# 5 0.0000 0.0000 0.0000 0.0000 20.7897 0.0000
# 6 0.0000 0.0000 0.0000 0.0000 0.0000 44.8117
#
#
#
# Elastic Compliance Matrix: (Units=1/GPa)
#
#
# Indices 1 2 3 4 5 6 
#
# 1 0.006246 -0.000403 -0.002105 0.000000 0.000000 0.000000
# 2 -0.000403 0.012792 -0.008084 0.000000 0.000000 0.000000
# 3 -0.002105 -0.008084 0.026735 0.000000 0.000000 0.000000
# 4 0.000000 0.000000 0.000000 -0.027498 0.000000 0.000000
# 5 0.000000 0.000000 0.000000 0.000000 0.048101 0.000000
# 6 0.000000 0.000000 0.000000 0.000000 0.000000 0.022316
#
#
# Mechanical properties :
#
#
# Convention : Reuss Voigt Hill
#
# Bulk Modulus (GPa) = 40.66891 49.57246 45.12068
# Shear Modulus (GPa) = 42.34680 22.36611 32.35646
#
# Velocity S-wave (km/s) = 4.16386 3.02608 3.63971
# Velocity P-wave (km/s) = 6.30617 5.70137 6.01138
#
# Compressibility (1/GPa) = 0.02458881
#
# Stress axis : x y z
#
# Youngs Moduli (GPa) = 160.11064 78.17144 37.40369
#
# Poissons Ratio (x) = 0.03147 0.07875
# Poissons Ratio (y) = 0.06445 0.30239
# Poissons Ratio (z) = 0.33708 0.63198
#
# Static dielectric constant tensor:
#      x y z
#    x 2.143410 0.000000 0.000000 
#    y 0.000000 13.614190 0.000000 
#    z 0.000000 0.000000 1.873830 
# 
# From -- ./inp_files/6601.got.cif
#   From: 2010.05.17/outbox.cif.g08.bks.cpg/sg18_4_cif.got.tgz:6601.got - 2010.06.03 22:40:56.
