data_PCOD9312885
_publ_section_title
;
Structure prediction by ZEFSAII (Michael W. Deem and Ramdas Pophale) SiO2 
 PCOD9312885
Probable space group: P 21 21 2
;
_chemical_formula_sum "Si O2"
_cell_formula_units_Z 16
_cell_length_a 7.968854
_cell_length_b 5.769982
_cell_length_c 14.794390
_cell_angle_alpha 90.000000
_cell_angle_beta 90.000000
_cell_angle_gamma 90.000000
_cell_volume 680.248185
_symmetry_space_group_name_H-M "P 21 21 2"
_symmetry_group_IT_number 18
_symmetry_cell_setting 'orthorhombic'
loop_
_space_group_symop_operation_xyz
x,y,z
-x,-y,z
1/2+x,1/2-y,-z
1/2-x,1/2+y,-z
loop_
_atom_site_type_symbol
_atom_site_label
_atom_site_fract_x
_atom_site_fract_y
_atom_site_fract_z
Si Si1 0.500000 0.500000 0.132947
Si Si2 0.000000 0.000000 0.549620
Si Si3 0.000000 0.500000 0.969043
Si Si4 0.834088 0.613950 0.144761
Si Si5 0.000000 0.000000 0.236435
Si Si6 0.147404 0.690817 0.390447
O O1 0.512573 0.752150 0.081709
O O2 0.670791 0.506835 0.186830
O O3 0.095536 0.819959 0.483415
O O4 0.841223 0.889457 0.602355
O O5 0.154501 0.460996 0.039576
O O6 0.000000 0.500000 0.183860
O O7 0.868449 0.877327 0.168183
O O8 0.115995 0.860355 0.306271
O O9 0.000000 0.500000 0.381863
#
# Coordination Sequence:
#
# PCOD9312885 Si02
#       6
#     2   2   2   4   2   4
#     4  12  23  44  74 111 134 192 250 314 362 435
#     4  11  22  42  78 104 135 184 238 316 345 432
#     4  10  24  42  76 106 140 182 254 310 370 426
#     4  10  25  42  72  97 147 184 240 296 375 434
#     4  11  25  48  68 103 151 200 230 304 371 469
#     4  11  23  43  73 106 143 181 247 292 377 426
#
# _framework density 23.520826
#
# number of rings (size 3 to 8) (size 9 to 14) (size 15 to 20)
#    0.750    0.500    2.500    3.000    3.500    0.000 
#    0.000    7.500    0.000    0.000    0.000    0.000 
#    0.000    0.000    0.000    0.000    0.000    0.000 
#
# Total GULP energy -89119.281913 kJ/mol
# GULP energy per Si atom -5569.955120 kJ/mol
# Density = 2.346729 g / cm^3
# Si number density = 23.520826 Si / 1000 Ang^3
#
#
#
# Elastic Constant Matrix: (Units=GPa)
#
#
# Indices 1 2 3 4 5 6 
#
# 1 233.0292 60.9266 34.0681 0.0000 0.0000 0.0000
# 2 60.9266 116.1138 54.8141 0.0000 0.0000 0.0000
# 3 34.0681 54.8141 82.8428 0.0000 0.0000 0.0000
# 4 0.0000 0.0000 0.0000 -39.3077 0.0000 0.0000
# 5 0.0000 0.0000 0.0000 0.0000 -11.8995 0.0000
# 6 0.0000 0.0000 0.0000 0.0000 0.0000 49.3735
#
#
#
# Elastic Compliance Matrix: (Units=1/GPa)
#
#
# Indices 1 2 3 4 5 6 
#
# 1 0.004986 -0.002397 -0.000464 0.000000 0.000000 0.000000
# 2 -0.002397 0.013677 -0.008064 0.000000 0.000000 0.000000
# 3 -0.000464 -0.008064 0.017597 0.000000 0.000000 0.000000
# 4 0.000000 0.000000 0.000000 -0.025440 0.000000 0.000000
# 5 0.000000 0.000000 0.000000 0.000000 -0.084037 0.000000
# 6 0.000000 0.000000 0.000000 0.000000 0.000000 0.020254
#
#
# Mechanical properties :
#
#
# Convention : Reuss Voigt Hill
#
# Bulk Modulus (GPa) = 69.39622 81.28926 75.34274
# Shear Modulus (GPa) = -190.03466 18.44507 -85.79479
#
# Velocity S-wave (km/s) = -8.99831 2.80340 -6.04610
# Velocity P-wave (km/s) = 8.85388 6.71672 4.07903
#
# Compressibility (1/GPa) = 0.01441001
#
# Stress axis : x y z
#
# Youngs Moduli (GPa) = 200.56587 73.11800 56.82656
#
# Poissons Ratio (x) = 0.17526 0.02639
# Poissons Ratio (y) = 0.48074 0.45822
# Poissons Ratio (z) = 0.09315 0.58959
#
# Static dielectric constant tensor:
#      x y z
#    x 1.991940 0.000000 0.000000 
#    y 0.000000 2.471700 0.000000 
#    z 0.000000 0.000000 1.847740 
# 
# From -- ./inp_files/7251.got.cif
#   From: 2010.05.17/outbox.cif.g08.bks.cpg/sg18_4_cif.got.tgz:7251.got - 2010.06.03 22:40:56.
