data_PCOD9312477
_publ_section_title
;
Structure prediction by ZEFSAII (Michael W. Deem and Ramdas Pophale) SiO2 
 PCOD9312477
Probable space group: P 21 21 2
;
_chemical_formula_sum "Si O2"
_cell_formula_units_Z 30
_cell_length_a 27.711304
_cell_length_b 8.598458
_cell_length_c 7.197262
_cell_angle_alpha 90.000000
_cell_angle_beta 90.000000
_cell_angle_gamma 90.000000
_cell_volume 1714.923886
_symmetry_space_group_name_H-M "P 21 21 2"
_symmetry_group_IT_number 18
_symmetry_cell_setting 'orthorhombic'
loop_
_space_group_symop_operation_xyz
x,y,z
-x,-y,z
1/2+x,1/2-y,-z
1/2-x,1/2+y,-z
loop_
_atom_site_type_symbol
_atom_site_label
_atom_site_fract_x
_atom_site_fract_y
_atom_site_fract_z
Si Si1 0.000000 0.000000 0.504868
Si Si2 0.726069 0.354613 0.083262
Si Si3 0.133967 0.938503 0.966231
Si Si4 0.164112 0.723174 0.645048
Si Si5 0.089208 0.146089 0.661036
Si Si6 0.901812 0.112146 0.375815
Si Si7 0.237545 0.360366 0.271397
Si Si8 0.827581 0.637713 0.617988
O O1 0.967255 0.878740 0.621275
O O2 0.959843 0.098668 0.394060
O O3 0.764285 0.464865 0.188366
O O4 0.702551 0.239742 0.234597
O O5 0.685474 0.477466 0.018573
O O6 0.740145 0.256427 0.903303
O O7 0.113870 0.898903 0.165662
O O8 0.101271 0.062153 0.854358
O O9 0.140244 0.790051 0.832999
O O10 0.177997 0.544117 0.658152
O O11 0.125454 0.749450 0.481104
O O12 0.212256 0.828393 0.618683
O O13 0.113656 0.037949 0.500284
O O14 0.116885 0.307745 0.642737
O O15 0.194032 0.332120 0.413167
#
# Coordination Sequence:
#
# PCOD9312477 Si02
#       8
#     2   4   4   4   4   4   4   4
#     4   8  18  36  62  86 104 136 194 234 274 342
#     4  10  22  34  51  82 108 148 193 223 273 332
#     4   9  18  35  57  78 114 140 181 236 274 331
#     4  10  22  34  52  83 111 147 184 226 277 333
#     4   8  18  35  56  86 104 139 187 228 277 331
#     4   9  18  36  56  82 103 142 183 225 278 324
#     4  11  22  36  55  78 115 151 188 236 273 333
#     4  11  21  36  55  80 114 151 183 227 284 329
#
# _framework density 17.493487999999999
#
# number of rings (size 3 to 8) (size 9 to 14) (size 15 to 20)
#    0.800    1.600    0.000    3.200    0.000    6.933 
#    0.000    0.667    0.000    0.000    3.467    0.000 
#    0.000    0.000    0.000    0.000    0.000    0.000 
#
# Total GULP energy -167005.154102 kJ/mol
# GULP energy per Si atom -5566.838470 kJ/mol
# Density = 1.745367 g / cm^3
# Si number density = 17.493488 Si / 1000 Ang^3
#
#
#
# Elastic Constant Matrix: (Units=GPa)
#
#
# Indices 1 2 3 4 5 6 
#
# 1 67.2116 17.0196 40.5090 0.0000 0.0000 0.0000
# 2 17.0196 71.8147 26.6725 0.0000 0.0000 0.0000
# 3 40.5090 26.6725 104.5700 0.0000 0.0000 0.0000
# 4 0.0000 0.0000 0.0000 13.6981 0.0000 0.0000
# 5 0.0000 0.0000 0.0000 0.0000 21.2652 0.0000
# 6 0.0000 0.0000 0.0000 0.0000 0.0000 19.8436
#
#
#
# Elastic Compliance Matrix: (Units=1/GPa)
#
#
# Indices 1 2 3 4 5 6 
#
# 1 0.019673 -0.002024 -0.007105 0.000000 0.000000 0.000000
# 2 -0.002024 0.015590 -0.003193 0.000000 0.000000 0.000000
# 3 -0.007105 -0.003193 0.013130 0.000000 0.000000 0.000000
# 4 0.000000 0.000000 0.000000 0.073003 0.000000 0.000000
# 5 0.000000 0.000000 0.000000 0.000000 0.047025 0.000000
# 6 0.000000 0.000000 0.000000 0.000000 0.000000 0.050394
#
#
# Mechanical properties :
#
#
# Convention : Reuss Voigt Hill
#
# Bulk Modulus (GPa) = 42.10434 45.77761 43.94097
# Shear Modulus (GPa) = 19.89070 21.58773 20.73922
#
# Velocity S-wave (km/s) = 3.37565 3.51671 3.44690
# Velocity P-wave (km/s) = 6.27010 6.53566 6.40426
#
# Compressibility (1/GPa) = 0.02375052
#
# Stress axis : x y z
#
# Youngs Moduli (GPa) = 50.83110 64.14342 76.16344
#
# Poissons Ratio (x) = 0.12980 0.54113
# Poissons Ratio (y) = 0.10286 0.24316
# Poissons Ratio (z) = 0.36115 0.20479
#
# Static dielectric constant tensor:
#      x y z
#    x 1.617740 0.000000 0.000000 
#    y 0.000000 1.610860 0.000000 
#    z 0.000000 0.000000 1.591210 
# 
# From -- ./inp_files/2282.got.cif
#   From: 2010.05.17/outbox.cif.g08.bks.cpg/sg18_2_cif.got.tgz:2282.got - 2010.06.03 22:40:56.
