data_PCOD9312963
_publ_section_title
;
Structure prediction by ZEFSAII (Michael W. Deem and Ramdas Pophale) SiO2 
 PCOD9312963
Probable space group: P 21 21 2
;
_chemical_formula_sum "Si O2"
_cell_formula_units_Z 22
_cell_length_a 15.218909
_cell_length_b 5.122679
_cell_length_c 12.293712
_cell_angle_alpha 90.000000
_cell_angle_beta 90.000000
_cell_angle_gamma 90.000000
_cell_volume 958.437280
_symmetry_space_group_name_H-M "P 21 21 2"
_symmetry_group_IT_number 18
_symmetry_cell_setting 'orthorhombic'
loop_
_space_group_symop_operation_xyz
x,y,z
-x,-y,z
1/2+x,1/2-y,-z
1/2-x,1/2+y,-z
loop_
_atom_site_type_symbol
_atom_site_label
_atom_site_fract_x
_atom_site_fract_y
_atom_site_fract_z
Si Si1 0.097288 0.615498 0.679647
Si Si2 0.695542 0.650894 0.520903
Si Si3 0.174832 0.110193 0.795724
Si Si4 0.000000 0.500000 0.158851
Si Si5 0.853340 0.195752 0.239912
Si Si6 0.400303 0.620024 0.966107
O O1 0.127025 0.708023 0.559794
O O2 0.152370 0.383256 0.736056
O O3 0.000000 0.500000 0.679171
O O4 0.116217 0.875070 0.749440
O O5 0.730770 0.379772 0.471123
O O6 0.661920 0.581270 0.640838
O O7 0.278690 0.081532 0.773884
O O8 0.151754 0.124927 0.922666
O O9 0.046635 0.707051 0.234663
O O10 0.076116 0.403464 0.079360
O O11 0.848536 0.018290 0.132229
O O12 0.500000 0.500000 0.980389
#
# Coordination Sequence:
#
# PCOD9312963 Si02
#       6
#     4   4   4   2   4   4
#     4  12  26  47  73 112 146 202 249 312 378 443
#     4  12  25  49  71 105 149 194 254 308 366 443
#     4  12  27  45  79 107 151 192 253 304 376 456
#     4  10  26  46  70 106 146 190 250 300 384 436
#     4  11  26  45  72 106 145 196 248 305 373 445
#     4  10  25  46  69 108 144 193 237 314 371 452
#
# _framework density 22.954032000000002
#
# number of rings (size 3 to 8) (size 9 to 14) (size 15 to 20)
#    0.000    0.727    3.636    1.636   15.273    0.000 
#    0.000    1.818    0.000    0.000    0.000    0.000 
#    0.000    0.000    0.000    0.000    0.000    0.000 
#
# Total GULP energy -122892.593560 kJ/mol
# GULP energy per Si atom -5586.026980 kJ/mol
# Density = 2.290179 g / cm^3
# Si number density = 22.954032 Si / 1000 Ang^3
#
#
#
# Elastic Constant Matrix: (Units=GPa)
#
#
# Indices 1 2 3 4 5 6 
#
# 1 39.8876 -3.8870 45.8506 0.0000 0.0000 0.0000
# 2 -3.8870 56.4500 25.4581 0.0000 0.0000 0.0000
# 3 45.8506 25.4581 183.6589 0.0000 0.0000 0.0000
# 4 0.0000 0.0000 0.0000 22.8160 0.0000 0.0000
# 5 0.0000 0.0000 0.0000 0.0000 29.5396 0.0000
# 6 0.0000 0.0000 0.0000 0.0000 0.0000 35.3645
#
#
#
# Elastic Compliance Matrix: (Units=1/GPa)
#
#
# Indices 1 2 3 4 5 6 
#
# 1 0.037795 0.007315 -0.010450 0.000000 0.000000 0.000000
# 2 0.007315 0.020312 -0.004642 0.000000 0.000000 0.000000
# 3 -0.010450 -0.004642 0.008697 0.000000 0.000000 0.000000
# 4 0.000000 0.000000 0.000000 0.043829 0.000000 0.000000
# 5 0.000000 0.000000 0.000000 0.000000 0.033853 0.000000
# 6 0.000000 0.000000 0.000000 0.000000 0.000000 0.028277
#
#
# Mechanical properties :
#
#
# Convention : Reuss Voigt Hill
#
# Bulk Modulus (GPa) = 19.51169 46.09332 32.80250
# Shear Modulus (GPa) = 24.34289 31.71567 28.02928
#
# Velocity S-wave (km/s) = 3.26007 3.72116 3.49822
# Velocity P-wave (km/s) = 4.76336 6.21184 5.53519
#
# Compressibility (1/GPa) = 0.05125133
#
# Stress axis : x y z
#
# Youngs Moduli (GPa) = 26.45857 49.23239 114.98184
#
# Poissons Ratio (x) = -0.36014 1.20150
# Poissons Ratio (y) = -0.19355 0.53372
# Poissons Ratio (z) = 0.27648 0.22852
#
# Static dielectric constant tensor:
#      x y z
#    x 1.913730 0.000000 0.000000 
#    y 0.000000 1.895390 0.000000 
#    z 0.000000 0.000000 1.839200 
# 
# From -- ./inp_files/6031.got.cif
#   From: 2010.05.17/outbox.cif.g08.bks.cpg/sg18_4_cif.got.tgz:6031.got - 2010.06.03 22:40:56.
