data_PCOD9312813
_publ_section_title
;
Structure prediction by ZEFSAII (Michael W. Deem and Ramdas Pophale) SiO2 
 PCOD9312813
Probable space group: P 21 21 2
;
_chemical_formula_sum "Si O2"
_cell_formula_units_Z 12
_cell_length_a 9.584843
_cell_length_b 8.895068
_cell_length_c 5.015837
_cell_angle_alpha 90.000000
_cell_angle_beta 90.000000
_cell_angle_gamma 90.000000
_cell_volume 427.639380
_symmetry_space_group_name_H-M "P 21 21 2"
_symmetry_group_IT_number 18
_symmetry_cell_setting 'orthorhombic'
loop_
_space_group_symop_operation_xyz
x,y,z
-x,-y,z
1/2+x,1/2-y,-z
1/2-x,1/2+y,-z
loop_
_atom_site_type_symbol
_atom_site_label
_atom_site_fract_x
_atom_site_fract_y
_atom_site_fract_z
Si Si1 0.267328 0.392968 0.388943
Si Si2 0.475112 0.824724 0.236386
Si Si3 0.353401 0.572243 0.920493
O O1 0.380716 0.263462 0.307964
O O2 0.129022 0.321283 0.513271
O O3 0.249836 0.509524 0.146760
O O4 0.323607 0.495995 0.636583
O O5 0.388850 0.742670 0.001731
O O6 0.500000 0.000000 0.188140
O O7 0.500000 0.500000 0.003482
#
# Coordination Sequence:
#
# PCOD9312813 Si02
#       3
#     4   4   4
#     4  11  25  47  72 106 150 194 243 310 379 444
#     4  11  25  47  78 113 147 200 261 312 373 452
#     4  10  23  44  69 101 149 194 236 302 375 438
#
# _framework density 28.061025000000001
#
# number of rings (size 3 to 8) (size 9 to 14) (size 15 to 20)
#    0.000    1.333    0.000    5.000    0.000   13.333 
#    0.000   20.000    0.000    0.000    0.000    0.000 
#    0.000    0.000    0.000    0.000    0.000    0.000 
#
# Total GULP energy -67214.415618 kJ/mol
# GULP energy per Si atom -5601.201301 kJ/mol
# Density = 2.799716 g / cm^3
# Si number density = 28.061025 Si / 1000 Ang^3
#
#
#
# Elastic Constant Matrix: (Units=GPa)
#
#
# Indices 1 2 3 4 5 6 
#
# 1 125.2931 35.6104 20.0061 0.0000 0.0000 0.0000
# 2 35.6104 242.6209 84.3145 0.0000 0.0000 0.0000
# 3 20.0061 84.3145 178.2117 0.0000 0.0000 0.0000
# 4 0.0000 0.0000 0.0000 37.7480 0.0000 0.0000
# 5 0.0000 0.0000 0.0000 0.0000 36.4853 0.0000
# 6 0.0000 0.0000 0.0000 0.0000 0.0000 61.3624
#
#
#
# Elastic Compliance Matrix: (Units=1/GPa)
#
#
# Indices 1 2 3 4 5 6 
#
# 1 0.008356 -0.001078 -0.000428 0.000000 0.000000 0.000000
# 2 -0.001078 0.005072 -0.002278 0.000000 0.000000 0.000000
# 3 -0.000428 -0.002278 0.006737 0.000000 0.000000 0.000000
# 4 0.000000 0.000000 0.000000 0.026491 0.000000 0.000000
# 5 0.000000 0.000000 0.000000 0.000000 0.027408 0.000000
# 6 0.000000 0.000000 0.000000 0.000000 0.000000 0.016297
#
#
# Mechanical properties :
#
#
# Convention : Reuss Voigt Hill
#
# Bulk Modulus (GPa) = 79.38840 91.77643 85.58242
# Shear Modulus (GPa) = 48.95783 54.19879 51.57831
#
# Velocity S-wave (km/s) = 4.18148 4.39961 4.29193
# Velocity P-wave (km/s) = 7.18789 7.65413 7.42467
#
# Compressibility (1/GPa) = 0.01259630
#
# Stress axis : x y z
#
# Youngs Moduli (GPa) = 119.67538 197.17510 148.42608
#
# Poissons Ratio (x) = 0.21248 0.06356
# Poissons Ratio (y) = 0.12897 0.33819
# Poissons Ratio (z) = 0.05125 0.44926
#
# Static dielectric constant tensor:
#      x y z
#    x 2.277350 0.000000 0.000000 
#    y 0.000000 2.327600 0.000000 
#    z 0.000000 0.000000 2.110010 
# 
# From -- ./inp_files/354.got.cif
#   From: 2010.05.17/outbox.cif.g08.bks.cpg/sg18_1_cif.got.tgz:354.got - 2010.06.03 22:40:56.
