data_PCOD9312744
_publ_section_title
;
Structure prediction by ZEFSAII (Michael W. Deem and Ramdas Pophale) SiO2 
 PCOD9312744
Probable space group: P 21 21 2
;
_chemical_formula_sum "Si O2"
_cell_formula_units_Z 20
_cell_length_a 14.100181
_cell_length_b 9.646399
_cell_length_c 6.046866
_cell_angle_alpha 90.000000
_cell_angle_beta 90.000000
_cell_angle_gamma 90.000000
_cell_volume 822.470356
_symmetry_space_group_name_H-M "P 21 21 2"
_symmetry_group_IT_number 18
_symmetry_cell_setting 'orthorhombic'
loop_
_space_group_symop_operation_xyz
x,y,z
-x,-y,z
1/2+x,1/2-y,-z
1/2-x,1/2+y,-z
loop_
_atom_site_type_symbol
_atom_site_label
_atom_site_fract_x
_atom_site_fract_y
_atom_site_fract_z
Si Si1 0.456193 0.745683 0.773063
Si Si2 0.000000 0.000000 0.546553
Si Si3 0.299810 0.039258 0.233948
Si Si4 0.338161 0.589696 0.145628
Si Si5 0.000000 0.500000 0.959694
Si Si6 0.767833 0.705279 0.484096
O O1 0.503139 0.635869 0.608246
O O2 0.367750 0.810407 0.642225
O O3 0.409163 0.661995 0.973219
O O4 0.516030 0.867411 0.882644
O O5 0.908067 0.998312 0.701891
O O6 0.406282 0.988964 0.189415
O O7 0.294887 0.197875 0.322365
O O8 0.247366 0.945575 0.417659
O O9 0.241168 0.020170 0.007358
O O10 0.287264 0.702788 0.298211
#
# Coordination Sequence:
#
# PCOD9312744 Si02
#       6
#     4   2   4   4   2   4
#     4  10  23  48  73 104 151 189 254 306 373 453
#     4  10  22  48  74 104 148 200 252 308 376 450
#     4  11  26  50  76 110 154 201 250 314 378 448
#     4  10  22  49  71 107 152 190 252 314 366 456
#     4  12  26  52  74 110 158 194 250 322 380 440
#     4  10  24  50  72 104 148 198 249 308 373 452
#
# _framework density 24.316986
#
# number of rings (size 3 to 8) (size 9 to 14) (size 15 to 20)
#    0.000    1.600    2.000    0.600    2.800    0.800 
#   28.800    2.000    0.000    0.000    0.000    0.000 
#    0.000    0.000    0.000    0.000    0.000    0.000 
#
# Total GULP energy -111962.254014 kJ/mol
# GULP energy per Si atom -5598.112701 kJ/mol
# Density = 2.426164 g / cm^3
# Si number density = 24.316986 Si / 1000 Ang^3
#
#
#
# Elastic Constant Matrix: (Units=GPa)
#
#
# Indices 1 2 3 4 5 6 
#
# 1 96.6580 41.4964 52.7752 0.0000 0.0000 0.0000
# 2 41.4964 82.4151 40.7503 0.0000 0.0000 0.0000
# 3 52.7752 40.7503 127.3258 0.0000 0.0000 0.0000
# 4 0.0000 0.0000 0.0000 29.5976 0.0000 0.0000
# 5 0.0000 0.0000 0.0000 0.0000 21.2911 0.0000
# 6 0.0000 0.0000 0.0000 0.0000 0.0000 29.0558
#
#
#
# Elastic Compliance Matrix: (Units=1/GPa)
#
#
# Indices 1 2 3 4 5 6 
#
# 1 0.015139 -0.005370 -0.004556 0.000000 0.000000 0.000000
# 2 -0.005370 0.016319 -0.002997 0.000000 0.000000 0.000000
# 3 -0.004556 -0.002997 0.010702 0.000000 0.000000 0.000000
# 4 0.000000 0.000000 0.000000 0.033786 0.000000 0.000000
# 5 0.000000 0.000000 0.000000 0.000000 0.046968 0.000000
# 6 0.000000 0.000000 0.000000 0.000000 0.000000 0.034417
#
#
# Mechanical properties :
#
#
# Convention : Reuss Voigt Hill
#
# Bulk Modulus (GPa) = 61.29951 64.04917 62.67434
# Shear Modulus (GPa) = 26.50903 27.41404 26.96153
#
# Velocity S-wave (km/s) = 3.30532 3.36126 3.33341
# Velocity P-wave (km/s) = 6.31111 6.43899 6.37537
#
# Compressibility (1/GPa) = 0.01631334
#
# Stress axis : x y z
#
# Youngs Moduli (GPa) = 66.05591 61.27702 93.44298
#
# Poissons Ratio (x) = 0.32903 0.42576
# Poissons Ratio (y) = 0.35469 0.28008
# Poissons Ratio (z) = 0.30097 0.18367
#
# Static dielectric constant tensor:
#      x y z
#    x 1.917780 0.000000 0.000000 
#    y 0.000000 1.989940 0.000000 
#    z 0.000000 0.000000 1.936860 
# 
# From -- ./inp_files/558.got.cif
#   From: 2010.05.17/outbox.cif.g08.bks.cpg/sg18_1_cif.got.tgz:558.got - 2010.06.03 22:40:56.
