data_PCOD9312900
_publ_section_title
;
Structure prediction by ZEFSAII (Michael W. Deem and Ramdas Pophale) SiO2 
 PCOD9312900
Probable space group: P 21 21 2
;
_chemical_formula_sum "Si O2"
_cell_formula_units_Z 24
_cell_length_a 9.907980
_cell_length_b 9.565256
_cell_length_c 11.337579
_cell_angle_alpha 90.000000
_cell_angle_beta 90.000000
_cell_angle_gamma 90.000000
_cell_volume 1074.489177
_symmetry_space_group_name_H-M "P 21 21 2"
_symmetry_group_IT_number 18
_symmetry_cell_setting 'orthorhombic'
loop_
_space_group_symop_operation_xyz
x,y,z
-x,-y,z
1/2+x,1/2-y,-z
1/2-x,1/2+y,-z
loop_
_atom_site_type_symbol
_atom_site_label
_atom_site_fract_x
_atom_site_fract_y
_atom_site_fract_z
Si Si1 0.886530 0.117584 0.618100
Si Si2 0.361272 0.977038 0.754083
Si Si3 0.367276 0.093652 0.251651
Si Si4 0.856917 0.240980 0.114967
Si Si5 0.154729 0.214189 0.081204
Si Si6 0.357001 0.419769 0.641693
O O1 0.761196 0.030413 0.667419
O O2 0.909787 0.252695 0.700704
O O3 0.860988 0.159249 0.482530
O O4 0.000000 0.000000 0.618913
O O5 0.362360 0.827687 0.816352
O O6 0.500000 0.000000 0.686566
O O7 0.358105 0.093188 0.856539
O O8 0.264715 0.108746 0.139104
O O9 0.500000 0.000000 0.229185
O O10 0.269536 0.024708 0.349957
O O11 0.842194 0.175917 0.243931
O O12 0.996625 0.180439 0.058593
O O13 0.729685 0.220031 0.030458
O O14 0.500000 0.500000 0.654224
#
# Coordination Sequence:
#
# PCOD9312900 Si02
#       6
#     4   4   4   4   4   4
#     4  10  25  46  69 102 143 184 236 286 351 424
#     4   9  22  43  67  95 133 180 231 284 348 411
#     4  11  26  45  70 106 141 184 240 290 346 419
#     4  11  24  41  70  95 139 182 225 293 348 412
#     4  10  24  44  67 102 136 179 236 286 347 418
#     4  11  25  44  69 100 143 183 231 287 354 414
#
# _framework density 22.336196000000001
#
# number of rings (size 3 to 8) (size 9 to 14) (size 15 to 20)
#    0.000    1.667    1.667    0.000    9.333    4.000 
#    0.000    0.833    0.000    0.000    0.000    0.000 
#    0.000    0.000    0.000    0.000    0.000    0.000 
#
# Total GULP energy -133962.195440 kJ/mol
# GULP energy per Si atom -5581.758143 kJ/mol
# Density = 2.228536 g / cm^3
# Si number density = 22.336196 Si / 1000 Ang^3
#
#
#
# Elastic Constant Matrix: (Units=GPa)
#
#
# Indices 1 2 3 4 5 6 
#
# 1 145.1684 34.4158 47.9244 0.0000 0.0000 0.0000
# 2 34.4158 69.8252 -0.5888 0.0000 0.0000 0.0000
# 3 47.9244 -0.5888 71.6327 0.0000 0.0000 0.0000
# 4 0.0000 0.0000 0.0000 27.0273 0.0000 0.0000
# 5 0.0000 0.0000 0.0000 0.0000 -69.3787 0.0000
# 6 0.0000 0.0000 0.0000 0.0000 0.0000 30.2191
#
#
#
# Elastic Compliance Matrix: (Units=1/GPa)
#
#
# Indices 1 2 3 4 5 6 
#
# 1 0.010444 -0.005207 -0.007030 0.000000 0.000000 0.000000
# 2 -0.005207 0.016918 0.003623 0.000000 0.000000 0.000000
# 3 -0.007030 0.003623 0.018693 0.000000 0.000000 0.000000
# 4 0.000000 0.000000 0.000000 0.037000 0.000000 0.000000
# 5 0.000000 0.000000 0.000000 0.000000 -0.014414 0.000000
# 6 0.000000 0.000000 0.000000 0.000000 0.000000 0.033092
#
#
# Mechanical properties :
#
#
# Convention : Reuss Voigt Hill
#
# Bulk Modulus (GPa) = 34.68988 50.01437 42.35213
# Shear Modulus (GPa) = 38.88916 11.23186 25.06051
#
# Velocity S-wave (km/s) = 4.17715 2.24487 3.35321
# Velocity P-wave (km/s) = 6.23132 5.39996 5.83047
#
# Compressibility (1/GPa) = 0.02882685
#
# Stress axis : x y z
#
# Youngs Moduli (GPa) = 95.75071 59.10721 53.49549
#
# Poissons Ratio (x) = 0.30776 0.37607
# Poissons Ratio (y) = 0.49856 -0.19379
# Poissons Ratio (z) = 0.67313 -0.21412
#
# Static dielectric constant tensor:
#      x y z
#    x 1.818530 0.000000 0.000000 
#    y 0.000000 1.910430 0.000000 
#    z 0.000000 0.000000 1.797330 
# 
# From -- ./inp_files/5518.got.cif
#   From: 2010.05.17/outbox.cif.g08.bks.cpg/sg18_3_cif.got.tgz:5518.got - 2010.06.03 22:40:56.
