data_PCOD9312899
_publ_section_title
;
Structure prediction by ZEFSAII (Michael W. Deem and Ramdas Pophale) SiO2 
 PCOD9312899
Probable space group: P 21 21 2
;
_chemical_formula_sum "Si O2"
_cell_formula_units_Z 20
_cell_length_a 10.304255
_cell_length_b 13.628777
_cell_length_c 5.332421
_cell_angle_alpha 90.000000
_cell_angle_beta 90.000000
_cell_angle_gamma 90.000000
_cell_volume 748.855309
_symmetry_space_group_name_H-M "P 21 21 2"
_symmetry_group_IT_number 18
_symmetry_cell_setting 'orthorhombic'
loop_
_space_group_symop_operation_xyz
x,y,z
-x,-y,z
1/2+x,1/2-y,-z
1/2-x,1/2+y,-z
loop_
_atom_site_type_symbol
_atom_site_label
_atom_site_fract_x
_atom_site_fract_y
_atom_site_fract_z
Si Si1 0.773867 0.216899 0.268724
Si Si2 0.230224 0.475138 0.999896
Si Si3 0.500000 0.500000 0.105775
Si Si4 0.467705 0.719298 0.977650
Si Si5 0.851204 0.344053 0.672332
Si Si6 0.500000 0.000000 0.671392
O O1 0.758737 0.099918 0.229521
O O2 0.678291 0.250118 0.044333
O O3 0.744238 0.281244 0.515118
O O4 0.926253 0.242694 0.235160
O O5 0.198746 0.581092 0.885993
O O6 0.352518 0.476850 0.193870
O O7 0.102393 0.445139 0.150427
O O8 0.470738 0.601490 0.968652
O O9 0.547705 0.766689 0.210913
O O10 0.923964 0.422362 0.494888
#
# Coordination Sequence:
#
# PCOD9312899 Si02
#       6
#     4   4   2   4   4   2
#     4  11  25  43  69  99 133 176 221 278 336 394
#     4  11  25  47  69  99 138 175 222 279 336 397
#     4  10  24  44  66  94 144 180 206 280 352 392
#     4  11  24  44  67 100 137 176 224 276 334 398
#     4  12  25  42  73 102 129 177 233 274 326 401
#     4  12  24  46  72  98 134 180 228 278 330 392
#
# _framework density 26.707426999999999
#
# number of rings (size 3 to 8) (size 9 to 14) (size 15 to 20)
#    0.000    0.800    0.000    7.800    0.000   12.800 
#    0.000    4.000    0.000    0.000    0.000    0.000 
#    0.000    0.000    0.000    0.000    0.000    0.000 
#
# Total GULP energy -111515.496134 kJ/mol
# GULP energy per Si atom -5575.774807 kJ/mol
# Density = 2.664664 g / cm^3
# Si number density = 26.707427 Si / 1000 Ang^3
#
#
#
# Elastic Constant Matrix: (Units=GPa)
#
#
# Indices 1 2 3 4 5 6 
#
# 1 139.2937 6.4991 5.1121 0.0000 0.0000 0.0000
# 2 6.4991 138.8935 13.5237 0.0000 0.0000 0.0000
# 3 5.1121 13.5237 77.8635 0.0000 0.0000 0.0000
# 4 0.0000 0.0000 0.0000 -532.4041 0.0000 0.0000
# 5 0.0000 0.0000 0.0000 0.0000 16.9097 0.0000
# 6 0.0000 0.0000 0.0000 0.0000 0.0000 38.8993
#
#
#
# Elastic Compliance Matrix: (Units=1/GPa)
#
#
# Indices 1 2 3 4 5 6 
#
# 1 0.007208 -0.000296 -0.000422 0.000000 0.000000 0.000000
# 2 -0.000296 0.007336 -0.001255 0.000000 0.000000 0.000000
# 3 -0.000422 -0.001255 0.013089 0.000000 0.000000 0.000000
# 4 0.000000 0.000000 0.000000 -0.001878 0.000000 0.000000
# 5 0.000000 0.000000 0.000000 0.000000 0.059138 0.000000
# 6 0.000000 0.000000 0.000000 0.000000 0.000000 0.025707
#
#
# Mechanical properties :
#
#
# Convention : Reuss Voigt Hill
#
# Bulk Modulus (GPa) = 42.21660 45.14670 43.68165
# Shear Modulus (GPa) = 40.83614 -73.25793 -16.21090
#
# Velocity S-wave (km/s) = 3.91451 -5.24303 -2.46637
# Velocity P-wave (km/s) = 6.02267 4.43977 2.87758
#
# Compressibility (1/GPa) = 0.02368736
#
# Stress axis : x y z
#
# Youngs Moduli (GPa) = 138.72753 136.31802 76.40242
#
# Poissons Ratio (x) = 0.04038 0.03223
# Poissons Ratio (y) = 0.04109 0.09586
# Poissons Ratio (z) = 0.05852 0.17103
#
# Static dielectric constant tensor:
#      x y z
#    x 2.430990 0.000000 0.000000 
#    y 0.000000 2.038530 0.000000 
#    z 0.000000 0.000000 2.092260 
# 
# From -- ./inp_files/1000.got.cif
#   From: 2010.05.17/outbox.cif.g08.bks.cpg/sg18_1_cif.got.tgz:1000.got - 2010.06.03 22:40:56.
