data_PCOD9312362
_publ_section_title
;
Structure prediction by ZEFSAII (Michael W. Deem and Ramdas Pophale) SiO2 
 PCOD9312362
Probable space group: P 21 21 2
;
_chemical_formula_sum "Si O2"
_cell_formula_units_Z 24
_cell_length_a 8.234642
_cell_length_b 14.163517
_cell_length_c 8.157732
_cell_angle_alpha 90.000000
_cell_angle_beta 90.000000
_cell_angle_gamma 90.000000
_cell_volume 951.448454
_symmetry_space_group_name_H-M "P 21 21 2"
_symmetry_group_IT_number 18
_symmetry_cell_setting 'orthorhombic'
loop_
_space_group_symop_operation_xyz
x,y,z
-x,-y,z
1/2+x,1/2-y,-z
1/2-x,1/2+y,-z
loop_
_atom_site_type_symbol
_atom_site_label
_atom_site_fract_x
_atom_site_fract_y
_atom_site_fract_z
Si Si1 0.310562 0.527456 0.268272
Si Si2 0.897646 0.800491 0.906460
Si Si3 0.195381 0.320036 0.585647
Si Si4 0.729076 0.140658 0.906245
Si Si5 0.812585 0.016938 0.212522
Si Si6 0.323733 0.140805 0.426385
O O1 0.500000 0.500000 0.284344
O O2 0.306415 0.599682 0.113075
O O3 0.254749 0.583700 0.424872
O O4 0.205489 0.433848 0.238416
O O5 0.830506 0.742415 0.750838
O O6 0.876662 0.732862 0.062502
O O7 0.087068 0.822007 0.892450
O O8 0.308535 0.407642 0.635811
O O9 0.261759 0.248556 0.447868
O O10 0.015970 0.357669 0.552622
O O11 0.724175 0.073296 0.067116
O O12 0.728395 0.919767 0.268368
O O13 0.000000 0.000000 0.169196
#
# Coordination Sequence:
#
# PCOD9312362 Si02
#       6
#     4   4   4   4   4   4
#     4   9  19  39  63  89 123 164 206 255 312 374
#     4   9  20  39  61  89 123 159 205 253 308 376
#     4  10  23  40  63  93 128 168 210 260 312 369
#     4  10  21  40  65  91 122 163 205 256 316 372
#     4  11  22  39  64  94 127 165 210 258 312 374
#     4  11  22  41  64  90 126 165 209 260 314 373
#
# _framework density 25.224699999999999
#
# number of rings (size 3 to 8) (size 9 to 14) (size 15 to 20)
#    0.000    2.000    0.000    3.500    0.000    5.333 
#    0.000   12.500    0.000    0.000    0.000    0.000 
#    0.000    0.000    0.000    0.000    0.000    0.000 
#
# Total GULP energy -134370.503799 kJ/mol
# GULP energy per Si atom -5598.770992 kJ/mol
# Density = 2.516729 g / cm^3
# Si number density = 25.224700 Si / 1000 Ang^3
#
#
#
# Elastic Constant Matrix: (Units=GPa)
#
#
# Indices 1 2 3 4 5 6 
#
# 1 30.3873 16.9131 4.4400 0.0000 0.0000 0.0000
# 2 16.9131 127.9345 27.4404 0.0000 0.0000 0.0000
# 3 4.4400 27.4404 51.8669 0.0000 0.0000 0.0000
# 4 0.0000 0.0000 0.0000 25.7646 0.0000 0.0000
# 5 0.0000 0.0000 0.0000 0.0000-2935.3873 0.0000
# 6 0.0000 0.0000 0.0000 0.0000 0.0000 46.3012
#
#
#
# Elastic Compliance Matrix: (Units=1/GPa)
#
#
# Indices 1 2 3 4 5 6 
#
# 1 0.035540 -0.004564 -0.000628 0.000000 0.000000 0.000000
# 2 -0.004564 0.009403 -0.004584 0.000000 0.000000 0.000000
# 3 -0.000628 -0.004584 0.021759 0.000000 0.000000 0.000000
# 4 0.000000 0.000000 0.000000 0.038813 0.000000 0.000000
# 5 0.000000 0.000000 0.000000 0.000000 -0.000341 0.000000
# 6 0.000000 0.000000 0.000000 0.000000 0.000000 0.021598
#
#
# Mechanical properties :
#
#
# Convention : Reuss Voigt Hill
#
# Bulk Modulus (GPa) = 21.20847 34.19731 27.70289
# Shear Modulus (GPa) = 30.85638 -561.90463 -265.52413
#
# Velocity S-wave (km/s) = 3.50131 -14.94133 -10.27093
# Velocity P-wave (km/s) = 4.97711 16.85441 11.38639
#
# Compressibility (1/GPa) = 0.04715098
#
# Stress axis : x y z
#
# Youngs Moduli (GPa) = 28.13701 106.34825 45.95779
#
# Poissons Ratio (x) = 0.48535 0.02886
# Poissons Ratio (y) = 0.12841 0.21067
# Poissons Ratio (z) = 0.01767 0.48751
#
# Static dielectric constant tensor:
#      x y z
#    x 1.891390 0.000000 0.000000 
#    y 0.000000 2.235440 0.000000 
#    z 0.000000 0.000000 2.087670 
# 
# From -- ./inp_files/3139.got.cif
#   From: 2010.05.17/outbox.cif.g08.bks.cpg/sg18_2_cif.got.tgz:3139.got - 2010.06.03 22:40:56.
