data_PCOD9312093
_publ_section_title
;
Structure prediction by ZEFSAII (Michael W. Deem and Ramdas Pophale) SiO2 
 PCOD9312093
Probable space group: P 21 21 2
;
_chemical_formula_sum "Si O2"
_cell_formula_units_Z 26
_cell_length_a 24.740135
_cell_length_b 8.202832
_cell_length_c 5.425568
_cell_angle_alpha 90.000000
_cell_angle_beta 90.000000
_cell_angle_gamma 90.000000
_cell_volume 1101.060272
_symmetry_space_group_name_H-M "P 21 21 2"
_symmetry_group_IT_number 18
_symmetry_cell_setting 'orthorhombic'
loop_
_space_group_symop_operation_xyz
x,y,z
-x,-y,z
1/2+x,1/2-y,-z
1/2-x,1/2+y,-z
loop_
_atom_site_type_symbol
_atom_site_label
_atom_site_fract_x
_atom_site_fract_y
_atom_site_fract_z
Si Si1 0.829415 0.088191 0.966440
Si Si2 0.884350 0.026169 0.467930
Si Si3 0.562424 0.940956 0.345302
Si Si4 0.000000 0.000000 0.265512
Si Si5 0.339429 0.837175 0.508615
Si Si6 0.214271 0.284909 0.989746
Si Si7 0.036762 0.663314 0.154769
O O1 0.865481 0.105620 0.722580
O O2 0.777818 0.204652 0.961795
O O3 0.863045 0.107984 0.216560
O O4 0.806226 0.901836 0.975625
O O5 0.853731 0.852416 0.477492
O O6 0.946950 0.981233 0.431110
O O7 0.560740 0.815838 0.571692
O O8 0.500000 0.000000 0.320471
O O9 0.605257 0.072324 0.437350
O O10 0.575064 0.878505 0.072530
O O11 0.994257 0.166804 0.107717
O O12 0.315086 0.874054 0.778563
O O13 0.299391 0.862813 0.277072
O O14 0.000000 0.500000 0.179724
#
# Coordination Sequence:
#
# PCOD9312093 Si02
#       7
#     4   4   4   2   4   4   4
#     4  10  22  43  64  96 130 167 227 280 333 406
#     4  10  23  40  67  96 132 176 222 269 337 414
#     4  10  20  38  61  93 133 164 218 271 313 393
#     4  12  26  46  70  98 144 188 220 280 346 402
#     4  10  20  39  67  93 123 180 218 263 342 404
#     4  10  21  40  67  91 125 170 218 280 339 391
#     4  10  23  40  63  92 133 180 221 270 319 397
#
# _framework density 23.613602
#
# number of rings (size 3 to 8) (size 9 to 14) (size 15 to 20)
#    0.000    1.846    0.000    3.692    0.000    9.846 
#    8.308    0.000    0.000    0.000    0.000    0.000 
#    0.000    0.000    0.000    0.000    0.000    0.000 
#
# Total GULP energy -145277.137248 kJ/mol
# GULP energy per Si atom -5587.582202 kJ/mol
# Density = 2.355986 g / cm^3
# Si number density = 23.613602 Si / 1000 Ang^3
#
#
#
# Elastic Constant Matrix: (Units=GPa)
#
#
# Indices 1 2 3 4 5 6 
#
# 1 117.0203 -6.2746 54.5943 0.0000 0.0000 0.0000
# 2 -6.2746 55.5427 23.1457 0.0000 0.0000 0.0000
# 3 54.5943 23.1457 190.1692 0.0000 0.0000 0.0000
# 4 0.0000 0.0000 0.0000 -14.0174 0.0000 0.0000
# 5 0.0000 0.0000 0.0000 0.0000 33.0293 0.0000
# 6 0.0000 0.0000 0.0000 0.0000 0.0000 44.0085
#
#
#
# Elastic Compliance Matrix: (Units=1/GPa)
#
#
# Indices 1 2 3 4 5 6 
#
# 1 0.010185 0.002496 -0.003228 0.000000 0.000000 0.000000
# 2 0.002496 0.019578 -0.003099 0.000000 0.000000 0.000000
# 3 -0.003228 -0.003099 0.006562 0.000000 0.000000 0.000000
# 4 0.000000 0.000000 0.000000 -0.071340 0.000000 0.000000
# 5 0.000000 0.000000 0.000000 0.000000 0.030276 0.000000
# 6 0.000000 0.000000 0.000000 0.000000 0.000000 0.022723
#
#
# Mechanical properties :
#
#
# Convention : Reuss Voigt Hill
#
# Bulk Modulus (GPa) = 34.88888 56.18479 45.53684
# Shear Modulus (GPa) = 142.04111 32.02186 87.03148
#
# Velocity S-wave (km/s) = 7.76420 3.68649 6.07754
# Velocity P-wave (km/s) = 9.75623 6.47807 8.28098
#
# Compressibility (1/GPa) = 0.02866243
#
# Stress axis : x y z
#
# Youngs Moduli (GPa) = 98.18167 51.07874 152.38508
#
# Poissons Ratio (x) = -0.12748 0.49186
# Poissons Ratio (y) = -0.24503 0.47228
# Poissons Ratio (z) = 0.31691 0.15831
#
# Static dielectric constant tensor:
#      x y z
#    x 1.963890 0.000000 0.000000 
#    y 0.000000 1.994210 0.000000 
#    z 0.000000 0.000000 1.907700 
# 
# From -- ./inp_files/2214.got.cif
#   From: 2010.05.17/outbox.cif.g08.bks.cpg/sg18_2_cif.got.tgz:2214.got - 2010.06.03 22:40:56.
