data_PCOD9312993
_publ_section_title
;
Structure prediction by ZEFSAII (Michael W. Deem and Ramdas Pophale) SiO2 
 PCOD9312993
Probable space group: P 21 21 2
;
_chemical_formula_sum "Si O2"
_cell_formula_units_Z 18
_cell_length_a 9.282037
_cell_length_b 4.802411
_cell_length_c 16.774906
_cell_angle_alpha 90.000000
_cell_angle_beta 90.000000
_cell_angle_gamma 90.000000
_cell_volume 747.760837
_symmetry_space_group_name_H-M "P 21 21 2"
_symmetry_group_IT_number 18
_symmetry_cell_setting 'orthorhombic'
loop_
_space_group_symop_operation_xyz
x,y,z
-x,-y,z
1/2+x,1/2-y,-z
1/2-x,1/2+y,-z
loop_
_atom_site_type_symbol
_atom_site_label
_atom_site_fract_x
_atom_site_fract_y
_atom_site_fract_z
Si Si1 0.407260 0.745578 0.312241
Si Si2 0.649272 0.668825 0.787280
Si Si3 0.733935 0.100082 0.554278
Si Si4 0.500000 0.000000 0.664649
Si Si5 0.161984 0.902354 0.028955
O O1 0.500000 0.500000 0.270165
O O2 0.301635 0.911197 0.250399
O O3 0.333510 0.574290 0.384675
O O4 0.500000 0.000000 0.345126
O O5 0.500000 0.500000 0.774268
O O6 0.657625 0.715170 0.880990
O O7 0.621283 0.924027 0.728668
O O8 0.700049 0.867935 0.487569
O O9 0.590870 0.190611 0.603699
O O10 0.231271 0.665702 0.974162
O O11 0.000000 0.000000 0.007801
#
# Coordination Sequence:
#
# PCOD9312993 Si02
#       5
#     4   4   4   2   4
#     4  11  26  45  68 101 140 184 234 300 364 419
#     4  10  26  46  76  99 146 192 247 283 362 448
#     4  11  26  43  66  98 137 182 236 298 354 425
#     4  10  26  44  72  96 140 194 246 284 364 434
#     4  11  26  47  76 111 151 192 243 303 368 437
#
# _framework density 24.071867000000001
#
# number of rings (size 3 to 8) (size 9 to 14) (size 15 to 20)
#    0.000    1.333    0.000    2.000   23.333    2.667 
#    0.000    0.000    0.000    0.000    0.000    0.000 
#    0.000    0.000    0.000    0.000    0.000    0.000 
#
# Total GULP energy -100292.801517 kJ/mol
# GULP energy per Si atom -5571.822307 kJ/mol
# Density = 2.401708 g / cm^3
# Si number density = 24.071867 Si / 1000 Ang^3
#
#
#
# Elastic Constant Matrix: (Units=GPa)
#
#
# Indices 1 2 3 4 5 6 
#
# 1 90.8415 19.8266 55.5277 0.0000 0.0000 0.0000
# 2 19.8266 94.2704 29.4202 0.0000 0.0000 0.0000
# 3 55.5277 29.4202 91.0715 0.0000 0.0000 0.0000
# 4 0.0000 0.0000 0.0000 20.6629 0.0000 0.0000
# 5 0.0000 0.0000 0.0000 0.0000 29.1231 0.0000
# 6 0.0000 0.0000 0.0000 0.0000 0.0000 37.3661
#
#
#
# Elastic Compliance Matrix: (Units=1/GPa)
#
#
# Indices 1 2 3 4 5 6 
#
# 1 0.017561 -0.000391 -0.010581 0.000000 0.000000 0.000000
# 2 -0.000391 0.011806 -0.003575 0.000000 0.000000 0.000000
# 3 -0.010581 -0.003575 0.018587 0.000000 0.000000 0.000000
# 4 0.000000 0.000000 0.000000 0.048396 0.000000 0.000000
# 5 0.000000 0.000000 0.000000 0.000000 0.034337 0.000000
# 6 0.000000 0.000000 0.000000 0.000000 0.000000 0.026762
#
#
# Mechanical properties :
#
#
# Convention : Reuss Voigt Hill
#
# Bulk Modulus (GPa) = 53.02550 53.97027 53.49788
# Shear Modulus (GPa) = 25.92953 28.85770 27.39362
#
# Velocity S-wave (km/s) = 3.28559 3.46615 3.37707
# Velocity P-wave (km/s) = 6.03898 6.20387 6.12198
#
# Compressibility (1/GPa) = 0.01885885
#
# Stress axis : x y z
#
# Youngs Moduli (GPa) = 56.94332 84.70373 53.80174
#
# Poissons Ratio (x) = 0.03314 0.56928
# Poissons Ratio (y) = 0.02228 0.19235
# Poissons Ratio (z) = 0.60252 0.30284
#
# Static dielectric constant tensor:
#      x y z
#    x 2.010640 0.000000 0.000000 
#    y 0.000000 2.095980 0.000000 
#    z 0.000000 0.000000 1.905340 
# 
# From -- ./inp_files/7255.got.cif
#   From: 2010.05.17/outbox.cif.g08.bks.cpg/sg18_4_cif.got.tgz:7255.got - 2010.06.03 22:40:56.
