data_PCOD9312306
_publ_section_title
;
Structure prediction by ZEFSAII (Michael W. Deem and Ramdas Pophale) SiO2 
 PCOD9312306
Probable space group: P 21 21 2
;
_chemical_formula_sum "Si O2"
_cell_formula_units_Z 18
_cell_length_a 8.098515
_cell_length_b 9.325563
_cell_length_c 9.697380
_cell_angle_alpha 90.000000
_cell_angle_beta 90.000000
_cell_angle_gamma 90.000000
_cell_volume 732.377284
_symmetry_space_group_name_H-M "P 21 21 2"
_symmetry_group_IT_number 18
_symmetry_cell_setting 'orthorhombic'
loop_
_space_group_symop_operation_xyz
x,y,z
-x,-y,z
1/2+x,1/2-y,-z
1/2-x,1/2+y,-z
loop_
_atom_site_type_symbol
_atom_site_label
_atom_site_fract_x
_atom_site_fract_y
_atom_site_fract_z
Si Si1 0.500000 0.000000 0.646809
Si Si2 0.733705 0.968649 0.394187
Si Si3 0.947542 0.190421 0.280138
Si Si4 0.095137 0.680637 0.867802
Si Si5 0.241684 0.908749 0.023133
O O1 0.346739 0.023732 0.542655
O O2 0.490286 0.144015 0.733446
O O3 0.615595 0.888117 0.283722
O O4 0.900640 0.879244 0.364070
O O5 0.785156 0.132862 0.359704
O O6 0.904349 0.128071 0.130613
O O7 0.206835 0.574358 0.964115
O O8 0.908898 0.667217 0.920892
O O9 0.173788 0.837637 0.884014
#
# Coordination Sequence:
#
# PCOD9312306 Si02
#       5
#     2   4   4   4   4
#     4  12  22  38  60  84 112 152 202 250 294 352
#     4  10  21  39  59  83 117 157 195 242 304 353
#     4  10  22  38  59  86 117 153 198 247 296 354
#     4  10  21  38  62  87 122 159 195 241 295 359
#     4  10  21  38  59  89 120 156 197 241 296 355
#
# _framework density 24.577497000000001
#
# number of rings (size 3 to 8) (size 9 to 14) (size 15 to 20)
#    0.000    1.778    0.000    5.333    0.000    6.222 
#    0.000    0.000    0.000    0.000    0.000    0.000 
#    0.000    0.000    0.000    0.000    0.000    0.000 
#
# Total GULP energy -100488.890188 kJ/mol
# GULP energy per Si atom -5582.716122 kJ/mol
# Density = 2.452156 g / cm^3
# Si number density = 24.577497 Si / 1000 Ang^3
#
#
#
# Elastic Constant Matrix: (Units=GPa)
#
#
# Indices 1 2 3 4 5 6 
#
# 1 118.9993 27.5270 32.5060 0.0000 0.0000 0.0000
# 2 27.5270 127.2507 11.3191 0.0000 0.0000 0.0000
# 3 32.5060 11.3191 58.6914 0.0000 0.0000 0.0000
# 4 0.0000 0.0000 0.0000 22.9539 0.0000 0.0000
# 5 0.0000 0.0000 0.0000 0.0000 31.3598 0.0000
# 6 0.0000 0.0000 0.0000 0.0000 0.0000 39.2488
#
#
#
# Elastic Compliance Matrix: (Units=1/GPa)
#
#
# Indices 1 2 3 4 5 6 
#
# 1 0.010269 -0.001745 -0.005351 0.000000 0.000000 0.000000
# 2 -0.001745 0.008292 -0.000633 0.000000 0.000000 0.000000
# 3 -0.005351 -0.000633 0.020124 0.000000 0.000000 0.000000
# 4 0.000000 0.000000 0.000000 0.043566 0.000000 0.000000
# 5 0.000000 0.000000 0.000000 0.000000 0.031888 0.000000
# 6 0.000000 0.000000 0.000000 0.000000 0.000000 0.025478
#
#
# Mechanical properties :
#
#
# Convention : Reuss Voigt Hill
#
# Bulk Modulus (GPa) = 43.05240 49.73840 46.39540
# Shear Modulus (GPa) = 30.70938 34.28512 32.49725
#
# Velocity S-wave (km/s) = 3.53865 3.73900 3.64020
# Velocity P-wave (km/s) = 5.85244 6.23870 6.04866
#
# Compressibility (1/GPa) = 0.02322751
#
# Stress axis : x y z
#
# Youngs Moduli (GPa) = 97.38276 120.59333 49.69256
#
# Poissons Ratio (x) = 0.21048 0.26589
# Poissons Ratio (y) = 0.16997 0.03143
# Poissons Ratio (z) = 0.52107 0.07628
#
# Static dielectric constant tensor:
#      x y z
#    x 2.052910 0.000000 0.000000 
#    y 0.000000 2.040960 0.000000 
#    z 0.000000 0.000000 1.996750 
# 
# From -- ./inp_files/5383.got.cif
#   From: 2010.05.17/outbox.cif.g08.bks.cpg/sg18_3_cif.got.tgz:5383.got - 2010.06.03 22:40:56.
