data_PCOD9312403
_publ_section_title
;
Structure prediction by ZEFSAII (Michael W. Deem and Ramdas Pophale) SiO2 
 PCOD9312403
Probable space group: P 21 21 2
;
_chemical_formula_sum "Si O2"
_cell_formula_units_Z 22
_cell_length_a 5.207661
_cell_length_b 12.886248
_cell_length_c 15.951810
_cell_angle_alpha 90.000000
_cell_angle_beta 90.000000
_cell_angle_gamma 90.000000
_cell_volume 1070.481482
_symmetry_space_group_name_H-M "P 21 21 2"
_symmetry_group_IT_number 18
_symmetry_cell_setting 'orthorhombic'
loop_
_space_group_symop_operation_xyz
x,y,z
-x,-y,z
1/2+x,1/2-y,-z
1/2-x,1/2+y,-z
loop_
_atom_site_type_symbol
_atom_site_label
_atom_site_fract_x
_atom_site_fract_y
_atom_site_fract_z
Si Si1 0.466129 0.731802 0.296351
Si Si2 0.809162 0.578657 0.498109
Si Si3 0.938499 0.884271 0.023934
Si Si4 0.500000 0.500000 0.346466
Si Si5 0.438462 0.801570 0.106992
Si Si6 0.534568 0.279844 0.595664
O O1 0.475511 0.605998 0.295231
O O2 0.479945 0.778148 0.203982
O O3 0.199116 0.759368 0.340836
O O4 0.701125 0.774472 0.352843
O O5 0.729068 0.522540 0.411777
O O6 0.554812 0.617319 0.546419
O O7 0.000000 0.500000 0.544392
O O8 0.949106 0.685493 0.471117
O O9 0.663953 0.872233 0.068524
O O10 0.161256 0.850259 0.088397
O O11 0.949205 0.805069 0.946312
O O12 0.000000 0.000000 0.996068
#
# Coordination Sequence:
#
# PCOD9312403 Si02
#       6
#     4   4   4   2   4   4
#     4  11  23  41  60  96 128 163 204 279 322 365
#     4  11  22  41  62  90 120 171 217 265 317 396
#     4  10  21  41  68  96 125 179 207 245 313 391
#     4  10  22  36  64  90 122 160 216 270 334 356
#     4  10  22  40  66  97 133 162 214 260 311 381
#     4  11  24  39  62  89 127 163 211 265 324 370
#
# _framework density 20.551501999999999
#
# number of rings (size 3 to 8) (size 9 to 14) (size 15 to 20)
#    0.000    1.455    1.818    3.818    3.818    0.000 
#    0.000    3.636    2.000    0.000    0.000    0.000 
#    0.000    0.000    0.000    0.000    0.000    0.000 
#
# Total GULP energy -122987.930717 kJ/mol
# GULP energy per Si atom -5590.360487 kJ/mol
# Density = 2.050473 g / cm^3
# Si number density = 20.551502 Si / 1000 Ang^3
#
#
#
# Elastic Constant Matrix: (Units=GPa)
#
#
# Indices 1 2 3 4 5 6 
#
# 1 107.3372 8.8714 23.5136 0.0000 0.0000 0.0000
# 2 8.8714 60.5278 -11.1768 0.0000 0.0000 0.0000
# 3 23.5136 -11.1768 69.3300 0.0000 0.0000 0.0000
# 4 0.0000 0.0000 0.0000 5.7517 0.0000 0.0000
# 5 0.0000 0.0000 0.0000 0.0000 22.6452 0.0000
# 6 0.0000 0.0000 0.0000 0.0000 0.0000 36.5184
#
#
#
# Elastic Compliance Matrix: (Units=1/GPa)
#
#
# Indices 1 2 3 4 5 6 
#
# 1 0.010349 -0.002231 -0.003869 0.000000 0.000000 0.000000
# 2 -0.002231 0.017509 0.003579 0.000000 0.000000 0.000000
# 3 -0.003869 0.003579 0.016313 0.000000 0.000000 0.000000
# 4 0.000000 0.000000 0.000000 0.173863 0.000000 0.000000
# 5 0.000000 0.000000 0.000000 0.000000 0.044159 0.000000
# 6 0.000000 0.000000 0.000000 0.000000 0.000000 0.027383
#
#
# Mechanical properties :
#
#
# Convention : Reuss Voigt Hill
#
# Bulk Modulus (GPa) = 25.55684 31.06794 28.31239
# Shear Modulus (GPa) = 16.25160 27.38217 21.81689
#
# Velocity S-wave (km/s) = 2.81512 3.65412 3.26171
# Velocity P-wave (km/s) = 4.79886 5.74051 5.29067
#
# Compressibility (1/GPa) = 0.03912846
#
# Stress axis : x y z
#
# Youngs Moduli (GPa) = 96.63235 57.11242 61.30018
#
# Poissons Ratio (x) = 0.12743 0.23720
# Poissons Ratio (y) = 0.21561 -0.21942
# Poissons Ratio (z) = 0.37391 -0.20443
#
# Static dielectric constant tensor:
#      x y z
#    x 1.758590 0.000000 0.000000 
#    y 0.000000 1.762760 0.000000 
#    z 0.000000 0.000000 1.678670 
# 
# From -- ./inp_files/6440.got.cif
#   From: 2010.05.17/outbox.cif.g08.bks.cpg/sg18_4_cif.got.tgz:6440.got - 2010.06.03 22:40:56.
