data_PCOD9312957
_publ_section_title
;
Structure prediction by ZEFSAII (Michael W. Deem and Ramdas Pophale) SiO2 
 PCOD9312957
Probable space group: P 21 21 2
;
_chemical_formula_sum "Si O2"
_cell_formula_units_Z 18
_cell_length_a 8.733790
_cell_length_b 9.177329
_cell_length_c 11.029346
_cell_angle_alpha 90.000000
_cell_angle_beta 90.000000
_cell_angle_gamma 90.000000
_cell_volume 884.033673
_symmetry_space_group_name_H-M "P 21 21 2"
_symmetry_group_IT_number 18
_symmetry_cell_setting 'orthorhombic'
loop_
_space_group_symop_operation_xyz
x,y,z
-x,-y,z
1/2+x,1/2-y,-z
1/2-x,1/2+y,-z
loop_
_atom_site_type_symbol
_atom_site_label
_atom_site_fract_x
_atom_site_fract_y
_atom_site_fract_z
Si Si1 0.872865 0.296051 0.757249
Si Si2 0.000000 0.500000 0.557657
Si Si3 0.173277 0.172088 0.859497
Si Si4 0.671619 0.025461 0.678953
Si Si5 0.324494 0.477337 0.906722
O O1 0.961988 0.363590 0.642500
O O2 0.750514 0.174699 0.718681
O O3 0.786999 0.428976 0.821644
O O4 0.999390 0.225243 0.844938
O O5 0.858634 0.523953 0.465107
O O6 0.273718 0.310453 0.898452
O O7 0.227096 0.104782 0.732055
O O8 0.189639 0.046949 0.959857
O O9 0.500000 0.000000 0.731423
O O10 0.500000 0.500000 0.868084
#
# Coordination Sequence:
#
# PCOD9312957 Si02
#       5
#     4   2   4   4   4
#     4  12  24  48  68 103 143 185 237 290 355 422
#     4  10  26  44  70 104 136 192 234 300 342 422
#     4  12  24  45  70 107 138 186 229 298 353 429
#     4  10  25  43  71  98 139 178 244 277 353 407
#     4  12  25  41  71 100 144 179 234 286 365 423
#
# _framework density 20.361215999999999
#
# number of rings (size 3 to 8) (size 9 to 14) (size 15 to 20)
#    0.667    0.000    2.222    6.000    3.111    1.778 
#    0.000    0.000    0.000    0.000    0.000    0.000 
#    0.000    0.000    0.000    0.000    0.000    0.000 
#
# Total GULP energy -100630.658259 kJ/mol
# GULP energy per Si atom -5590.592126 kJ/mol
# Density = 2.031487 g / cm^3
# Si number density = 20.361216 Si / 1000 Ang^3
#
#
#
# Elastic Constant Matrix: (Units=GPa)
#
#
# Indices 1 2 3 4 5 6 
#
# 1 84.9058 34.6999 24.6517 0.0000 0.0000 0.0000
# 2 34.6999 125.4336 40.0717 0.0000 0.0000 0.0000
# 3 24.6517 40.0717 96.3704 0.0000 0.0000 0.0000
# 4 0.0000 0.0000 0.0000 37.0601 0.0000 0.0000
# 5 0.0000 0.0000 0.0000 0.0000 39.4095 0.0000
# 6 0.0000 0.0000 0.0000 0.0000 0.0000 55.1207
#
#
#
# Elastic Compliance Matrix: (Units=1/GPa)
#
#
# Indices 1 2 3 4 5 6 
#
# 1 0.013679 -0.003075 -0.002221 0.000000 0.000000 0.000000
# 2 -0.003075 0.009885 -0.003324 0.000000 0.000000 0.000000
# 3 -0.002221 -0.003324 0.012327 0.000000 0.000000 0.000000
# 4 0.000000 0.000000 0.000000 0.026983 0.000000 0.000000
# 5 0.000000 0.000000 0.000000 0.000000 0.025375 0.000000
# 6 0.000000 0.000000 0.000000 0.000000 0.000000 0.018142
#
#
# Mechanical properties :
#
#
# Convention : Reuss Voigt Hill
#
# Bulk Modulus (GPa) = 53.61222 56.17294 54.89258
# Shear Modulus (GPa) = 38.50718 40.13714 39.32216
#
# Velocity S-wave (km/s) = 4.35351 4.44470 4.39934
# Velocity P-wave (km/s) = 7.18738 7.34769 7.26798
#
# Compressibility (1/GPa) = 0.01865246
#
# Stress axis : x y z
#
# Youngs Moduli (GPa) = 73.10410 101.16605 81.12492
#
# Poissons Ratio (x) = 0.31106 0.18015
# Poissons Ratio (y) = 0.22478 0.26963
# Poissons Ratio (z) = 0.16234 0.33624
#
# Static dielectric constant tensor:
#      x y z
#    x 1.720650 0.000000 0.000000 
#    y 0.000000 1.692240 0.000000 
#    z 0.000000 0.000000 1.730290 
# 
# From -- ./inp_files/5378.got.cif
#   From: 2010.05.17/outbox.cif.g08.bks.cpg/sg18_3_cif.got.tgz:5378.got - 2010.06.03 22:40:56.
