data_PCOD9312567
_publ_section_title
;
Structure prediction by ZEFSAII (Michael W. Deem and Ramdas Pophale) SiO2 
 PCOD9312567
Probable space group: P 21 21 2
;
_chemical_formula_sum "Si O2"
_cell_formula_units_Z 18
_cell_length_a 16.833429
_cell_length_b 5.038458
_cell_length_c 9.998867
_cell_angle_alpha 90.000000
_cell_angle_beta 90.000000
_cell_angle_gamma 90.000000
_cell_volume 848.049155
_symmetry_space_group_name_H-M "P 21 21 2"
_symmetry_group_IT_number 18
_symmetry_cell_setting 'orthorhombic'
loop_
_space_group_symop_operation_xyz
x,y,z
-x,-y,z
1/2+x,1/2-y,-z
1/2-x,1/2+y,-z
loop_
_atom_site_type_symbol
_atom_site_label
_atom_site_fract_x
_atom_site_fract_y
_atom_site_fract_z
Si Si1 0.642457 0.799846 0.486741
Si Si2 0.205707 0.361942 0.965486
Si Si3 0.703482 0.298802 0.340862
Si Si4 0.551681 0.262453 0.866147
Si Si5 0.500000 0.500000 0.606865
O O1 0.675277 0.594649 0.375290
O O2 0.705010 0.773771 0.609789
O O3 0.555193 0.701951 0.526570
O O4 0.651863 0.095138 0.430310
O O5 0.194238 0.282831 0.811911
O O6 0.223294 0.672536 0.982773
O O7 0.132417 0.282481 0.057991
O O8 0.500000 0.500000 0.928710
O O9 0.558463 0.346048 0.710415
O O10 0.500000 0.000000 0.870704
#
# Coordination Sequence:
#
# PCOD9312567 Si02
#       5
#     4   4   4   4   2
#     4  10  22  40  64  89 129 163 211 263 313 385
#     4  12  24  42  71  97 127 175 218 268 329 391
#     4  10  23  41  61  95 126 165 210 263 318 378
#     4  10  24  41  63  98 130 167 214 274 319 388
#     4  10  24  40  70  92 124 172 218 258 330 382
#
# _framework density 21.225185
#
# number of rings (size 3 to 8) (size 9 to 14) (size 15 to 20)
#    0.667    0.889    0.000    4.000    6.222    1.778 
#    6.000    0.000    0.000    0.000    0.000    0.000 
#    0.000    0.000    0.000    0.000    0.000    0.000 
#
# Total GULP energy -100627.113269 kJ/mol
# GULP energy per Si atom -5590.395182 kJ/mol
# Density = 2.117688 g / cm^3
# Si number density = 21.225185 Si / 1000 Ang^3
#
#
#
# Elastic Constant Matrix: (Units=GPa)
#
#
# Indices 1 2 3 4 5 6 
#
# 1 55.3033 -11.9763 8.0333 0.0000 0.0000 0.0000
# 2 -11.9763 77.4583 -15.6795 0.0000 0.0000 0.0000
# 3 8.0333 -15.6795 81.3515 0.0000 0.0000 0.0000
# 4 0.0000 0.0000 0.0000 30.7031 0.0000 0.0000
# 5 0.0000 0.0000 0.0000 0.0000 30.5054 0.0000
# 6 0.0000 0.0000 0.0000 0.0000 0.0000 29.0649
#
#
#
# Elastic Compliance Matrix: (Units=1/GPa)
#
#
# Indices 1 2 3 4 5 6 
#
# 1 0.018850 0.002641 -0.001352 0.000000 0.000000 0.000000
# 2 0.002641 0.013804 0.002400 0.000000 0.000000 0.000000
# 3 -0.001352 0.002400 0.012888 0.000000 0.000000 0.000000
# 4 0.000000 0.000000 0.000000 0.032570 0.000000 0.000000
# 5 0.000000 0.000000 0.000000 0.000000 0.032781 0.000000
# 6 0.000000 0.000000 0.000000 0.000000 0.000000 0.034406
#
#
# Mechanical properties :
#
#
# Convention : Reuss Voigt Hill
#
# Bulk Modulus (GPa) = 18.89663 19.42980 19.16322
# Shear Modulus (GPa) = 32.14122 33.63705 32.88914
#
# Velocity S-wave (km/s) = 3.89562 3.98524 3.94068
# Velocity P-wave (km/s) = 5.39970 5.50910 5.45467
#
# Compressibility (1/GPa) = 0.05291948
#
# Stress axis : x y z
#
# Youngs Moduli (GPa) = 53.04910 72.44137 77.58903
#
# Poissons Ratio (x) = -0.19130 0.10494
# Poissons Ratio (y) = -0.14009 -0.18620
# Poissons Ratio (z) = 0.07175 -0.17385
#
# Static dielectric constant tensor:
#      x y z
#    x 1.747940 0.000000 0.000000 
#    y 0.000000 1.762040 0.000000 
#    z 0.000000 0.000000 1.746580 
# 
# From -- ./inp_files/4410.got.cif
#   From: 2010.05.17/outbox.cif.g08.bks.cpg/sg18_3_cif.got.tgz:4410.got - 2010.06.03 22:40:56.
