data_PCOD9312768
_publ_section_title
;
Structure prediction by ZEFSAII (Michael W. Deem and Ramdas Pophale) SiO2 
 PCOD9312768
Probable space group: P 21 21 2
;
_chemical_formula_sum "Si O2"
_cell_formula_units_Z 20
_cell_length_a 7.792632
_cell_length_b 8.217342
_cell_length_c 13.584616
_cell_angle_alpha 90.000000
_cell_angle_beta 90.000000
_cell_angle_gamma 90.000000
_cell_volume 869.887112
_symmetry_space_group_name_H-M "P 21 21 2"
_symmetry_group_IT_number 18
_symmetry_cell_setting 'orthorhombic'
loop_
_space_group_symop_operation_xyz
x,y,z
-x,-y,z
1/2+x,1/2-y,-z
1/2-x,1/2+y,-z
loop_
_atom_site_type_symbol
_atom_site_label
_atom_site_fract_x
_atom_site_fract_y
_atom_site_fract_z
Si Si1 0.000000 0.000000 0.485757
Si Si2 0.237832 0.241851 0.604330
Si Si3 0.165267 0.717782 0.839392
Si Si4 0.890000 0.836098 0.979529
Si Si5 0.694211 0.947456 0.800232
Si Si6 0.000000 0.500000 0.684606
O O1 0.157680 0.090429 0.543299
O O2 0.901395 0.150511 0.430862
O O3 0.269721 0.178264 0.714462
O O4 0.081965 0.366223 0.616047
O O5 0.002935 0.714898 0.913425
O O6 0.140263 0.583095 0.756700
O O7 0.182010 0.895131 0.790160
O O8 0.325953 0.709246 0.913050
O O9 0.731220 0.875498 0.907908
O O10 0.000000 0.000000 0.988829
O O11 0.500000 0.000000 0.790702
#
# Coordination Sequence:
#
# PCOD9312768 Si02
#       6
#     2   4   4   4   4   2
#     4  12  30  52  84 108 148 184 244 312 388 458
#     4  12  28  51  79 110 144 187 242 304 383 445
#     4  11  24  41  67 103 149 196 245 295 345 422
#     4  10  23  41  65 102 146 199 246 289 348 413
#     4  11  25  43  72 100 144 187 242 294 359 431
#     4  12  26  44  74 104 152 188 242 298 362 434
#
# _framework density 22.991488
#
# number of rings (size 3 to 8) (size 9 to 14) (size 15 to 20)
#    0.000    0.800    2.000    3.600   14.000    1.600 
#    0.000    0.000    0.000    0.000    0.000    0.000 
#    0.000    0.000    0.000    0.000    0.000    0.000 
#
# Total GULP energy -111792.901779 kJ/mol
# GULP energy per Si atom -5589.645089 kJ/mol
# Density = 2.293916 g / cm^3
# Si number density = 22.991488 Si / 1000 Ang^3
#
#
#
# Elastic Constant Matrix: (Units=GPa)
#
#
# Indices 1 2 3 4 5 6 
#
# 1 59.7659 9.6167 -2.1671 0.0000 0.0000 0.0000
# 2 9.6167 84.6758 32.8497 0.0000 0.0000 0.0000
# 3 -2.1671 32.8497 42.8329 0.0000 0.0000 0.0000
# 4 0.0000 0.0000 0.0000 30.0531 0.0000 0.0000
# 5 0.0000 0.0000 0.0000 0.0000 29.2630 0.0000
# 6 0.0000 0.0000 0.0000 0.0000 0.0000 45.7888
#
#
#
# Elastic Compliance Matrix: (Units=1/GPa)
#
#
# Indices 1 2 3 4 5 6 
#
# 1 0.017386 -0.003297 0.003408 0.000000 0.000000 0.000000
# 2 -0.003297 0.017437 -0.013539 0.000000 0.000000 0.000000
# 3 0.003408 -0.013539 0.033903 0.000000 0.000000 0.000000
# 4 0.000000 0.000000 0.000000 0.033274 0.000000 0.000000
# 5 0.000000 0.000000 0.000000 0.000000 0.034173 0.000000
# 6 0.000000 0.000000 0.000000 0.000000 0.000000 0.021839
#
#
# Mechanical properties :
#
#
# Convention : Reuss Voigt Hill
#
# Bulk Modulus (GPa) = 23.88402 29.76368 26.82385
# Shear Modulus (GPa) = 25.14776 30.81933 27.98354
#
# Velocity S-wave (km/s) = 3.31083 3.66521 3.49252
# Velocity P-wave (km/s) = 5.00262 5.55746 5.28732
#
# Compressibility (1/GPa) = 0.04186900
#
# Stress axis : x y z
#
# Youngs Moduli (GPa) = 57.51769 57.35016 29.49616
#
# Poissons Ratio (x) = 0.18906 -0.10052
# Poissons Ratio (y) = 0.18961 0.39936
# Poissons Ratio (z) = -0.19601 0.77649
#
# Static dielectric constant tensor:
#      x y z
#    x 1.986330 0.000000 0.000000 
#    y 0.000000 1.960670 0.000000 
#    z 0.000000 0.000000 1.818830 
# 
# From -- ./inp_files/5432.got.cif
#   From: 2010.05.17/outbox.cif.g08.bks.cpg/sg18_3_cif.got.tgz:5432.got - 2010.06.03 22:40:56.
