data_PCOD9312022
_publ_section_title
;
Structure prediction by ZEFSAII (Michael W. Deem and Ramdas Pophale) SiO2 
 PCOD9312022
Probable space group: P 21 21 2
;
_chemical_formula_sum "Si O2"
_cell_formula_units_Z 32
_cell_length_a 12.152546
_cell_length_b 12.640708
_cell_length_c 8.444795
_cell_angle_alpha 90.000000
_cell_angle_beta 90.000000
_cell_angle_gamma 90.000000
_cell_volume 1297.262262
_symmetry_space_group_name_H-M "P 21 21 2"
_symmetry_group_IT_number 18
_symmetry_cell_setting 'orthorhombic'
loop_
_space_group_symop_operation_xyz
x,y,z
-x,-y,z
1/2+x,1/2-y,-z
1/2-x,1/2+y,-z
loop_
_atom_site_type_symbol
_atom_site_label
_atom_site_fract_x
_atom_site_fract_y
_atom_site_fract_z
Si Si1 0.497846 0.124946 0.308053
Si Si2 0.338479 0.626501 0.416231
Si Si3 0.594912 0.183064 0.617372
Si Si4 0.234841 0.481284 0.198304
Si Si5 0.048264 0.838067 0.793990
Si Si6 0.386832 0.686671 0.916069
Si Si7 0.630952 0.506878 0.711064
Si Si8 0.286869 0.862597 0.104513
O O1 0.502482 0.147359 0.494759
O O2 0.418694 0.214955 0.235698
O O3 0.613320 0.154377 0.224882
O O4 0.500000 0.000000 0.281802
O O5 0.328414 0.733529 0.519167
O O6 0.260457 0.596913 0.268769
O O7 0.462898 0.631727 0.346526
O O8 0.325536 0.530191 0.540960
O O9 0.657230 0.080953 0.680692
O O10 0.559059 0.246195 0.773403
O O11 0.351664 0.418721 0.198579
O O12 0.190205 0.457624 0.022006
O O13 0.977567 0.843930 0.954633
O O14 0.337865 0.584124 0.835430
O O15 0.293686 0.760043 0.994045
O O16 0.500000 0.500000 0.702360
O O17 0.682457 0.610906 0.787658
#
# Coordination Sequence:
#
# PCOD9312022 Si02
#       8
#     4   4   4   4   4   4   4   4
#     4  10  22  41  62  83 118 164 204 244 298 368
#     4  10  21  36  56  86 120 151 193 249 303 357
#     4   9  21  39  59  85 119 155 196 248 299 356
#     4  11  20  35  60  87 117 155 199 249 306 361
#     4  10  20  36  58  84 114 152 197 247 306 361
#     4   9  20  38  56  83 121 153 195 252 302 361
#     4  11  20  34  61  91 120 159 206 256 310 366
#     4  10  22  37  57  87 122 159 199 249 304 356
#
# _framework density 24.667335000000001
#
# number of rings (size 3 to 8) (size 9 to 14) (size 15 to 20)
#    0.000    2.000    0.000    3.375    0.000    4.000 
#    0.000    6.875    0.000   13.500    0.000    0.000 
#    0.000    0.000    0.000    0.000    0.000    0.000 
#
# Total GULP energy -178790.468491 kJ/mol
# GULP energy per Si atom -5587.202140 kJ/mol
# Density = 2.461119 g / cm^3
# Si number density = 24.667335 Si / 1000 Ang^3
#
#
#
# Elastic Constant Matrix: (Units=GPa)
#
#
# Indices 1 2 3 4 5 6 
#
# 1 12.8127 -7.9619 7.6894 0.0000 0.0000 0.0000
# 2 -7.9619 61.3175 17.2275 0.0000 0.0000 0.0000
# 3 7.6894 17.2275 123.5650 0.0000 0.0000 0.0000
# 4 0.0000 0.0000 0.0000 52.6496 0.0000 0.0000
# 5 0.0000 0.0000 0.0000 0.0000 25.8169 0.0000
# 6 0.0000 0.0000 0.0000 0.0000 0.0000 29.0301
#
#
#
# Elastic Compliance Matrix: (Units=1/GPa)
#
#
# Indices 1 2 3 4 5 6 
#
# 1 0.091333 0.014005 -0.007636 0.000000 0.000000 0.000000
# 2 0.014005 0.019121 -0.003537 0.000000 0.000000 0.000000
# 3 -0.007636 -0.003537 0.009061 0.000000 0.000000 0.000000
# 4 0.000000 0.000000 0.000000 0.018994 0.000000 0.000000
# 5 0.000000 0.000000 0.000000 0.000000 0.038734 0.000000
# 6 0.000000 0.000000 0.000000 0.000000 0.000000 0.034447
#
#
# Mechanical properties :
#
#
# Convention : Reuss Voigt Hill
#
# Bulk Modulus (GPa) = 7.98869 25.73392 16.86130
# Shear Modulus (GPa) = 20.18141 33.54867 26.86504
#
# Velocity S-wave (km/s) = 2.86342 3.69188 3.30372
# Velocity P-wave (km/s) = 3.76535 5.35054 4.62635
#
# Compressibility (1/GPa) = 0.12517700
#
# Stress axis : x y z
#
# Youngs Moduli (GPa) = 10.94900 52.29899 110.35981
#
# Poissons Ratio (x) = -0.73243 0.84272
# Poissons Ratio (y) = -0.15334 0.39038
# Poissons Ratio (z) = 0.08361 0.18500
#
# Static dielectric constant tensor:
#      x y z
#    x 1.937780 0.000000 0.000000 
#    y 0.000000 2.077780 0.000000 
#    z 0.000000 0.000000 1.961460 
# 
# From -- ./inp_files/4325.got.cif
#   From: 2010.05.17/outbox.cif.g08.bks.cpg/sg18_3_cif.got.tgz:4325.got - 2010.06.03 22:40:56.
