data_PCOD9312354
_publ_section_title
;
Structure prediction by ZEFSAII (Michael W. Deem and Ramdas Pophale) SiO2 
 PCOD9312354
Probable space group: P 21 21 2
;
_chemical_formula_sum "Si O2"
_cell_formula_units_Z 18
_cell_length_a 5.356028
_cell_length_b 14.321130
_cell_length_c 10.733722
_cell_angle_alpha 90.000000
_cell_angle_beta 90.000000
_cell_angle_gamma 90.000000
_cell_volume 823.323419
_symmetry_space_group_name_H-M "P 21 21 2"
_symmetry_group_IT_number 18
_symmetry_cell_setting 'orthorhombic'
loop_
_space_group_symop_operation_xyz
x,y,z
-x,-y,z
1/2+x,1/2-y,-z
1/2-x,1/2+y,-z
loop_
_atom_site_type_symbol
_atom_site_label
_atom_site_fract_x
_atom_site_fract_y
_atom_site_fract_z
Si Si1 0.000000 0.000000 0.246302
Si Si2 0.241451 0.906097 0.477407
Si Si3 0.228069 0.665420 0.878937
Si Si4 0.245386 0.613855 0.419093
Si Si5 0.774435 0.280623 0.163383
O O1 0.189259 0.064025 0.168962
O O2 0.826363 0.060686 0.339330
O O3 0.504554 0.859077 0.500001
O O4 0.002856 0.850335 0.523460
O O5 0.248166 0.001359 0.560788
O O6 0.458357 0.729503 0.832643
O O7 0.962897 0.709303 0.836350
O O8 0.234709 0.668985 0.029168
O O9 0.233407 0.648882 0.278795
#
# Coordination Sequence:
#
# PCOD9312354 Si02
#       5
#     2   4   4   4   4
#     4  10  22  42  62  88 126 164 200 254 320 368
#     4   9  20  34  56  87 115 152 203 239 279 360
#     4  10  23  38  61  88 123 157 199 254 306 377
#     4   9  17  35  58  79 116 152 188 248 286 333
#     4  10  21  40  59  90 121 156 204 252 307 360
#
# _framework density 21.862611999999999
#
# number of rings (size 3 to 8) (size 9 to 14) (size 15 to 20)
#    0.000    2.667    0.000    1.333    0.000    9.778 
#    0.000   17.778    0.000    0.000    0.000    0.000 
#    0.000    0.000    0.000    0.000    0.000    0.000 
#
# Total GULP energy -100470.082878 kJ/mol
# GULP energy per Si atom -5581.671271 kJ/mol
# Density = 2.181285 g / cm^3
# Si number density = 21.862612 Si / 1000 Ang^3
#
#
#
# Elastic Constant Matrix: (Units=GPa)
#
#
# Indices 1 2 3 4 5 6 
#
# 1 185.1984 9.1041 25.6675 0.0000 0.0000 0.0000
# 2 9.1041 68.0682 45.1857 0.0000 0.0000 0.0000
# 3 25.6675 45.1857 89.5808 0.0000 0.0000 0.0000
# 4 0.0000 0.0000 0.0000 40.6279 0.0000 0.0000
# 5 0.0000 0.0000 0.0000 0.0000 21.3860 0.0000
# 6 0.0000 0.0000 0.0000 0.0000 0.0000 1.0308
#
#
#
# Elastic Compliance Matrix: (Units=1/GPa)
#
#
# Indices 1 2 3 4 5 6 
#
# 1 0.005633 0.000478 -0.001855 0.000000 0.000000 0.000000
# 2 0.000478 0.022127 -0.011298 0.000000 0.000000 0.000000
# 3 -0.001855 -0.011298 0.017394 0.000000 0.000000 0.000000
# 4 0.000000 0.000000 0.000000 0.024614 0.000000 0.000000
# 5 0.000000 0.000000 0.000000 0.000000 0.046760 0.000000
# 6 0.000000 0.000000 0.000000 0.000000 0.000000 0.970127
#
#
# Mechanical properties :
#
#
# Convention : Reuss Voigt Hill
#
# Bulk Modulus (GPa) = 50.49637 55.86245 53.17941
# Shear Modulus (GPa) = 4.46985 30.13495 17.30240
#
# Velocity S-wave (km/s) = 1.43142 3.71668 2.81626
# Velocity P-wave (km/s) = 5.08716 6.63516 5.91204
#
# Compressibility (1/GPa) = 0.01980340
#
# Stress axis : x y z
#
# Youngs Moduli (GPa) = 177.51774 45.19296 57.49210
#
# Poissons Ratio (x) = -0.02161 0.10666
# Poissons Ratio (y) = -0.08488 0.64956
# Poissons Ratio (z) = 0.32934 0.51060
#
# Static dielectric constant tensor:
#      x y z
#    x 1.839230 0.000000 0.000000 
#    y 0.000000 1.809970 0.000000 
#    z 0.000000 0.000000 1.763070 
# 
# From -- ./inp_files/2475.got.cif
#   From: 2010.05.17/outbox.cif.g08.bks.cpg/sg18_2_cif.got.tgz:2475.got - 2010.06.03 22:40:56.
