data_PCOD9312804
_publ_section_title
;
Structure prediction by ZEFSAII (Michael W. Deem and Ramdas Pophale) SiO2 
 PCOD9312804
Probable space group: P 21 21 2
;
_chemical_formula_sum "Si O2"
_cell_formula_units_Z 20
_cell_length_a 7.691516
_cell_length_b 7.734100
_cell_length_c 16.992051
_cell_angle_alpha 90.000000
_cell_angle_beta 90.000000
_cell_angle_gamma 90.000000
_cell_volume 1010.805354
_symmetry_space_group_name_H-M "P 21 21 2"
_symmetry_group_IT_number 18
_symmetry_cell_setting 'orthorhombic'
loop_
_space_group_symop_operation_xyz
x,y,z
-x,-y,z
1/2+x,1/2-y,-z
1/2-x,1/2+y,-z
loop_
_atom_site_type_symbol
_atom_site_label
_atom_site_fract_x
_atom_site_fract_y
_atom_site_fract_z
Si Si1 0.000000 0.500000 0.636437
Si Si2 0.634139 0.337769 0.077498
Si Si3 0.677922 0.924480 0.615265
Si Si4 0.822785 0.094430 0.475813
Si Si5 0.000000 0.500000 0.019939
Si Si6 0.572680 0.306405 0.258910
O O1 0.162019 0.458453 0.579640
O O2 0.963447 0.340012 0.695985
O O3 0.500000 0.500000 0.063724
O O4 0.829882 0.413931 0.063217
O O5 0.611176 0.276215 0.167873
O O6 0.581505 0.167189 0.026713
O O7 0.646689 0.792884 0.543851
O O8 0.758537 0.822272 0.686913
O O9 0.500000 0.000000 0.643336
O O10 0.790754 0.066279 0.568718
O O11 0.000000 0.000000 0.454194
O O12 0.500000 0.500000 0.263569
#
# Coordination Sequence:
#
# PCOD9312804 Si02
#       6
#     2   4   4   4   2   4
#     4  10  23  44  57  94 126 172 218 268 315 380
#     4  11  24  44  70 108 134 179 216 277 332 413
#     4  11  23  38  59  88 121 166 217 268 319 380
#     4  11  23  37  61  85 119 166 221 269 319 370
#     4  12  23  44  77 102 142 172 228 266 339 406
#     4  10  24  41  66  90 134 167 210 266 331 378
#
# _framework density 19.786204000000001
#
# number of rings (size 3 to 8) (size 9 to 14) (size 15 to 20)
#    0.000    1.200    3.000    2.400    9.800    0.000 
#    0.000    0.000    8.800    0.000    0.000    0.000 
#    0.000    0.000    0.000    0.000    0.000    0.000 
#
# Total GULP energy -111431.715562 kJ/mol
# GULP energy per Si atom -5571.585778 kJ/mol
# Density = 1.974117 g / cm^3
# Si number density = 19.786204 Si / 1000 Ang^3
#
#
#
# Elastic Constant Matrix: (Units=GPa)
#
#
# Indices 1 2 3 4 5 6 
#
# 1 96.0972 7.9266 19.7024 0.0000 0.0000 0.0000
# 2 7.9266 72.0925 24.8118 0.0000 0.0000 0.0000
# 3 19.7024 24.8118 79.6955 0.0000 0.0000 0.0000
# 4 0.0000 0.0000 0.0000 36.2010 0.0000 0.0000
# 5 0.0000 0.0000 0.0000 0.0000 38.4454 0.0000
# 6 0.0000 0.0000 0.0000 0.0000 0.0000 -18.2593
#
#
#
# Elastic Compliance Matrix: (Units=1/GPa)
#
#
# Indices 1 2 3 4 5 6 
#
# 1 0.010968 -0.000305 -0.002616 0.000000 0.000000 0.000000
# 2 -0.000305 0.015544 -0.004764 0.000000 0.000000 0.000000
# 3 -0.002616 -0.004764 0.014678 0.000000 0.000000 0.000000
# 4 0.000000 0.000000 0.000000 0.027624 0.000000 0.000000
# 5 0.000000 0.000000 0.000000 0.000000 0.026011 0.000000
# 6 0.000000 0.000000 0.000000 0.000000 0.000000 -0.054767
#
#
# Mechanical properties :
#
#
# Convention : Reuss Voigt Hill
#
# Bulk Modulus (GPa) = 38.73222 39.19629 38.96425
# Shear Modulus (GPa) = 78.08231 24.30707 51.19469
#
# Velocity S-wave (km/s) = 6.28877 3.50878 5.09216
# Velocity P-wave (km/s) = 8.50585 6.02232 7.36945
#
# Compressibility (1/GPa) = 0.02581830
#
# Stress axis : x y z
#
# Youngs Moduli (GPa) = 91.17649 64.33254 68.13041
#
# Poissons Ratio (x) = 0.01965 0.17825
# Poissons Ratio (y) = 0.02785 0.32457
# Poissons Ratio (z) = 0.23855 0.30647
#
# Static dielectric constant tensor:
#      x y z
#    x 1.695280 0.000000 0.000000 
#    y 0.000000 1.509810 0.000000 
#    z 0.000000 0.000000 1.683710 
# 
# From -- ./inp_files/6624.got.cif
#   From: 2010.05.17/outbox.cif.g08.bks.cpg/sg18_4_cif.got.tgz:6624.got - 2010.06.03 22:40:56.
