data_PCOD9312791
_publ_section_title
;
Structure prediction by ZEFSAII (Michael W. Deem and Ramdas Pophale) SiO2 
 PCOD9312791
Probable space group: P 21 21 2
;
_chemical_formula_sum "Si O2"
_cell_formula_units_Z 12
_cell_length_a 8.913581
_cell_length_b 5.085521
_cell_length_c 11.488776
_cell_angle_alpha 90.000000
_cell_angle_beta 90.000000
_cell_angle_gamma 90.000000
_cell_volume 520.788552
_symmetry_space_group_name_H-M "P 21 21 2"
_symmetry_group_IT_number 18
_symmetry_cell_setting 'orthorhombic'
loop_
_space_group_symop_operation_xyz
x,y,z
-x,-y,z
1/2+x,1/2-y,-z
1/2-x,1/2+y,-z
loop_
_atom_site_type_symbol
_atom_site_label
_atom_site_fract_x
_atom_site_fract_y
_atom_site_fract_z
Si Si1 0.393316 0.751678 0.440240
Si Si2 0.825263 0.564888 0.314751
Si Si3 0.675566 0.089120 0.945370
O O1 0.500000 0.500000 0.442040
O O2 0.272117 0.694030 0.341048
O O3 0.312346 0.770067 0.566074
O O4 0.500000 0.000000 0.421574
O O5 0.789710 0.673717 0.188200
O O6 0.000000 0.500000 0.310752
O O7 0.500000 0.000000 0.955949
O O8 0.722634 0.336705 0.023445
#
# Coordination Sequence:
#
# PCOD9312791 Si02
#       3
#     4   4   4
#     4  11  24  41  66 102 135 168 212 267 330 393
#     4  10  23  43  67  95 133 172 214 266 328 390
#     4  11  26  46  68  95 131 176 223 271 323 383
#
# _framework density 23.041982999999998
#
# number of rings (size 3 to 8) (size 9 to 14) (size 15 to 20)
#    0.000    1.333    0.000    5.000    0.000   17.333 
#    0.000    1.667    0.000    0.000    0.000    0.000 
#    0.000    0.000    0.000    0.000    0.000    0.000 
#
# Total GULP energy -67095.810830 kJ/mol
# GULP energy per Si atom -5591.317569 kJ/mol
# Density = 2.298954 g / cm^3
# Si number density = 23.041983 Si / 1000 Ang^3
#
#
#
# Elastic Constant Matrix: (Units=GPa)
#
#
# Indices 1 2 3 4 5 6 
#
# 1 122.7164 48.8640 40.2997 0.0000 0.0000 0.0000
# 2 48.8640 118.1449 4.5795 0.0000 0.0000 0.0000
# 3 40.2997 4.5795 102.2661 0.0000 0.0000 0.0000
# 4 0.0000 0.0000 0.0000 37.7527 0.0000 0.0000
# 5 0.0000 0.0000 0.0000 0.0000 8.4699 0.0000
# 6 0.0000 0.0000 0.0000 0.0000 0.0000 30.0480
#
#
#
# Elastic Compliance Matrix: (Units=1/GPa)
#
#
# Indices 1 2 3 4 5 6 
#
# 1 0.011356 -0.004531 -0.004272 0.000000 0.000000 0.000000
# 2 -0.004531 0.010287 0.001325 0.000000 0.000000 0.000000
# 3 -0.004272 0.001325 0.011403 0.000000 0.000000 0.000000
# 4 0.000000 0.000000 0.000000 0.026488 0.000000 0.000000
# 5 0.000000 0.000000 0.000000 0.000000 0.118065 0.000000
# 6 0.000000 0.000000 0.000000 0.000000 0.000000 0.033280
#
#
# Mechanical properties :
#
#
# Convention : Reuss Voigt Hill
#
# Bulk Modulus (GPa) = 55.28290 58.95706 57.11998
# Shear Modulus (GPa) = 21.56422 31.87973 26.72197
#
# Velocity S-wave (km/s) = 3.06251 3.72365 3.40914
# Velocity P-wave (km/s) = 6.04563 6.64302 6.35135
#
# Compressibility (1/GPa) = 0.01808878
#
# Stress axis : x y z
#
# Youngs Moduli (GPa) = 88.05834 97.21089 87.69931
#
# Poissons Ratio (x) = 0.44048 0.37467
# Poissons Ratio (y) = 0.39901 -0.11620
# Poissons Ratio (z) = 0.37620 -0.12880
#
# Static dielectric constant tensor:
#      x y z
#    x 1.866270 0.000000 0.000000 
#    y 0.000000 1.866620 0.000000 
#    z 0.000000 0.000000 1.838080 
# 
# From -- ./inp_files/4900.got.cif
#   From: 2010.05.17/outbox.cif.g08.bks.cpg/sg18_3_cif.got.tgz:4900.got - 2010.06.03 22:40:56.
