data_PCOD9312367
_publ_section_title
;
Structure prediction by ZEFSAII (Michael W. Deem and Ramdas Pophale) SiO2 
 PCOD9312367
Probable space group: P 21 21 2
;
_chemical_formula_sum "Si O2"
_cell_formula_units_Z 24
_cell_length_a 14.381674
_cell_length_b 13.095952
_cell_length_c 5.090804
_cell_angle_alpha 90.000000
_cell_angle_beta 90.000000
_cell_angle_gamma 90.000000
_cell_volume 958.810743
_symmetry_space_group_name_H-M "P 21 21 2"
_symmetry_group_IT_number 18
_symmetry_cell_setting 'orthorhombic'
loop_
_space_group_symop_operation_xyz
x,y,z
-x,-y,z
1/2+x,1/2-y,-z
1/2-x,1/2+y,-z
loop_
_atom_site_type_symbol
_atom_site_label
_atom_site_fract_x
_atom_site_fract_y
_atom_site_fract_z
Si Si1 0.913239 0.692662 0.780391
Si Si2 0.086761 0.192662 0.280391
Si Si3 0.402654 0.990489 0.846959
Si Si4 0.402654 0.509511 0.346959
Si Si5 0.752840 0.902212 0.056282
Si Si6 0.252840 0.902212 0.443718
O O1 0.948964 0.729965 0.501321
O O2 0.800589 0.688259 0.720744
O O3 0.948964 0.770035 0.001321
O O4 0.928520 0.581887 0.905447
O O5 0.071480 0.081888 0.405447
O O6 0.199411 0.188259 0.220744
O O7 0.500000 0.000000 0.699778
O O8 0.326785 0.930695 0.671968
O O9 0.350165 0.094060 0.934698
O O10 0.500000 0.500000 0.199778
O O11 0.350165 0.405940 0.434698
O O12 0.326785 0.569305 0.171968
O O13 0.750000 1.000000 0.250000
#
# Coordination Sequence:
#
# PCOD9312367 Si02
#       6
#     4   4   4   4   4   4
#     4  11  21  40  65  90 127 167 206 269 324 376
#     4  11  21  40  65  90 127 167 206 269 324 376
#     4  10  21  40  66  93 130 171 226 266 320 392
#     4  10  21  40  66  93 130 171 226 266 320 392
#     4   9  20  38  64  91 122 173 215 256 330 381
#     4   9  20  38  64  91 122 173 215 256 330 381
#
# _framework density 25.031009999999998
#
# number of rings (size 3 to 8) (size 9 to 14) (size 15 to 20)
#    0.000    2.000    3.333    0.000    0.000    5.333 
#    0.000    3.333    0.000    0.000    0.000    0.000 
#    0.000    0.000    0.000    0.000    0.000    0.000 
#
# Total GULP energy -133633.704789 kJ/mol
# GULP energy per Si atom -5568.071033 kJ/mol
# Density = 2.497404 g / cm^3
# Si number density = 25.031010 Si / 1000 Ang^3
#
#
#
# Elastic Constant Matrix: (Units=GPa)
#
#
# Indices 1 2 3 4 5 6 
#
# 1 129.4197 12.3423 21.4341 0.0000 0.0000 0.0000
# 2 12.3423 49.6365 28.8081 0.0000 0.0000 0.0000
# 3 21.4341 28.8081 141.2766 0.0000 0.0000 0.0000
# 4 0.0000 0.0000 0.0000 35.2968 0.0000 0.0000
# 5 0.0000 0.0000 0.0000 0.0000 19.8629 0.0000
# 6 0.0000 0.0000 0.0000 0.0000 0.0000 27.9978
#
#
#
# Elastic Compliance Matrix: (Units=1/GPa)
#
#
# Indices 1 2 3 4 5 6 
#
# 1 0.008018 -0.001461 -0.000919 0.000000 0.000000 0.000000
# 2 -0.001461 0.023117 -0.004492 0.000000 0.000000 0.000000
# 3 -0.000919 -0.004492 0.008134 0.000000 0.000000 0.000000
# 4 0.000000 0.000000 0.000000 0.028331 0.000000 0.000000
# 5 0.000000 0.000000 0.000000 0.000000 0.050345 0.000000
# 6 0.000000 0.000000 0.000000 0.000000 0.000000 0.035717
#
#
# Mechanical properties :
#
#
# Convention : Reuss Voigt Hill
#
# Bulk Modulus (GPa) = 39.17597 49.50020 44.33808
# Shear Modulus (GPa) = 28.42300 33.81471 31.11886
#
# Velocity S-wave (km/s) = 3.37339 3.67946 3.52975
# Velocity P-wave (km/s) = 5.55500 6.15384 5.86207
#
# Compressibility (1/GPa) = 0.02552585
#
# Stress axis : x y z
#
# Youngs Moduli (GPa) = 124.71569 43.25845 122.94506
#
# Poissons Ratio (x) = 0.06318 0.11295
# Poissons Ratio (y) = 0.18216 0.55230
# Poissons Ratio (z) = 0.11457 0.19433
#
# Static dielectric constant tensor:
#      x y z
#    x 2.143190 0.000000 0.000000 
#    y 0.000000 2.111000 0.000000 
#    z 0.000000 0.000000 2.082290 
# 
# From -- ./inp_files/1484.got.cif
#   From: 2010.05.17/outbox.cif.g08.bks.cpg/sg18_1_cif.got.tgz:1484.got - 2010.06.03 22:40:56.
