data_PCOD9312686
_publ_section_title
;
Structure prediction by ZEFSAII (Michael W. Deem and Ramdas Pophale) SiO2 
 PCOD9312686
Probable space group: P 21 21 2
;
_chemical_formula_sum "Si O2"
_cell_formula_units_Z 22
_cell_length_a 8.822795
_cell_length_b 8.077834
_cell_length_c 14.141216
_cell_angle_alpha 90.000000
_cell_angle_beta 90.000000
_cell_angle_gamma 90.000000
_cell_volume 1007.831361
_symmetry_space_group_name_H-M "P 21 21 2"
_symmetry_group_IT_number 18
_symmetry_cell_setting 'orthorhombic'
loop_
_space_group_symop_operation_xyz
x,y,z
-x,-y,z
1/2+x,1/2-y,-z
1/2-x,1/2+y,-z
loop_
_atom_site_type_symbol
_atom_site_label
_atom_site_fract_x
_atom_site_fract_y
_atom_site_fract_z
Si Si1 0.000000 0.500000 0.784479
Si Si2 0.065862 0.685399 0.094988
Si Si3 0.064882 0.176380 0.905493
Si Si4 0.495203 0.197778 0.692907
Si Si5 0.371101 0.636187 0.524456
Si Si6 0.198249 0.387765 0.618480
O O1 0.001668 0.333629 0.846660
O O2 0.137252 0.474630 0.711530
O O3 0.250538 0.680160 0.096062
O O4 0.003882 0.744719 0.196734
O O5 0.000000 0.500000 0.080016
O O6 0.000558 0.796348 0.010791
O O7 0.000000 0.000000 0.869815
O O8 0.622840 0.263836 0.622598
O O9 0.345584 0.283669 0.649998
O O10 0.500000 0.000000 0.690348
O O11 0.500000 0.500000 0.524896
O O12 0.222441 0.524669 0.536636
O O13 0.397850 0.748415 0.434060
#
# Coordination Sequence:
#
# PCOD9312686 Si02
#       6
#     2   4   4   4   4   4
#     4  12  28  46  70 106 152 184 254 300 380 438
#     4  11  24  48  74 109 146 191 252 311 373 450
#     4  12  27  48  76 107 148 198 248 312 381 441
#     4  10  22  43  70 101 135 181 238 292 363 434
#     4  10  24  40  68  99 132 188 231 288 370 430
#     4  11  24  44  67 101 144 179 237 302 359 446
#
# _framework density 21.829049000000001
#
# number of rings (size 3 to 8) (size 9 to 14) (size 15 to 20)
#    0.000    1.091    2.727    2.182    6.364    7.273 
#    0.000    0.000    0.000    0.000    0.000    0.000 
#    0.000    0.000    0.000    0.000    0.000    0.000 
#
# Total GULP energy -122756.399008 kJ/mol
# GULP energy per Si atom -5579.836319 kJ/mol
# Density = 2.177937 g / cm^3
# Si number density = 21.829049 Si / 1000 Ang^3
#
#
#
# Elastic Constant Matrix: (Units=GPa)
#
#
# Indices 1 2 3 4 5 6 
#
# 1 37.4217 45.2891 31.5370 0.0000 0.0000 0.0000
# 2 45.2891 130.5007 55.1381 0.0000 0.0000 0.0000
# 3 31.5370 55.1381 103.7357 0.0000 0.0000 0.0000
# 4 0.0000 0.0000 0.0000 32.0517 0.0000 0.0000
# 5 0.0000 0.0000 0.0000 0.0000 40.9511 0.0000
# 6 0.0000 0.0000 0.0000 0.0000 0.0000 30.3473
#
#
#
# Elastic Compliance Matrix: (Units=1/GPa)
#
#
# Indices 1 2 3 4 5 6 
#
# 1 0.050524 -0.014243 -0.007790 0.000000 0.000000 0.000000
# 2 -0.014243 0.013897 -0.003057 0.000000 0.000000 0.000000
# 3 -0.007790 -0.003057 0.013633 0.000000 0.000000 0.000000
# 4 0.000000 0.000000 0.000000 0.031200 0.000000 0.000000
# 5 0.000000 0.000000 0.000000 0.000000 0.024419 0.000000
# 6 0.000000 0.000000 0.000000 0.000000 0.000000 0.032952
#
#
# Mechanical properties :
#
#
# Convention : Reuss Voigt Hill
#
# Bulk Modulus (GPa) = 35.87319 59.50960 47.69140
# Shear Modulus (GPa) = 22.11457 29.98295 26.04876
#
# Velocity S-wave (km/s) = 3.18634 3.71014 3.45818
# Velocity P-wave (km/s) = 5.47781 6.75828 6.15146
#
# Compressibility (1/GPa) = 0.02787597
#
# Stress axis : x y z
#
# Youngs Moduli (GPa) = 19.79241 71.95747 73.35289
#
# Poissons Ratio (x) = 1.02488 0.57140
# Poissons Ratio (y) = 0.28190 0.22421
# Poissons Ratio (z) = 0.15418 0.21995
#
# Static dielectric constant tensor:
#      x y z
#    x 1.865230 0.000000 0.000000 
#    y 0.000000 1.776150 0.000000 
#    z 0.000000 0.000000 1.786640 
# 
# From -- ./inp_files/6671.got.cif
#   From: 2010.05.17/outbox.cif.g08.bks.cpg/sg18_4_cif.got.tgz:6671.got - 2010.06.03 22:40:56.
