data_PCOD9312020
_publ_section_title
;
Structure prediction by ZEFSAII (Michael W. Deem and Ramdas Pophale) SiO2 
 PCOD9312020
Probable space group: P 21 21 2
;
_chemical_formula_sum "Si O2"
_cell_formula_units_Z 22
_cell_length_a 8.564498
_cell_length_b 8.607690
_cell_length_c 16.120902
_cell_angle_alpha 90.000000
_cell_angle_beta 90.000000
_cell_angle_gamma 90.000000
_cell_volume 1188.441662
_symmetry_space_group_name_H-M "P 21 21 2"
_symmetry_group_IT_number 18
_symmetry_cell_setting 'orthorhombic'
loop_
_space_group_symop_operation_xyz
x,y,z
-x,-y,z
1/2+x,1/2-y,-z
1/2-x,1/2+y,-z
loop_
_atom_site_type_symbol
_atom_site_label
_atom_site_fract_x
_atom_site_fract_y
_atom_site_fract_z
Si Si1 0.000000 0.500000 0.712481
Si Si2 0.256910 0.979252 0.144563
Si Si3 0.500000 0.000000 0.712538
Si Si4 0.500000 0.000000 0.998939
Si Si5 0.243847 0.565548 0.428667
Si Si6 0.530517 0.245629 0.854684
Si Si7 0.566338 0.756467 0.428557
O O1 0.136988 0.451928 0.774998
O O2 0.061623 0.640089 0.654737
O O3 0.184976 0.151139 0.141290
O O4 0.356992 0.967085 0.060919
O O5 0.115499 0.860327 0.151287
O O6 0.641158 0.939764 0.654872
O O7 0.453532 0.862044 0.774267
O O8 0.503447 0.855556 0.936221
O O9 0.392671 0.681850 0.433627
O O10 0.317333 0.392088 0.434191
O O11 0.126185 0.626330 0.499937
#
# Coordination Sequence:
#
# PCOD9312020 Si02
#       7
#     2   4   2   2   4   4   4
#     4  11  21  37  57  82 114 148 189 235 285 343
#     4  10  21  36  56  82 111 145 184 229 281 337
#     4  11  21  37  57  82 114 148 189 235 285 343
#     4  10  20  36  58  80 110 144 182 228 276 338
#     4  11  23  39  60  85 116 154 196 243 293 348
#     4  10  21  36  56  82 111 145 184 229 281 337
#     4  11  23  39  60  85 116 154 196 243 293 348
#
# _framework density 18.511634999999998
#
# number of rings (size 3 to 8) (size 9 to 14) (size 15 to 20)
#    0.000    1.455    0.000    6.000    0.000    0.000 
#    0.000    3.636    0.000   17.455    0.000    0.000 
#    0.000    0.000    0.000    0.000    0.000    0.000 
#
# Total GULP energy -122701.024102 kJ/mol
# GULP energy per Si atom -5577.319277 kJ/mol
# Density = 1.846950 g / cm^3
# Si number density = 18.511635 Si / 1000 Ang^3
#
#
#
# Elastic Constant Matrix: (Units=GPa)
#
#
# Indices 1 2 3 4 5 6 
#
# 1 75.6715 30.1870 51.4210 0.0000 0.0000 0.0000
# 2 30.1870 89.8827 57.3473 0.0000 0.0000 0.0000
# 3 51.4210 57.3473 147.0655 0.0000 0.0000 0.0000
# 4 0.0000 0.0000 0.0000 8.1603 0.0000 0.0000
# 5 0.0000 0.0000 0.0000 0.0000 -32.1547 0.0000
# 6 0.0000 0.0000 0.0000 0.0000 0.0000 31.2181
#
#
#
# Elastic Compliance Matrix: (Units=1/GPa)
#
#
# Indices 1 2 3 4 5 6 
#
# 1 0.017803 -0.002672 -0.005183 0.000000 0.000000 0.000000
# 2 -0.002672 0.015211 -0.004997 0.000000 0.000000 0.000000
# 3 -0.005183 -0.004997 0.010560 0.000000 0.000000 0.000000
# 4 0.000000 0.000000 0.000000 0.122544 0.000000 0.000000
# 5 0.000000 0.000000 0.000000 0.000000 -0.031100 0.000000
# 6 0.000000 0.000000 0.000000 0.000000 0.000000 0.032033
#
#
# Mechanical properties :
#
#
# Convention : Reuss Voigt Hill
#
# Bulk Modulus (GPa) = 55.95904 65.61448 60.78676
# Shear Modulus (GPa) = 25.16194 13.02238 19.09216
#
# Velocity S-wave (km/s) = 3.69080 2.65518 3.21496
# Velocity P-wave (km/s) = 6.96114 6.70238 6.83298
#
# Compressibility (1/GPa) = 0.01787021
#
# Stress axis : x y z
#
# Youngs Moduli (GPa) = 56.17072 65.73979 94.69325
#
# Poissons Ratio (x) = 0.17569 0.49076
# Poissons Ratio (y) = 0.15011 0.47320
# Poissons Ratio (z) = 0.29111 0.32852
#
# Static dielectric constant tensor:
#      x y z
#    x 1.620310 0.000000 0.000000 
#    y 0.000000 1.658210 0.000000 
#    z 0.000000 0.000000 1.600180 
# 
# From -- ./inp_files/6676.got.cif
#   From: 2010.05.17/outbox.cif.g08.bks.cpg/sg18_4_cif.got.tgz:6676.got - 2010.06.03 22:40:56.
