data_PCOD9312795
_publ_section_title
;
Structure prediction by ZEFSAII (Michael W. Deem and Ramdas Pophale) SiO2 
 PCOD9312795
Probable space group: P 21 21 2
;
_chemical_formula_sum "Si O2"
_cell_formula_units_Z 20
_cell_length_a 7.998923
_cell_length_b 11.459953
_cell_length_c 8.607377
_cell_angle_alpha 90.000000
_cell_angle_beta 90.000000
_cell_angle_gamma 90.000000
_cell_volume 789.014852
_symmetry_space_group_name_H-M "P 21 21 2"
_symmetry_group_IT_number 18
_symmetry_cell_setting 'orthorhombic'
loop_
_space_group_symop_operation_xyz
x,y,z
-x,-y,z
1/2+x,1/2-y,-z
1/2-x,1/2+y,-z
loop_
_atom_site_type_symbol
_atom_site_label
_atom_site_fract_x
_atom_site_fract_y
_atom_site_fract_z
Si Si1 0.088117 0.226534 0.356389
Si Si2 0.000000 0.500000 0.671858
Si Si3 0.704083 0.407752 0.086638
Si Si4 0.500000 0.500000 0.828142
Si Si5 0.911881 0.273464 0.856383
Si Si6 0.704083 0.907754 0.586640
O O1 0.250001 0.255201 0.250006
O O2 0.154422 0.178529 0.521507
O O3 0.001716 0.116292 0.272636
O O4 0.959565 0.329956 0.381466
O O5 0.998285 0.383708 0.772636
O O6 0.840900 0.491210 0.556548
O O7 0.540433 0.329958 0.118538
O O8 0.750004 0.464226 0.249998
O O9 0.659100 0.491209 0.943450
O O10 0.845572 0.321466 0.021501
#
# Coordination Sequence:
#
# PCOD9312795 Si02
#       6
#     4   2   4   2   4   4
#     4  10  23  43  68  99 137 177 221 281 339 394
#     4  10  24  42  62  96 138 172 212 274 342 392
#     4  11  23  41  69 101 131 178 232 276 332 401
#     4  10  24  42  62  96 138 172 212 274 342 392
#     4  10  23  43  68  99 137 177 221 281 339 394
#     4  11  23  41  69 101 131 178 232 276 332 401
#
# _framework density 25.348063
#
# number of rings (size 3 to 8) (size 9 to 14) (size 15 to 20)
#    0.000    1.600    0.000    4.800    0.000   17.600 
#    0.000    0.000    0.000    0.000    0.000    0.000 
#    0.000    0.000    0.000    0.000    0.000    0.000 
#
# Total GULP energy -112144.129345 kJ/mol
# GULP energy per Si atom -5607.206467 kJ/mol
# Density = 2.529037 g / cm^3
# Si number density = 25.348063 Si / 1000 Ang^3
#
#
#
# Elastic Constant Matrix: (Units=GPa)
#
#
# Indices 1 2 3 4 5 6 
#
# 1 88.3018 56.6672 38.6787 0.0000 0.0000 0.0000
# 2 56.6672 108.9161 28.9365 0.0000 0.0000 0.0000
# 3 38.6787 28.9365 116.9480 0.0000 0.0000 0.0000
# 4 0.0000 0.0000 0.0000 28.7843 0.0000 0.0000
# 5 0.0000 0.0000 0.0000 0.0000 48.8185 0.0000
# 6 0.0000 0.0000 0.0000 0.0000 0.0000 43.5766
#
#
#
# Elastic Compliance Matrix: (Units=1/GPa)
#
#
# Indices 1 2 3 4 5 6 
#
# 1 0.018618 -0.008617 -0.004025 0.000000 0.000000 0.000000
# 2 -0.008617 0.013816 -0.000568 0.000000 0.000000 0.000000
# 3 -0.004025 -0.000568 0.010023 0.000000 0.000000 0.000000
# 4 0.000000 0.000000 0.000000 0.034741 0.000000 0.000000
# 5 0.000000 0.000000 0.000000 0.000000 0.020484 0.000000
# 6 0.000000 0.000000 0.000000 0.000000 0.000000 0.022948
#
#
# Mechanical properties :
#
#
# Convention : Reuss Voigt Hill
#
# Bulk Modulus (GPa) = 62.36570 62.52563 62.44567
# Shear Modulus (GPa) = 32.80903 36.89480 34.85191
#
# Velocity S-wave (km/s) = 3.60160 3.81928 3.71203
# Velocity P-wave (km/s) = 6.47707 6.64602 6.56209
#
# Compressibility (1/GPa) = 0.01603445
#
# Stress axis : x y z
#
# Youngs Moduli (GPa) = 53.71110 72.38096 99.77227
#
# Poissons Ratio (x) = 0.62372 0.40163
# Poissons Ratio (y) = 0.46284 0.05672
# Poissons Ratio (z) = 0.21621 0.04114
#
# Static dielectric constant tensor:
#      x y z
#    x 2.042100 0.000000 0.000000 
#    y 0.000000 1.985000 0.000000 
#    z 0.000000 0.000000 2.009430 
# 
# From -- ./inp_files/2981.got.cif
#   From: 2010.05.17/outbox.cif.g08.bks.cpg/sg18_2_cif.got.tgz:2981.got - 2010.06.03 22:40:56.
