data_PCOD9312758
_publ_section_title
;
Structure prediction by ZEFSAII (Michael W. Deem and Ramdas Pophale) SiO2 
 PCOD9312758
Probable space group: P 21 21 2
;
_chemical_formula_sum "Si O2"
_cell_formula_units_Z 22
_cell_length_a 14.769529
_cell_length_b 5.260411
_cell_length_c 11.740262
_cell_angle_alpha 90.000000
_cell_angle_beta 90.000000
_cell_angle_gamma 90.000000
_cell_volume 912.145483
_symmetry_space_group_name_H-M "P 21 21 2"
_symmetry_group_IT_number 18
_symmetry_cell_setting 'orthorhombic'
loop_
_space_group_symop_operation_xyz
x,y,z
-x,-y,z
1/2+x,1/2-y,-z
1/2-x,1/2+y,-z
loop_
_atom_site_type_symbol
_atom_site_label
_atom_site_fract_x
_atom_site_fract_y
_atom_site_fract_z
Si Si1 0.252677 0.708428 0.425081
Si Si2 0.275045 0.754956 0.851689
Si Si3 0.551300 0.230596 0.429857
Si Si4 0.900090 0.985313 0.331760
Si Si5 0.836097 0.747353 0.892053
Si Si6 0.500000 0.500000 0.230044
O O1 0.249990 0.423993 0.474471
O O2 0.350443 0.774337 0.369099
O O3 0.164016 0.769937 0.351013
O O4 0.339091 0.693833 0.746303
O O5 0.231209 0.032279 0.846897
O O6 0.197871 0.534465 0.858812
O O7 0.328964 0.738135 0.970741
O O8 0.580324 0.393422 0.539473
O O9 0.476301 0.297512 0.331684
O O10 0.500000 0.000000 0.487312
O O11 0.000000 0.000000 0.278760
O O12 0.932527 0.845299 0.848832
#
# Coordination Sequence:
#
# PCOD9312758 Si02
#       6
#     4   4   4   4   4   2
#     4  10  23  40  62  89 133 180 218 270 331 396
#     4  10  24  48  71  99 137 176 231 294 345 401
#     4  11  25  41  65 100 144 181 232 275 340 414
#     4  11  23  41  67  98 136 176 228 275 341 403
#     4  10  25  47  72 102 133 180 233 288 346 408
#     4  12  26  40  72 100 140 186 228 280 344 418
#
# _framework density 24.118957999999999
#
# number of rings (size 3 to 8) (size 9 to 14) (size 15 to 20)
#    0.000    1.455    0.909    2.182    8.909    7.273 
#    0.000    0.000    0.000    0.000    0.000    0.000 
#    0.000    0.000    0.000    0.000    0.000    0.000 
#
# Total GULP energy -122645.263037 kJ/mol
# GULP energy per Si atom -5574.784684 kJ/mol
# Density = 2.406406 g / cm^3
# Si number density = 24.118958 Si / 1000 Ang^3
#
#
#
# Elastic Constant Matrix: (Units=GPa)
#
#
# Indices 1 2 3 4 5 6 
#
# 1 79.0859 28.8246 26.6078 0.0000 0.0000 0.0000
# 2 28.8246 75.1634 29.9676 0.0000 0.0000 0.0000
# 3 26.6078 29.9676 97.4009 0.0000 0.0000 0.0000
# 4 0.0000 0.0000 0.0000 34.0175 0.0000 0.0000
# 5 0.0000 0.0000 0.0000 0.0000 34.9240 0.0000
# 6 0.0000 0.0000 0.0000 0.0000 0.0000 33.0534
#
#
#
# Elastic Compliance Matrix: (Units=1/GPa)
#
#
# Indices 1 2 3 4 5 6 
#
# 1 0.015300 -0.004788 -0.002706 0.000000 0.000000 0.000000
# 2 -0.004788 0.016663 -0.003819 0.000000 0.000000 0.000000
# 3 -0.002706 -0.003819 0.012181 0.000000 0.000000 0.000000
# 4 0.000000 0.000000 0.000000 0.029397 0.000000 0.000000
# 5 0.000000 0.000000 0.000000 0.000000 0.028634 0.000000
# 6 0.000000 0.000000 0.000000 0.000000 0.000000 0.030254
#
#
# Mechanical properties :
#
#
# Convention : Reuss Voigt Hill
#
# Bulk Modulus (GPa) = 46.47407 46.93888 46.70647
# Shear Modulus (GPa) = 30.82071 31.48234 31.15152
#
# Velocity S-wave (km/s) = 3.57860 3.61681 3.59775
# Velocity P-wave (km/s) = 6.03205 6.07827 6.05521
#
# Compressibility (1/GPa) = 0.02151738
#
# Stress axis : x y z
#
# Youngs Moduli (GPa) = 65.35819 60.01245 82.09444
#
# Poissons Ratio (x) = 0.28737 0.22218
# Poissons Ratio (y) = 0.31297 0.31349
# Poissons Ratio (z) = 0.17689 0.22917
#
# Static dielectric constant tensor:
#      x y z
#    x 2.148760 0.000000 0.000000 
#    y 0.000000 2.637350 0.000000 
#    z 0.000000 0.000000 1.925730 
# 
# From -- ./inp_files/6023.got.cif
#   From: 2010.05.17/outbox.cif.g08.bks.cpg/sg18_4_cif.got.tgz:6023.got - 2010.06.03 22:40:56.
