data_PCOD9312257
_publ_section_title
;
Structure prediction by ZEFSAII (Michael W. Deem and Ramdas Pophale) SiO2 
 PCOD9312257
Probable space group: P 21 21 2
;
_chemical_formula_sum "Si O2"
_cell_formula_units_Z 16
_cell_length_a 10.514397
_cell_length_b 10.947933
_cell_length_c 4.735877
_cell_angle_alpha 90.000000
_cell_angle_beta 90.000000
_cell_angle_gamma 90.000000
_cell_volume 545.151130
_symmetry_space_group_name_H-M "P 21 21 2"
_symmetry_group_IT_number 18
_symmetry_cell_setting 'orthorhombic'
loop_
_space_group_symop_operation_xyz
x,y,z
-x,-y,z
1/2+x,1/2-y,-z
1/2-x,1/2+y,-z
loop_
_atom_site_type_symbol
_atom_site_label
_atom_site_fract_x
_atom_site_fract_y
_atom_site_fract_z
Si Si1 0.250752 0.960851 0.776736
Si Si2 0.635519 0.906290 0.279329
Si Si3 0.411596 0.763220 0.044083
Si Si4 0.462988 0.333974 0.524038
O O1 0.348793 0.992931 0.524655
O O2 0.290755 0.832227 0.922541
O O3 0.119764 0.941550 0.607428
O O4 0.262604 0.057287 0.035538
O O5 0.628998 0.782955 0.468365
O O6 0.508830 0.876795 0.098744
O O7 0.489507 0.671814 0.840955
O O8 0.410970 0.698722 0.344623
#
# Coordination Sequence:
#
# PCOD9312257 Si02
#       4
#     4   4   4   4
#     4  12  21  35  64  79 117 154 170 240 299 300
#     4  10  21  34  57  88 112 137 195 228 279 332
#     4  10  21  36  54  88 115 135 196 232 275 332
#     4  10  22  36  52  88 118 140 185 238 269 349
#
# _framework density 29.349657000000001
#
# number of rings (size 3 to 8) (size 9 to 14) (size 15 to 20)
#    1.500    0.000    2.500    3.750    3.500    0.000 
#    0.000    0.000    0.000    9.000    0.000    0.000 
#    0.000    0.000    0.000    0.000    0.000    0.000 
#
# Total GULP energy -89441.498493 kJ/mol
# GULP energy per Si atom -5590.093656 kJ/mol
# Density = 2.928286 g / cm^3
# Si number density = 29.349657 Si / 1000 Ang^3
#
#
#
# Elastic Constant Matrix: (Units=GPa)
#
#
# Indices 1 2 3 4 5 6 
#
# 1 123.9849 10.1433 21.0896 0.0000 0.0000 0.0000
# 2 10.1433 109.8099 6.5586 0.0000 0.0000 0.0000
# 3 21.0896 6.5586 145.7092 0.0000 0.0000 0.0000
# 4 0.0000 0.0000 0.0000 55.1777 0.0000 0.0000
# 5 0.0000 0.0000 0.0000 0.0000 51.0673 0.0000
# 6 0.0000 0.0000 0.0000 0.0000 0.0000 30.1826
#
#
#
# Elastic Compliance Matrix: (Units=1/GPa)
#
#
# Indices 1 2 3 4 5 6 
#
# 1 0.008322 -0.000699 -0.001173 0.000000 0.000000 0.000000
# 2 -0.000699 0.009190 -0.000313 0.000000 0.000000 0.000000
# 3 -0.001173 -0.000313 0.007047 0.000000 0.000000 0.000000
# 4 0.000000 0.000000 0.000000 0.018123 0.000000 0.000000
# 5 0.000000 0.000000 0.000000 0.000000 0.019582 0.000000
# 6 0.000000 0.000000 0.000000 0.000000 0.000000 0.033132
#
#
# Mechanical properties :
#
#
# Convention : Reuss Voigt Hill
#
# Bulk Modulus (GPa) = 49.52870 50.56525 50.04698
# Shear Modulus (GPa) = 46.95076 50.06634 48.50855
#
# Velocity S-wave (km/s) = 4.00397 4.13468 4.06985
# Velocity P-wave (km/s) = 6.18771 6.32931 6.25891
#
# Compressibility (1/GPa) = 0.02019032
#
# Stress axis : x y z
#
# Youngs Moduli (GPa) = 120.16059 108.81564 141.90758
#
# Poissons Ratio (x) = 0.07603 0.16647
# Poissons Ratio (y) = 0.08395 0.04435
# Poissons Ratio (z) = 0.14096 0.03401
#
# Static dielectric constant tensor:
#      x y z
#    x 2.313030 0.000000 0.000000 
#    y 0.000000 2.500880 0.000000 
#    z 0.000000 0.000000 2.082830 
# 
# From -- ./inp_files/851.got.cif
#   From: 2010.05.17/outbox.cif.g08.bks.cpg/sg18_1_cif.got.tgz:851.got - 2010.06.03 22:40:56.
