data_PCOD9312480
_publ_section_title
;
Structure prediction by ZEFSAII (Michael W. Deem and Ramdas Pophale) SiO2 
 PCOD9312480
Probable space group: P 21 21 2
;
_chemical_formula_sum "Si O2"
_cell_formula_units_Z 28
_cell_length_a 26.059354
_cell_length_b 8.831666
_cell_length_c 5.308945
_cell_angle_alpha 90.000000
_cell_angle_beta 90.000000
_cell_angle_gamma 90.000000
_cell_volume 1221.840476
_symmetry_space_group_name_H-M "P 21 21 2"
_symmetry_group_IT_number 18
_symmetry_cell_setting 'orthorhombic'
loop_
_space_group_symop_operation_xyz
x,y,z
-x,-y,z
1/2+x,1/2-y,-z
1/2-x,1/2+y,-z
loop_
_atom_site_type_symbol
_atom_site_label
_atom_site_fract_x
_atom_site_fract_y
_atom_site_fract_z
Si Si1 0.500000 0.500000 0.855349
Si Si2 0.525411 0.249708 0.189229
Si Si3 0.618361 0.250486 0.518474
Si Si4 0.000000 0.500000 0.179022
Si Si5 0.277326 0.487174 0.014947
Si Si6 0.675973 0.176089 0.016663
Si Si7 0.561060 0.748725 0.535846
Si Si8 0.163882 0.911098 0.484614
O O1 0.534179 0.612356 0.690747
O O2 0.536985 0.400378 0.033111
O O3 0.558924 0.239604 0.440345
O O4 0.465632 0.258012 0.263378
O O5 0.531034 0.109600 0.006849
O O6 0.637257 0.184912 0.781813
O O7 0.633903 0.427578 0.514598
O O8 0.647377 0.172534 0.283610
O O9 0.960040 0.402397 0.341430
O O10 0.292786 0.664018 0.012928
O O11 0.301031 0.413718 0.762890
O O12 0.216911 0.456750 0.015345
O O13 0.302462 0.412243 0.262662
O O14 0.621144 0.719294 0.525156
#
# Coordination Sequence:
#
# PCOD9312480 Si02
#       8
#     2   4   4   2   4   4   4   4
#     4  10  22  34  68  92 126 162 222 266 322 370
#     4  11  23  41  62  94 130 171 216 266 321 386
#     4  10  22  38  69  94 125 167 216 267 318 378
#     4  10  26  42  60  84 142 174 206 266 326 386
#     4  10  22  42  64  94 126 163 212 269 325 382
#     4  10  22  42  64  94 126 163 212 269 325 382
#     4  11  23  41  62  94 130 171 216 266 321 386
#     4  10  22  38  69  94 125 167 216 267 318 378
#
# _framework density 22.916248
#
# number of rings (size 3 to 8) (size 9 to 14) (size 15 to 20)
#    0.000    1.714    0.000    3.429   14.000    0.000 
#    2.571    0.000    0.000    0.000    0.000    0.000 
#    0.000    0.000    0.000    0.000    0.000    0.000 
#
# Total GULP energy -156799.514087 kJ/mol
# GULP energy per Si atom -5599.982646 kJ/mol
# Density = 2.286409 g / cm^3
# Si number density = 22.916248 Si / 1000 Ang^3
#
#
#
# Elastic Constant Matrix: (Units=GPa)
#
#
# Indices 1 2 3 4 5 6 
#
# 1 57.8784 2.2755 15.0041 0.0000 0.0000 0.0000
# 2 2.2755 61.5804 23.8275 0.0000 0.0000 0.0000
# 3 15.0041 23.8275 124.1619 0.0000 0.0000 0.0000
# 4 0.0000 0.0000 0.0000 19.4235 0.0000 0.0000
# 5 0.0000 0.0000 0.0000 0.0000 32.8736 0.0000
# 6 0.0000 0.0000 0.0000 0.0000 0.0000 25.1131
#
#
#
# Elastic Compliance Matrix: (Units=1/GPa)
#
#
# Indices 1 2 3 4 5 6 
#
# 1 0.017838 0.000189 -0.002192 0.000000 0.000000 0.000000
# 2 0.000189 0.017543 -0.003390 0.000000 0.000000 0.000000
# 3 -0.002192 -0.003390 0.008969 0.000000 0.000000 0.000000
# 4 0.000000 0.000000 0.000000 0.051484 0.000000 0.000000
# 5 0.000000 0.000000 0.000000 0.000000 0.030420 0.000000
# 6 0.000000 0.000000 0.000000 0.000000 0.000000 0.039820
#
#
# Mechanical properties :
#
#
# Convention : Reuss Voigt Hill
#
# Bulk Modulus (GPa) = 29.79187 36.20391 32.99789
# Shear Modulus (GPa) = 26.58890 28.98295 27.78592
#
# Velocity S-wave (km/s) = 3.40996 3.56017 3.48587
# Velocity P-wave (km/s) = 5.34157 5.72122 5.53465
#
# Compressibility (1/GPa) = 0.03356620
#
# Stress axis : x y z
#
# Youngs Moduli (GPa) = 56.05890 57.00126 111.49077
#
# Poissons Ratio (x) = -0.01077 0.24438
# Poissons Ratio (y) = -0.01059 0.37790
# Poissons Ratio (z) = 0.12288 0.19321
#
# Static dielectric constant tensor:
#      x y z
#    x 1.836680 0.000000 0.000000 
#    y 0.000000 1.870400 0.000000 
#    z 0.000000 0.000000 1.836990 
# 
# From -- ./inp_files/740.got.cif
#   From: 2010.05.17/outbox.cif.g08.bks.cpg/sg18_1_cif.got.tgz:740.got - 2010.06.03 22:40:56.
