data_PCOD9312210
_publ_section_title
;
Structure prediction by ZEFSAII (Michael W. Deem and Ramdas Pophale) SiO2 
 PCOD9312210
Probable space group: P 21 21 2
;
_chemical_formula_sum "Si O2"
_cell_formula_units_Z 22
_cell_length_a 8.747817
_cell_length_b 12.592318
_cell_length_c 8.308369
_cell_angle_alpha 90.000000
_cell_angle_beta 90.000000
_cell_angle_gamma 90.000000
_cell_volume 915.210825
_symmetry_space_group_name_H-M "P 21 21 2"
_symmetry_group_IT_number 18
_symmetry_cell_setting 'orthorhombic'
loop_
_space_group_symop_operation_xyz
x,y,z
-x,-y,z
1/2+x,1/2-y,-z
1/2-x,1/2+y,-z
loop_
_atom_site_type_symbol
_atom_site_label
_atom_site_fract_x
_atom_site_fract_y
_atom_site_fract_z
Si Si1 0.500000 0.000000 0.334128
Si Si2 0.157171 0.044436 0.948994
Si Si3 0.593616 0.102599 0.830310
Si Si4 0.233673 0.348343 0.497959
Si Si5 0.547462 0.337117 0.338574
Si Si6 0.887425 0.315509 0.900971
O O1 0.643536 0.050859 0.428831
O O2 0.435472 0.093044 0.223612
O O3 0.133587 0.069691 0.757655
O O4 0.282186 0.950621 0.949667
O O5 0.220086 0.148071 0.040470
O O6 0.000000 0.000000 0.016436
O O7 0.663315 0.162383 0.680384
O O8 0.500000 0.000000 0.769837
O O9 0.481397 0.172524 0.935228
O O10 0.416945 0.358634 0.473532
O O11 0.174061 0.245705 0.596756
O O12 0.447120 0.286930 0.192081
#
# Coordination Sequence:
#
# PCOD9312210 Si02
#       6
#     2   4   4   4   4   4
#     4  10  20  44  70  92 130 184 220 264 332 412
#     4  11  22  41  69  96 127 168 225 274 320 396
#     4  10  20  41  71  89 127 178 216 264 335 394
#     4  11  24  42  65  98 136 178 218 271 343 396
#     4  11  27  42  65 102 136 172 225 275 337 396
#     4  10  23  44  67  97 130 174 226 272 334 387
#
# _framework density 24.038177000000001
#
# number of rings (size 3 to 8) (size 9 to 14) (size 15 to 20)
#    0.000    1.455    5.455    0.000    7.636    0.000 
#    3.273    0.000    0.000    0.000    0.000    0.000 
#    0.000    0.000    0.000    0.000    0.000    0.000 
#
# Total GULP energy -122888.713341 kJ/mol
# GULP energy per Si atom -5585.850606 kJ/mol
# Density = 2.398346 g / cm^3
# Si number density = 24.038177 Si / 1000 Ang^3
#
#
#
# Elastic Constant Matrix: (Units=GPa)
#
#
# Indices 1 2 3 4 5 6 
#
# 1 106.3480 3.6061 0.9968 0.0000 0.0000 0.0000
# 2 3.6061 22.6412 -7.6875 0.0000 0.0000 0.0000
# 3 0.9968 -7.6875 53.6175 0.0000 0.0000 0.0000
# 4 0.0000 0.0000 0.0000 17.5077 0.0000 0.0000
# 5 0.0000 0.0000 0.0000 0.0000 38.8062 0.0000
# 6 0.0000 0.0000 0.0000 0.0000 0.0000 25.9202
#
#
#
# Elastic Compliance Matrix: (Units=1/GPa)
#
#
# Indices 1 2 3 4 5 6 
#
# 1 0.009463 -0.001647 -0.000412 0.000000 0.000000 0.000000
# 2 -0.001647 0.046714 0.006728 0.000000 0.000000 0.000000
# 3 -0.000412 0.006728 0.019623 0.000000 0.000000 0.000000
# 4 0.000000 0.000000 0.000000 0.057118 0.000000 0.000000
# 5 0.000000 0.000000 0.000000 0.000000 0.025769 0.000000
# 6 0.000000 0.000000 0.000000 0.000000 0.000000 0.038580
#
#
# Mechanical properties :
#
#
# Convention : Reuss Voigt Hill
#
# Bulk Modulus (GPa) = 11.74558 19.60416 15.67487
# Shear Modulus (GPa) = 23.11521 28.82624 25.97072
#
# Velocity S-wave (km/s) = 3.10434 3.46668 3.29050
# Velocity P-wave (km/s) = 4.21261 4.91904 4.57947
#
# Compressibility (1/GPa) = 0.08513842
#
# Stress axis : x y z
#
# Youngs Moduli (GPa) = 105.67697 21.40678 50.96060
#
# Poissons Ratio (x) = 0.03526 0.02100
# Poissons Ratio (y) = 0.17406 -0.34288
# Poissons Ratio (z) = 0.04355 -0.14403
#
# Static dielectric constant tensor:
#      x y z
#    x 2.030190 0.000000 0.000000 
#    y 0.000000 2.042930 0.000000 
#    z 0.000000 0.000000 1.915760 
# 
# From -- ./inp_files/3153.got.cif
#   From: 2010.05.17/outbox.cif.g08.bks.cpg/sg18_2_cif.got.tgz:3153.got - 2010.06.03 22:40:56.
