data_PCOD9312281
_publ_section_title
;
Structure prediction by ZEFSAII (Michael W. Deem and Ramdas Pophale) SiO2 
 PCOD9312281
Probable space group: P 21 21 2
;
_chemical_formula_sum "Si O2"
_cell_formula_units_Z 32
_cell_length_a 7.410057
_cell_length_b 14.800212
_cell_length_c 12.570705
_cell_angle_alpha 90.000000
_cell_angle_beta 90.000000
_cell_angle_gamma 90.000000
_cell_volume 1378.634428
_symmetry_space_group_name_H-M "P 21 21 2"
_symmetry_group_IT_number 18
_symmetry_cell_setting 'orthorhombic'
loop_
_space_group_symop_operation_xyz
x,y,z
-x,-y,z
1/2+x,1/2-y,-z
1/2-x,1/2+y,-z
loop_
_atom_site_type_symbol
_atom_site_label
_atom_site_fract_x
_atom_site_fract_y
_atom_site_fract_z
Si Si1 0.876475 0.218825 0.100244
Si Si2 0.207999 0.976961 0.042737
Si Si3 0.124953 0.741497 0.335789
Si Si4 0.699703 0.836587 0.103936
Si Si5 0.710922 0.024847 0.795807
Si Si6 0.854451 0.122828 0.505217
Si Si7 0.280427 0.276144 0.291145
Si Si8 0.227082 0.059766 0.582671
O O1 0.817070 0.261792 0.212461
O O2 0.086170 0.188988 0.108319
O O3 0.765527 0.127392 0.073705
O O4 0.865253 0.289150 0.003937
O O5 0.320189 0.056179 0.098463
O O6 0.000000 0.000000 0.067361
O O7 0.234542 0.990975 0.916711
O O8 0.205330 0.825122 0.400708
O O9 0.154008 0.648568 0.399888
O O10 0.912107 0.760432 0.329076
O O11 0.623357 0.790902 0.210192
O O12 0.741573 0.130308 0.771543
O O13 0.500000 0.000000 0.782299
O O14 0.814575 0.966942 0.706250
O O15 0.873529 0.194613 0.601015
O O16 0.058843 0.086080 0.508636
O O17 0.722566 0.039702 0.537289
#
# Coordination Sequence:
#
# PCOD9312281 Si02
#       8
#     4   4   4   4   4   4   4   4
#     4  10  22  39  58  88 120 157 194 241 297 360
#     4  10  22  36  56  88 121 156 192 242 298 358
#     4  11  21  41  61  87 122 160 200 248 303 358
#     4  10  21  37  57  88 119 154 192 240 297 354
#     4  11  20  35  60  88 119 151 197 248 291 357
#     4  10  23  39  60  91 117 155 205 250 297 354
#     4  10  21  37  60  85 118 154 200 248 295 359
#     4  10  22  39  60  91 113 157 200 252 297 345
#
# _framework density 23.211376000000001
#
# number of rings (size 3 to 8) (size 9 to 14) (size 15 to 20)
#    0.000    1.750    2.500    1.500    5.250    1.000 
#   13.500    0.000    0.000    0.000    3.250    0.000 
#    0.000    0.000    0.000    0.000    0.000    0.000 
#
# Total GULP energy -178684.246733 kJ/mol
# GULP energy per Si atom -5583.882710 kJ/mol
# Density = 2.315855 g / cm^3
# Si number density = 23.211376 Si / 1000 Ang^3
#
#
#
# Elastic Constant Matrix: (Units=GPa)
#
#
# Indices 1 2 3 4 5 6 
#
# 1 39.8679 16.8210 2.0721 0.0000 0.0000 0.0000
# 2 16.8210 101.0891 36.3018 0.0000 0.0000 0.0000
# 3 2.0721 36.3018 72.6931 0.0000 0.0000 0.0000
# 4 0.0000 0.0000 0.0000 -4.7826 0.0000 0.0000
# 5 0.0000 0.0000 0.0000 0.0000 19.1940 0.0000
# 6 0.0000 0.0000 0.0000 0.0000 0.0000 28.4775
#
#
#
# Elastic Compliance Matrix: (Units=1/GPa)
#
#
# Indices 1 2 3 4 5 6 
#
# 1 0.027170 -0.005170 0.001807 0.000000 0.000000 0.000000
# 2 -0.005170 0.013038 -0.006363 0.000000 0.000000 0.000000
# 3 0.001807 -0.006363 0.016883 0.000000 0.000000 0.000000
# 4 0.000000 0.000000 0.000000 -0.209089 0.000000 0.000000
# 5 0.000000 0.000000 0.000000 0.000000 0.052100 0.000000
# 6 0.000000 0.000000 0.000000 0.000000 0.000000 0.035115
#
#
# Mechanical properties :
#
#
# Convention : Reuss Voigt Hill
#
# Bulk Modulus (GPa) = 26.56864 36.00445 31.28654
# Shear Modulus (GPa) = -152.50965 19.14144 -66.68410
#
# Velocity S-wave (km/s) = -8.11464 2.87480 -5.36576
# Velocity P-wave (km/s) = 8.73643 5.15408 4.98802
#
# Compressibility (1/GPa) = 0.03763836
#
# Stress axis : x y z
#
# Youngs Moduli (GPa) = 36.80496 76.70042 59.23202
#
# Poissons Ratio (x) = 0.39655 -0.10706
# Poissons Ratio (y) = 0.19029 0.37692
# Poissons Ratio (z) = -0.06652 0.48808
#
# Static dielectric constant tensor:
#      x y z
#    x 1.958510 0.000000 0.000000 
#    y 0.000000 1.938940 0.000000 
#    z 0.000000 0.000000 1.851700 
# 
# From -- ./inp_files/5695.got.cif
#   From: 2010.05.17/outbox.cif.g08.bks.cpg/sg18_3_cif.got.tgz:5695.got - 2010.06.03 22:40:56.
