data_PCOD9312385
_publ_section_title
;
Structure prediction by ZEFSAII (Michael W. Deem and Ramdas Pophale) SiO2 
 PCOD9312385
Probable space group: P 21 21 2
;
_chemical_formula_sum "Si O2"
_cell_formula_units_Z 20
_cell_length_a 12.762057
_cell_length_b 5.023211
_cell_length_c 13.352905
_cell_angle_alpha 90.000000
_cell_angle_beta 90.000000
_cell_angle_gamma 90.000000
_cell_volume 856.008073
_symmetry_space_group_name_H-M "P 21 21 2"
_symmetry_group_IT_number 18
_symmetry_cell_setting 'orthorhombic'
loop_
_space_group_symop_operation_xyz
x,y,z
-x,-y,z
1/2+x,1/2-y,-z
1/2-x,1/2+y,-z
loop_
_atom_site_type_symbol
_atom_site_label
_atom_site_fract_x
_atom_site_fract_y
_atom_site_fract_z
Si Si1 0.164373 0.901826 0.891857
Si Si2 0.110001 0.405607 0.016619
Si Si3 0.886178 0.545248 0.581491
Si Si4 0.569876 0.235953 0.644689
Si Si5 0.203877 0.944187 0.670782
O O1 0.131241 0.610872 0.926393
O O2 0.142375 0.937232 0.775271
O O3 0.111708 0.115927 0.966013
O O4 0.289241 0.932002 0.912234
O O5 0.000000 0.500000 0.062160
O O6 0.909005 0.667182 0.472613
O O7 0.841221 0.247676 0.584038
O O8 0.000000 0.500000 0.631856
O O9 0.807290 0.752132 0.634271
O O10 0.500000 0.500000 0.654008
O O11 0.684018 0.192600 0.691212
O O12 0.500000 0.000000 0.686840
#
# Coordination Sequence:
#
# PCOD9312385 Si02
#       5
#     4   4   4   4   4
#     4  10  23  38  59  92 116 148 205 244 295 377
#     4  10  21  41  62  82 119 159 190 244 308 364
#     4  11  23  39  60  88 123 163 205 248 306 371
#     4  11  23  41  61  86 121 163 207 246 300 368
#     4  12  23  39  62  90 123 157 201 262 309 354
#
# _framework density 23.364267999999999
#
# number of rings (size 3 to 8) (size 9 to 14) (size 15 to 20)
#    0.000    1.200    0.000    7.200    0.000    5.600 
#    0.000    4.000    0.000    0.000    0.000    0.000 
#    0.000    0.000    0.000    0.000    0.000    0.000 
#
# Total GULP energy -111688.901779 kJ/mol
# GULP energy per Si atom -5584.445089 kJ/mol
# Density = 2.331109 g / cm^3
# Si number density = 23.364268 Si / 1000 Ang^3
#
#
#
# Elastic Constant Matrix: (Units=GPa)
#
#
# Indices 1 2 3 4 5 6 
#
# 1 117.4320 20.1364 -10.7759 0.0000 0.0000 0.0000
# 2 20.1364 112.7483 14.9845 0.0000 0.0000 0.0000
# 3 -10.7759 14.9845 69.1442 0.0000 0.0000 0.0000
# 4 0.0000 0.0000 0.0000 -4.1687 0.0000 0.0000
# 5 0.0000 0.0000 0.0000 0.0000 -2.6236 0.0000
# 6 0.0000 0.0000 0.0000 0.0000 0.0000 48.5181
#
#
#
# Elastic Compliance Matrix: (Units=1/GPa)
#
#
# Indices 1 2 3 4 5 6 
#
# 1 0.008998 -0.001846 0.001802 0.000000 0.000000 0.000000
# 2 -0.001846 0.009511 -0.002349 0.000000 0.000000 0.000000
# 3 0.001802 -0.002349 0.015252 0.000000 0.000000 0.000000
# 4 0.000000 0.000000 0.000000 -0.239885 0.000000 0.000000
# 5 0.000000 0.000000 0.000000 0.000000 -0.381150 0.000000
# 6 0.000000 0.000000 0.000000 0.000000 0.000000 0.020611
#
#
# Mechanical properties :
#
#
# Convention : Reuss Voigt Hill
#
# Bulk Modulus (GPa) = 34.51229 38.66830 36.59030
# Shear Modulus (GPa) = -9.05440 26.67711 8.81136
#
# Velocity S-wave (km/s) = -1.97072 3.38271 1.94409
# Velocity P-wave (km/s) = 3.10244 5.64296 4.55347
#
# Compressibility (1/GPa) = 0.02897519
#
# Stress axis : x y z
#
# Youngs Moduli (GPa) = 111.14098 105.13838 65.56309
#
# Poissons Ratio (x) = 0.19414 -0.11817
# Poissons Ratio (y) = 0.20522 0.15401
# Poissons Ratio (z) = -0.20032 0.24697
#
# Static dielectric constant tensor:
#      x y z
#    x 1.902700 0.000000 0.000000 
#    y 0.000000 1.832310 0.000000 
#    z 0.000000 0.000000 1.855520 
# 
# From -- ./inp_files/6417.got.cif
#   From: 2010.05.17/outbox.cif.g08.bks.cpg/sg18_4_cif.got.tgz:6417.got - 2010.06.03 22:40:56.
