data_PCOD9312447
_publ_section_title
;
Structure prediction by ZEFSAII (Michael W. Deem and Ramdas Pophale) SiO2 
 PCOD9312447
Probable space group: P 21 21 2
;
_chemical_formula_sum "Si O2"
_cell_formula_units_Z 20
_cell_length_a 14.094122
_cell_length_b 11.156394
_cell_length_c 4.928756
_cell_angle_alpha 90.000000
_cell_angle_beta 90.000000
_cell_angle_gamma 90.000000
_cell_volume 774.995514
_symmetry_space_group_name_H-M "P 21 21 2"
_symmetry_group_IT_number 18
_symmetry_cell_setting 'orthorhombic'
loop_
_space_group_symop_operation_xyz
x,y,z
-x,-y,z
1/2+x,1/2-y,-z
1/2-x,1/2+y,-z
loop_
_atom_site_type_symbol
_atom_site_label
_atom_site_fract_x
_atom_site_fract_y
_atom_site_fract_z
Si Si1 0.716843 0.443311 0.497831
Si Si2 0.597508 0.970033 0.761196
Si Si3 0.235331 0.902348 0.979103
Si Si4 0.525582 0.359672 0.644560
Si Si5 0.572030 0.758719 0.144477
O O1 0.824068 0.404669 0.427423
O O2 0.725775 0.551204 0.715458
O O3 0.638362 0.351889 0.597479
O O4 0.683459 0.498199 0.210722
O O5 0.500000 0.000000 0.616103
O O6 0.657122 0.083433 0.874833
O O7 0.430896 0.109812 0.018119
O O8 0.180675 0.782587 0.910106
O O9 0.500000 0.500000 0.600533
O O10 0.469191 0.275676 0.434918
O O11 0.490879 0.322123 0.939345
#
# Coordination Sequence:
#
# PCOD9312447 Si02
#       5
#     4   4   4   4   4
#     4  10  22  42  68  90 138 167 222 289 329 383
#     4  10  27  48  65 101 145 184 228 287 337 421
#     4  10  21  43  67  94 133 173 231 282 326 409
#     4  12  21  41  68 105 133 168 232 293 331 410
#     4  12  24  41  74 100 134 186 225 277 367 393
#
# _framework density 25.806602000000002
#
# number of rings (size 3 to 8) (size 9 to 14) (size 15 to 20)
#    1.200    0.000    4.000    1.800    2.800    2.400 
#    3.600    0.000    0.000    0.000    0.000    0.000 
#    0.000    0.000    0.000    0.000    0.000    0.000 
#
# Total GULP energy -111892.587247 kJ/mol
# GULP energy per Si atom -5594.629362 kJ/mol
# Density = 2.574787 g / cm^3
# Si number density = 25.806602 Si / 1000 Ang^3
#
#
#
# Elastic Constant Matrix: (Units=GPa)
#
#
# Indices 1 2 3 4 5 6 
#
# 1 181.4422 39.5942 2.4921 0.0000 0.0000 0.0000
# 2 39.5942 81.8773 5.0300 0.0000 0.0000 0.0000
# 3 2.4921 5.0300 83.1956 0.0000 0.0000 0.0000
# 4 0.0000 0.0000 0.0000 32.4327 0.0000 0.0000
# 5 0.0000 0.0000 0.0000 0.0000 26.4536 0.0000
# 6 0.0000 0.0000 0.0000 0.0000 0.0000 36.6717
#
#
#
# Elastic Compliance Matrix: (Units=1/GPa)
#
#
# Indices 1 2 3 4 5 6 
#
# 1 0.006162 -0.002979 -0.000004 0.000000 0.000000 0.000000
# 2 -0.002979 0.013700 -0.000739 0.000000 0.000000 0.000000
# 3 -0.000004 -0.000739 0.012065 0.000000 0.000000 0.000000
# 4 0.000000 0.000000 0.000000 0.030833 0.000000 0.000000
# 5 0.000000 0.000000 0.000000 0.000000 0.037802 0.000000
# 6 0.000000 0.000000 0.000000 0.000000 0.000000 0.027269
#
#
# Mechanical properties :
#
#
# Convention : Reuss Voigt Hill
#
# Bulk Modulus (GPa) = 40.84935 48.97197 44.91066
# Shear Modulus (GPa) = 34.85882 39.07151 36.96517
#
# Velocity S-wave (km/s) = 3.67927 3.89525 3.78880
# Velocity P-wave (km/s) = 5.82347 6.26485 6.04819
#
# Compressibility (1/GPa) = 0.02448019
#
# Stress axis : x y z
#
# Youngs Moduli (GPa) = 162.29526 72.99509 82.88658
#
# Poissons Ratio (x) = 0.21748 0.00037
# Poissons Ratio (y) = 0.48353 0.06126
# Poissons Ratio (z) = 0.00072 0.05395
#
# Static dielectric constant tensor:
#      x y z
#    x 2.100440 0.000000 0.000000 
#    y 0.000000 2.002760 0.000000 
#    z 0.000000 0.000000 1.990530 
# 
# From -- ./inp_files/1442.got.cif
#   From: 2010.05.17/outbox.cif.g08.bks.cpg/sg18_1_cif.got.tgz:1442.got - 2010.06.03 22:40:56.
