data_PCOD9312016
_publ_section_title
;
Structure prediction by ZEFSAII (Michael W. Deem and Ramdas Pophale) SiO2 
 PCOD9312016
Probable space group: P 21 21 2
;
_chemical_formula_sum "Si O2"
_cell_formula_units_Z 26
_cell_length_a 18.402583
_cell_length_b 11.005542
_cell_length_c 5.164869
_cell_angle_alpha 90.000000
_cell_angle_beta 90.000000
_cell_angle_gamma 90.000000
_cell_volume 1046.042985
_symmetry_space_group_name_H-M "P 21 21 2"
_symmetry_group_IT_number 18
_symmetry_cell_setting 'orthorhombic'
loop_
_space_group_symop_operation_xyz
x,y,z
-x,-y,z
1/2+x,1/2-y,-z
1/2-x,1/2+y,-z
loop_
_atom_site_type_symbol
_atom_site_label
_atom_site_fract_x
_atom_site_fract_y
_atom_site_fract_z
Si Si1 0.248024 0.820263 0.004635
Si Si2 0.224877 0.112740 0.577302
Si Si3 0.365430 0.183780 0.358967
Si Si4 0.644993 0.574204 0.629703
Si Si5 0.500000 0.500000 0.490966
Si Si6 0.880687 0.715833 0.270728
Si Si7 0.477493 0.763696 0.239142
O O1 0.275949 0.715418 0.203641
O O2 0.209607 0.924485 0.169253
O O3 0.184604 0.752486 0.849016
O O4 0.317482 0.868972 0.848358
O O5 0.307426 0.091645 0.482901
O O6 0.173538 0.173497 0.353757
O O7 0.180230 0.990109 0.622756
O O8 0.374658 0.286030 0.580676
O O9 0.445848 0.163276 0.249955
O O10 0.569208 0.511234 0.674797
O O11 0.493265 0.622555 0.320766
O O12 0.924956 0.686490 0.531606
O O13 0.938028 0.733999 0.038131
#
# Coordination Sequence:
#
# PCOD9312016 Si02
#       7
#     4   4   4   4   2   4   4
#     4  10  21  38  60  89 128 165 213 251 307 384
#     4  10  20  39  59  90 124 167 205 250 314 377
#     4   9  23  35  57  93 125 161 207 256 313 370
#     4  10  20  36  59  93 129 165 203 257 309 382
#     4  10  20  36  54  98 134 160 200 250 330 376
#     4  11  21  39  60  86 120 170 206 243 312 372
#     4  11  23  36  60  89 127 165 204 261 311 378
#
# _framework density 24.855575000000002
#
# number of rings (size 3 to 8) (size 9 to 14) (size 15 to 20)
#    0.000    1.846    3.077    0.000    6.462    5.538 
#    0.000    0.000    0.000    0.923    8.000    0.000 
#    0.000    0.000    0.000    0.000    0.000    0.000 
#
# Total GULP energy -145046.718392 kJ/mol
# GULP energy per Si atom -5578.719938 kJ/mol
# Density = 2.479900 g / cm^3
# Si number density = 24.855575 Si / 1000 Ang^3
#
#
#
# Elastic Constant Matrix: (Units=GPa)
#
#
# Indices 1 2 3 4 5 6 
#
# 1 187.2174 18.7040 54.1771 0.0000 0.0000 0.0000
# 2 18.7040 23.4581 18.6659 0.0000 0.0000 0.0000
# 3 54.1771 18.6659 111.0254 0.0000 0.0000 0.0000
# 4 0.0000 0.0000 0.0000 22.9140 0.0000 0.0000
# 5 0.0000 0.0000 0.0000 0.0000 51.7923 0.0000
# 6 0.0000 0.0000 0.0000 0.0000 0.0000 24.0200
#
#
#
# Elastic Compliance Matrix: (Units=1/GPa)
#
#
# Indices 1 2 3 4 5 6 
#
# 1 0.006400 -0.003022 -0.002615 0.000000 0.000000 0.000000
# 2 -0.003022 0.050640 -0.007039 0.000000 0.000000 0.000000
# 3 -0.002615 -0.007039 0.011466 0.000000 0.000000 0.000000
# 4 0.000000 0.000000 0.000000 0.043641 0.000000 0.000000
# 5 0.000000 0.000000 0.000000 0.000000 0.019308 0.000000
# 6 0.000000 0.000000 0.000000 0.000000 0.000000 0.041632
#
#
# Mechanical properties :
#
#
# Convention : Reuss Voigt Hill
#
# Bulk Modulus (GPa) = 23.17277 56.08832 39.63054
# Shear Modulus (GPa) = 23.49354 35.08887 29.29121
#
# Velocity S-wave (km/s) = 3.07775 3.76135 3.43659
# Velocity P-wave (km/s) = 4.68756 6.44037 5.63257
#
# Compressibility (1/GPa) = 0.04315409
#
# Stress axis : x y z
#
# Youngs Moduli (GPa) = 156.24930 19.74725 87.21169
#
# Poissons Ratio (x) = 0.05968 0.22805
# Poissons Ratio (y) = 0.47223 0.61388
# Poissons Ratio (z) = 0.40858 0.13900
#
# Static dielectric constant tensor:
#      x y z
#    x 1.979070 0.000000 0.000000 
#    y 0.000000 2.147070 0.000000 
#    z 0.000000 0.000000 2.050690 
# 
# From -- ./inp_files/1792.got.cif
#   From: 2010.05.17/outbox.cif.g08.bks.cpg/sg18_1_cif.got.tgz:1792.got - 2010.06.03 22:40:56.
