data_PCOD9312485
_publ_section_title
;
Structure prediction by ZEFSAII (Michael W. Deem and Ramdas Pophale) SiO2 
 PCOD9312485
Probable space group: P 21 21 2
;
_chemical_formula_sum "Si O2"
_cell_formula_units_Z 28
_cell_length_a 19.310401
_cell_length_b 8.148615
_cell_length_c 8.716176
_cell_angle_alpha 90.000000
_cell_angle_beta 90.000000
_cell_angle_gamma 90.000000
_cell_volume 1371.516645
_symmetry_space_group_name_H-M "P 21 21 2"
_symmetry_group_IT_number 18
_symmetry_cell_setting 'orthorhombic'
loop_
_space_group_symop_operation_xyz
x,y,z
-x,-y,z
1/2+x,1/2-y,-z
1/2-x,1/2+y,-z
loop_
_atom_site_type_symbol
_atom_site_label
_atom_site_fract_x
_atom_site_fract_y
_atom_site_fract_z
Si Si1 0.722654 0.509976 0.718386
Si Si2 0.409727 0.343920 0.891349
Si Si3 0.090273 0.156080 0.608651
Si Si4 0.197467 0.668357 0.959214
Si Si5 0.777346 0.990024 0.781614
Si Si6 0.500000 0.500000 0.151787
Si Si7 0.500000 0.500000 0.651788
Si Si8 0.697467 0.168357 0.540786
O O1 0.655901 0.564107 0.814625
O O2 0.785734 0.469684 0.834123
O O3 0.707371 0.340613 0.628346
O O4 0.746061 0.641361 0.592621
O O5 0.469297 0.358354 0.762744
O O6 0.376721 0.176510 0.956837
O O7 0.440483 0.436313 0.039015
O O8 0.030703 0.141646 0.737256
O O9 0.123279 0.323490 0.543163
O O10 0.155901 0.064107 0.685375
O O11 0.059517 0.063687 0.460985
O O12 0.207371 0.840613 0.871654
O O13 0.253939 0.641361 0.092622
O O14 0.714266 0.030316 0.665877
#
# Coordination Sequence:
#
# PCOD9312485 Si02
#       8
#     4   4   4   4   4   2   2   4
#     4  11  22  37  62  95 124 156 191 260 317 358
#     4  11  20  39  59  93 114 159 205 251 289 361
#     4  11  20  39  59  93 114 159 205 251 289 361
#     4  11  22  37  60  95 126 152 197 251 318 358
#     4  11  22  37  62  95 124 156 191 260 317 358
#     4  10  22  36  62  86 120 164 210 244 280 360
#     4  10  22  36  62  86 120 164 210 244 280 360
#     4  11  22  37  60  95 126 152 197 251 318 358
#
# _framework density 20.415355000000002
#
# number of rings (size 3 to 8) (size 9 to 14) (size 15 to 20)
#    0.000    1.143    5.714    0.857    0.000    0.000 
#    0.000    0.000    0.000    5.143    0.000    0.000 
#    0.000    0.000    0.000    0.000    0.000    0.000 
#
# Total GULP energy -156069.398242 kJ/mol
# GULP energy per Si atom -5573.907080 kJ/mol
# Density = 2.036889 g / cm^3
# Si number density = 20.415355 Si / 1000 Ang^3
#
#
#
# Elastic Constant Matrix: (Units=GPa)
#
#
# Indices 1 2 3 4 5 6 
#
# 1 77.1007 15.9213 40.6505 0.0000 0.0000 0.0000
# 2 15.9213 37.2651 15.1628 0.0000 0.0000 0.0000
# 3 40.6505 15.1628 127.0685 0.0000 0.0000 0.0000
# 4 0.0000 0.0000 0.0000 26.7549 0.0000 0.0000
# 5 0.0000 0.0000 0.0000 0.0000 44.2235 0.0000
# 6 0.0000 0.0000 0.0000 0.0000 0.0000 26.3826
#
#
#
# Elastic Compliance Matrix: (Units=1/GPa)
#
#
# Indices 1 2 3 4 5 6 
#
# 1 0.016491 -0.005149 -0.004661 0.000000 0.000000 0.000000
# 2 -0.005149 0.029812 -0.001910 0.000000 0.000000 0.000000
# 3 -0.004661 -0.001910 0.009589 0.000000 0.000000 0.000000
# 4 0.000000 0.000000 0.000000 0.037376 0.000000 0.000000
# 5 0.000000 0.000000 0.000000 0.000000 0.022612 0.000000
# 6 0.000000 0.000000 0.000000 0.000000 0.000000 0.037904
#
#
# Mechanical properties :
#
#
# Convention : Reuss Voigt Hill
#
# Bulk Modulus (GPa) = 30.81581 42.76705 36.79143
# Shear Modulus (GPa) = 26.58983 30.78552 28.68768
#
# Velocity S-wave (km/s) = 3.61285 3.88746 3.75267
# Velocity P-wave (km/s) = 5.70358 6.41434 6.06937
#
# Compressibility (1/GPa) = 0.03245088
#
# Stress axis : x y z
#
# Youngs Moduli (GPa) = 60.63958 33.54363 104.28767
#
# Poissons Ratio (x) = 0.17272 0.48610
# Poissons Ratio (y) = 0.31224 0.19921
# Poissons Ratio (z) = 0.28265 0.06407
#
# Static dielectric constant tensor:
#      x y z
#    x 1.762670 0.000000 0.000000 
#    y 0.000000 1.736780 0.000000 
#    z 0.000000 0.000000 1.779580 
# 
# From -- ./inp_files/4666.got.cif
#   From: 2010.05.17/outbox.cif.g08.bks.cpg/sg18_3_cif.got.tgz:4666.got - 2010.06.03 22:40:56.
