data_PCOD9312358
_publ_section_title
;
Structure prediction by ZEFSAII (Michael W. Deem and Ramdas Pophale) SiO2 
 PCOD9312358
Probable space group: P 21 21 2
;
_chemical_formula_sum "Si O2"
_cell_formula_units_Z 22
_cell_length_a 13.329438
_cell_length_b 5.070726
_cell_length_c 13.272767
_cell_angle_alpha 90.000000
_cell_angle_beta 90.000000
_cell_angle_gamma 90.000000
_cell_volume 897.105364
_symmetry_space_group_name_H-M "P 21 21 2"
_symmetry_group_IT_number 18
_symmetry_cell_setting 'orthorhombic'
loop_
_space_group_symop_operation_xyz
x,y,z
-x,-y,z
1/2+x,1/2-y,-z
1/2-x,1/2+y,-z
loop_
_atom_site_type_symbol
_atom_site_label
_atom_site_fract_x
_atom_site_fract_y
_atom_site_fract_z
Si Si1 0.199573 0.865280 0.374313
Si Si2 0.834837 0.978718 0.759918
Si Si3 0.500000 0.500000 0.089600
Si Si4 0.000000 0.500000 0.037710
Si Si5 0.500000 0.500000 0.399799
Si Si6 0.281839 0.804899 0.933865
Si Si7 0.624116 0.136054 0.540299
O O1 0.260783 0.742260 0.282251
O O2 0.280549 0.886186 0.464965
O O3 0.118598 0.644621 0.406015
O O4 0.149293 0.149209 0.373558
O O5 0.774502 0.185780 0.826912
O O6 0.904465 0.085410 0.668607
O O7 0.916742 0.871191 0.838227
O O8 0.462200 0.253212 0.025749
O O9 0.101258 0.379762 0.086223
O O10 0.541546 0.265513 0.468127
O O11 0.263399 0.534479 0.993554
#
# Coordination Sequence:
#
# PCOD9312358 Si02
#       7
#     4   4   2   2   2   4   4
#     4   9  19  34  58  80 123 155 203 245 320 374
#     4  10  21  40  63 100 125 169 223 275 318 393
#     4  11  22  38  66  93 126 162 225 274 316 384
#     4  12  22  42  62  94 126 176 220 264 332 404
#     4   9  20  38  66  95 126 160 227 270 310 396
#     4  12  24  42  66  92 136 180 216 279 342 387
#     4   9  18  36  54  85 116 161 189 258 317 369
#
# _framework density 24.523319000000001
#
# number of rings (size 3 to 8) (size 9 to 14) (size 15 to 20)
#    0.000    1.818    3.636    0.000    0.000    3.636 
#    0.000   18.182    0.000    0.000    0.000    0.000 
#    0.000    0.000    0.000    0.000    0.000    0.000 
#
# Total GULP energy -122934.652093 kJ/mol
# GULP energy per Si atom -5587.938732 kJ/mol
# Density = 2.446750 g / cm^3
# Si number density = 24.523319 Si / 1000 Ang^3
#
#
#
# Elastic Constant Matrix: (Units=GPa)
#
#
# Indices 1 2 3 4 5 6 
#
# 1 124.3933 16.5627 44.7286 0.0000 0.0000 0.0000
# 2 16.5627 110.8575 17.5977 0.0000 0.0000 0.0000
# 3 44.7286 17.5977 69.9614 0.0000 0.0000 0.0000
# 4 0.0000 0.0000 0.0000 12.3141 0.0000 0.0000
# 5 0.0000 0.0000 0.0000 0.0000 40.1085 0.0000
# 6 0.0000 0.0000 0.0000 0.0000 0.0000 33.7943
#
#
#
# Elastic Compliance Matrix: (Units=1/GPa)
#
#
# Indices 1 2 3 4 5 6 
#
# 1 0.010468 -0.000522 -0.006561 0.000000 0.000000 0.000000
# 2 -0.000522 0.009422 -0.002036 0.000000 0.000000 0.000000
# 3 -0.006561 -0.002036 0.019000 0.000000 0.000000 0.000000
# 4 0.000000 0.000000 0.000000 0.081208 0.000000 0.000000
# 5 0.000000 0.000000 0.000000 0.000000 0.024932 0.000000
# 6 0.000000 0.000000 0.000000 0.000000 0.000000 0.029591
#
#
# Mechanical properties :
#
#
# Convention : Reuss Voigt Hill
#
# Bulk Modulus (GPa) = 48.42312 51.44337 49.93325
# Shear Modulus (GPa) = 25.03215 32.33158 28.68187
#
# Velocity S-wave (km/s) = 3.19838 3.63492 3.42362
# Velocity P-wave (km/s) = 5.78171 6.21609 6.00283
#
# Compressibility (1/GPa) = 0.02065129
#
# Stress axis : x y z
#
# Youngs Moduli (GPa) = 95.53182 106.13648 52.63074
#
# Poissons Ratio (x) = 0.05545 0.34531
# Poissons Ratio (y) = 0.04991 0.10715
# Poissons Ratio (z) = 0.62678 0.21608
#
# Static dielectric constant tensor:
#      x y z
#    x 2.119990 0.000000 0.000000 
#    y 0.000000 1.909570 0.000000 
#    z 0.000000 0.000000 1.946990 
# 
# From -- ./inp_files/6963.got.cif
#   From: 2010.05.17/outbox.cif.g08.bks.cpg/sg18_4_cif.got.tgz:6963.got - 2010.06.03 22:40:56.
