data_PCOD9312069
_publ_section_title
;
Structure prediction by ZEFSAII (Michael W. Deem and Ramdas Pophale) SiO2 
 PCOD9312069
Probable space group: P 21 21 2
;
_chemical_formula_sum "Si O2"
_cell_formula_units_Z 30
_cell_length_a 24.657876
_cell_length_b 9.055709
_cell_length_c 5.212106
_cell_angle_alpha 90.000000
_cell_angle_beta 90.000000
_cell_angle_gamma 90.000000
_cell_volume 1163.834862
_symmetry_space_group_name_H-M "P 21 21 2"
_symmetry_group_IT_number 18
_symmetry_cell_setting 'orthorhombic'
loop_
_space_group_symop_operation_xyz
x,y,z
-x,-y,z
1/2+x,1/2-y,-z
1/2-x,1/2+y,-z
loop_
_atom_site_type_symbol
_atom_site_label
_atom_site_fract_x
_atom_site_fract_y
_atom_site_fract_z
Si Si1 0.777435 0.089487 0.408611
Si Si2 0.832097 0.296205 0.053837
Si Si3 0.719376 0.287899 0.788928
Si Si4 0.500000 0.500000 0.593727
Si Si5 0.025966 0.268723 0.099495
Si Si6 0.569055 0.730676 0.247253
Si Si7 0.429656 0.932771 0.415698
Si Si8 0.333435 0.896636 0.120418
O O1 0.745826 0.146576 0.652998
O O2 0.729039 0.098284 0.200960
O O3 0.793077 0.918764 0.409450
O O4 0.824154 0.200417 0.309048
O O5 0.771167 0.329641 0.961070
O O6 0.869034 0.208621 0.847995
O O7 0.854502 0.463322 0.044510
O O8 0.666015 0.248843 0.948396
O O9 0.536014 0.393673 0.777617
O O10 0.538285 0.604380 0.412195
O O11 0.043392 0.375871 0.327474
O O12 0.049188 0.338064 0.833603
O O13 0.963069 0.252935 0.020924
O O14 0.564333 0.891190 0.383076
O O15 0.366284 0.899070 0.383089
#
# Coordination Sequence:
#
# PCOD9312069 Si02
#       8
#     4   4   4   2   4   4   4   4
#     4  10  20  37  63  95 136 176 222 285 349 427
#     4   9  21  43  65  95 131 182 234 279 362 424
#     4  10  20  37  64  97 138 176 226 289 350 424
#     4  12  28  48  70 104 150 188 236 312 376 422
#     4  12  27  48  73 105 139 190 242 305 356 432
#     4  11  26  49  73 104 146 197 242 310 368 445
#     4  11  27  46  78 106 138 189 255 296 366 439
#     4   9  21  42  64  96 131 172 230 293 345 424
#
# _framework density 25.776854
#
# number of rings (size 3 to 8) (size 9 to 14) (size 15 to 20)
#    0.000    1.600    1.333    1.600    5.600    3.200 
#    7.200    0.000    0.000    0.000    0.000    0.000 
#    0.000    0.000    0.000    0.000    0.000    0.000 
#
# Total GULP energy -167393.930343 kJ/mol
# GULP energy per Si atom -5579.797678 kJ/mol
# Density = 2.571818 g / cm^3
# Si number density = 25.776854 Si / 1000 Ang^3
#
#
#
# Elastic Constant Matrix: (Units=GPa)
#
#
# Indices 1 2 3 4 5 6 
#
# 1 45.8991 12.2790 10.8257 0.0000 0.0000 0.0000
# 2 12.2790 60.6095 18.2407 0.0000 0.0000 0.0000
# 3 10.8257 18.2407 117.4984 0.0000 0.0000 0.0000
# 4 0.0000 0.0000 0.0000 38.9317 0.0000 0.0000
# 5 0.0000 0.0000 0.0000 0.0000 20.7303 0.0000
# 6 0.0000 0.0000 0.0000 0.0000 0.0000 29.6230
#
#
#
# Elastic Compliance Matrix: (Units=1/GPa)
#
#
# Indices 1 2 3 4 5 6 
#
# 1 0.023279 -0.004270 -0.001482 0.000000 0.000000 0.000000
# 2 -0.004270 0.018091 -0.002415 0.000000 0.000000 0.000000
# 3 -0.001482 -0.002415 0.009022 0.000000 0.000000 0.000000
# 4 0.000000 0.000000 0.000000 0.025686 0.000000 0.000000
# 5 0.000000 0.000000 0.000000 0.000000 0.048239 0.000000
# 6 0.000000 0.000000 0.000000 0.000000 0.000000 0.033758
#
#
# Mechanical properties :
#
#
# Convention : Reuss Voigt Hill
#
# Bulk Modulus (GPa) = 29.36181 34.07754 31.71967
# Shear Modulus (GPa) = 26.91631 30.03441 28.47536
#
# Velocity S-wave (km/s) = 3.23492 3.41716 3.32729
# Velocity P-wave (km/s) = 5.03671 5.36826 5.20513
#
# Compressibility (1/GPa) = 0.03405785
#
# Stress axis : x y z
#
# Youngs Moduli (GPa) = 42.95756 55.27616 110.83760
#
# Poissons Ratio (x) = 0.23604 0.16425
# Poissons Ratio (y) = 0.18343 0.26768
# Poissons Ratio (z) = 0.06366 0.13350
#
# Static dielectric constant tensor:
#      x y z
#    x 2.158220 0.000000 0.000000 
#    y 0.000000 2.164980 0.000000 
#    z 0.000000 0.000000 2.066990 
# 
# From -- ./inp_files/2287.got.cif
#   From: 2010.05.17/outbox.cif.g08.bks.cpg/sg18_2_cif.got.tgz:2287.got - 2010.06.03 22:40:56.
