data_PCOD9312280
_publ_section_title
;
Structure prediction by ZEFSAII (Michael W. Deem and Ramdas Pophale) SiO2 
 PCOD9312280
Probable space group: P 21 21 2
;
_chemical_formula_sum "Si O2"
_cell_formula_units_Z 30
_cell_length_a 8.218423
_cell_length_b 26.913160
_cell_length_c 6.402099
_cell_angle_alpha 90.000000
_cell_angle_beta 90.000000
_cell_angle_gamma 90.000000
_cell_volume 1416.040157
_symmetry_space_group_name_H-M "P 21 21 2"
_symmetry_group_IT_number 18
_symmetry_cell_setting 'orthorhombic'
loop_
_space_group_symop_operation_xyz
x,y,z
-x,-y,z
1/2+x,1/2-y,-z
1/2-x,1/2+y,-z
loop_
_atom_site_type_symbol
_atom_site_label
_atom_site_fract_x
_atom_site_fract_y
_atom_site_fract_z
Si Si1 0.751986 0.809859 0.198186
Si Si2 0.923483 0.334345 0.412116
Si Si3 0.562290 0.895063 0.971832
Si Si4 0.202819 0.345203 0.756417
Si Si5 0.576751 0.565929 0.666594
Si Si6 0.000000 0.000000 0.713597
Si Si7 0.417062 0.257626 0.905732
Si Si8 0.276436 0.521050 0.908630
O O1 0.731605 0.823394 0.440472
O O2 0.923038 0.790648 0.116432
O O3 0.694725 0.858058 0.073333
O O4 0.625084 0.766364 0.129595
O O5 0.921949 0.384453 0.274342
O O6 0.937727 0.288599 0.252271
O O7 0.074754 0.337615 0.570032
O O8 0.611462 0.948964 0.055454
O O9 0.391809 0.874782 0.059984
O O10 0.350786 0.379645 0.680303
O O11 0.269503 0.293127 0.838443
O O12 0.531017 0.546696 0.437290
O O13 0.416368 0.556474 0.806320
O O14 0.710995 0.527244 0.761300
O O15 0.153261 0.006964 0.864857
#
# Coordination Sequence:
#
# PCOD9312280 Si02
#       8
#     4   4   4   4   4   2   4   4
#     4  10  21  37  57  81 109 146 187 230 283 336
#     4  10  22  37  55  83 114 147 190 235 285 342
#     4  10  22  38  55  82 115 149 187 233 283 341
#     4  11  23  38  57  84 117 152 195 239 291 349
#     4   9  20  38  61  87 113 151 193 236 286 348
#     4   8  18  36  60  86 110 144 192 234 284 344
#     4  11  21  38  59  81 113 149 189 240 289 342
#     4   9  19  38  60  82 114 149 190 236 287 343
#
# _framework density 21.185838
#
# number of rings (size 3 to 8) (size 9 to 14) (size 15 to 20)
#    0.000    2.400    0.000    4.000    0.000    9.067 
#    0.000    1.333    0.000    0.000    0.000    0.000 
#    0.000    0.000    0.000    0.000    0.000    0.000 
#
# Total GULP energy -167470.050533 kJ/mol
# GULP energy per Si atom -5582.335018 kJ/mol
# Density = 2.113762 g / cm^3
# Si number density = 21.185838 Si / 1000 Ang^3
#
#
#
# Elastic Constant Matrix: (Units=GPa)
#
#
# Indices 1 2 3 4 5 6 
#
# 1 41.8855 -3.2672 -8.2198 0.0000 0.0000 0.0000
# 2 -3.2672 49.7040 -14.2327 0.0000 0.0000 0.0000
# 3 -8.2198 -14.2327 66.0909 0.0000 0.0000 0.0000
# 4 0.0000 0.0000 0.0000 5.6523 0.0000 0.0000
# 5 0.0000 0.0000 0.0000 0.0000 9.6161 0.0000
# 6 0.0000 0.0000 0.0000 0.0000 0.0000 47.2827
#
#
#
# Elastic Compliance Matrix: (Units=1/GPa)
#
#
# Indices 1 2 3 4 5 6 
#
# 1 0.024802 0.002679 0.003662 0.000000 0.000000 0.000000
# 2 0.002679 0.021731 0.005013 0.000000 0.000000 0.000000
# 3 0.003662 0.005013 0.016666 0.000000 0.000000 0.000000
# 4 0.000000 0.000000 0.000000 0.176918 0.000000 0.000000
# 5 0.000000 0.000000 0.000000 0.000000 0.103992 0.000000
# 6 0.000000 0.000000 0.000000 0.000000 0.000000 0.021149
#
#
# Mechanical properties :
#
#
# Convention : Reuss Voigt Hill
#
# Bulk Modulus (GPa) = 11.64079 11.80455 11.72267
# Shear Modulus (GPa) = 13.47031 24.73689 19.10360
#
# Velocity S-wave (km/s) = 2.52428 3.42074 3.00612
# Velocity P-wave (km/s) = 3.74199 4.60282 4.19455
#
# Compressibility (1/GPa) = 0.08590480
#
# Stress axis : x y z
#
# Youngs Moduli (GPa) = 40.31912 46.01800 60.00387
#
# Poissons Ratio (x) = -0.12327 -0.21971
# Poissons Ratio (y) = -0.10801 -0.30079
# Poissons Ratio (z) = -0.14763 -0.23068
#
# Static dielectric constant tensor:
#      x y z
#    x 1.804760 0.000000 0.000000 
#    y 0.000000 1.795440 0.000000 
#    z 0.000000 0.000000 1.761060 
# 
# From -- ./inp_files/768.got.cif
#   From: 2010.05.17/outbox.cif.g08.bks.cpg/sg18_1_cif.got.tgz:768.got - 2010.06.03 22:40:56.
