data_PCOD9312051
_publ_section_title
;
Structure prediction by ZEFSAII (Michael W. Deem and Ramdas Pophale) SiO2 
 PCOD9312051
Probable space group: P 21 21 2
;
_chemical_formula_sum "Si O2"
_cell_formula_units_Z 20
_cell_length_a 9.877949
_cell_length_b 7.661755
_cell_length_c 11.707652
_cell_angle_alpha 90.000000
_cell_angle_beta 90.000000
_cell_angle_gamma 90.000000
_cell_volume 886.063496
_symmetry_space_group_name_H-M "P 21 21 2"
_symmetry_group_IT_number 18
_symmetry_cell_setting 'orthorhombic'
loop_
_space_group_symop_operation_xyz
x,y,z
-x,-y,z
1/2+x,1/2-y,-z
1/2-x,1/2+y,-z
loop_
_atom_site_type_symbol
_atom_site_label
_atom_site_fract_x
_atom_site_fract_y
_atom_site_fract_z
Si Si1 0.348388 0.289195 0.599118
Si Si2 0.273174 0.592490 0.968537
Si Si3 0.669064 0.307322 0.618197
Si Si4 0.338968 0.997500 0.784413
Si Si5 0.045384 0.823020 0.973084
O O1 0.511397 0.274609 0.584444
O O2 0.317866 0.486439 0.638570
O O3 0.268454 0.251083 0.482739
O O4 0.305276 0.145294 0.691033
O O5 0.228781 0.545532 0.097122
O O6 0.135860 0.673281 0.918680
O O7 0.400812 0.727330 0.974416
O O8 0.354022 0.416027 0.932988
O O9 0.696911 0.188170 0.728168
O O10 0.500000 0.000000 0.799347
O O11 0.000000 0.000000 0.904682
#
# Coordination Sequence:
#
# PCOD9312051 Si02
#       5
#     4   4   4   4   4
#     4  10  20  37  58  87 116 162 205 247 300 358
#     4   9  20  40  58  91 115 156 200 252 309 376
#     4  10  20  37  58  85 118 160 208 246 299 358
#     4  10  21  36  61  86 124 162 205 251 304 365
#     4   8  21  37  63  85 118 155 201 241 326 361
#
# _framework density 22.571746000000001
#
# number of rings (size 3 to 8) (size 9 to 14) (size 15 to 20)
#    1.200    1.200    2.000    0.000    2.800    0.000 
#   18.000    0.000    0.000    0.000    0.000    0.000 
#    0.000    0.000    0.000    0.000    0.000    0.000 
#
# Total GULP energy -111387.890512 kJ/mol
# GULP energy per Si atom -5569.394526 kJ/mol
# Density = 2.252037 g / cm^3
# Si number density = 22.571746 Si / 1000 Ang^3
#
#
#
# Elastic Constant Matrix: (Units=GPa)
#
#
# Indices 1 2 3 4 5 6 
#
# 1 88.8570 62.4020 37.2765 0.0000 0.0000 0.0000
# 2 62.4020 108.7226 32.7497 0.0000 0.0000 0.0000
# 3 37.2765 32.7497 87.2682 0.0000 0.0000 0.0000
# 4 0.0000 0.0000 0.0000 29.3431 0.0000 0.0000
# 5 0.0000 0.0000 0.0000 0.0000 25.9408 0.0000
# 6 0.0000 0.0000 0.0000 0.0000 0.0000 45.9290
#
#
#
# Elastic Compliance Matrix: (Units=1/GPa)
#
#
# Indices 1 2 3 4 5 6 
#
# 1 0.020564 -0.010324 -0.004910 0.000000 0.000000 0.000000
# 2 -0.010324 0.015553 -0.001427 0.000000 0.000000 0.000000
# 3 -0.004910 -0.001427 0.014091 0.000000 0.000000 0.000000
# 4 0.000000 0.000000 0.000000 0.034080 0.000000 0.000000
# 5 0.000000 0.000000 0.000000 0.000000 0.038549 0.000000
# 6 0.000000 0.000000 0.000000 0.000000 0.000000 0.021773
#
#
# Mechanical properties :
#
#
# Convention : Reuss Voigt Hill
#
# Bulk Modulus (GPa) = 59.21422 61.07825 60.14624
# Shear Modulus (GPa) = 27.23912 30.40389 28.82150
#
# Velocity S-wave (km/s) = 3.47764 3.67412 3.57723
# Velocity P-wave (km/s) = 6.51276 6.71693 6.61563
#
# Compressibility (1/GPa) = 0.01688783
#
# Stress axis : x y z
#
# Youngs Moduli (GPa) = 48.62914 64.29644 70.96491
#
# Poissons Ratio (x) = 0.66379 0.34840
# Poissons Ratio (y) = 0.50204 0.10126
# Poissons Ratio (z) = 0.23874 0.09174
#
# Static dielectric constant tensor:
#      x y z
#    x 1.898020 0.000000 0.000000 
#    y 0.000000 1.961870 0.000000 
#    z 0.000000 0.000000 1.783500 
# 
# From -- ./inp_files/5414.got.cif
#   From: 2010.05.17/outbox.cif.g08.bks.cpg/sg18_3_cif.got.tgz:5414.got - 2010.06.03 22:40:56.
