data_PCOD9312623
_publ_section_title
;
Structure prediction by ZEFSAII (Michael W. Deem and Ramdas Pophale) SiO2 
 PCOD9312623
Probable space group: P 21 21 2
;
_chemical_formula_sum "Si O2"
_cell_formula_units_Z 26
_cell_length_a 24.818607
_cell_length_b 4.827425
_cell_length_c 8.205253
_cell_angle_alpha 90.000000
_cell_angle_beta 90.000000
_cell_angle_gamma 90.000000
_cell_volume 983.071066
_symmetry_space_group_name_H-M "P 21 21 2"
_symmetry_group_IT_number 18
_symmetry_cell_setting 'orthorhombic'
loop_
_space_group_symop_operation_xyz
x,y,z
-x,-y,z
1/2+x,1/2-y,-z
1/2-x,1/2+y,-z
loop_
_atom_site_type_symbol
_atom_site_label
_atom_site_fract_x
_atom_site_fract_y
_atom_site_fract_z
Si Si1 0.938330 0.057289 0.981995
Si Si2 0.500000 0.500000 0.451667
Si Si3 0.379139 0.936345 0.139858
Si Si4 0.391715 0.210095 0.472935
Si Si5 0.227408 0.737781 0.924621
Si Si6 0.553536 0.145836 0.726605
Si Si7 0.719761 0.515291 0.435808
O O1 0.895081 0.879973 0.880199
O O2 0.923677 0.376124 0.953947
O O3 0.931972 0.903353 0.157245
O O4 0.000000 0.000000 0.929631
O O5 0.447446 0.331732 0.394141
O O6 0.530488 0.280327 0.563054
O O7 0.375199 0.998765 0.330649
O O8 0.325306 0.048277 0.058461
O O9 0.341705 0.420664 0.487460
O O10 0.403878 0.068060 0.648520
O O11 0.228168 0.879958 0.748445
O O12 0.271796 0.498530 0.953111
O O13 0.500000 0.000000 0.798334
O O14 0.739798 0.203729 0.456935
#
# Coordination Sequence:
#
# PCOD9312623 Si02
#       7
#     4   2   4   4   4   4   4
#     4  12  25  43  66  99 144 179 229 283 347 411
#     4  10  22  42  68  94 136 182 228 284 356 402
#     4  11  27  44  68 103 137 184 231 292 342 427
#     4  10  26  44  70 100 141 184 242 287 358 428
#     4  11  24  48  72 101 141 181 233 292 358 422
#     4  10  22  42  64  95 135 183 228 286 340 411
#     4  11  26  47  73 107 141 182 240 303 353 423
#
# _framework density 26.447731000000001
#
# number of rings (size 3 to 8) (size 9 to 14) (size 15 to 20)
#    0.000    1.231    0.769    3.231    7.538    8.615 
#    0.000    0.000    0.000    0.000    0.000    0.000 
#    0.000    0.000    0.000    0.000    0.000    0.000 
#
# Total GULP energy -145506.504899 kJ/mol
# GULP energy per Si atom -5596.404035 kJ/mol
# Density = 2.638753 g / cm^3
# Si number density = 26.447731 Si / 1000 Ang^3
#
#
#
# Elastic Constant Matrix: (Units=GPa)
#
#
# Indices 1 2 3 4 5 6 
#
# 1 104.2992 7.5537 25.2960 0.0000 0.0000 0.0000
# 2 7.5537 96.1156 12.0815 0.0000 0.0000 0.0000
# 3 25.2960 12.0815 57.3482 0.0000 0.0000 0.0000
# 4 0.0000 0.0000 0.0000 27.7377 0.0000 0.0000
# 5 0.0000 0.0000 0.0000 0.0000 35.9008 0.0000
# 6 0.0000 0.0000 0.0000 0.0000 0.0000 42.8608
#
#
#
# Elastic Compliance Matrix: (Units=1/GPa)
#
#
# Indices 1 2 3 4 5 6 
#
# 1 0.010742 -0.000255 -0.004685 0.000000 0.000000 0.000000
# 2 -0.000255 0.010693 -0.002140 0.000000 0.000000 0.000000
# 3 -0.004685 -0.002140 0.019955 0.000000 0.000000 0.000000
# 4 0.000000 0.000000 0.000000 0.036052 0.000000 0.000000
# 5 0.000000 0.000000 0.000000 0.000000 0.027855 0.000000
# 6 0.000000 0.000000 0.000000 0.000000 0.000000 0.023331
#
#
# Mechanical properties :
#
#
# Convention : Reuss Voigt Hill
#
# Bulk Modulus (GPa) = 36.72419 38.62504 37.67462
# Shear Modulus (GPa) = 32.92395 35.48864 34.20629
#
# Velocity S-wave (km/s) = 3.53210 3.66709 3.60023
# Velocity P-wave (km/s) = 5.52721 5.70667 5.61765
#
# Compressibility (1/GPa) = 0.02723001
#
# Stress axis : x y z
#
# Youngs Moduli (GPa) = 93.08836 93.51730 50.11382
#
# Poissons Ratio (x) = 0.02388 0.23477
# Poissons Ratio (y) = 0.02377 0.10725
# Poissons Ratio (z) = 0.43609 0.20013
#
# Static dielectric constant tensor:
#      x y z
#    x 2.145060 0.000000 0.000000 
#    y 0.000000 2.167600 0.000000 
#    z 0.000000 0.000000 2.142840 
# 
# From -- ./inp_files/4736.got.cif
#   From: 2010.05.17/outbox.cif.g08.bks.cpg/sg18_3_cif.got.tgz:4736.got - 2010.06.03 22:40:56.
