data_PCOD9312575
_publ_section_title
;
Structure prediction by ZEFSAII (Michael W. Deem and Ramdas Pophale) SiO2 
 PCOD9312575
Probable space group: P 21 21 2
;
_chemical_formula_sum "Si O2"
_cell_formula_units_Z 24
_cell_length_a 12.563409
_cell_length_b 7.664992
_cell_length_c 11.087478
_cell_angle_alpha 90.000000
_cell_angle_beta 90.000000
_cell_angle_gamma 90.000000
_cell_volume 1067.706718
_symmetry_space_group_name_H-M "P 21 21 2"
_symmetry_group_IT_number 18
_symmetry_cell_setting 'orthorhombic'
loop_
_space_group_symop_operation_xyz
x,y,z
-x,-y,z
1/2+x,1/2-y,-z
1/2-x,1/2+y,-z
loop_
_atom_site_type_symbol
_atom_site_label
_atom_site_fract_x
_atom_site_fract_y
_atom_site_fract_z
Si Si1 0.613915 0.938049 0.239249
Si Si2 0.627544 0.134988 0.856735
Si Si3 0.786197 0.129281 0.646216
Si Si4 0.741625 0.224881 0.372136
Si Si5 0.776448 0.952811 0.019544
Si Si6 0.576558 0.665739 0.826478
O O1 0.656502 0.077250 0.336663
O O2 0.694238 0.948109 0.129048
O O3 0.500000 0.000000 0.197765
O O4 0.621272 0.743468 0.292177
O O5 0.680792 0.174484 0.726421
O O6 0.657799 0.275687 0.962313
O O7 0.502060 0.171205 0.844159
O O8 0.704820 0.978592 0.902080
O O9 0.772701 0.195765 0.510500
O O10 0.800242 0.921572 0.645078
O O11 0.842475 0.195717 0.283407
O O12 0.859781 0.106296 0.053049
O O13 0.500000 0.500000 0.797838
#
# Coordination Sequence:
#
# PCOD9312575 Si02
#       6
#     4   4   4   4   4   4
#     4  10  23  44  63  93 129 178 221 272 341 404
#     4  10  22  40  66  98 129 173 222 268 339 411
#     4  11  24  42  66  97 133 172 224 279 342 400
#     4  11  23  44  67  92 137 172 223 291 330 398
#     4   9  21  40  64  91 135 165 216 278 326 392
#     4   9  21  42  68  96 130 182 223 271 344 407
#
# _framework density 22.478082000000001
#
# number of rings (size 3 to 8) (size 9 to 14) (size 15 to 20)
#    0.000    2.000    1.667    1.000    4.667    5.333 
#    0.000    0.000    0.000    0.000    0.000    0.000 
#    0.000    0.000    0.000    0.000    0.000    0.000 
#
# Total GULP energy -134032.981726 kJ/mol
# GULP energy per Si atom -5584.707572 kJ/mol
# Density = 2.242692 g / cm^3
# Si number density = 22.478082 Si / 1000 Ang^3
#
#
#
# Elastic Constant Matrix: (Units=GPa)
#
#
# Indices 1 2 3 4 5 6 
#
# 1 46.2347 -1.8283 -2.8911 0.0000 0.0000 0.0000
# 2 -1.8283 135.1134 2.6196 0.0000 0.0000 0.0000
# 3 -2.8911 2.6196 85.0344 0.0000 0.0000 0.0000
# 4 0.0000 0.0000 0.0000 33.1635 0.0000 0.0000
# 5 0.0000 0.0000 0.0000 0.0000 12.8697 0.0000
# 6 0.0000 0.0000 0.0000 0.0000 0.0000 3.1978
#
#
#
# Elastic Compliance Matrix: (Units=1/GPa)
#
#
# Indices 1 2 3 4 5 6 
#
# 1 0.021685 0.000279 0.000729 0.000000 0.000000 0.000000
# 2 0.000279 0.007409 -0.000219 0.000000 0.000000 0.000000
# 3 0.000729 -0.000219 0.011791 0.000000 0.000000 0.000000
# 4 0.000000 0.000000 0.000000 0.030154 0.000000 0.000000
# 5 0.000000 0.000000 0.000000 0.000000 0.077702 0.000000
# 6 0.000000 0.000000 0.000000 0.000000 0.000000 0.312714
#
#
# Mechanical properties :
#
#
# Convention : Reuss Voigt Hill
#
# Bulk Modulus (GPa) = 23.54908 29.13145 26.34026
# Shear Modulus (GPa) = 10.54781 27.74503 19.14642
#
# Velocity S-wave (km/s) = 2.16857 3.51709 2.92170
# Velocity P-wave (km/s) = 4.09505 5.42967 4.80889
#
# Compressibility (1/GPa) = 0.04246450
#
# Stress axis : x y z
#
# Youngs Moduli (GPa) = 46.11403 134.96711 84.80714
#
# Poissons Ratio (x) = -0.03770 -0.06180
# Poissons Ratio (y) = -0.01288 0.01855
# Poissons Ratio (z) = -0.03360 0.02952
#
# Static dielectric constant tensor:
#      x y z
#    x 1.836260 0.000000 0.000000 
#    y 0.000000 2.021920 0.000000 
#    z 0.000000 0.000000 1.829130 
# 
# From -- ./inp_files/5524.got.cif
#   From: 2010.05.17/outbox.cif.g08.bks.cpg/sg18_3_cif.got.tgz:5524.got - 2010.06.03 22:40:56.
