data_PCOD9312041
_publ_section_title
;
Structure prediction by ZEFSAII (Michael W. Deem and Ramdas Pophale) SiO2 
 PCOD9312041
Probable space group: P 21 21 2
;
_chemical_formula_sum "Si O2"
_cell_formula_units_Z 28
_cell_length_a 11.421013
_cell_length_b 19.718390
_cell_length_c 5.047914
_cell_angle_alpha 90.000000
_cell_angle_beta 90.000000
_cell_angle_gamma 90.000000
_cell_volume 1136.810367
_symmetry_space_group_name_H-M "P 21 21 2"
_symmetry_group_IT_number 18
_symmetry_cell_setting 'orthorhombic'
loop_
_space_group_symop_operation_xyz
x,y,z
-x,-y,z
1/2+x,1/2-y,-z
1/2-x,1/2+y,-z
loop_
_atom_site_type_symbol
_atom_site_label
_atom_site_fract_x
_atom_site_fract_y
_atom_site_fract_z
Si Si1 0.472768 0.154338 0.143960
Si Si2 0.744348 0.522416 0.791277
Si Si3 0.500000 0.000000 0.325718
Si Si4 0.129419 0.767877 0.512407
Si Si5 0.500000 0.500000 0.497390
Si Si6 0.769690 0.676909 0.977997
Si Si7 0.912481 0.859501 0.573268
Si Si8 0.269318 0.624342 0.957331
O O1 0.429147 0.196567 0.399865
O O2 0.589681 0.184379 0.019807
O O3 0.356232 0.154466 0.972434
O O4 0.491070 0.074486 0.197395
O O5 0.617201 0.518704 0.657854
O O6 0.752413 0.595713 0.929774
O O7 0.743176 0.457146 0.985852
O O8 0.858763 0.509404 0.596770
O O9 0.214654 0.783997 0.270766
O O10 0.015810 0.814149 0.468318
O O11 0.202930 0.796231 0.764742
O O12 0.466428 0.567751 0.350217
O O13 0.814707 0.865846 0.343914
O O14 0.858395 0.838860 0.850080
#
# Coordination Sequence:
#
# PCOD9312041 Si02
#       8
#     4   4   2   4   2   4   4   4
#     4  10  25  47  76  99 144 185 242 291 351 429
#     4   9  19  40  67 100 137 182 233 291 345 415
#     4   8  18  46  72 102 134 194 240 296 350 426
#     4  12  27  42  69 100 139 180 226 287 349 417
#     4  10  20  36  66 102 140 184 232 292 352 410
#     4  11  26  46  68 101 139 182 232 281 355 413
#     4  11  24  40  65 102 141 180 226 285 354 412
#     4  10  24  41  70  98 135 181 232 280 345 411
#
# _framework density 24.630317999999999
#
# number of rings (size 3 to 8) (size 9 to 14) (size 15 to 20)
#    0.000    1.714    1.429    0.857    8.000    2.857 
#    0.000    0.000    0.000   14.571    0.000    0.000 
#    0.000    0.000    0.000    0.000    0.000    0.000 
#
# Total GULP energy -156207.871169 kJ/mol
# GULP energy per Si atom -5578.852542 kJ/mol
# Density = 2.457426 g / cm^3
# Si number density = 24.630318 Si / 1000 Ang^3
#
#
#
# Elastic Constant Matrix: (Units=GPa)
#
#
# Indices 1 2 3 4 5 6 
#
# 1 189.1277 17.9929 21.1225 0.0000 0.0000 0.0000
# 2 17.9929 119.9865 3.4939 0.0000 0.0000 0.0000
# 3 21.1225 3.4939 75.3142 0.0000 0.0000 0.0000
# 4 0.0000 0.0000 0.0000 34.6809 0.0000 0.0000
# 5 0.0000 0.0000 0.0000 0.0000 14.2436 0.0000
# 6 0.0000 0.0000 0.0000 0.0000 0.0000 29.8566
#
#
#
# Elastic Compliance Matrix: (Units=1/GPa)
#
#
# Indices 1 2 3 4 5 6 
#
# 1 0.005531 -0.000785 -0.001515 0.000000 0.000000 0.000000
# 2 -0.000785 0.008457 -0.000172 0.000000 0.000000 0.000000
# 3 -0.001515 -0.000172 0.013711 0.000000 0.000000 0.000000
# 4 0.000000 0.000000 0.000000 0.028834 0.000000 0.000000
# 5 0.000000 0.000000 0.000000 0.000000 0.070207 0.000000
# 6 0.000000 0.000000 0.000000 0.000000 0.000000 0.033493
#
#
# Mechanical properties :
#
#
# Convention : Reuss Voigt Hill
#
# Bulk Modulus (GPa) = 43.94768 52.18301 48.06535
# Shear Modulus (GPa) = 28.94140 38.54416 33.74278
#
# Velocity S-wave (km/s) = 3.43159 3.96018 3.70533
# Velocity P-wave (km/s) = 5.79506 6.49178 6.15329
#
# Compressibility (1/GPa) = 0.02275433
#
# Stress axis : x y z
#
# Youngs Moduli (GPa) = 180.78814 118.24450 72.93651
#
# Poissons Ratio (x) = 0.09286 0.11049
# Poissons Ratio (y) = 0.14198 0.01255
# Poissons Ratio (z) = 0.27387 0.02035
#
# Static dielectric constant tensor:
#      x y z
#    x 1.977250 0.000000 0.000000 
#    y 0.000000 2.000350 0.000000 
#    z 0.000000 0.000000 1.942060 
# 
# From -- ./inp_files/1253.got.cif
#   From: 2010.05.17/outbox.cif.g08.bks.cpg/sg18_1_cif.got.tgz:1253.got - 2010.06.03 22:40:56.
