data_PCOD9312114
_publ_section_title
;
Structure prediction by ZEFSAII (Michael W. Deem and Ramdas Pophale) SiO2 
 PCOD9312114
Probable space group: P 21 21 2
;
_chemical_formula_sum "Si O2"
_cell_formula_units_Z 22
_cell_length_a 14.606428
_cell_length_b 8.676831
_cell_length_c 7.561310
_cell_angle_alpha 90.000000
_cell_angle_beta 90.000000
_cell_angle_gamma 90.000000
_cell_volume 958.301581
_symmetry_space_group_name_H-M "P 21 21 2"
_symmetry_group_IT_number 18
_symmetry_cell_setting 'orthorhombic'
loop_
_space_group_symop_operation_xyz
x,y,z
-x,-y,z
1/2+x,1/2-y,-z
1/2-x,1/2+y,-z
loop_
_atom_site_type_symbol
_atom_site_label
_atom_site_fract_x
_atom_site_fract_y
_atom_site_fract_z
Si Si1 0.311873 0.965125 0.596345
Si Si2 0.000000 0.000000 0.408079
Si Si3 0.623672 0.768312 0.959379
Si Si4 0.349786 0.276784 0.539920
Si Si5 0.076015 0.254937 0.139930
Si Si6 0.790171 0.947663 0.923719
O O1 0.250622 0.840812 0.498518
O O2 0.382800 0.886625 0.732543
O O3 0.356465 0.099327 0.479004
O O4 0.235441 0.049132 0.718575
O O5 0.944831 0.885506 0.276989
O O6 0.069964 0.893412 0.518153
O O7 0.634881 0.734718 0.749984
O O8 0.515802 0.797201 0.966863
O O9 0.691138 0.907693 0.012372
O O10 0.661424 0.611001 0.043794
O O11 0.147321 0.187681 0.999257
#
# Coordination Sequence:
#
# PCOD9312114 Si02
#       6
#     4   2   4   4   4   4
#     4  11  24  39  69  91 137 174 227 276 329 403
#     4  10  20  38  66  90 132 174 218 270 338 406
#     4  10  22  38  66  93 132 170 219 268 334 402
#     4  10  22  40  60  99 125 181 215 276 331 396
#     4  11  20  40  63  94 130 176 220 264 335 404
#     4  11  20  39  62  97 124 174 219 270 329 390
#
# _framework density 22.957284000000001
#
# number of rings (size 3 to 8) (size 9 to 14) (size 15 to 20)
#    0.000    1.455    5.455    1.091    0.000    6.545 
#    3.273    0.000    0.000    0.000    9.455    0.000 
#    0.000    0.000    0.000    0.000    0.000    0.000 
#
# Total GULP energy -122661.969210 kJ/mol
# GULP energy per Si atom -5575.544055 kJ/mol
# Density = 2.290503 g / cm^3
# Si number density = 22.957284 Si / 1000 Ang^3
#
#
#
# Elastic Constant Matrix: (Units=GPa)
#
#
# Indices 1 2 3 4 5 6 
#
# 1 138.7518 58.5590 10.6578 0.0000 0.0000 0.0000
# 2 58.5590 141.5680 8.3825 0.0000 0.0000 0.0000
# 3 10.6578 8.3825 6.7705 0.0000 0.0000 0.0000
# 4 0.0000 0.0000 0.0000 33.7642 0.0000 0.0000
# 5 0.0000 0.0000 0.0000 0.0000 38.9985 0.0000
# 6 0.0000 0.0000 0.0000 0.0000 0.0000 40.4744
#
#
#
# Elastic Compliance Matrix: (Units=1/GPa)
#
#
# Indices 1 2 3 4 5 6 
#
# 1 0.009408 -0.003253 -0.010782 0.000000 0.000000 0.000000
# 2 -0.003253 0.008747 -0.005709 0.000000 0.000000 0.000000
# 3 -0.010782 -0.005709 0.171741 0.000000 0.000000 0.000000
# 4 0.000000 0.000000 0.000000 0.029617 0.000000 0.000000
# 5 0.000000 0.000000 0.000000 0.000000 0.025642 0.000000
# 6 0.000000 0.000000 0.000000 0.000000 0.000000 0.024707
#
#
# Mechanical properties :
#
#
# Convention : Reuss Voigt Hill
#
# Bulk Modulus (GPa) = 6.64859 49.14319 27.89589
# Shear Modulus (GPa) = 13.90865 36.61349 25.26107
#
# Velocity S-wave (km/s) = 2.46407 3.99789 3.32075
# Velocity P-wave (km/s) = 3.31631 6.53940 5.18467
#
# Compressibility (1/GPa) = 0.15040782
#
# Stress axis : x y z
#
# Youngs Moduli (GPa) = 106.28860 114.31853 5.82271
#
# Poissons Ratio (x) = 0.37191 0.06278
# Poissons Ratio (y) = 0.34579 0.03324
# Poissons Ratio (z) = 1.14605 0.65264
#
# Static dielectric constant tensor:
#      x y z
#    x 1.943130 0.000000 0.000000 
#    y 0.000000 2.044390 0.000000 
#    z 0.000000 0.000000 1.825890 
# 
# From -- ./inp_files/4177.got.cif
#   From: 2010.05.17/outbox.cif.g08.bks.cpg/sg18_3_cif.got.tgz:4177.got - 2010.06.03 22:40:56.
