data_PCOD9312311
_publ_section_title
;
Structure prediction by ZEFSAII (Michael W. Deem and Ramdas Pophale) SiO2 
 PCOD9312311
Probable space group: P 21 21 2
;
_chemical_formula_sum "Si O2"
_cell_formula_units_Z 32
_cell_length_a 13.696810
_cell_length_b 11.968297
_cell_length_c 9.821160
_cell_angle_alpha 90.000000
_cell_angle_beta 90.000000
_cell_angle_gamma 90.000000
_cell_volume 1609.958108
_symmetry_space_group_name_H-M "P 21 21 2"
_symmetry_group_IT_number 18
_symmetry_cell_setting 'orthorhombic'
loop_
_space_group_symop_operation_xyz
x,y,z
-x,-y,z
1/2+x,1/2-y,-z
1/2-x,1/2+y,-z
loop_
_atom_site_type_symbol
_atom_site_label
_atom_site_fract_x
_atom_site_fract_y
_atom_site_fract_z
Si Si1 0.046122 0.121176 0.146899
Si Si2 0.140974 0.701418 0.856662
Si Si3 0.333237 0.954650 0.059564
Si Si4 0.666891 0.685457 0.865430
Si Si5 0.384620 0.970506 0.738081
Si Si6 0.312586 0.731498 0.650373
Si Si7 0.575867 0.282958 0.138820
Si Si8 0.734366 0.336406 0.344757
O O1 0.117368 0.146277 0.269710
O O2 0.051722 0.804617 0.155621
O O3 0.091983 0.152161 0.002288
O O4 0.000000 0.000000 0.148077
O O5 0.213014 0.733483 0.736280
O O6 0.039336 0.766561 0.838639
O O7 0.130464 0.567808 0.869757
O O8 0.186671 0.738603 0.001775
O O9 0.356406 0.960858 0.898722
O O10 0.218695 0.931260 0.093665
O O11 0.384653 0.843181 0.116742
O O12 0.714399 0.731502 0.729102
O O13 0.362420 0.852793 0.665217
O O14 0.500000 0.000000 0.727941
O O15 0.310813 0.062618 0.675473
O O16 0.291564 0.691502 0.498765
O O17 0.634765 0.346256 0.256722
#
# Coordination Sequence:
#
# PCOD9312311 Si02
#       8
#     4   4   4   4   4   4   4   4
#     4  11  23  39  66  94 130 175 228 284 346 395
#     4  11  21  38  67  94 131 173 227 288 340 396
#     4  11  20  38  70 102 129 169 231 289 344 400
#     4  10  21  38  63  96 124 168 224 289 332 401
#     4  12  24  43  74  99 131 182 231 284 348 417
#     4  12  26  44  63 102 142 183 230 277 347 430
#     4  10  23  41  64 103 130 174 232 290 337 406
#     4  11  26  43  65  96 141 178 220 279 348 413
#
# _framework density 19.876293
#
# number of rings (size 3 to 8) (size 9 to 14) (size 15 to 20)
#    0.000    1.000    3.750    3.375    1.750    5.000 
#    0.000    0.625    0.000    0.000    0.000    0.000 
#    0.000    0.000    0.000    0.000    0.000    0.000 
#
# Total GULP energy -178747.741455 kJ/mol
# GULP energy per Si atom -5585.866920 kJ/mol
# Density = 1.983105 g / cm^3
# Si number density = 19.876293 Si / 1000 Ang^3
#
#
#
# Elastic Constant Matrix: (Units=GPa)
#
#
# Indices 1 2 3 4 5 6 
#
# 1 124.3167 27.1714 66.7969 0.0000 0.0000 0.0000
# 2 27.1714 96.9345 35.1850 0.0000 0.0000 0.0000
# 3 66.7969 35.1850 146.3703 0.0000 0.0000 0.0000
# 4 0.0000 0.0000 0.0000 7.8878 0.0000 0.0000
# 5 0.0000 0.0000 0.0000 0.0000 6.8897 0.0000
# 6 0.0000 0.0000 0.0000 0.0000 0.0000 25.1036
#
#
#
# Elastic Compliance Matrix: (Units=1/GPa)
#
#
# Indices 1 2 3 4 5 6 
#
# 1 0.010818 -0.001359 -0.004610 0.000000 0.000000 0.000000
# 2 -0.001359 0.011473 -0.002138 0.000000 0.000000 0.000000
# 3 -0.004610 -0.002138 0.009450 0.000000 0.000000 0.000000
# 4 0.000000 0.000000 0.000000 0.126778 0.000000 0.000000
# 5 0.000000 0.000000 0.000000 0.000000 0.145143 0.000000
# 6 0.000000 0.000000 0.000000 0.000000 0.000000 0.039835
#
#
# Mechanical properties :
#
#
# Convention : Reuss Voigt Hill
#
# Bulk Modulus (GPa) = 64.40366 69.54756 66.97561
# Shear Modulus (GPa) = 13.70287 23.87411 18.78849
#
# Velocity S-wave (km/s) = 2.62851 3.46950 3.07786
# Velocity P-wave (km/s) = 6.45637 7.14955 6.81178
#
# Compressibility (1/GPa) = 0.01552707
#
# Stress axis : x y z
#
# Youngs Moduli (GPa) = 92.43731 87.16011 105.82254
#
# Poissons Ratio (x) = 0.11845 0.48787
# Poissons Ratio (y) = 0.12562 0.22622
# Poissons Ratio (z) = 0.42616 0.18633
#
# Static dielectric constant tensor:
#      x y z
#    x 1.806200 0.000000 0.000000 
#    y 0.000000 1.753820 0.000000 
#    z 0.000000 0.000000 1.646510 
# 
# From -- ./inp_files/4316.got.cif
#   From: 2010.05.17/outbox.cif.g08.bks.cpg/sg18_3_cif.got.tgz:4316.got - 2010.06.03 22:40:56.
