data_PCOD9312892
_publ_section_title
;
Structure prediction by ZEFSAII (Michael W. Deem and Ramdas Pophale) SiO2 
 PCOD9312892
Probable space group: P 21 21 2
;
_chemical_formula_sum "Si O2"
_cell_formula_units_Z 26
_cell_length_a 8.954381
_cell_length_b 21.802782
_cell_length_c 5.264790
_cell_angle_alpha 90.000000
_cell_angle_beta 90.000000
_cell_angle_gamma 90.000000
_cell_volume 1027.847147
_symmetry_space_group_name_H-M "P 21 21 2"
_symmetry_group_IT_number 18
_symmetry_cell_setting 'orthorhombic'
loop_
_space_group_symop_operation_xyz
x,y,z
-x,-y,z
1/2+x,1/2-y,-z
1/2-x,1/2+y,-z
loop_
_atom_site_type_symbol
_atom_site_label
_atom_site_fract_x
_atom_site_fract_y
_atom_site_fract_z
Si Si1 0.016977 0.242766 0.649513
Si Si2 0.553208 0.863084 0.625996
Si Si3 0.139073 0.114770 0.412365
Si Si4 0.794196 0.266628 0.047692
Si Si5 0.000000 0.000000 0.705224
Si Si6 0.758444 0.585916 0.259048
Si Si7 0.132313 0.856368 0.219851
O O1 0.076669 0.178104 0.539323
O O2 0.120373 0.243096 0.905428
O O3 0.038335 0.306240 0.498054
O O4 0.852585 0.249751 0.770954
O O5 0.683807 0.884155 0.433584
O O6 0.642709 0.832214 0.861334
O O7 0.436329 0.915700 0.700515
O O8 0.036244 0.119266 0.160831
O O9 0.078237 0.054249 0.546451
O O10 0.862466 0.216939 0.245270
O O11 0.148946 0.969583 0.825882
O O12 0.695018 0.609892 0.530574
O O13 0.733275 0.631204 0.023836
#
# Coordination Sequence:
#
# PCOD9312892 Si02
#       7
#     4   4   4   4   2   4   4
#     4  11  23  40  63 106 140 184 232 288 367 426
#     4  11  24  42  66 106 145 180 236 303 363 424
#     4  10  24  43  70 101 137 189 239 296 358 431
#     4  11  22  35  65  95 144 182 220 280 354 438
#     4  10  24  48  70  96 132 188 250 288 354 432
#     4  11  25  45  72  98 140 186 239 292 353 417
#     4  11  22  42  69 102 135 186 229 281 354 425
#
# _framework density 25.295590000000001
#
# number of rings (size 3 to 8) (size 9 to 14) (size 15 to 20)
#    0.000    1.231    3.077    2.769    2.154    3.077 
#    0.000    0.000    0.000    3.692    0.000    0.000 
#    0.000    0.000    0.000    0.000    0.000    0.000 
#
# Total GULP energy -145023.661203 kJ/mol
# GULP energy per Si atom -5577.833123 kJ/mol
# Density = 2.523802 g / cm^3
# Si number density = 25.295590 Si / 1000 Ang^3
#
#
#
# Elastic Constant Matrix: (Units=GPa)
#
#
# Indices 1 2 3 4 5 6 
#
# 1 158.1995 25.2153 8.3270 0.0000 0.0000 0.0000
# 2 25.2153 65.5145 -2.1395 0.0000 0.0000 0.0000
# 3 8.3270 -2.1395 75.8958 0.0000 0.0000 0.0000
# 4 0.0000 0.0000 0.0000 19.6907 0.0000 0.0000
# 5 0.0000 0.0000 0.0000 0.0000 38.0132 0.0000
# 6 0.0000 0.0000 0.0000 0.0000 0.0000 38.2399
#
#
#
# Elastic Compliance Matrix: (Units=1/GPa)
#
#
# Indices 1 2 3 4 5 6 
#
# 1 0.006785 -0.002638 -0.000819 0.000000 0.000000 0.000000
# 2 -0.002638 0.016304 0.000749 0.000000 0.000000 0.000000
# 3 -0.000819 0.000749 0.013287 0.000000 0.000000 0.000000
# 4 0.000000 0.000000 0.000000 0.050785 0.000000 0.000000
# 5 0.000000 0.000000 0.000000 0.000000 0.026307 0.000000
# 6 0.000000 0.000000 0.000000 0.000000 0.000000 0.026151
#
#
# Mechanical properties :
#
#
# Convention : Reuss Voigt Hill
#
# Bulk Modulus (GPa) = 32.30007 40.26835 36.28421
# Shear Modulus (GPa) = 32.18468 37.06922 34.62695
#
# Velocity S-wave (km/s) = 3.57086 3.83226 3.70387
# Velocity P-wave (km/s) = 5.45877 5.96115 5.71548
#
# Compressibility (1/GPa) = 0.03095968
#
# Stress axis : x y z
#
# Youngs Moduli (GPa) = 147.39033 61.33614 75.26205
#
# Poissons Ratio (x) = 0.16181 0.06162
# Poissons Ratio (y) = 0.38882 -0.05637
# Poissons Ratio (z) = 0.12068 -0.04594
#
# Static dielectric constant tensor:
#      x y z
#    x 2.106580 0.000000 0.000000 
#    y 0.000000 2.082230 0.000000 
#    z 0.000000 0.000000 2.103680 
# 
# From -- ./inp_files/632.got.cif
#   From: 2010.05.17/outbox.cif.g08.bks.cpg/sg18_1_cif.got.tgz:632.got - 2010.06.03 22:40:56.
