data_PCOD9312255
_publ_section_title
;
Structure prediction by ZEFSAII (Michael W. Deem and Ramdas Pophale) SiO2 
 PCOD9312255
Probable space group: P 21 21 2
;
_chemical_formula_sum "Si O2"
_cell_formula_units_Z 30
_cell_length_a 18.389132
_cell_length_b 13.848092
_cell_length_c 5.514367
_cell_angle_alpha 90.000000
_cell_angle_beta 90.000000
_cell_angle_gamma 90.000000
_cell_volume 1404.257774
_symmetry_space_group_name_H-M "P 21 21 2"
_symmetry_group_IT_number 18
_symmetry_cell_setting 'orthorhombic'
loop_
_space_group_symop_operation_xyz
x,y,z
-x,-y,z
1/2+x,1/2-y,-z
1/2-x,1/2+y,-z
loop_
_atom_site_type_symbol
_atom_site_label
_atom_site_fract_x
_atom_site_fract_y
_atom_site_fract_z
Si Si1 0.500000 0.000000 0.181416
Si Si2 0.412612 0.137105 0.898209
Si Si3 0.196327 0.698286 0.449741
Si Si4 0.536925 0.181688 0.515877
Si Si5 0.574262 0.694945 0.286299
Si Si6 0.819962 0.033104 0.773260
Si Si7 0.200638 0.355836 0.494715
Si Si8 0.762845 0.963676 0.279236
O O1 0.477493 0.907706 0.336102
O O2 0.567861 0.962126 0.028060
O O3 0.339321 0.126769 0.743502
O O4 0.483587 0.158744 0.736537
O O5 0.408792 0.228882 0.073922
O O6 0.129642 0.770305 0.503304
O O7 0.261955 0.765408 0.371810
O O8 0.221434 0.636651 0.680934
O O9 0.505885 0.278591 0.385199
O O10 0.620958 0.175962 0.581588
O O11 0.603393 0.590046 0.214795
O O12 0.755020 0.112343 0.724501
O O13 0.814503 0.972859 0.520987
O O14 0.802299 0.978962 0.023692
O O15 0.206622 0.448478 0.669954
#
# Coordination Sequence:
#
# PCOD9312255 Si02
#       8
#     2   4   4   4   4   4   4   4
#     4  10  22  32  52  88 126 158 196 242 302 384
#     4  10  21  33  55  78 122 161 197 237 301 376
#     4  10  21  38  57  88 114 164 198 253 301 364
#     4  10  21  35  52  88 116 162 194 249 308 365
#     4   9  20  36  58  82 117 161 199 240 301 370
#     4   9  21  38  58  87 114 159 198 248 292 357
#     4   9  22  37  58  88 126 151 205 249 304 355
#     4  10  22  36  61  86 119 153 198 248 300 355
#
# _framework density 21.363600000000002
#
# number of rings (size 3 to 8) (size 9 to 14) (size 15 to 20)
#    0.800    1.600    0.000    1.200   11.200    2.133 
#    0.000    0.000    0.000    0.800    0.000    0.000 
#    0.000    0.000    0.000    0.000    0.000    0.000 
#
# Total GULP energy -167153.617191 kJ/mol
# GULP energy per Si atom -5571.787240 kJ/mol
# Density = 2.131497 g / cm^3
# Si number density = 21.363600 Si / 1000 Ang^3
#
#
#
# Elastic Constant Matrix: (Units=GPa)
#
#
# Indices 1 2 3 4 5 6 
#
# 1 35.2674 -2.3556 -14.6079 0.0000 0.0000 0.0000
# 2 -2.3556 15.1443 -11.6998 0.0000 0.0000 0.0000
# 3 -14.6079 -11.6998 58.4137 0.0000 0.0000 0.0000
# 4 0.0000 0.0000 0.0000 16.4999 0.0000 0.0000
# 5 0.0000 0.0000 0.0000 0.0000 19.5122 0.0000
# 6 0.0000 0.0000 0.0000 0.0000 0.0000 23.5399
#
#
#
# Elastic Compliance Matrix: (Units=1/GPa)
#
#
# Indices 1 2 3 4 5 6 
#
# 1 0.033973 0.014017 0.011303 0.000000 0.000000 0.000000
# 2 0.014017 0.083903 0.020310 0.000000 0.000000 0.000000
# 3 0.011303 0.020310 0.024014 0.000000 0.000000 0.000000
# 4 0.000000 0.000000 0.000000 0.060606 0.000000 0.000000
# 5 0.000000 0.000000 0.000000 0.000000 0.051250 0.000000
# 6 0.000000 0.000000 0.000000 0.000000 0.000000 0.042481
#
#
# Mechanical properties :
#
#
# Convention : Reuss Voigt Hill
#
# Bulk Modulus (GPa) = 4.28908 5.72208 5.00558
# Shear Modulus (GPa) = 17.68764 21.07631 19.38198
#
# Velocity S-wave (km/s) = 2.88051 3.14435 3.01532
# Velocity P-wave (km/s) = 3.61595 3.98332 3.80407
#
# Compressibility (1/GPa) = 0.23315005
#
# Stress axis : x y z
#
# Youngs Moduli (GPa) = 29.43522 11.91857 41.64246
#
# Poissons Ratio (x) = -0.16706 -0.47070
# Poissons Ratio (y) = -0.41258 -0.84577
# Poissons Ratio (z) = -0.33271 -0.24207
#
# Static dielectric constant tensor:
#      x y z
#    x 1.846580 0.000000 0.000000 
#    y 0.000000 1.793790 0.000000 
#    z 0.000000 0.000000 1.847150 
# 
# From -- ./inp_files/1845.got.cif
#   From: 2010.05.17/outbox.cif.g08.bks.cpg/sg18_1_cif.got.tgz:1845.got - 2010.06.03 22:40:56.
