data_PCOD9312510
_publ_section_title
;
Structure prediction by ZEFSAII (Michael W. Deem and Ramdas Pophale) SiO2 
 PCOD9312510
Probable space group: P 21 21 2
;
_chemical_formula_sum "Si O2"
_cell_formula_units_Z 28
_cell_length_a 13.297820
_cell_length_b 19.715379
_cell_length_c 5.252192
_cell_angle_alpha 90.000000
_cell_angle_beta 90.000000
_cell_angle_gamma 90.000000
_cell_volume 1376.975376
_symmetry_space_group_name_H-M "P 21 21 2"
_symmetry_group_IT_number 18
_symmetry_cell_setting 'orthorhombic'
loop_
_space_group_symop_operation_xyz
x,y,z
-x,-y,z
1/2+x,1/2-y,-z
1/2-x,1/2+y,-z
loop_
_atom_site_type_symbol
_atom_site_label
_atom_site_fract_x
_atom_site_fract_y
_atom_site_fract_z
Si Si1 0.386969 0.139912 0.129889
Si Si2 0.523147 0.922008 0.651253
Si Si3 0.523147 0.577991 0.848744
Si Si4 0.845835 0.823642 0.121778
Si Si5 0.386969 0.360088 0.370108
Si Si6 0.031125 0.250000 0.750002
Si Si7 0.845835 0.676358 0.378227
O O1 0.423712 0.111956 0.404356
O O2 0.269660 0.157042 0.134758
O O3 0.452060 0.208482 0.075052
O O4 0.409215 0.088324 0.901483
O O5 0.419302 0.882650 0.715937
O O6 0.500000 0.000000 0.598127
O O7 0.500000 0.500000 0.901874
O O8 0.419302 0.617349 0.784059
O O9 0.590784 0.588323 0.598511
O O10 0.576289 0.611956 0.095639
O O11 0.859817 0.750000 0.250005
O O12 0.892519 0.807440 0.846064
O O13 0.452061 0.291518 0.424946
O O14 0.269660 0.342958 0.365243
O O15 0.107482 0.307440 0.653943
#
# Coordination Sequence:
#
# PCOD9312510 Si02
#       7
#     4   4   4   4   4   4   4
#     4  11  24  40  68  93 128 170 217 266 327 384
#     4  11  26  45  64  95 135 174 217 265 323 394
#     4  11  26  45  64  95 135 174 217 265 323 394
#     4  11  23  39  67  95 131 166 219 272 327 375
#     4  11  24  40  68  93 128 170 217 266 327 384
#     4  10  22  38  62  98 130 160 214 274 326 380
#     4  11  23  39  67  95 131 166 219 272 327 375
#
# _framework density 20.334423999999999
#
# number of rings (size 3 to 8) (size 9 to 14) (size 15 to 20)
#    0.000    1.143    4.286    0.857    4.000    2.286 
#    0.000    0.000    0.000    0.000    0.000    0.000 
#    0.000    0.000    0.000    0.000    0.000    0.000 
#
# Total GULP energy -156086.884666 kJ/mol
# GULP energy per Si atom -5574.531595 kJ/mol
# Density = 2.028814 g / cm^3
# Si number density = 20.334424 Si / 1000 Ang^3
#
#
#
# Elastic Constant Matrix: (Units=GPa)
#
#
# Indices 1 2 3 4 5 6 
#
# 1 202.9739 72.7583 44.8653 0.0000 0.0000 0.0000
# 2 72.7583 106.6129 9.4475 0.0000 0.0000 0.0000
# 3 44.8653 9.4475 74.8791 0.0000 0.0000 0.0000
# 4 0.0000 0.0000 0.0000 26.1421 0.0000 0.0000
# 5 0.0000 0.0000 0.0000 0.0000 20.2516 0.0000
# 6 0.0000 0.0000 0.0000 0.0000 0.0000 20.5309
#
#
#
# Elastic Compliance Matrix: (Units=1/GPa)
#
#
# Indices 1 2 3 4 5 6 
#
# 1 0.007497 -0.004772 -0.003890 0.000000 0.000000 0.000000
# 2 -0.004772 0.012523 0.001279 0.000000 0.000000 0.000000
# 3 -0.003890 0.001279 0.015524 0.000000 0.000000 0.000000
# 4 0.000000 0.000000 0.000000 0.038253 0.000000 0.000000
# 5 0.000000 0.000000 0.000000 0.000000 0.049379 0.000000
# 6 0.000000 0.000000 0.000000 0.000000 0.000000 0.048707
#
#
# Mechanical properties :
#
#
# Convention : Reuss Voigt Hill
#
# Bulk Modulus (GPa) = 48.12573 70.95646 59.54109
# Shear Modulus (GPa) = 25.82990 30.54456 28.18723
#
# Velocity S-wave (km/s) = 3.56793 3.87991 3.72719
# Velocity P-wave (km/s) = 6.37903 7.41904 6.91860
#
# Compressibility (1/GPa) = 0.02077891
#
# Stress axis : x y z
#
# Youngs Moduli (GPa) = 133.38605 79.85418 64.41544
#
# Poissons Ratio (x) = 0.38104 0.25057
# Poissons Ratio (y) = 0.63647 -0.08239
# Poissons Ratio (z) = 0.51887 -0.10214
#
# Static dielectric constant tensor:
#      x y z
#    x 1.671050 0.000000 0.000000 
#    y 0.000000 1.740250 0.000000 
#    z 0.000000 0.000000 1.902160 
# 
# From -- ./inp_files/1212.got.cif
#   From: 2010.05.17/outbox.cif.g08.bks.cpg/sg18_1_cif.got.tgz:1212.got - 2010.06.03 22:40:56.
