data_PCOD9312160
_publ_section_title
;
Structure prediction by ZEFSAII (Michael W. Deem and Ramdas Pophale) SiO2 
 PCOD9312160
Probable space group: P 21 21 2
;
_chemical_formula_sum "Si O2"
_cell_formula_units_Z 16
_cell_length_a 15.731479
_cell_length_b 7.865771
_cell_length_c 4.131760
_cell_angle_alpha 90.000000
_cell_angle_beta 90.000000
_cell_angle_gamma 90.000000
_cell_volume 511.264855
_symmetry_space_group_name_H-M "P 21 21 2"
_symmetry_group_IT_number 18
_symmetry_cell_setting 'orthorhombic'
loop_
_space_group_symop_operation_xyz
x,y,z
-x,-y,z
1/2+x,1/2-y,-z
1/2-x,1/2+y,-z
loop_
_atom_site_type_symbol
_atom_site_label
_atom_site_fract_x
_atom_site_fract_y
_atom_site_fract_z
Si Si1 0.500000 0.000000 0.510468
Si Si2 0.749779 0.980283 0.927734
Si Si3 0.130458 0.770299 0.498712
Si Si4 0.119893 0.267433 0.044879
Si Si5 0.500000 0.500000 0.921904
O O1 0.435413 0.132542 0.340175
O O2 0.562284 0.121084 0.718919
O O3 0.811351 0.106540 0.721177
O O4 0.682944 0.098588 0.118053
O O5 0.692067 0.849441 0.719436
O O6 0.809347 0.868033 0.159896
O O7 0.066517 0.888726 0.287744
O O8 0.055358 0.136307 0.879534
#
# Coordination Sequence:
#
# PCOD9312160 Si02
#       5
#     2   4   4   4   2
#     4   8  20  42  64  86 120 158 196 244 296 352
#     4  11  22  40  62  89 118 158 200 243 292 352
#     4  10  21  38  62  87 120 157 197 243 295 350
#     4  10  21  38  62  87 120 157 197 243 295 350
#     4  10  20  40  60  90 124 154 192 250 300 348
#
# _framework density 31.294933
#
# number of rings (size 3 to 8) (size 9 to 14) (size 15 to 20)
#    0.000    2.000    0.000    3.000    0.000    1.000 
#    0.000    5.000    0.000    0.000    0.000    0.000 
#    0.000    0.000    0.000    0.000    0.000    0.000 
#
# Total GULP energy -89433.669909 kJ/mol
# GULP energy per Si atom -5589.604369 kJ/mol
# Density = 3.122370 g / cm^3
# Si number density = 31.294933 Si / 1000 Ang^3
#
#
#
# Elastic Constant Matrix: (Units=GPa)
#
#
# Indices 1 2 3 4 5 6 
#
# 1 245.6518 170.9598 77.1898 0.0000 0.0000 0.0000
# 2 170.9598 246.1067 77.7685 0.0000 0.0000 0.0000
# 3 77.1898 77.7685 66.5233 0.0000 0.0000 0.0000
# 4 0.0000 0.0000 0.0000 43.6634 0.0000 0.0000
# 5 0.0000 0.0000 0.0000 0.0000 54.0036 0.0000
# 6 0.0000 0.0000 0.0000 0.0000 0.0000 219.2485
#
#
#
# Elastic Compliance Matrix: (Units=1/GPa)
#
#
# Indices 1 2 3 4 5 6 
#
# 1 0.008764 -0.004559 -0.004840 0.000000 0.000000 0.000000
# 2 -0.004559 0.008815 -0.005015 0.000000 0.000000 0.000000
# 3 -0.004840 -0.005015 0.026512 0.000000 0.000000 0.000000
# 4 0.000000 0.000000 0.000000 0.022902 0.000000 0.000000
# 5 0.000000 0.000000 0.000000 0.000000 0.018517 0.000000
# 6 0.000000 0.000000 0.000000 0.000000 0.000000 0.004561
#
#
# Mechanical properties :
#
#
# Convention : Reuss Voigt Hill
#
# Bulk Modulus (GPa) = 65.52048 134.45754 99.98901
# Shear Modulus (GPa) = 40.32660 78.87401 59.60031
#
# Velocity S-wave (km/s) = 3.59360 5.02575 4.36876
# Velocity P-wave (km/s) = 6.18066 8.75988 7.58076
#
# Compressibility (1/GPa) = 0.01526240
#
# Stress axis : x y z
#
# Youngs Moduli (GPa) = 114.09855 113.44576 37.71914
#
# Poissons Ratio (x) = 0.51716 0.18257
# Poissons Ratio (y) = 0.52014 0.18917
# Poissons Ratio (z) = 0.55228 0.56895
#
# Static dielectric constant tensor:
#      x y z
#    x 2.393350 0.000000 0.000000 
#    y 0.000000 2.406660 0.000000 
#    z 0.000000 0.000000 2.366880 
# 
# From -- ./inp_files/429.got.cif
#   From: 2010.05.17/outbox.cif.g08.bks.cpg/sg18_1_cif.got.tgz:429.got - 2010.06.03 22:40:56.
