data_PCOD9312239
_publ_section_title
;
Structure prediction by ZEFSAII (Michael W. Deem and Ramdas Pophale) SiO2 
 PCOD9312239
Probable space group: P 21 21 2
;
_chemical_formula_sum "Si O2"
_cell_formula_units_Z 18
_cell_length_a 6.593479
_cell_length_b 7.392261
_cell_length_c 17.338772
_cell_angle_alpha 90.000000
_cell_angle_beta 90.000000
_cell_angle_gamma 90.000000
_cell_volume 845.104191
_symmetry_space_group_name_H-M "P 21 21 2"
_symmetry_group_IT_number 18
_symmetry_cell_setting 'orthorhombic'
loop_
_space_group_symop_operation_xyz
x,y,z
-x,-y,z
1/2+x,1/2-y,-z
1/2-x,1/2+y,-z
loop_
_atom_site_type_symbol
_atom_site_label
_atom_site_fract_x
_atom_site_fract_y
_atom_site_fract_z
Si Si1 0.000000 0.500000 0.332844
Si Si2 0.642269 0.167451 0.094802
Si Si3 0.668700 0.765690 0.403712
Si Si4 0.000000 0.000000 0.471236
Si Si5 0.500000 0.500000 0.993428
Si Si6 0.879966 0.812083 0.736427
O O1 0.157470 0.379440 0.380575
O O2 0.150157 0.633027 0.286116
O O3 0.624169 0.198326 0.185826
O O4 0.500000 0.000000 0.072087
O O5 0.593142 0.351051 0.050064
O O6 0.857716 0.108473 0.064120
O O7 0.552559 0.672657 0.475145
O O8 0.508582 0.775948 0.333543
O O9 0.798059 0.943758 0.424394
O O10 0.000000 0.000000 0.751786
#
# Coordination Sequence:
#
# PCOD9312239 Si02
#       6
#     2   4   4   2   2   4
#     4  10  20  44  68 100 142 186 242 296 366 430
#     4  12  26  46  75 109 150 194 243 304 365 442
#     4  11  24  44  67 105 138 195 241 306 363 438
#     4  12  24  43  75  96 144 190 248 300 372 430
#     4  12  26  45  77 110 144 194 250 296 366 446
#     4  10  23  44  72 102 147 189 243 302 369 438
#
# _framework density 21.299147999999999
#
# number of rings (size 3 to 8) (size 9 to 14) (size 15 to 20)
#    0.000    0.889    6.667    1.333    0.000    7.111 
#    0.000    0.000    0.000    0.000    0.000    0.000 
#    0.000    0.000    0.000    0.000    0.000    0.000 
#
# Total GULP energy -100618.655208 kJ/mol
# GULP energy per Si atom -5589.925289 kJ/mol
# Density = 2.125067 g / cm^3
# Si number density = 21.299148 Si / 1000 Ang^3
#
#
#
# Elastic Constant Matrix: (Units=GPa)
#
#
# Indices 1 2 3 4 5 6 
#
# 1 123.8447 43.1173 67.5605 0.0000 0.0000 0.0000
# 2 43.1173 105.8795 56.7120 0.0000 0.0000 0.0000
# 3 67.5605 56.7120 135.3900 0.0000 0.0000 0.0000
# 4 0.0000 0.0000 0.0000 61.3830 0.0000 0.0000
# 5 0.0000 0.0000 0.0000 0.0000 46.4680 0.0000
# 6 0.0000 0.0000 0.0000 0.0000 0.0000 51.4373
#
#
#
# Elastic Compliance Matrix: (Units=1/GPa)
#
#
# Indices 1 2 3 4 5 6 
#
# 1 0.011434 -0.002063 -0.004842 0.000000 0.000000 0.000000
# 2 -0.002063 0.012549 -0.004227 0.000000 0.000000 0.000000
# 3 -0.004842 -0.004227 0.011573 0.000000 0.000000 0.000000
# 4 0.000000 0.000000 0.000000 0.016291 0.000000 0.000000
# 5 0.000000 0.000000 0.000000 0.000000 0.021520 0.000000
# 6 0.000000 0.000000 0.000000 0.000000 0.000000 0.019441
#
#
# Mechanical properties :
#
#
# Convention : Reuss Voigt Hill
#
# Bulk Modulus (GPa) = 75.23043 77.76597 76.49820
# Shear Modulus (GPa) = 41.84029 45.03928 43.43978
#
# Velocity S-wave (km/s) = 4.43698 4.60347 4.52099
# Velocity P-wave (km/s) = 7.85153 8.05273 7.95277
#
# Compressibility (1/GPa) = 0.01329249
#
# Stress axis : x y z
#
# Youngs Moduli (GPa) = 87.45801 79.68805 86.41093
#
# Poissons Ratio (x) = 0.16440 0.41836
# Poissons Ratio (y) = 0.18043 0.36526
# Poissons Ratio (z) = 0.42343 0.33684
#
# Static dielectric constant tensor:
#      x y z
#    x 1.709850 0.000000 0.000000 
#    y 0.000000 1.767830 0.000000 
#    z 0.000000 0.000000 1.735030 
# 
# From -- ./inp_files/7104.got.cif
#   From: 2010.05.17/outbox.cif.g08.bks.cpg/sg18_4_cif.got.tgz:7104.got - 2010.06.03 22:40:56.
