data_PCOD9312893
_publ_section_title
;
Structure prediction by ZEFSAII (Michael W. Deem and Ramdas Pophale) SiO2 
 PCOD9312893
Probable space group: P 21 21 2
;
_chemical_formula_sum "Si O2"
_cell_formula_units_Z 30
_cell_length_a 29.633654
_cell_length_b 5.578231
_cell_length_c 8.392711
_cell_angle_alpha 90.000000
_cell_angle_beta 90.000000
_cell_angle_gamma 90.000000
_cell_volume 1387.343390
_symmetry_space_group_name_H-M "P 21 21 2"
_symmetry_group_IT_number 18
_symmetry_cell_setting 'orthorhombic'
loop_
_space_group_symop_operation_xyz
x,y,z
-x,-y,z
1/2+x,1/2-y,-z
1/2-x,1/2+y,-z
loop_
_atom_site_type_symbol
_atom_site_label
_atom_site_fract_x
_atom_site_fract_y
_atom_site_fract_z
Si Si1 0.368974 0.383671 0.572789
Si Si2 0.456210 0.661330 0.504998
Si Si3 0.729584 0.552315 0.435714
Si Si4 0.415685 0.000050 0.749989
Si Si5 0.000000 0.500000 0.750021
Si Si6 0.131024 0.116419 0.072769
Si Si7 0.729584 0.447560 0.064288
Si Si8 0.543796 0.661293 0.995013
O O1 0.410816 0.507859 0.483354
O O2 0.322660 0.410298 0.481185
O O3 0.363877 0.500033 0.750014
O O4 0.384385 0.114261 0.613768
O O5 0.500000 0.500000 0.522746
O O6 0.446612 0.804804 0.666778
O O7 0.468368 0.839082 0.362078
O O8 0.746620 0.306800 0.521468
O O9 0.735772 0.499928 0.250002
O O10 0.384394 0.885808 0.886225
O O11 0.446605 0.195335 0.833192
O O12 0.968355 0.339143 0.862114
O O13 0.177340 0.089839 0.981173
O O14 0.089186 0.992208 0.983320
O O15 0.753383 0.193087 0.021458
O O16 0.500000 0.500000 0.977316
#
# Coordination Sequence:
#
# PCOD9312893 Si02
#       8
#     4   4   4   4   2   4   4   4
#     4  10  24  44  71 104 140 186 240 298 369 445
#     4  11  25  43  66 101 139 187 239 294 361 437
#     4  12  28  50  79 113 152 197 251 312 380 451
#     4  10  24  43  72 100 142 180 238 294 367 440
#     4  12  26  42  64  94 148 190 242 300 352 436
#     4  10  24  44  71 104 140 186 240 298 369 445
#     4  12  28  50  79 113 152 197 251 312 380 451
#     4  11  25  43  66 101 139 187 239 294 361 437
#
# _framework density 21.624064000000001
#
# number of rings (size 3 to 8) (size 9 to 14) (size 15 to 20)
#    0.000    1.067    0.000    4.400    9.333   17.067 
#    0.000    0.000    0.000    0.000    0.000    0.000 
#    0.000    0.000    0.000    0.000    0.000    0.000 
#
# Total GULP energy -167885.645158 kJ/mol
# GULP energy per Si atom -5596.188172 kJ/mol
# Density = 2.157485 g / cm^3
# Si number density = 21.624064 Si / 1000 Ang^3
#
#
#
# Elastic Constant Matrix: (Units=GPa)
#
#
# Indices 1 2 3 4 5 6 
#
# 1 187.2478 96.2009 52.4306 0.0000 0.0000 0.0000
# 2 96.2009 149.4097 48.1552 0.0000 0.0000 0.0000
# 3 52.4306 48.1552 89.9472 0.0000 0.0000 0.0000
# 4 0.0000 0.0000 0.0000 30.0293 0.0000 0.0000
# 5 0.0000 0.0000 0.0000 0.0000 25.5886 0.0000
# 6 0.0000 0.0000 0.0000 0.0000 0.0000 12.7012
#
#
#
# Elastic Compliance Matrix: (Units=1/GPa)
#
#
# Indices 1 2 3 4 5 6 
#
# 1 0.008394 -0.004626 -0.002416 0.000000 0.000000 0.000000
# 2 -0.004626 0.010638 -0.002999 0.000000 0.000000 0.000000
# 3 -0.002416 -0.002999 0.014132 0.000000 0.000000 0.000000
# 4 0.000000 0.000000 0.000000 0.033301 0.000000 0.000000
# 5 0.000000 0.000000 0.000000 0.000000 0.039080 0.000000
# 6 0.000000 0.000000 0.000000 0.000000 0.000000 0.078733
#
#
# Mechanical properties :
#
#
# Convention : Reuss Voigt Hill
#
# Bulk Modulus (GPa) = 76.44380 91.13091 83.78735
# Shear Modulus (GPa) = 23.95569 28.98502 26.47036
#
# Velocity S-wave (km/s) = 3.33201 3.66513 3.50253
# Velocity P-wave (km/s) = 7.08739 7.75536 7.42889
#
# Compressibility (1/GPa) = 0.01308151
#
# Stress axis : x y z
#
# Youngs Moduli (GPa) = 119.13929 94.00372 70.76345
#
# Poissons Ratio (x) = 0.43483 0.17098
# Poissons Ratio (y) = 0.55109 0.21221
# Poissons Ratio (z) = 0.28786 0.28191
#
# Static dielectric constant tensor:
#      x y z
#    x 1.759710 0.000000 0.000000 
#    y 0.000000 1.942910 0.000000 
#    z 0.000000 0.000000 1.770030 
# 
# From -- ./inp_files/4851.got.cif
#   From: 2010.05.17/outbox.cif.g08.bks.cpg/sg18_3_cif.got.tgz:4851.got - 2010.06.03 22:40:56.
