data_PCOD9312100
_publ_section_title
;
Structure prediction by ZEFSAII (Michael W. Deem and Ramdas Pophale) SiO2 
 PCOD9312100
Probable space group: P 21 21 2
;
_chemical_formula_sum "Si O2"
_cell_formula_units_Z 28
_cell_length_a 22.373712
_cell_length_b 5.350035
_cell_length_c 11.426567
_cell_angle_alpha 90.000000
_cell_angle_beta 90.000000
_cell_angle_gamma 90.000000
_cell_volume 1367.761696
_symmetry_space_group_name_H-M "P 21 21 2"
_symmetry_group_IT_number 18
_symmetry_cell_setting 'orthorhombic'
loop_
_space_group_symop_operation_xyz
x,y,z
-x,-y,z
1/2+x,1/2-y,-z
1/2-x,1/2+y,-z
loop_
_atom_site_type_symbol
_atom_site_label
_atom_site_fract_x
_atom_site_fract_y
_atom_site_fract_z
Si Si1 0.845051 0.101177 0.250679
Si Si2 0.058838 0.894891 0.894522
Si Si3 0.836130 0.296988 0.745443
Si Si4 0.210063 0.857418 0.499529
Si Si5 0.148949 0.254449 0.041885
Si Si6 0.054887 0.645450 0.126948
Si Si7 0.774646 0.798189 0.834485
O O1 0.828771 0.076843 0.385368
O O2 0.912119 0.186046 0.221900
O O3 0.794288 0.283223 0.198328
O O4 0.837559 0.863880 0.167173
O O5 0.099286 0.727290 0.807991
O O6 0.029718 0.767430 0.009024
O O7 0.000000 0.000000 0.830360
O O8 0.106142 0.083213 0.957801
O O9 0.830741 0.220736 0.609677
O O10 0.808413 0.573367 0.763526
O O11 0.797707 0.075090 0.805970
O O12 0.250750 0.608515 0.475392
O O13 0.108772 0.490093 0.069701
O O14 0.208865 0.277905 0.966999
O O15 0.000000 0.500000 0.181936
#
# Coordination Sequence:
#
# PCOD9312100 Si02
#       7
#     4   4   4   4   4   4   4
#     4  11  26  37  64  96 132 177 220 278 345 413
#     4  10  20  38  62  94 125 172 218 273 335 402
#     4  11  22  41  67  95 128 171 223 273 328 402
#     4  12  24  45  67  93 134 180 227 275 341 417
#     4  10  23  36  61  92 130 165 210 273 335 412
#     4  11  22  40  64  90 131 178 223 269 344 415
#     4  11  23  40  62 100 134 163 210 279 344 400
#
# _framework density 20.471402999999999
#
# number of rings (size 3 to 8) (size 9 to 14) (size 15 to 20)
#    0.000    1.143    5.714    0.000    6.000    0.000 
#    0.000    0.000    3.143    0.857    0.000    0.000 
#    0.000    0.000    0.000    0.000    0.000    0.000 
#
# Total GULP energy -156158.386160 kJ/mol
# GULP energy per Si atom -5577.085220 kJ/mol
# Density = 2.042481 g / cm^3
# Si number density = 20.471403 Si / 1000 Ang^3
#
#
#
# Elastic Constant Matrix: (Units=GPa)
#
#
# Indices 1 2 3 4 5 6 
#
# 1 83.6556 3.9587 29.8251 0.0000 0.0000 0.0000
# 2 3.9587 40.8389 7.5202 0.0000 0.0000 0.0000
# 3 29.8251 7.5202 132.8519 0.0000 0.0000 0.0000
# 4 0.0000 0.0000 0.0000 -57.6638 0.0000 0.0000
# 5 0.0000 0.0000 0.0000 0.0000 5.5223 0.0000
# 6 0.0000 0.0000 0.0000 0.0000 0.0000 39.5875
#
#
#
# Elastic Compliance Matrix: (Units=1/GPa)
#
#
# Indices 1 2 3 4 5 6 
#
# 1 0.013015 -0.000731 -0.002881 0.000000 0.000000 0.000000
# 2 -0.000731 0.024785 -0.001239 0.000000 0.000000 0.000000
# 3 -0.002881 -0.001239 0.008244 0.000000 0.000000 0.000000
# 4 0.000000 0.000000 0.000000 -0.017342 0.000000 0.000000
# 5 0.000000 0.000000 0.000000 0.000000 0.181085 0.000000
# 6 0.000000 0.000000 0.000000 0.000000 0.000000 0.025260
#
#
# Mechanical properties :
#
#
# Convention : Reuss Voigt Hill
#
# Bulk Modulus (GPa) = 27.51516 37.77272 32.64394
# Shear Modulus (GPa) = 19.46551 11.89202 15.67876
#
# Velocity S-wave (km/s) = 3.08695 2.41282 2.77047
# Velocity P-wave (km/s) = 5.11622 5.12384 5.12003
#
# Compressibility (1/GPa) = 0.03634360
#
# Stress axis : x y z
#
# Youngs Moduli (GPa) = 76.83234 40.34621 121.30057
#
# Poissons Ratio (x) = 0.02950 0.34941
# Poissons Ratio (y) = 0.05618 0.15027
# Poissons Ratio (z) = 0.22132 0.04998
#
# Static dielectric constant tensor:
#      x y z
#    x 1.874010 0.000000 0.000000 
#    y 0.000000 1.853680 0.000000 
#    z 0.000000 0.000000 1.732310 
# 
# From -- ./inp_files/6263.got.cif
#   From: 2010.05.17/outbox.cif.g08.bks.cpg/sg18_4_cif.got.tgz:6263.got - 2010.06.03 22:40:56.
