data_PCOD9312369
_publ_section_title
;
Structure prediction by ZEFSAII (Michael W. Deem and Ramdas Pophale) SiO2 
 PCOD9312369
Probable space group: P 21 21 2
;
_chemical_formula_sum "Si O2"
_cell_formula_units_Z 32
_cell_length_a 9.063524
_cell_length_b 31.603923
_cell_length_c 5.283474
_cell_angle_alpha 90.000000
_cell_angle_beta 90.000000
_cell_angle_gamma 90.000000
_cell_volume 1513.413692
_symmetry_space_group_name_H-M "P 21 21 2"
_symmetry_group_IT_number 18
_symmetry_cell_setting 'orthorhombic'
loop_
_space_group_symop_operation_xyz
x,y,z
-x,-y,z
1/2+x,1/2-y,-z
1/2-x,1/2+y,-z
loop_
_atom_site_type_symbol
_atom_site_label
_atom_site_fract_x
_atom_site_fract_y
_atom_site_fract_z
Si Si1 0.155945 0.068818 0.538436
Si Si2 0.636853 0.513722 0.781281
Si Si3 0.171535 0.724031 0.754571
Si Si4 0.832141 0.494950 0.175219
Si Si5 0.566117 0.131840 0.755885
Si Si6 0.878869 0.375725 0.751275
Si Si7 0.485330 0.768293 0.755297
Si Si8 0.336979 0.422429 0.390717
O O1 0.104727 0.025342 0.408174
O O2 0.271507 0.050179 0.737727
O O3 0.235589 0.097244 0.328155
O O4 0.008239 0.087268 0.664824
O O5 0.500000 0.500000 0.968517
O O6 0.654752 0.561852 0.685850
O O7 0.798137 0.500413 0.880753
O O8 0.169465 0.673121 0.779550
O O9 0.337769 0.740747 0.743501
O O10 0.082469 0.735412 0.499136
O O11 0.085234 0.741633 0.999820
O O12 0.736016 0.534716 0.277595
O O13 0.000000 0.500000 0.246744
O O14 0.479589 0.121053 0.498685
O O15 0.564211 0.182592 0.780361
O O16 0.728822 0.113647 0.705945
O O17 0.479303 0.114118 0.002723
#
# Coordination Sequence:
#
# PCOD9312369 Si02
#       8
#     4   4   4   4   4   4   4   4
#     4  10  22  39  58  84 122 160 212 264 320 374
#     4   9  20  37  56  80 116 158 209 265 315 370
#     4  10  21  40  66  96 131 170 213 264 319 385
#     4  11  22  35  59  85 115 163 213 261 319 380
#     4  10  23  41  62  93 128 166 209 265 319 380
#     4  10  23  41  62  92 129 165 211 263 321 378
#     4  10  21  40  66  96 131 170 213 264 319 385
#     4  10  22  39  57  86 120 162 210 266 318 376
#
# _framework density 21.144251000000001
#
# number of rings (size 3 to 8) (size 9 to 14) (size 15 to 20)
#    0.000    2.000    0.000    3.375    5.250    3.000 
#    0.000    0.000    0.000    0.000    0.000    0.000 
#    0.000    0.000    0.000    0.000    0.000    0.000 
#
# Total GULP energy -178240.042752 kJ/mol
# GULP energy per Si atom -5570.001336 kJ/mol
# Density = 2.109613 g / cm^3
# Si number density = 21.144251 Si / 1000 Ang^3
#
#
#
# Elastic Constant Matrix: (Units=GPa)
#
#
# Indices 1 2 3 4 5 6 
#
# 1 141.0927 37.0559 38.4880 0.0000 0.0000 0.0000
# 2 37.0559 20.6658 28.0490 0.0000 0.0000 0.0000
# 3 38.4880 28.0490 84.5546 0.0000 0.0000 0.0000
# 4 0.0000 0.0000 0.0000 12.6058 0.0000 0.0000
# 5 0.0000 0.0000 0.0000 0.0000 28.0468 0.0000
# 6 0.0000 0.0000 0.0000 0.0000 0.0000 41.0196
#
#
#
# Elastic Compliance Matrix: (Units=1/GPa)
#
#
# Indices 1 2 3 4 5 6 
#
# 1 0.013957 -0.029838 0.003545 0.000000 0.000000 0.000000
# 2 -0.029838 0.151806 -0.036776 0.000000 0.000000 0.000000
# 3 0.003545 -0.036776 0.022413 0.000000 0.000000 0.000000
# 4 0.000000 0.000000 0.000000 0.079328 0.000000 0.000000
# 5 0.000000 0.000000 0.000000 0.000000 0.035655 0.000000
# 6 0.000000 0.000000 0.000000 0.000000 0.000000 0.024379
#
#
# Mechanical properties :
#
#
# Convention : Reuss Voigt Hill
#
# Bulk Modulus (GPa) = 16.11926 50.38879 33.25403
# Shear Modulus (GPa) = 10.54064 25.84915 18.19489
#
# Velocity S-wave (km/s) = 2.23516 3.50024 2.93663
# Velocity P-wave (km/s) = 3.78170 6.34179 5.22109
#
# Compressibility (1/GPa) = 0.06203758
#
# Stress axis : x y z
#
# Youngs Moduli (GPa) = 71.64900 6.58736 44.61740
#
# Poissons Ratio (x) = 0.19655 -0.15816
# Poissons Ratio (y) = 2.13783 1.64087
# Poissons Ratio (z) = -0.25399 0.24226
#
# Static dielectric constant tensor:
#      x y z
#    x 2.013910 0.000000 0.000000 
#    y 0.000000 1.744570 0.000000 
#    z 0.000000 0.000000 2.268660 
# 
# From -- ./inp_files/782.got.cif
#   From: 2010.05.17/outbox.cif.g08.bks.cpg/sg18_1_cif.got.tgz:782.got - 2010.06.03 22:40:56.
