data_PCOD9312345
_publ_section_title
;
Structure prediction by ZEFSAII (Michael W. Deem and Ramdas Pophale) SiO2 
 PCOD9312345
Probable space group: P 21 21 2
;
_chemical_formula_sum "Si O2"
_cell_formula_units_Z 32
_cell_length_a 9.041620
_cell_length_b 14.881843
_cell_length_c 11.965018
_cell_angle_alpha 90.000000
_cell_angle_beta 90.000000
_cell_angle_gamma 90.000000
_cell_volume 1609.964595
_symmetry_space_group_name_H-M "P 21 21 2"
_symmetry_group_IT_number 18
_symmetry_cell_setting 'orthorhombic'
loop_
_space_group_symop_operation_xyz
x,y,z
-x,-y,z
1/2+x,1/2-y,-z
1/2-x,1/2+y,-z
loop_
_atom_site_type_symbol
_atom_site_label
_atom_site_fract_x
_atom_site_fract_y
_atom_site_fract_z
Si Si1 0.927634 0.900231 0.672817
Si Si2 0.588383 0.589971 0.924442
Si Si3 0.338074 0.338740 0.161658
Si Si4 0.649443 0.328770 0.756382
Si Si5 0.330776 0.989046 0.241903
Si Si6 0.334916 0.874249 0.467896
Si Si7 0.329804 0.985590 0.696507
Si Si8 0.525350 0.719452 0.531737
O O1 0.961277 0.850633 0.558299
O O2 0.007477 0.846058 0.771317
O O3 0.756897 0.920479 0.693208
O O4 0.000000 0.000000 0.669016
O O5 0.500000 0.500000 0.962736
O O6 0.474499 0.642809 0.845729
O O7 0.727959 0.559726 0.849701
O O8 0.636096 0.646595 0.031457
O O9 0.253366 0.248945 0.195484
O O10 0.241816 0.421178 0.210897
O O11 0.750056 0.416261 0.733642
O O12 0.562677 0.295387 0.646716
O O13 0.500000 0.000000 0.203139
O O14 0.335879 0.932250 0.356148
O O15 0.311756 0.936474 0.576510
O O16 0.484658 0.817991 0.486688
O O17 0.198118 0.804321 0.459813
O O18 0.500000 0.000000 0.718574
#
# Coordination Sequence:
#
# PCOD9312345 Si02
#       8
#     4   4   4   4   4   4   4   4
#     4  10  21  39  66  91 129 176 215 268 335 405
#     4  10  23  46  71  93 129 184 230 277 344 395
#     4  11  23  45  67  99 129 172 233 278 329 405
#     4  11  24  44  69  95 137 178 222 280 336 409
#     4  11  26  42  68  99 136 178 224 276 338 408
#     4  12  25  41  64  99 137 171 223 274 339 413
#     4  11  23  40  62  97 133 173 216 275 339 400
#     4  12  23  40  65  96 133 173 216 273 335 405
#
# _framework density 19.876211999999999
#
# number of rings (size 3 to 8) (size 9 to 14) (size 15 to 20)
#    0.000    1.000    5.000    2.250    5.250    1.500 
#    0.000    1.250    0.000    0.000    0.000    0.000 
#    0.000    0.000    0.000    0.000    0.000    0.000 
#
# Total GULP energy -178994.863282 kJ/mol
# GULP energy per Si atom -5593.589478 kJ/mol
# Density = 1.983097 g / cm^3
# Si number density = 19.876212 Si / 1000 Ang^3
#
#
#
# Elastic Constant Matrix: (Units=GPa)
#
#
# Indices 1 2 3 4 5 6 
#
# 1 119.2079 25.7644 26.3999 0.0000 0.0000 0.0000
# 2 25.7644 64.8876 39.8113 0.0000 0.0000 0.0000
# 3 26.3999 39.8113 99.1430 0.0000 0.0000 0.0000
# 4 0.0000 0.0000 0.0000 23.0180 0.0000 0.0000
# 5 0.0000 0.0000 0.0000 0.0000 13.0533 0.0000
# 6 0.0000 0.0000 0.0000 0.0000 0.0000 20.9326
#
#
#
# Elastic Compliance Matrix: (Units=1/GPa)
#
#
# Indices 1 2 3 4 5 6 
#
# 1 0.009304 -0.002885 -0.001319 0.000000 0.000000 0.000000
# 2 -0.002885 0.021344 -0.007803 0.000000 0.000000 0.000000
# 3 -0.001319 -0.007803 0.013571 0.000000 0.000000 0.000000
# 4 0.000000 0.000000 0.000000 0.043444 0.000000 0.000000
# 5 0.000000 0.000000 0.000000 0.000000 0.076609 0.000000
# 6 0.000000 0.000000 0.000000 0.000000 0.000000 0.047772
#
#
# Mechanical properties :
#
#
# Convention : Reuss Voigt Hill
#
# Bulk Modulus (GPa) = 49.49067 51.90996 50.70031
# Shear Modulus (GPa) = 20.59363 24.15164 22.37264
#
# Velocity S-wave (km/s) = 3.22233 3.48961 3.35863
# Velocity P-wave (km/s) = 6.22881 6.51229 6.37212
#
# Compressibility (1/GPa) = 0.02020583
#
# Stress axis : x y z
#
# Youngs Moduli (GPa) = 107.47627 46.85149 73.68748
#
# Poissons Ratio (x) = 0.13517 0.09720
# Poissons Ratio (y) = 0.31008 0.57495
# Poissons Ratio (z) = 0.14177 0.36556
#
# Static dielectric constant tensor:
#      x y z
#    x 1.725080 0.000000 0.000000 
#    y 0.000000 1.702960 0.000000 
#    z 0.000000 0.000000 1.656140 
# 
# From -- ./inp_files/5686.got.cif
#   From: 2010.05.17/outbox.cif.g08.bks.cpg/sg18_3_cif.got.tgz:5686.got - 2010.06.03 22:40:56.
