data_PCOD9312240
_publ_section_title
;
Structure prediction by ZEFSAII (Michael W. Deem and Ramdas Pophale) SiO2 
 PCOD9312240
Probable space group: P 21 21 2
;
_chemical_formula_sum "Si O2"
_cell_formula_units_Z 18
_cell_length_a 9.075140
_cell_length_b 12.874037
_cell_length_c 6.129666
_cell_angle_alpha 90.000000
_cell_angle_beta 90.000000
_cell_angle_gamma 90.000000
_cell_volume 716.151486
_symmetry_space_group_name_H-M "P 21 21 2"
_symmetry_group_IT_number 18
_symmetry_cell_setting 'orthorhombic'
loop_
_space_group_symop_operation_xyz
x,y,z
-x,-y,z
1/2+x,1/2-y,-z
1/2-x,1/2+y,-z
loop_
_atom_site_type_symbol
_atom_site_label
_atom_site_fract_x
_atom_site_fract_y
_atom_site_fract_z
Si Si1 0.667968 0.211903 0.519798
Si Si2 0.000000 0.500000 0.412618
Si Si3 0.433754 0.596077 0.802024
Si Si4 0.959901 0.205730 0.801022
Si Si5 0.374091 0.077102 0.002859
O O1 0.833392 0.195411 0.613390
O O2 0.623048 0.270869 0.296646
O O3 0.583478 0.101931 0.499153
O O4 0.593981 0.292949 0.690385
O O5 0.877291 0.447829 0.252823
O O6 0.500000 0.500000 0.666700
O O7 0.528839 0.616040 0.020497
O O8 0.275023 0.556586 0.875091
O O9 0.916576 0.307017 0.938092
O O10 0.500000 0.000000 0.089251
#
# Coordination Sequence:
#
# PCOD9312240 Si02
#       5
#     4   2   4   4   4
#     4  11  26  42  68 100 133 178 226 280 340 402
#     4  10  20  44  68  94 126 176 226 270 338 392
#     4  11  23  44  68  96 137 174 222 279 336 406
#     4  11  25  43  65 101 135 176 226 276 335 404
#     4   9  21  40  68  94 127 176 218 266 339 389
#
# _framework density 25.134347000000002
#
# number of rings (size 3 to 8) (size 9 to 14) (size 15 to 20)
#    0.667    0.889    2.222    1.333    4.667    2.667 
#    4.000    0.000    0.000    0.000    0.000    0.000 
#    0.000    0.000    0.000    0.000    0.000    0.000 
#
# Total GULP energy -100436.299450 kJ/mol
# GULP energy per Si atom -5579.794414 kJ/mol
# Density = 2.507714 g / cm^3
# Si number density = 25.134347 Si / 1000 Ang^3
#
#
#
# Elastic Constant Matrix: (Units=GPa)
#
#
# Indices 1 2 3 4 5 6 
#
# 1 90.6406 59.7305 5.0380 0.0000 0.0000 0.0000
# 2 59.7305 144.6465 16.5850 0.0000 0.0000 0.0000
# 3 5.0380 16.5850 32.7458 0.0000 0.0000 0.0000
# 4 0.0000 0.0000 0.0000 29.8690 0.0000 0.0000
# 5 0.0000 0.0000 0.0000 0.0000 26.5814 0.0000
# 6 0.0000 0.0000 0.0000 0.0000 0.0000 44.8178
#
#
#
# Elastic Compliance Matrix: (Units=1/GPa)
#
#
# Indices 1 2 3 4 5 6 
#
# 1 0.015182 -0.006371 0.000891 0.000000 0.000000 0.000000
# 2 -0.006371 0.010013 -0.004091 0.000000 0.000000 0.000000
# 3 0.000891 -0.004091 0.032473 0.000000 0.000000 0.000000
# 4 0.000000 0.000000 0.000000 0.033480 0.000000 0.000000
# 5 0.000000 0.000000 0.000000 0.000000 0.037620 0.000000
# 6 0.000000 0.000000 0.000000 0.000000 0.000000 0.022313
#
#
# Mechanical properties :
#
#
# Convention : Reuss Voigt Hill
#
# Bulk Modulus (GPa) = 25.95685 47.86000 36.90842
# Shear Modulus (GPa) = 27.31261 32.69892 30.00576
#
# Velocity S-wave (km/s) = 3.30004 3.61080 3.45891
# Velocity P-wave (km/s) = 4.98698 6.03878 5.53791
#
# Compressibility (1/GPa) = 0.03852548
#
# Stress axis : x y z
#
# Youngs Moduli (GPa) = 65.86911 99.86525 30.79451
#
# Poissons Ratio (x) = 0.63627 -0.02744
# Poissons Ratio (y) = 0.41967 0.12599
# Poissons Ratio (z) = -0.05870 0.40858
#
# Static dielectric constant tensor:
#      x y z
#    x 1.978140 0.000000 0.000000 
#    y 0.000000 1.909010 0.000000 
#    z 0.000000 0.000000 2.135830 
# 
# From -- ./inp_files/2900.got.cif
#   From: 2010.05.17/outbox.cif.g08.bks.cpg/sg18_2_cif.got.tgz:2900.got - 2010.06.03 22:40:56.
