data_PCOD9312958
_publ_section_title
;
Structure prediction by ZEFSAII (Michael W. Deem and Ramdas Pophale) SiO2 
 PCOD9312958
Probable space group: P 21 21 2
;
_chemical_formula_sum "Si O2"
_cell_formula_units_Z 30
_cell_length_a 27.834313
_cell_length_b 7.961128
_cell_length_c 5.023391
_cell_angle_alpha 90.000000
_cell_angle_beta 90.000000
_cell_angle_gamma 90.000000
_cell_volume 1113.145914
_symmetry_space_group_name_H-M "P 21 21 2"
_symmetry_group_IT_number 18
_symmetry_cell_setting 'orthorhombic'
loop_
_space_group_symop_operation_xyz
x,y,z
-x,-y,z
1/2+x,1/2-y,-z
1/2-x,1/2+y,-z
loop_
_atom_site_type_symbol
_atom_site_label
_atom_site_fract_x
_atom_site_fract_y
_atom_site_fract_z
Si Si1 0.411521 0.338863 0.209223
Si Si2 0.640634 0.440819 0.588463
Si Si3 0.671252 0.146769 0.223666
Si Si4 0.691393 0.661336 0.943567
Si Si5 0.000000 0.000000 0.598736
Si Si6 0.275616 0.975181 0.729019
Si Si7 0.951403 0.731242 0.242233
Si Si8 0.934486 0.523372 0.739906
O O1 0.385949 0.391865 0.484083
O O2 0.453632 0.478823 0.210103
O O3 0.441501 0.169681 0.200749
O O4 0.364746 0.320400 0.024938
O O5 0.657068 0.327784 0.338947
O O6 0.686713 0.502695 0.747384
O O7 0.599570 0.333000 0.739128
O O8 0.689870 0.131679 0.926148
O O9 0.622677 0.043161 0.239733
O O10 0.708646 0.063074 0.429304
O O11 0.724313 0.600511 0.187656
O O12 0.713822 0.830722 0.814104
O O13 0.010051 0.151468 0.391197
O O14 0.947229 0.574051 0.442697
O O15 0.956567 0.651344 0.952854
#
# Coordination Sequence:
#
# PCOD9312958 Si02
#       8
#     4   4   4   4   2   4   4   4
#     4  11  26  48  80 109 159 207 265 331 411 477
#     4  10  25  43  77 108 152 204 266 316 397 464
#     4  11  24  47  75 112 155 204 260 320 386 468
#     4  12  28  46  76 115 156 220 264 334 395 477
#     4  10  26  56  78 120 154 204 268 336 410 486
#     4  12  28  45  75 111 162 206 268 326 388 477
#     4  10  25  47  82 113 151 202 257 328 393 477
#     4  11  23  47  80 113 152 204 255 316 398 471
#
# _framework density 26.950647
#
# number of rings (size 3 to 8) (size 9 to 14) (size 15 to 20)
#    0.000    1.067    1.333    3.200   13.067    1.067 
#    2.400    1.333    0.000    0.000    0.000    0.000 
#    0.000    0.000    0.000    0.000    0.000    0.000 
#
# Total GULP energy -168107.823414 kJ/mol
# GULP energy per Si atom -5603.594114 kJ/mol
# Density = 2.688931 g / cm^3
# Si number density = 26.950647 Si / 1000 Ang^3
#
#
#
# Elastic Constant Matrix: (Units=GPa)
#
#
# Indices 1 2 3 4 5 6 
#
# 1 141.3630 22.1933 23.2119 0.0000 0.0000 0.0000
# 2 22.1933 129.6860 37.3482 0.0000 0.0000 0.0000
# 3 23.2119 37.3482 55.3909 0.0000 0.0000 0.0000
# 4 0.0000 0.0000 0.0000 32.8413 0.0000 0.0000
# 5 0.0000 0.0000 0.0000 0.0000 41.1293 0.0000
# 6 0.0000 0.0000 0.0000 0.0000 0.0000 32.1043
#
#
#
# Elastic Compliance Matrix: (Units=1/GPa)
#
#
# Indices 1 2 3 4 5 6 
#
# 1 0.007620 -0.000477 -0.002872 0.000000 0.000000 0.000000
# 2 -0.000477 0.009599 -0.006272 0.000000 0.000000 0.000000
# 3 -0.002872 -0.006272 0.023486 0.000000 0.000000 0.000000
# 4 0.000000 0.000000 0.000000 0.030449 0.000000 0.000000
# 5 0.000000 0.000000 0.000000 0.000000 0.024314 0.000000
# 6 0.000000 0.000000 0.000000 0.000000 0.000000 0.031148
#
#
# Mechanical properties :
#
#
# Convention : Reuss Voigt Hill
#
# Bulk Modulus (GPa) = 46.59121 54.66075 50.62598
# Shear Modulus (GPa) = 32.67684 37.46075 35.06879
#
# Velocity S-wave (km/s) = 3.48583 3.73228 3.61116
# Velocity P-wave (km/s) = 5.79021 6.23691 6.01771
#
# Compressibility (1/GPa) = 0.02146328
#
# Stress axis : x y z
#
# Youngs Moduli (GPa) = 131.22635 104.17817 42.57834
#
# Poissons Ratio (x) = 0.04970 0.12227
# Poissons Ratio (y) = 0.06260 0.26707
# Poissons Ratio (z) = 0.37684 0.65344
#
# Static dielectric constant tensor:
#      x y z
#    x 2.133950 0.000000 0.000000 
#    y 0.000000 2.128650 0.000000 
#    z 0.000000 0.000000 2.090000 
# 
# From -- ./inp_files/2288.got.cif
#   From: 2010.05.17/outbox.cif.g08.bks.cpg/sg18_2_cif.got.tgz:2288.got - 2010.06.03 22:40:56.
