data_PCOD9312005
_publ_section_title
;
Structure prediction by ZEFSAII (Michael W. Deem and Ramdas Pophale) SiO2 
 PCOD9312005
Probable space group: P 21 21 2
;
_chemical_formula_sum "Si O2"
_cell_formula_units_Z 32
_cell_length_a 8.715358
_cell_length_b 15.670440
_cell_length_c 11.641359
_cell_angle_alpha 90.000000
_cell_angle_beta 90.000000
_cell_angle_gamma 90.000000
_cell_volume 1589.901081
_symmetry_space_group_name_H-M "P 21 21 2"
_symmetry_group_IT_number 18
_symmetry_cell_setting 'orthorhombic'
loop_
_space_group_symop_operation_xyz
x,y,z
-x,-y,z
1/2+x,1/2-y,-z
1/2-x,1/2+y,-z
loop_
_atom_site_type_symbol
_atom_site_label
_atom_site_fract_x
_atom_site_fract_y
_atom_site_fract_z
Si Si1 0.968249 0.164323 0.163936
Si Si2 0.952438 0.905226 0.409596
Si Si3 0.292994 0.804436 0.776705
Si Si4 0.800710 0.796286 0.813547
Si Si5 0.604423 0.921732 0.453294
Si Si6 0.070778 0.583400 0.284375
Si Si7 0.555599 0.594663 0.075947
Si Si8 0.986932 0.235738 0.604415
O O1 0.971187 0.121051 0.289176
O O2 0.123168 0.223622 0.162450
O O3 0.819493 0.225118 0.148849
O O4 0.950497 0.097445 0.061512
O O5 0.768778 0.910857 0.394584
O O6 0.995513 0.834521 0.504845
O O7 0.000000 0.000000 0.447144
O O8 0.434165 0.848407 0.710415
O O9 0.212437 0.871725 0.864041
O O10 0.163847 0.780153 0.683144
O O11 0.702263 0.880493 0.793602
O O12 0.939886 0.827512 0.891074
O O13 0.869964 0.771259 0.690269
O O14 0.632005 0.937482 0.588884
O O15 0.521014 0.831199 0.442823
O O16 0.500000 0.000000 0.410310
O O17 0.000000 0.500000 0.231164
O O18 0.500000 0.500000 0.115621
#
# Coordination Sequence:
#
# PCOD9312005 Si02
#       8
#     4   4   4   4   4   4   4   4
#     4  11  23  43  64  89 129 172 215 257 327 391
#     4  12  27  40  66  99 135 176 215 261 321 394
#     4  10  22  39  66  89 121 167 214 268 317 387
#     4  10  22  39  65  91 118 168 215 267 320 381
#     4  11  25  40  61  93 134 175 210 262 319 393
#     4  10  20  35  58  91 127 160 206 261 322 371
#     4  11  23  41  64  93 124 160 215 278 328 384
#     4  11  23  41  63  91 130 168 215 262 322 379
#
# _framework density 20.127037000000001
#
# number of rings (size 3 to 8) (size 9 to 14) (size 15 to 20)
#    0.000    1.250    2.500    3.375    5.250    2.000 
#    0.000    0.000    0.000    0.750    0.000    0.000 
#    0.000    0.000    0.000    0.000    0.000    0.000 
#
# Total GULP energy -178570.367266 kJ/mol
# GULP energy per Si atom -5580.323977 kJ/mol
# Density = 2.008123 g / cm^3
# Si number density = 20.127037 Si / 1000 Ang^3
#
#
#
# Elastic Constant Matrix: (Units=GPa)
#
#
# Indices 1 2 3 4 5 6 
#
# 1 57.2035 6.8248 6.8062 0.0000 0.0000 0.0000
# 2 6.8248 108.0730 15.5559 0.0000 0.0000 0.0000
# 3 6.8062 15.5559 67.9688 0.0000 0.0000 0.0000
# 4 0.0000 0.0000 0.0000 18.7591 0.0000 0.0000
# 5 0.0000 0.0000 0.0000 0.0000 8.3454 0.0000
# 6 0.0000 0.0000 0.0000 0.0000 0.0000 17.7044
#
#
#
# Elastic Compliance Matrix: (Units=1/GPa)
#
#
# Indices 1 2 3 4 5 6 
#
# 1 0.017776 -0.000896 -0.001575 0.000000 0.000000 0.000000
# 2 -0.000896 0.009613 -0.002110 0.000000 0.000000 0.000000
# 3 -0.001575 -0.002110 0.015353 0.000000 0.000000 0.000000
# 4 0.000000 0.000000 0.000000 0.053308 0.000000 0.000000
# 5 0.000000 0.000000 0.000000 0.000000 0.119826 0.000000
# 6 0.000000 0.000000 0.000000 0.000000 0.000000 0.056483
#
#
# Mechanical properties :
#
#
# Convention : Reuss Voigt Hill
#
# Bulk Modulus (GPa) = 29.77976 32.40211 31.09094
# Shear Modulus (GPa) = 17.08145 22.56567 19.82356
#
# Velocity S-wave (km/s) = 2.91638 3.35201 3.14175
# Velocity P-wave (km/s) = 5.11550 5.57808 5.35179
#
# Compressibility (1/GPa) = 0.03357986
#
# Stress axis : x y z
#
# Youngs Moduli (GPa) = 56.25646 104.02190 65.13233
#
# Poissons Ratio (x) = 0.09319 0.10258
# Poissons Ratio (y) = 0.05040 0.13746
# Poissons Ratio (z) = 0.08860 0.21954
#
# Static dielectric constant tensor:
#      x y z
#    x 1.750140 0.000000 0.000000 
#    y 0.000000 1.757900 0.000000 
#    z 0.000000 0.000000 1.707650 
# 
# From -- ./inp_files/5694.got.cif
#   From: 2010.05.17/outbox.cif.g08.bks.cpg/sg18_3_cif.got.tgz:5694.got - 2010.06.03 22:40:56.
