data_PCOD9312589
_publ_section_title
;
Structure prediction by ZEFSAII (Michael W. Deem and Ramdas Pophale) SiO2 
 PCOD9312589
Probable space group: P 21 21 2
;
_chemical_formula_sum "Si O2"
_cell_formula_units_Z 22
_cell_length_a 18.380456
_cell_length_b 8.757541
_cell_length_c 5.426784
_cell_angle_alpha 90.000000
_cell_angle_beta 90.000000
_cell_angle_gamma 90.000000
_cell_volume 873.536380
_symmetry_space_group_name_H-M "P 21 21 2"
_symmetry_group_IT_number 18
_symmetry_cell_setting 'orthorhombic'
loop_
_space_group_symop_operation_xyz
x,y,z
-x,-y,z
1/2+x,1/2-y,-z
1/2-x,1/2+y,-z
loop_
_atom_site_type_symbol
_atom_site_label
_atom_site_fract_x
_atom_site_fract_y
_atom_site_fract_z
Si Si1 0.596169 0.025777 0.926762
Si Si2 0.742736 0.607906 0.156608
Si Si3 0.378405 0.306185 0.804296
Si Si4 0.241975 0.166984 0.514107
Si Si5 0.416547 0.796596 0.407356
Si Si6 0.500000 0.500000 0.533502
O O1 0.683316 0.047500 0.957961
O O2 0.576384 0.113700 0.670344
O O3 0.582155 0.845438 0.905878
O O4 0.565949 0.099135 0.174639
O O5 0.755656 0.784380 0.230241
O O6 0.736552 0.506849 0.404134
O O7 0.669589 0.604685 0.004286
O O8 0.317573 0.230884 0.624078
O O9 0.434965 0.422616 0.687749
O O10 0.167813 0.243940 0.608440
O O11 0.464723 0.643790 0.395451
#
# Coordination Sequence:
#
# PCOD9312589 Si02
#       6
#     4   4   4   4   4   2
#     4  10  25  47  81 107 158 210 270 324 409 483
#     4  10  22  40  76 114 155 192 279 331 410 466
#     4  11  25  47  75 120 160 219 265 351 407 507
#     4  10  22  42  76 111 151 206 269 340 395 480
#     4  11  25  51  76 118 154 217 266 342 401 501
#     4  12  30  50  80 116 176 208 284 338 442 480
#
# _framework density 25.184984
#
# number of rings (size 3 to 8) (size 9 to 14) (size 15 to 20)
#    0.000    1.455    1.818    1.091   10.182    2.909 
#    3.273    1.818    4.000    0.000    0.000    0.000 
#    0.000    0.000    0.000    0.000    0.000    0.000 
#
# Total GULP energy -123143.744648 kJ/mol
# GULP energy per Si atom -5597.442939 kJ/mol
# Density = 2.512766 g / cm^3
# Si number density = 25.184984 Si / 1000 Ang^3
#
#
#
# Elastic Constant Matrix: (Units=GPa)
#
#
# Indices 1 2 3 4 5 6 
#
# 1 123.6341 61.1928 29.6219 0.0000 0.0000 0.0000
# 2 61.1928 160.9029 72.3348 0.0000 0.0000 0.0000
# 3 29.6219 72.3348 81.1704 0.0000 0.0000 0.0000
# 4 0.0000 0.0000 0.0000 33.2741 0.0000 0.0000
# 5 0.0000 0.0000 0.0000 0.0000 13.0601 0.0000
# 6 0.0000 0.0000 0.0000 0.0000 0.0000 56.3610
#
#
#
# Elastic Compliance Matrix: (Units=1/GPa)
#
#
# Indices 1 2 3 4 5 6 
#
# 1 0.009973 -0.003598 -0.000433 0.000000 0.000000 0.000000
# 2 -0.003598 0.011667 -0.009084 0.000000 0.000000 0.000000
# 3 -0.000433 -0.009084 0.020573 0.000000 0.000000 0.000000
# 4 0.000000 0.000000 0.000000 0.030053 0.000000 0.000000
# 5 0.000000 0.000000 0.000000 0.000000 0.076569 0.000000
# 6 0.000000 0.000000 0.000000 0.000000 0.000000 0.017743
#
#
# Mechanical properties :
#
#
# Convention : Reuss Voigt Hill
#
# Bulk Modulus (GPa) = 62.56752 76.88961 69.72856
# Shear Modulus (GPa) = 25.23516 34.04290 29.63903
#
# Velocity S-wave (km/s) = 3.16886 3.68056 3.43425
# Velocity P-wave (km/s) = 6.18757 6.97554 6.59334
#
# Compressibility (1/GPa) = 0.01598273
#
# Stress axis : x y z
#
# Youngs Moduli (GPa) = 100.27026 85.71106 48.60746
#
# Poissons Ratio (x) = 0.30840 0.02105
# Poissons Ratio (y) = 0.36079 0.44155
# Poissons Ratio (z) = 0.04342 0.77860
#
# Static dielectric constant tensor:
#      x y z
#    x 1.969160 0.000000 0.000000 
#    y 0.000000 1.976380 0.000000 
#    z 0.000000 0.000000 2.043000 
# 
# From -- ./inp_files/1756.got.cif
#   From: 2010.05.17/outbox.cif.g08.bks.cpg/sg18_1_cif.got.tgz:1756.got - 2010.06.03 22:40:56.
