data_PCOD9312571
_publ_section_title
;
Structure prediction by ZEFSAII (Michael W. Deem and Ramdas Pophale) SiO2 
 PCOD9312571
Probable space group: P 21 21 2
;
_chemical_formula_sum "Si O2"
_cell_formula_units_Z 20
_cell_length_a 8.943051
_cell_length_b 9.723954
_cell_length_c 10.441287
_cell_angle_alpha 90.000000
_cell_angle_beta 90.000000
_cell_angle_gamma 90.000000
_cell_volume 907.993285
_symmetry_space_group_name_H-M "P 21 21 2"
_symmetry_group_IT_number 18
_symmetry_cell_setting 'orthorhombic'
loop_
_space_group_symop_operation_xyz
x,y,z
-x,-y,z
1/2+x,1/2-y,-z
1/2-x,1/2+y,-z
loop_
_atom_site_type_symbol
_atom_site_label
_atom_site_fract_x
_atom_site_fract_y
_atom_site_fract_z
Si Si1 0.500000 0.500000 0.995321
Si Si2 0.210391 0.567607 0.840670
Si Si3 0.402253 0.383552 0.452924
Si Si4 0.282169 0.370759 0.196958
Si Si5 0.606769 0.123006 0.388219
Si Si6 0.000000 0.500000 0.062324
O O1 0.406918 0.399933 0.089189
O O2 0.372448 0.555007 0.902551
O O3 0.215349 0.710591 0.766193
O O4 0.155412 0.440283 0.751947
O O5 0.101503 0.585285 0.962966
O O6 0.500000 0.500000 0.521173
O O7 0.331085 0.449660 0.324157
O O8 0.509909 0.260196 0.408526
O O9 0.261586 0.348391 0.540014
O O10 0.120266 0.416067 0.145230
O O11 0.500000 0.000000 0.441138
#
# Coordination Sequence:
#
# PCOD9312571 Si02
#       6
#     2   4   4   4   4   2
#     4  10  24  40  68 106 138 182 230 294 350 426
#     4  11  22  44  70 100 138 185 239 289 360 422
#     4  12  27  47  70 103 142 184 242 302 359 422
#     4  11  22  43  66 101 141 181 238 289 362 416
#     4  12  26  48  74 101 140 189 243 300 355 433
#     4  10  22  40  66 102 138 182 230 298 354 432
#
# _framework density 22.026596000000001
#
# number of rings (size 3 to 8) (size 9 to 14) (size 15 to 20)
#    0.000    0.800    4.000    2.400    2.800    1.600 
#    3.600    0.000    0.000    0.000    0.000    0.000 
#    0.000    0.000    0.000    0.000    0.000    0.000 
#
# Total GULP energy -111551.908055 kJ/mol
# GULP energy per Si atom -5577.595403 kJ/mol
# Density = 2.197646 g / cm^3
# Si number density = 22.026596 Si / 1000 Ang^3
#
#
#
# Elastic Constant Matrix: (Units=GPa)
#
#
# Indices 1 2 3 4 5 6 
#
# 1 203.6597 45.7926 60.1491 0.0000 0.0000 0.0000
# 2 45.7926 83.9989 20.1374 0.0000 0.0000 0.0000
# 3 60.1491 20.1374 69.3879 0.0000 0.0000 0.0000
# 4 0.0000 0.0000 0.0000 13.5334 0.0000 0.0000
# 5 0.0000 0.0000 0.0000 0.0000 39.0735 0.0000
# 6 0.0000 0.0000 0.0000 0.0000 0.0000 20.3291
#
#
#
# Elastic Compliance Matrix: (Units=1/GPa)
#
#
# Indices 1 2 3 4 5 6 
#
# 1 0.007080 -0.002567 -0.005392 0.000000 0.000000 0.000000
# 2 -0.002567 0.013726 -0.001758 0.000000 0.000000 0.000000
# 3 -0.005392 -0.001758 0.019596 0.000000 0.000000 0.000000
# 4 0.000000 0.000000 0.000000 0.073891 0.000000 0.000000
# 5 0.000000 0.000000 0.000000 0.000000 0.025593 0.000000
# 6 0.000000 0.000000 0.000000 0.000000 0.000000 0.049191
#
#
# Mechanical properties :
#
#
# Convention : Reuss Voigt Hill
#
# Bulk Modulus (GPa) = 47.69386 67.68944 57.69165
# Shear Modulus (GPa) = 23.20176 29.98502 26.59339
#
# Velocity S-wave (km/s) = 3.24906 3.69360 3.47844
# Velocity P-wave (km/s) = 5.98122 6.99912 6.51010
#
# Compressibility (1/GPa) = 0.02096706
#
# Stress axis : x y z
#
# Youngs Moduli (GPa) = 141.24535 72.85532 51.03003
#
# Poissons Ratio (x) = 0.18702 0.27517
# Poissons Ratio (y) = 0.36257 0.08973
# Poissons Ratio (z) = 0.76163 0.12810
#
# Static dielectric constant tensor:
#      x y z
#    x 1.850210 0.000000 0.000000 
#    y 0.000000 1.816140 0.000000 
#    z 0.000000 0.000000 1.800590 
# 
# From -- ./inp_files/5454.got.cif
#   From: 2010.05.17/outbox.cif.g08.bks.cpg/sg18_3_cif.got.tgz:5454.got - 2010.06.03 22:40:56.
