data_PCOD9312870
_publ_section_title
;
Structure prediction by ZEFSAII (Michael W. Deem and Ramdas Pophale) SiO2 
 PCOD9312870
Probable space group: P 21 21 2
;
_chemical_formula_sum "Si O2"
_cell_formula_units_Z 28
_cell_length_a 8.919355
_cell_length_b 8.665043
_cell_length_c 19.092805
_cell_angle_alpha 90.000000
_cell_angle_beta 90.000000
_cell_angle_gamma 90.000000
_cell_volume 1475.617880
_symmetry_space_group_name_H-M "P 21 21 2"
_symmetry_group_IT_number 18
_symmetry_cell_setting 'orthorhombic'
loop_
_space_group_symop_operation_xyz
x,y,z
-x,-y,z
1/2+x,1/2-y,-z
1/2-x,1/2+y,-z
loop_
_atom_site_type_symbol
_atom_site_label
_atom_site_fract_x
_atom_site_fract_y
_atom_site_fract_z
Si Si1 0.666830 0.065222 0.420685
Si Si2 0.274433 0.513044 0.879008
Si Si3 0.006473 0.257657 0.098365
Si Si4 0.673419 0.564862 0.294791
Si Si5 0.000000 0.500000 0.221271
Si Si6 0.160991 0.068156 0.551473
Si Si7 0.500000 0.000000 0.022354
Si Si8 0.331352 0.064831 0.276490
O O1 0.664564 0.248705 0.433752
O O2 0.500000 0.000000 0.414734
O O3 0.735214 0.978969 0.487246
O O4 0.737688 0.016989 0.345705
O O5 0.393822 0.382395 0.894762
O O6 0.330403 0.680356 0.904649
O O7 0.249145 0.525008 0.796034
O O8 0.133920 0.468045 0.925121
O O9 0.994174 0.355337 0.169039
O O10 0.973286 0.359162 0.030667
O O11 0.500000 0.500000 0.275670
O O12 0.695776 0.516285 0.375454
O O13 0.664881 0.750162 0.286800
O O14 0.833687 0.510704 0.259068
O O15 0.000000 0.000000 0.530928
O O16 0.500000 0.000000 0.268441
#
# Coordination Sequence:
#
# PCOD9312870 Si02
#       8
#     4   4   4   4   2   4   2   4
#     4  11  23  41  66  92 131 174 223 285 333 401
#     4  11  22  41  66  93 133 171 215 272 338 398
#     4  10  24  42  62  98 134 163 220 281 319 410
#     4  11  24  42  67  96 139 180 229 284 342 408
#     4  11  24  42  66  99 138 174 224 283 344 396
#     4  11  23  43  64  96 132 176 230 275 335 406
#     4  11  22  42  70  91 128 174 220 263 342 404
#     4  11  22  41  65  98 130 176 228 280 343 411
#
# _framework density 18.975102
#
# number of rings (size 3 to 8) (size 9 to 14) (size 15 to 20)
#    0.000    1.143    2.143    6.000    5.000    0.000 
#    5.143    0.000    0.000    0.000    0.000    0.000 
#    0.000    0.000    0.000    0.000    0.000    0.000 
#
# Total GULP energy -156036.403836 kJ/mol
# GULP energy per Si atom -5572.728708 kJ/mol
# Density = 1.893191 g / cm^3
# Si number density = 18.975102 Si / 1000 Ang^3
#
#
#
# Elastic Constant Matrix: (Units=GPa)
#
#
# Indices 1 2 3 4 5 6 
#
# 1 79.1289 24.0100 47.5264 0.0000 0.0000 0.0000
# 2 24.0100 129.3652 55.1856 0.0000 0.0000 0.0000
# 3 47.5264 55.1856 129.0491 0.0000 0.0000 0.0000
# 4 0.0000 0.0000 0.0000 -5.9001 0.0000 0.0000
# 5 0.0000 0.0000 0.0000 0.0000 30.7020 0.0000
# 6 0.0000 0.0000 0.0000 0.0000 0.0000 84.4405
#
#
#
# Elastic Compliance Matrix: (Units=1/GPa)
#
#
# Indices 1 2 3 4 5 6 
#
# 1 0.016261 -0.000567 -0.005746 0.000000 0.000000 0.000000
# 2 -0.000567 0.009475 -0.003843 0.000000 0.000000 0.000000
# 3 -0.005746 -0.003843 0.011509 0.000000 0.000000 0.000000
# 4 0.000000 0.000000 0.000000 -0.169489 0.000000 0.000000
# 5 0.000000 0.000000 0.000000 0.000000 0.032571 0.000000
# 6 0.000000 0.000000 0.000000 0.000000 0.000000 0.011843
#
#
# Mechanical properties :
#
#
# Convention : Reuss Voigt Hill
#
# Bulk Modulus (GPa) = 59.05882 65.66525 62.36203
# Shear Modulus (GPa) = -80.80772 35.90323 -22.45224
#
# Velocity S-wave (km/s) = -6.53289 4.35457 -3.44357
# Velocity P-wave (km/s) = 5.07079 7.74366 4.13832
#
# Compressibility (1/GPa) = 0.01693227
#
# Stress axis : x y z
#
# Youngs Moduli (GPa) = 61.49729 105.54560 86.89170
#
# Poissons Ratio (x) = 0.05982 0.49930
# Poissons Ratio (y) = 0.03485 0.33392
# Poissons Ratio (z) = 0.35338 0.40560
#
# Static dielectric constant tensor:
#      x y z
#    x 1.648730 0.000000 0.000000 
#    y 0.000000 1.651660 0.000000 
#    z 0.000000 0.000000 1.639340 
# 
# From -- ./inp_files/7345.got.cif
#   From: 2010.05.17/outbox.cif.g08.bks.cpg/sg18_4_cif.got.tgz:7345.got - 2010.06.03 22:40:56.
