data_PCOD9312482
_publ_section_title
;
Structure prediction by ZEFSAII (Michael W. Deem and Ramdas Pophale) SiO2 
 PCOD9312482
Probable space group: P 21 21 2
;
_chemical_formula_sum "Si O2"
_cell_formula_units_Z 30
_cell_length_a 18.828159
_cell_length_b 13.917054
_cell_length_c 5.053841
_cell_angle_alpha 90.000000
_cell_angle_beta 90.000000
_cell_angle_gamma 90.000000
_cell_volume 1324.270620
_symmetry_space_group_name_H-M "P 21 21 2"
_symmetry_group_IT_number 18
_symmetry_cell_setting 'orthorhombic'
loop_
_space_group_symop_operation_xyz
x,y,z
-x,-y,z
1/2+x,1/2-y,-z
1/2-x,1/2+y,-z
loop_
_atom_site_type_symbol
_atom_site_label
_atom_site_fract_x
_atom_site_fract_y
_atom_site_fract_z
Si Si1 0.195749 0.687403 0.695648
Si Si2 0.500000 0.000000 0.174789
Si Si3 0.766018 0.674699 0.617677
Si Si4 0.660269 0.366696 0.939330
Si Si5 0.595766 0.280176 0.450011
Si Si6 0.871564 0.446935 0.081666
Si Si7 0.237637 0.948875 0.860690
Si Si8 0.448054 0.184030 0.499232
O O1 0.231506 0.718466 0.418381
O O2 0.266208 0.692694 0.881839
O O3 0.116247 0.732127 0.667863
O O4 0.167061 0.585730 0.809455
O O5 0.521552 0.909030 0.346007
O O6 0.567249 0.021619 0.990412
O O7 0.848262 0.690818 0.538094
O O8 0.723038 0.619204 0.386827
O O9 0.755656 0.617480 0.886717
O O10 0.622524 0.360684 0.655920
O O11 0.609707 0.316636 0.153117
O O12 0.681765 0.471300 0.046127
O O13 0.516329 0.250727 0.525028
O O14 0.807737 0.494296 0.236993
O O15 0.910216 0.360415 0.238567
#
# Coordination Sequence:
#
# PCOD9312482 Si02
#       8
#     4   2   4   4   4   4   4   4
#     4   9  23  39  63  88 129 170 223 262 325 402
#     4  10  22  36  52  92 130 172 202 256 320 420
#     4  11  23  39  65  95 124 167 225 268 319 387
#     4  10  23  43  63  89 128 173 220 269 322 391
#     4  11  24  40  65  93 133 171 218 266 330 405
#     4  10  23  36  61  89 135 173 210 264 341 409
#     4  11  24  38  66  90 125 165 219 273 325 371
#     4  11  24  38  64  92 139 174 215 267 346 407
#
# _framework density 22.653979
#
# number of rings (size 3 to 8) (size 9 to 14) (size 15 to 20)
#    0.000    1.600    0.000    3.600   22.400    0.000 
#    0.000    0.000    0.000    4.800    0.000    0.000 
#    0.000    0.000    0.000    0.000    0.000    0.000 
#
# Total GULP energy -167018.680345 kJ/mol
# GULP energy per Si atom -5567.289345 kJ/mol
# Density = 2.260242 g / cm^3
# Si number density = 22.653979 Si / 1000 Ang^3
#
#
#
# Elastic Constant Matrix: (Units=GPa)
#
#
# Indices 1 2 3 4 5 6 
#
# 1 104.7495 14.6886 16.0278 0.0000 0.0000 0.0000
# 2 14.6886 45.7198 19.3181 0.0000 0.0000 0.0000
# 3 16.0278 19.3181 101.9223 0.0000 0.0000 0.0000
# 4 0.0000 0.0000 0.0000 32.6203 0.0000 0.0000
# 5 0.0000 0.0000 0.0000 0.0000 27.0835 0.0000
# 6 0.0000 0.0000 0.0000 0.0000 0.0000 30.8324
#
#
#
# Elastic Compliance Matrix: (Units=1/GPa)
#
#
# Indices 1 2 3 4 5 6 
#
# 1 0.010101 -0.002798 -0.001058 0.000000 0.000000 0.000000
# 2 -0.002798 0.024552 -0.004213 0.000000 0.000000 0.000000
# 3 -0.001058 -0.004213 0.010776 0.000000 0.000000 0.000000
# 4 0.000000 0.000000 0.000000 0.030656 0.000000 0.000000
# 5 0.000000 0.000000 0.000000 0.000000 0.036923 0.000000
# 6 0.000000 0.000000 0.000000 0.000000 0.000000 0.032433
#
#
# Mechanical properties :
#
#
# Convention : Reuss Voigt Hill
#
# Bulk Modulus (GPa) = 34.14169 39.16228 36.65198
# Shear Modulus (GPa) = 29.18118 31.59771 30.38945
#
# Velocity S-wave (km/s) = 3.59294 3.73875 3.66657
# Velocity P-wave (km/s) = 5.68471 5.99686 5.84287
#
# Compressibility (1/GPa) = 0.02928970
#
# Stress axis : x y z
#
# Youngs Moduli (GPa) = 99.00167 40.73047 92.79547
#
# Poissons Ratio (x) = 0.11397 0.09818
# Poissons Ratio (y) = 0.27701 0.39099
# Poissons Ratio (z) = 0.10475 0.17162
#
# Static dielectric constant tensor:
#      x y z
#    x 1.887470 0.000000 0.000000 
#    y 0.000000 2.063950 0.000000 
#    z 0.000000 0.000000 1.934250 
# 
# From -- ./inp_files/1860.got.cif
#   From: 2010.05.17/outbox.cif.g08.bks.cpg/sg18_1_cif.got.tgz:1860.got - 2010.06.03 22:40:56.
