data_PCOD9312751
_publ_section_title
;
Structure prediction by ZEFSAII (Michael W. Deem and Ramdas Pophale) SiO2 
 PCOD9312751
Probable space group: P 21 21 2
;
_chemical_formula_sum "Si O2"
_cell_formula_units_Z 22
_cell_length_a 5.256347
_cell_length_b 14.294357
_cell_length_c 12.432811
_cell_angle_alpha 90.000000
_cell_angle_beta 90.000000
_cell_angle_gamma 90.000000
_cell_volume 934.152937
_symmetry_space_group_name_H-M "P 21 21 2"
_symmetry_group_IT_number 18
_symmetry_cell_setting 'orthorhombic'
loop_
_space_group_symop_operation_xyz
x,y,z
-x,-y,z
1/2+x,1/2-y,-z
1/2-x,1/2+y,-z
loop_
_atom_site_type_symbol
_atom_site_label
_atom_site_fract_x
_atom_site_fract_y
_atom_site_fract_z
Si Si1 0.849586 0.856613 0.748386
Si Si2 0.001382 0.260329 0.561295
Si Si3 0.262432 0.444822 0.658481
Si Si4 0.227997 0.834060 0.926686
Si Si5 0.000000 0.500000 0.192415
Si Si6 0.943852 0.186869 0.163827
O O1 0.032095 0.815354 0.657462
O O2 0.714899 0.955179 0.731762
O O3 0.652405 0.771604 0.761361
O O4 0.974044 0.863337 0.865771
O O5 0.221391 0.218508 0.483894
O O6 0.141154 0.356570 0.595635
O O7 0.500000 0.500000 0.603063
O O8 0.408100 0.402530 0.762890
O O9 0.000000 0.500000 0.686453
O O10 0.414404 0.914776 0.883586
O O11 0.295319 0.730678 0.881240
O O12 0.211319 0.828564 0.053881
#
# Coordination Sequence:
#
# PCOD9312751 Si02
#       6
#     4   4   4   4   2   4
#     4  10  23  43  66  93 137 170 228 279 345 410
#     4  11  26  49  77  99 133 185 231 288 362 419
#     4  11  26  45  70 106 144 176 234 296 345 415
#     4  11  21  41  63  99 136 184 230 272 341 421
#     4  10  24  38  62 100 134 172 226 288 332 412
#     4  10  23  37  68  93 139 186 224 269 347 412
#
# _framework density 23.550747999999999
#
# number of rings (size 3 to 8) (size 9 to 14) (size 15 to 20)
#    0.000    1.455    1.818    1.636   14.000    1.455 
#    4.909    0.000    0.000    0.000    0.000    0.000 
#    0.000    0.000    0.000    0.000    0.000    0.000 
#
# Total GULP energy -122634.424118 kJ/mol
# GULP energy per Si atom -5574.292005 kJ/mol
# Density = 2.349715 g / cm^3
# Si number density = 23.550748 Si / 1000 Ang^3
#
#
#
# Elastic Constant Matrix: (Units=GPa)
#
#
# Indices 1 2 3 4 5 6 
#
# 1 79.2471 37.7154 -7.2425 0.0000 0.0000 0.0000
# 2 37.7154 105.1229 10.7620 0.0000 0.0000 0.0000
# 3 -7.2425 10.7620 34.5335 0.0000 0.0000 0.0000
# 4 0.0000 0.0000 0.0000 16.2516 0.0000 0.0000
# 5 0.0000 0.0000 0.0000 0.0000 31.9875 0.0000
# 6 0.0000 0.0000 0.0000 0.0000 0.0000 44.1433
#
#
#
# Elastic Compliance Matrix: (Units=1/GPa)
#
#
# Indices 1 2 3 4 5 6 
#
# 1 0.016122 -0.006332 0.005354 0.000000 0.000000 0.000000
# 2 -0.006332 0.012313 -0.005165 0.000000 0.000000 0.000000
# 3 0.005354 -0.005165 0.031690 0.000000 0.000000 0.000000
# 4 0.000000 0.000000 0.000000 0.061532 0.000000 0.000000
# 5 0.000000 0.000000 0.000000 0.000000 0.031262 0.000000
# 6 0.000000 0.000000 0.000000 0.000000 0.000000 0.022653
#
#
# Mechanical properties :
#
#
# Convention : Reuss Voigt Hill
#
# Bulk Modulus (GPa) = 20.90344 33.48590 27.19467
# Shear Modulus (GPa) = 24.53316 30.32105 27.42710
#
# Velocity S-wave (km/s) = 3.23106 3.59204 3.41632
# Velocity P-wave (km/s) = 4.77649 5.60831 5.20903
#
# Compressibility (1/GPa) = 0.04783901
#
# Stress axis : x y z
#
# Youngs Moduli (GPa) = 62.02796 81.21292 31.55562
#
# Poissons Ratio (x) = 0.51426 -0.16896
# Poissons Ratio (y) = 0.39278 0.16299
# Poissons Ratio (z) = -0.33213 0.41949
#
# Static dielectric constant tensor:
#      x y z
#    x 2.007030 0.000000 0.000000 
#    y 0.000000 1.954920 0.000000 
#    z 0.000000 0.000000 1.942380 
# 
# From -- ./inp_files/5089.got.cif
#   From: 2010.05.17/outbox.cif.g08.bks.cpg/sg18_3_cif.got.tgz:5089.got - 2010.06.03 22:40:56.
