data_PCOD9312860
_publ_section_title
;
Structure prediction by ZEFSAII (Michael W. Deem and Ramdas Pophale) SiO2 
 PCOD9312860
Probable space group: P 21 21 2
;
_chemical_formula_sum "Si O2"
_cell_formula_units_Z 26
_cell_length_a 12.392989
_cell_length_b 9.140358
_cell_length_c 10.370721
_cell_angle_alpha 90.000000
_cell_angle_beta 90.000000
_cell_angle_gamma 90.000000
_cell_volume 1174.757486
_symmetry_space_group_name_H-M "P 21 21 2"
_symmetry_group_IT_number 18
_symmetry_cell_setting 'orthorhombic'
loop_
_space_group_symop_operation_xyz
x,y,z
-x,-y,z
1/2+x,1/2-y,-z
1/2-x,1/2+y,-z
loop_
_atom_site_type_symbol
_atom_site_label
_atom_site_fract_x
_atom_site_fract_y
_atom_site_fract_z
Si Si1 0.500000 0.000000 0.596274
Si Si2 0.500000 0.000000 0.163556
Si Si3 0.000000 0.000000 0.377494
Si Si4 0.076915 0.728184 0.219764
Si Si5 0.169264 0.290754 0.156783
Si Si6 0.208366 0.166917 0.437066
Si Si7 0.198137 0.589086 0.012369
Si Si8 0.857466 0.609680 0.613304
O O1 0.581482 0.909454 0.683712
O O2 0.443884 0.886306 0.502293
O O3 0.590738 0.925711 0.075388
O O4 0.427805 0.894627 0.256841
O O5 0.061803 0.881372 0.289710
O O6 0.904743 0.919564 0.452451
O O7 0.960036 0.701610 0.153461
O O8 0.172267 0.712208 0.119282
O O9 0.201853 0.266031 0.306603
O O10 0.208372 0.148292 0.078891
O O11 0.214380 0.436176 0.087520
O O12 0.222595 0.261897 0.567388
O O13 0.297947 0.045446 0.404984
#
# Coordination Sequence:
#
# PCOD9312860 Si02
#       8
#     2   2   2   4   4   4   4   4
#     4  11  19  42  66  88 117 183 210 254 324 391
#     4  11  23  42  64  98 131 179 206 274 346 399
#     4  10  24  40  66  94 124 158 236 266 318 390
#     4  11  21  42  67  90 128 170 220 270 324 397
#     4  11  23  42  65  99 125 172 224 267 332 407
#     4  11  24  44  61  98 126 171 227 273 324 399
#     4  12  23  43  68  95 139 167 220 279 339 401
#     4  11  24  40  68  89 134 171 221 269 330 394
#
# _framework density 22.132228000000001
#
# number of rings (size 3 to 8) (size 9 to 14) (size 15 to 20)
#    0.000    0.923    7.692    0.000    6.462    0.000 
#    2.769    0.000    0.000    1.846    0.000    0.000 
#    0.000    0.000    0.000    0.000    0.000    0.000 
#
# Total GULP energy -145178.505929 kJ/mol
# GULP energy per Si atom -5583.788690 kJ/mol
# Density = 2.208185 g / cm^3
# Si number density = 22.132228 Si / 1000 Ang^3
#
#
#
# Elastic Constant Matrix: (Units=GPa)
#
#
# Indices 1 2 3 4 5 6 
#
# 1 43.0725 6.3126 8.6322 0.0000 0.0000 0.0000
# 2 6.3126 96.9893 20.8860 0.0000 0.0000 0.0000
# 3 8.6322 20.8860 75.7710 0.0000 0.0000 0.0000
# 4 0.0000 0.0000 0.0000 33.5558 0.0000 0.0000
# 5 0.0000 0.0000 0.0000 0.0000 36.5459 0.0000
# 6 0.0000 0.0000 0.0000 0.0000 0.0000 41.8600
#
#
#
# Elastic Compliance Matrix: (Units=1/GPa)
#
#
# Indices 1 2 3 4 5 6 
#
# 1 0.023855 -0.001028 -0.002434 0.000000 0.000000 0.000000
# 2 -0.001028 0.011005 -0.002916 0.000000 0.000000 0.000000
# 3 -0.002434 -0.002916 0.014279 0.000000 0.000000 0.000000
# 4 0.000000 0.000000 0.000000 0.029801 0.000000 0.000000
# 5 0.000000 0.000000 0.000000 0.000000 0.027363 0.000000
# 6 0.000000 0.000000 0.000000 0.000000 0.000000 0.023889
#
#
# Mechanical properties :
#
#
# Convention : Reuss Voigt Hill
#
# Bulk Modulus (GPa) = 27.48662 31.94382 29.71522
# Shear Modulus (GPa) = 32.24187 34.39249 33.31718
#
# Velocity S-wave (km/s) = 3.82092 3.94630 3.88412
# Velocity P-wave (km/s) = 5.64909 5.93539 5.79401
#
# Compressibility (1/GPa) = 0.03638134
#
# Stress axis : x y z
#
# Youngs Moduli (GPa) = 41.91951 90.86461 70.03353
#
# Poissons Ratio (x) = 0.09345 0.17048
# Poissons Ratio (y) = 0.04311 0.20425
# Poissons Ratio (z) = 0.10204 0.26500
#
# Static dielectric constant tensor:
#      x y z
#    x 1.862310 0.000000 0.000000 
#    y 0.000000 1.908630 0.000000 
#    z 0.000000 0.000000 1.821020 
# 
# From -- ./inp_files/5887.got.cif
#   From: 2010.05.17/outbox.cif.g08.bks.cpg/sg18_3_cif.got.tgz:5887.got - 2010.06.03 22:40:56.
