data_PCOD9312908
_publ_section_title
;
Structure prediction by ZEFSAII (Michael W. Deem and Ramdas Pophale) SiO2 
 PCOD9312908
Probable space group: P 21 21 2
;
_chemical_formula_sum "Si O2"
_cell_formula_units_Z 22
_cell_length_a 5.653399
_cell_length_b 14.594624
_cell_length_c 11.357833
_cell_angle_alpha 90.000000
_cell_angle_beta 90.000000
_cell_angle_gamma 90.000000
_cell_volume 937.126086
_symmetry_space_group_name_H-M "P 21 21 2"
_symmetry_group_IT_number 18
_symmetry_cell_setting 'orthorhombic'
loop_
_space_group_symop_operation_xyz
x,y,z
-x,-y,z
1/2+x,1/2-y,-z
1/2-x,1/2+y,-z
loop_
_atom_site_type_symbol
_atom_site_label
_atom_site_fract_x
_atom_site_fract_y
_atom_site_fract_z
Si Si1 0.188422 0.582350 0.282081
Si Si2 0.501270 0.599552 0.513303
Si Si3 0.623521 0.652377 0.926024
Si Si4 0.500000 0.500000 0.086216
Si Si5 0.827142 0.717920 0.361612
Si Si6 0.885024 0.292024 0.856349
O O1 0.343281 0.578277 0.398889
O O2 0.345856 0.565752 0.168186
O O3 0.000000 0.500000 0.282522
O O4 0.046629 0.676387 0.290304
O O5 0.500000 0.500000 0.576425
O O6 0.742544 0.644720 0.460272
O O7 0.384545 0.684252 0.582099
O O8 0.365164 0.652548 0.863630
O O9 0.860546 0.660019 0.849953
O O10 0.657972 0.562084 0.003759
O O11 0.614388 0.734274 0.022384
O O12 0.632135 0.731166 0.261249
#
# Coordination Sequence:
#
# PCOD9312908 Si02
#       6
#     4   4   4   2   4   4
#     4  12  23  41  74 111 144 190 256 320 376 456
#     4  12  25  46  71 113 146 195 262 313 385 465
#     4  10  24  44  72 103 147 185 248 316 364 454
#     4  12  26  42  78 110 146 188 262 316 382 454
#     4  12  26  44  77 104 155 204 246 321 390 463
#     4  10  24  45  69 104 144 197 246 296 390 451
#
# _framework density 23.476030999999999
#
# number of rings (size 3 to 8) (size 9 to 14) (size 15 to 20)
#    0.000    0.727    4.545    2.182   12.727    0.000 
#    1.636    0.000    4.000    0.000    0.000    0.000 
#    0.000    0.000    0.000    0.000    0.000    0.000 
#
# Total GULP energy -123020.001041 kJ/mol
# GULP energy per Si atom -5591.818229 kJ/mol
# Density = 2.342260 g / cm^3
# Si number density = 23.476031 Si / 1000 Ang^3
#
#
#
# Elastic Constant Matrix: (Units=GPa)
#
#
# Indices 1 2 3 4 5 6 
#
# 1 129.0784 60.9859 27.3651 0.0000 0.0000 0.0000
# 2 60.9859 136.4585 27.0863 0.0000 0.0000 0.0000
# 3 27.3651 27.0863 33.1075 0.0000 0.0000 0.0000
# 4 0.0000 0.0000 0.0000 48.9872 0.0000 0.0000
# 5 0.0000 0.0000 0.0000 0.0000 38.8354 0.0000
# 6 0.0000 0.0000 0.0000 0.0000 0.0000 44.8710
#
#
#
# Elastic Compliance Matrix: (Units=1/GPa)
#
#
# Indices 1 2 3 4 5 6 
#
# 1 0.010704 -0.003615 -0.005890 0.000000 0.000000 0.000000
# 2 -0.003615 0.009970 -0.005169 0.000000 0.000000 0.000000
# 3 -0.005890 -0.005169 0.039302 0.000000 0.000000 0.000000
# 4 0.000000 0.000000 0.000000 0.020413 0.000000 0.000000
# 5 0.000000 0.000000 0.000000 0.000000 0.025750 0.000000
# 6 0.000000 0.000000 0.000000 0.000000 0.000000 0.022286
#
#
# Mechanical properties :
#
#
# Convention : Reuss Voigt Hill
#
# Bulk Modulus (GPa) = 32.64952 58.83546 45.74249
# Shear Modulus (GPa) = 29.76532 38.75252 34.25892
#
# Velocity S-wave (km/s) = 3.56462 4.06732 3.82424
# Velocity P-wave (km/s) = 5.55696 6.86832 6.24715
#
# Compressibility (1/GPa) = 0.03062832
#
# Stress axis : x y z
#
# Youngs Moduli (GPa) = 93.42553 100.30448 25.44413
#
# Poissons Ratio (x) = 0.36256 0.14987
# Poissons Ratio (y) = 0.33769 0.13152
# Poissons Ratio (z) = 0.55028 0.51846
#
# Static dielectric constant tensor:
#      x y z
#    x 1.933760 0.000000 0.000000 
#    y 0.000000 1.877710 0.000000 
#    z 0.000000 0.000000 1.852590 
# 
# From -- ./inp_files/5100.got.cif
#   From: 2010.05.17/outbox.cif.g08.bks.cpg/sg18_3_cif.got.tgz:5100.got - 2010.06.03 22:40:56.
