data_PCOD9312315
_publ_section_title
;
Structure prediction by ZEFSAII (Michael W. Deem and Ramdas Pophale) SiO2 
 PCOD9312315
Probable space group: P 21 21 2
;
_chemical_formula_sum "Si O2"
_cell_formula_units_Z 24
_cell_length_a 14.068389
_cell_length_b 13.585474
_cell_length_c 5.094755
_cell_angle_alpha 90.000000
_cell_angle_beta 90.000000
_cell_angle_gamma 90.000000
_cell_volume 973.738784
_symmetry_space_group_name_H-M "P 21 21 2"
_symmetry_group_IT_number 18
_symmetry_cell_setting 'orthorhombic'
loop_
_space_group_symop_operation_xyz
x,y,z
-x,-y,z
1/2+x,1/2-y,-z
1/2-x,1/2+y,-z
loop_
_atom_site_type_symbol
_atom_site_label
_atom_site_fract_x
_atom_site_fract_y
_atom_site_fract_z
Si Si1 0.870120 0.713037 0.225160
Si Si2 0.679313 0.898829 0.984293
Si Si3 0.840201 0.800476 0.719161
Si Si4 0.542478 0.604973 0.369444
Si Si5 0.607557 0.007080 0.482834
Si Si6 0.418413 0.302203 0.875098
O O1 0.808219 0.781488 0.421518
O O2 0.875146 0.614408 0.394371
O O3 0.975048 0.759570 0.180463
O O4 0.832155 0.710736 0.927852
O O5 0.784523 0.887201 0.864295
O O6 0.618181 0.941153 0.742265
O O7 0.638249 0.788059 0.002011
O O8 0.669587 0.963832 0.244267
O O9 0.949571 0.827833 0.679603
O O10 0.500000 0.500000 0.450439
O O11 0.607805 0.653695 0.591440
O O12 0.587811 0.608897 0.082626
O O13 0.500000 0.000000 0.380344
#
# Coordination Sequence:
#
# PCOD9312315 Si02
#       6
#     4   4   4   4   4   4
#     4  10  21  42  63  88 121 175 205 246 325 391
#     4  12  24  41  62  99 132 160 215 273 324 376
#     4  10  23  42  63  87 131 168 205 267 324 365
#     4  10  21  41  65  88 118 168 222 256 303 381
#     4  12  24  39  69  97 128 167 215 263 319 397
#     4  10  21  38  65  86 122 164 205 258 315 378
#
# _framework density 24.647269000000001
#
# number of rings (size 3 to 8) (size 9 to 14) (size 15 to 20)
#    0.000    1.333    1.667    4.000    4.667    0.000 
#    9.000    0.000    0.000    0.000    0.000    0.000 
#    0.000    0.000    0.000    0.000    0.000    0.000 
#
# Total GULP energy -133933.343710 kJ/mol
# GULP energy per Si atom -5580.555988 kJ/mol
# Density = 2.459117 g / cm^3
# Si number density = 24.647269 Si / 1000 Ang^3
#
#
#
# Elastic Constant Matrix: (Units=GPa)
#
#
# Indices 1 2 3 4 5 6 
#
# 1 25.3282 -10.8862 22.4057 0.0000 0.0000 0.0000
# 2 -10.8862 62.4047 43.0550 0.0000 0.0000 0.0000
# 3 22.4057 43.0550 160.2182 0.0000 0.0000 0.0000
# 4 0.0000 0.0000 0.0000 137.4168 0.0000 0.0000
# 5 0.0000 0.0000 0.0000 0.0000 31.0939 0.0000
# 6 0.0000 0.0000 0.0000 0.0000 0.0000 21.5398
#
#
#
# Elastic Compliance Matrix: (Units=1/GPa)
#
#
# Indices 1 2 3 4 5 6 
#
# 1 0.060344 0.020070 -0.013832 0.000000 0.000000 0.000000
# 2 0.020070 0.026347 -0.009887 0.000000 0.000000 0.000000
# 3 -0.013832 -0.009887 0.010833 0.000000 0.000000 0.000000
# 4 0.000000 0.000000 0.000000 0.007277 0.000000 0.000000
# 5 0.000000 0.000000 0.000000 0.000000 0.032161 0.000000
# 6 0.000000 0.000000 0.000000 0.000000 0.000000 0.046426
#
#
# Mechanical properties :
#
#
# Convention : Reuss Voigt Hill
#
# Bulk Modulus (GPa) = 11.08333 39.67780 25.38056
# Shear Modulus (GPa) = 22.64902 50.90189 36.77545
#
# Velocity S-wave (km/s) = 3.03467 4.54939 3.86692
# Velocity P-wave (km/s) = 4.09701 6.61280 5.50067
#
# Compressibility (1/GPa) = 0.09022560
#
# Stress axis : x y z
#
# Youngs Moduli (GPa) = 16.57162 37.95540 92.31319
#
# Poissons Ratio (x) = -0.76176 1.27689
# Poissons Ratio (y) = -0.33259 0.91268
# Poissons Ratio (z) = 0.22922 0.37526
#
# Static dielectric constant tensor:
#      x y z
#    x 1.997300 0.000000 0.000000 
#    y 0.000000 2.000650 0.000000 
#    z 0.000000 0.000000 1.982340 
# 
# From -- ./inp_files/1529.got.cif
#   From: 2010.05.17/outbox.cif.g08.bks.cpg/sg18_1_cif.got.tgz:1529.got - 2010.06.03 22:40:56.
