data_PCOD9312180
_publ_section_title
;
Structure prediction by ZEFSAII (Michael W. Deem and Ramdas Pophale) SiO2 
 PCOD9312180
Probable space group: P 21 21 2
;
_chemical_formula_sum "Si O2"
_cell_formula_units_Z 32
_cell_length_a 10.793939
_cell_length_b 11.130775
_cell_length_c 11.726290
_cell_angle_alpha 90.000000
_cell_angle_beta 90.000000
_cell_angle_gamma 90.000000
_cell_volume 1408.854014
_symmetry_space_group_name_H-M "P 21 21 2"
_symmetry_group_IT_number 18
_symmetry_cell_setting 'orthorhombic'
loop_
_space_group_symop_operation_xyz
x,y,z
-x,-y,z
1/2+x,1/2-y,-z
1/2-x,1/2+y,-z
loop_
_atom_site_type_symbol
_atom_site_label
_atom_site_fract_x
_atom_site_fract_y
_atom_site_fract_z
Si Si1 0.133981 0.723129 0.424301
Si Si2 0.970287 0.640442 0.240167
Si Si3 0.870789 0.040056 0.306064
Si Si4 0.658288 0.331221 0.041869
Si Si5 0.104866 0.809198 0.079005
Si Si6 0.172910 0.073257 0.705270
Si Si7 0.921707 0.194694 0.670004
Si Si8 0.252542 0.676714 0.805355
O O1 0.003134 0.702368 0.360828
O O2 0.185157 0.850007 0.376155
O O3 0.212839 0.616037 0.370334
O O4 0.121430 0.736533 0.557616
O O5 0.063958 0.687784 0.143486
O O6 0.000000 0.500000 0.247319
O O7 0.842015 0.705611 0.204694
O O8 0.903856 0.094988 0.181526
O O9 0.790115 0.923206 0.286075
O O10 0.000000 0.000000 0.362646
O O11 0.509986 0.328244 0.010070
O O12 0.722263 0.382434 0.927656
O O13 0.748906 0.211804 0.050874
O O14 0.676689 0.404771 0.158240
O O15 0.064272 0.162425 0.666164
O O16 0.141793 0.935891 0.680037
O O17 0.882642 0.274822 0.777753
#
# Coordination Sequence:
#
# PCOD9312180 Si02
#       8
#     4   4   4   4   4   4   4   4
#     4  11  24  43  70  95 140 181 231 281 344 413
#     4  10  20  40  65  98 131 177 232 276 337 409
#     4  11  20  42  67  96 128 189 237 276 339 426
#     4  11  21  43  69  99 141 175 230 291 347 421
#     4  10  22  40  66 101 134 186 228 287 354 417
#     4  11  25  48  68 102 138 183 229 286 361 404
#     4  11  28  43  71 105 136 179 233 289 345 418
#     4  11  24  39  68 101 132 176 236 277 342 418
#
# _framework density 22.713497
#
# number of rings (size 3 to 8) (size 9 to 14) (size 15 to 20)
#    0.000    1.250    6.250    1.500    5.250    3.000 
#    2.250    0.625    0.000    0.000    0.000    0.000 
#    0.000    0.000    0.000    0.000    0.000    0.000 
#
# Total GULP energy -178378.300609 kJ/mol
# GULP energy per Si atom -5574.321894 kJ/mol
# Density = 2.266180 g / cm^3
# Si number density = 22.713497 Si / 1000 Ang^3
#
#
#
# Elastic Constant Matrix: (Units=GPa)
#
#
# Indices 1 2 3 4 5 6 
#
# 1 52.6800 -9.0312 17.2326 0.0000 0.0000 0.0000
# 2 -9.0312 50.3736 -1.4047 0.0000 0.0000 0.0000
# 3 17.2326 -1.4047 118.0449 0.0000 0.0000 0.0000
# 4 0.0000 0.0000 0.0000 17.2984 0.0000 0.0000
# 5 0.0000 0.0000 0.0000 0.0000 18.5806 0.0000
# 6 0.0000 0.0000 0.0000 0.0000 0.0000 26.2133
#
#
#
# Elastic Compliance Matrix: (Units=1/GPa)
#
#
# Indices 1 2 3 4 5 6 
#
# 1 0.020569 0.003605 -0.002960 0.000000 0.000000 0.000000
# 2 0.003605 0.020490 -0.000282 0.000000 0.000000 0.000000
# 3 -0.002960 -0.000282 0.008900 0.000000 0.000000 0.000000
# 4 0.000000 0.000000 0.000000 0.057809 0.000000 0.000000
# 5 0.000000 0.000000 0.000000 0.000000 0.053820 0.000000
# 6 0.000000 0.000000 0.000000 0.000000 0.000000 0.038149
#
#
# Mechanical properties :
#
#
# Convention : Reuss Voigt Hill
#
# Bulk Modulus (GPa) = 19.72981 26.07687 22.90334
# Shear Modulus (GPa) = 23.15831 26.70524 24.93177
#
# Velocity S-wave (km/s) = 3.19656 3.43263 3.31669
# Velocity P-wave (km/s) = 4.72538 5.21693 4.97722
#
# Compressibility (1/GPa) = 0.05068473
#
# Stress axis : x y z
#
# Youngs Moduli (GPa) = 48.61735 48.80394 112.35855
#
# Poissons Ratio (x) = -0.17594 0.33256
# Poissons Ratio (y) = -0.17527 0.03174
# Poissons Ratio (z) = 0.14390 0.01378
#
# Static dielectric constant tensor:
#      x y z
#    x 1.940630 0.000000 0.000000 
#    y 0.000000 1.829600 0.000000 
#    z 0.000000 0.000000 1.878600 
# 
# From -- ./inp_files/5956.got.cif
#   From: 2010.05.17/outbox.cif.g08.bks.cpg/sg18_3_cif.got.tgz:5956.got - 2010.06.03 22:40:56.
