data_PCOD9312339
_publ_section_title
;
Structure prediction by ZEFSAII (Michael W. Deem and Ramdas Pophale) SiO2 
 PCOD9312339
Probable space group: P 21 21 2
;
_chemical_formula_sum "Si O2"
_cell_formula_units_Z 32
_cell_length_a 7.866130
_cell_length_b 24.195204
_cell_length_c 6.783416
_cell_angle_alpha 90.000000
_cell_angle_beta 90.000000
_cell_angle_gamma 90.000000
_cell_volume 1291.037506
_symmetry_space_group_name_H-M "P 21 21 2"
_symmetry_group_IT_number 18
_symmetry_cell_setting 'orthorhombic'
loop_
_space_group_symop_operation_xyz
x,y,z
-x,-y,z
1/2+x,1/2-y,-z
1/2-x,1/2+y,-z
loop_
_atom_site_type_symbol
_atom_site_label
_atom_site_fract_x
_atom_site_fract_y
_atom_site_fract_z
Si Si1 0.459695 0.410167 0.656201
Si Si2 0.918404 0.436732 0.566111
Si Si3 0.846691 0.799569 0.286236
Si Si4 0.656553 0.850215 0.924144
Si Si5 0.302094 0.242491 0.652553
Si Si6 0.742461 0.520786 0.346479
Si Si7 0.117765 0.348162 0.788742
Si Si8 0.280785 0.533672 0.941658
O O1 0.585729 0.358234 0.625657
O O2 0.398041 0.443948 0.463933
O O3 0.287040 0.384102 0.750877
O O4 0.551399 0.447867 0.820420
O O5 0.763157 0.458658 0.433980
O O6 0.859301 0.469989 0.766502
O O7 0.081215 0.451603 0.426693
O O8 0.972428 0.377438 0.653359
O O9 0.020566 0.765745 0.270696
O O10 0.755820 0.812811 0.083546
O O11 0.725045 0.762554 0.420922
O O12 0.460071 0.850701 0.992503
O O13 0.725697 0.911062 0.945145
O O14 0.699962 0.820221 0.724625
O O15 0.162321 0.285697 0.730830
O O16 0.280377 0.486702 0.111459
#
# Coordination Sequence:
#
# PCOD9312339 Si02
#       8
#     4   4   4   4   4   4   4   4
#     4   9  21  43  64  96 139 173 221 287 343 407
#     4   9  21  41  66  97 132 168 227 287 337 408
#     4  10  22  38  61  93 133 170 213 276 337 397
#     4  10  21  39  64  92 126 166 218 270 327 401
#     4  11  21  37  64  94 126 171 217 262 331 412
#     4  10  21  42  70  93 127 182 230 274 345 418
#     4   9  19  40  67  92 130 172 210 279 344 395
#     4  10  22  41  66  97 133 176 222 283 344 402
#
# _framework density 24.786266000000001
#
# number of rings (size 3 to 8) (size 9 to 14) (size 15 to 20)
#    0.000    2.250    0.000    1.500    0.000    6.500 
#    0.000   12.500    0.000   19.500    0.000    0.000 
#    0.000    0.000    0.000    0.000    0.000    0.000 
#
# Total GULP energy -178566.955690 kJ/mol
# GULP energy per Si atom -5580.217365 kJ/mol
# Density = 2.472985 g / cm^3
# Si number density = 24.786266 Si / 1000 Ang^3
#
#
#
# Elastic Constant Matrix: (Units=GPa)
#
#
# Indices 1 2 3 4 5 6 
#
# 1 141.2459 21.6090 37.2910 0.0000 0.0000 0.0000
# 2 21.6090 45.8104 27.9931 0.0000 0.0000 0.0000
# 3 37.2910 27.9931 134.1718 0.0000 0.0000 0.0000
# 4 0.0000 0.0000 0.0000 20.8565 0.0000 0.0000
# 5 0.0000 0.0000 0.0000 0.0000 1.3765 0.0000
# 6 0.0000 0.0000 0.0000 0.0000 0.0000 35.0716
#
#
#
# Elastic Compliance Matrix: (Units=1/GPa)
#
#
# Indices 1 2 3 4 5 6 
#
# 1 0.007930 -0.002744 -0.001632 0.000000 0.000000 0.000000
# 2 -0.002744 0.025968 -0.004655 0.000000 0.000000 0.000000
# 3 -0.001632 -0.004655 0.008878 0.000000 0.000000 0.000000
# 4 0.000000 0.000000 0.000000 0.047947 0.000000 0.000000
# 5 0.000000 0.000000 0.000000 0.000000 0.726467 0.000000
# 6 0.000000 0.000000 0.000000 0.000000 0.000000 0.028513
#
#
# Mechanical properties :
#
#
# Convention : Reuss Voigt Hill
#
# Bulk Modulus (GPa) = 40.46148 55.00160 47.73154
# Shear Modulus (GPa) = 5.73393 27.08326 16.40859
#
# Velocity S-wave (km/s) = 1.52262 3.30915 2.57573
# Velocity P-wave (km/s) = 4.41030 6.06952 5.30518
#
# Compressibility (1/GPa) = 0.02471487
#
# Stress axis : x y z
#
# Youngs Moduli (GPa) = 126.09703 38.50891 112.63930
#
# Poissons Ratio (x) = 0.10566 0.18379
# Poissons Ratio (y) = 0.34598 0.52437
# Poissons Ratio (z) = 0.20575 0.17927
#
# Static dielectric constant tensor:
#      x y z
#    x 2.058260 0.000000 0.000000 
#    y 0.000000 2.074670 0.000000 
#    z 0.000000 0.000000 1.966730 
# 
# From -- ./inp_files/799.got.cif
#   From: 2010.05.17/outbox.cif.g08.bks.cpg/sg18_1_cif.got.tgz:799.got - 2010.06.03 22:40:56.
