data_PCOD9312898
_publ_section_title
;
Structure prediction by ZEFSAII (Michael W. Deem and Ramdas Pophale) SiO2 
 PCOD9312898
Probable space group: P 21 21 2
;
_chemical_formula_sum "Si O2"
_cell_formula_units_Z 26
_cell_length_a 8.685957
_cell_length_b 20.913872
_cell_length_c 6.853042
_cell_angle_alpha 90.000000
_cell_angle_beta 90.000000
_cell_angle_gamma 90.000000
_cell_volume 1244.903002
_symmetry_space_group_name_H-M "P 21 21 2"
_symmetry_group_IT_number 18
_symmetry_cell_setting 'orthorhombic'
loop_
_space_group_symop_operation_xyz
x,y,z
-x,-y,z
1/2+x,1/2-y,-z
1/2-x,1/2+y,-z
loop_
_atom_site_type_symbol
_atom_site_label
_atom_site_fract_x
_atom_site_fract_y
_atom_site_fract_z
Si Si1 0.535582 0.324917 0.912957
Si Si2 0.697636 0.390756 0.241279
Si Si3 0.731289 0.716935 0.175610
Si Si4 0.530464 0.105570 0.879052
Si Si5 0.220443 0.475869 0.430334
Si Si6 0.428699 0.355880 0.499716
Si Si7 0.500000 0.000000 0.213620
O O1 0.677350 0.282202 0.841252
O O2 0.440833 0.346517 0.727426
O O3 0.598599 0.382747 0.044646
O O4 0.423443 0.283689 0.049486
O O5 0.721040 0.462456 0.315295
O O6 0.597999 0.353910 0.403052
O O7 0.868615 0.365945 0.194937
O O8 0.679430 0.695522 0.391644
O O9 0.842953 0.660620 0.095368
O O10 0.502256 0.061599 0.069995
O O11 0.595980 0.060368 0.706042
O O12 0.356378 0.425076 0.457530
O O13 0.144200 0.495301 0.637045
#
# Coordination Sequence:
#
# PCOD9312898 Si02
#       7
#     4   4   4   4   4   4   2
#     4  11  24  45  67  96 127 179 222 264 352 389
#     4  11  22  41  62  95 137 168 213 274 325 393
#     4  10  24  44  66  92 130 165 218 282 315 405
#     4  11  22  40  65  96 133 170 215 279 332 386
#     4  11  22  42  60  97 139 167 222 272 322 398
#     4  10  25  42  65  96 128 173 218 272 335 389
#     4  12  20  36  68  94 126 172 226 248 336 398
#
# _framework density 20.885159000000002
#
# number of rings (size 3 to 8) (size 9 to 14) (size 15 to 20)
#    0.000    1.231    3.077    2.308    2.154    3.692 
#    2.769    1.538    0.000    0.000    0.000    0.000 
#    0.000    0.000    0.000    0.000    0.000    0.000 
#
# Total GULP energy -145299.274635 kJ/mol
# GULP energy per Si atom -5588.433640 kJ/mol
# Density = 2.083762 g / cm^3
# Si number density = 20.885159 Si / 1000 Ang^3
#
#
#
# Elastic Constant Matrix: (Units=GPa)
#
#
# Indices 1 2 3 4 5 6 
#
# 1 80.5884 1.2242 17.3684 0.0000 0.0000 0.0000
# 2 1.2242 27.0192 8.4184 0.0000 0.0000 0.0000
# 3 17.3684 8.4184 101.8505 0.0000 0.0000 0.0000
# 4 0.0000 0.0000 0.0000 13.4566 0.0000 0.0000
# 5 0.0000 0.0000 0.0000 0.0000 29.0686 0.0000
# 6 0.0000 0.0000 0.0000 0.0000 0.0000 35.0782
#
#
#
# Elastic Compliance Matrix: (Units=1/GPa)
#
#
# Indices 1 2 3 4 5 6 
#
# 1 0.012882 0.000103 -0.002205 0.000000 0.000000 0.000000
# 2 0.000103 0.037990 -0.003158 0.000000 0.000000 0.000000
# 3 -0.002205 -0.003158 0.010455 0.000000 0.000000 0.000000
# 4 0.000000 0.000000 0.000000 0.074313 0.000000 0.000000
# 5 0.000000 0.000000 0.000000 0.000000 0.034401 0.000000
# 6 0.000000 0.000000 0.000000 0.000000 0.000000 0.028508
#
#
# Mechanical properties :
#
#
# Convention : Reuss Voigt Hill
#
# Bulk Modulus (GPa) = 19.68174 29.27557 24.47865
# Shear Modulus (GPa) = 22.12335 27.68381 24.90358
#
# Velocity S-wave (km/s) = 3.25820 3.64473 3.45687
# Velocity P-wave (km/s) = 4.85785 5.63559 5.26111
#
# Compressibility (1/GPa) = 0.05080851
#
# Stress axis : x y z
#
# Youngs Moduli (GPa) = 77.62485 26.32278 95.64442
#
# Poissons Ratio (x) = -0.00272 0.21093
# Poissons Ratio (y) = -0.00803 0.30201
# Poissons Ratio (z) = 0.17119 0.08312
#
# Static dielectric constant tensor:
#      x y z
#    x 1.763650 0.000000 0.000000 
#    y 0.000000 1.724020 0.000000 
#    z 0.000000 0.000000 1.725720 
# 
# From -- ./inp_files/660.got.cif
#   From: 2010.05.17/outbox.cif.g08.bks.cpg/sg18_1_cif.got.tgz:660.got - 2010.06.03 22:40:56.
