data_PCOD9312139
_publ_section_title
;
Structure prediction by ZEFSAII (Michael W. Deem and Ramdas Pophale) SiO2 
 PCOD9312139
Probable space group: P 21 21 2
;
_chemical_formula_sum "Si O2"
_cell_formula_units_Z 20
_cell_length_a 11.747299
_cell_length_b 9.202227
_cell_length_c 8.657582
_cell_angle_alpha 90.000000
_cell_angle_beta 90.000000
_cell_angle_gamma 90.000000
_cell_volume 935.895973
_symmetry_space_group_name_H-M "P 21 21 2"
_symmetry_group_IT_number 18
_symmetry_cell_setting 'orthorhombic'
loop_
_space_group_symop_operation_xyz
x,y,z
-x,-y,z
1/2+x,1/2-y,-z
1/2-x,1/2+y,-z
loop_
_atom_site_type_symbol
_atom_site_label
_atom_site_fract_x
_atom_site_fract_y
_atom_site_fract_z
Si Si1 0.814040 0.743684 0.310784
Si Si2 0.447493 0.342577 0.736507
Si Si3 0.243893 0.823244 0.013031
Si Si4 0.879800 0.920429 0.869113
Si Si5 0.180310 0.985441 0.528391
O O1 0.735083 0.742626 0.159534
O O2 0.786426 0.607994 0.417407
O O3 0.945286 0.737766 0.262130
O O4 0.795392 0.890139 0.405654
O O5 0.500000 0.500000 0.780379
O O6 0.401282 0.372480 0.563182
O O7 0.349719 0.296148 0.854259
O O8 0.218630 0.991197 0.964440
O O9 0.358037 0.746835 0.081471
O O10 0.865171 0.942381 0.685526
O O11 0.000000 0.000000 0.902541
#
# Coordination Sequence:
#
# PCOD9312139 Si02
#       5
#     4   4   4   4   4
#     4  10  21  38  60  89 119 156 204 257 307 364
#     4  10  20  39  64  88 121 163 206 258 312 363
#     4  11  22  37  63  91 122 163 207 251 310 373
#     4  11  22  40  63  91 125 164 208 258 309 367
#     4  10  21  38  63  87 116 160 205 250 310 367
#
# _framework density 21.369897000000002
#
# number of rings (size 3 to 8) (size 9 to 14) (size 15 to 20)
#    0.000    1.600    0.000    7.200    0.000    0.000 
#    0.000   14.000    0.000   14.400    0.000    0.000 
#    0.000    0.000    0.000    0.000    0.000    0.000 
#
# Total GULP energy -111402.369961 kJ/mol
# GULP energy per Si atom -5570.118498 kJ/mol
# Density = 2.132126 g / cm^3
# Si number density = 21.369897 Si / 1000 Ang^3
#
#
#
# Elastic Constant Matrix: (Units=GPa)
#
#
# Indices 1 2 3 4 5 6 
#
# 1 -401.9781 -316.7285 -59.3140 0.0000 0.0000 0.0000
# 2 -316.7285 -212.8761 -46.2689 0.0000 0.0000 0.0000
# 3 -59.3140 -46.2689 107.5152 0.0000 0.0000 0.0000
# 4 0.0000 0.0000 0.0000 38.0309 0.0000 0.0000
# 5 0.0000 0.0000 0.0000 0.0000 15.6650 0.0000
# 6 0.0000 0.0000 0.0000 0.0000 0.0000 38.1861
#
#
#
# Elastic Compliance Matrix: (Units=1/GPa)
#
#
# Indices 1 2 3 4 5 6 
#
# 1 0.014600 -0.021465 -0.001183 0.000000 0.000000 0.000000
# 2 -0.021465 0.027263 -0.000109 0.000000 0.000000 0.000000
# 3 -0.001183 -0.000109 0.008601 0.000000 0.000000 0.000000
# 4 0.000000 0.000000 0.000000 0.026294 0.000000 0.000000
# 5 0.000000 0.000000 0.000000 0.000000 0.063837 0.000000
# 6 0.000000 0.000000 0.000000 0.000000 0.000000 0.026188
#
#
# Mechanical properties :
#
#
# Convention : Reuss Voigt Hill
#
# Bulk Modulus (GPa) = 202.05269 -150.21799 25.91735
# Shear Modulus (GPa) = 23.37037 12.70788 18.03912
#
# Velocity S-wave (km/s) = 3.31057 2.44122 2.90856
# Velocity P-wave (km/s) = 10.45794 7.90574 4.84086
#
# Compressibility (1/GPa) = 0.00494920
#
# Stress axis : x y z
#
# Youngs Moduli (GPa) = 68.49543 36.68021 116.26135
#
# Poissons Ratio (x) = 0.78733 0.13755
# Poissons Ratio (y) = 1.47024 0.01270
# Poissons Ratio (z) = 0.08103 0.00401
#
# Static dielectric constant tensor:
#      x y z
#    x 1.827100 0.000000 0.000000 
#    y 0.000000 1.859660 0.000000 
#    z 0.000000 0.000000 1.804780 
# 
# From -- ./inp_files/3641.got.cif
#   From: 2010.05.17/outbox.cif.g08.bks.cpg/sg18_2_cif.got.tgz:3641.got - 2010.06.03 22:40:56.
