data_PCOD9312977
_publ_section_title
;
Structure prediction by ZEFSAII (Michael W. Deem and Ramdas Pophale) SiO2 
 PCOD9312977
Probable space group: P 21 21 2
;
_chemical_formula_sum "Si O2"
_cell_formula_units_Z 20
_cell_length_a 15.107894
_cell_length_b 10.426657
_cell_length_c 5.053993
_cell_angle_alpha 90.000000
_cell_angle_beta 90.000000
_cell_angle_gamma 90.000000
_cell_volume 796.129382
_symmetry_space_group_name_H-M "P 21 21 2"
_symmetry_group_IT_number 18
_symmetry_cell_setting 'orthorhombic'
loop_
_space_group_symop_operation_xyz
x,y,z
-x,-y,z
1/2+x,1/2-y,-z
1/2-x,1/2+y,-z
loop_
_atom_site_type_symbol
_atom_site_label
_atom_site_fract_x
_atom_site_fract_y
_atom_site_fract_z
Si Si1 0.972082 0.860117 0.689095
Si Si2 0.595353 0.759963 0.662602
Si Si3 0.344573 0.507983 0.715567
Si Si4 0.272795 0.027081 0.782187
Si Si5 0.943646 0.616071 0.996230
O O1 0.790775 0.945437 0.030809
O O2 0.062751 0.785792 0.621950
O O3 0.915893 0.898674 0.425186
O O4 0.922251 0.746555 0.839224
O O5 0.610691 0.624699 0.802689
O O6 0.681933 0.843571 0.678467
O O7 0.514385 0.839748 0.783608
O O8 0.500000 0.500000 0.201366
O O9 0.279177 0.474059 0.471160
O O10 0.353106 0.939116 0.885584
O O11 0.000000 0.500000 0.853485
#
# Coordination Sequence:
#
# PCOD9312977 Si02
#       5
#     4   4   4   4   4
#     4  10  25  47  77 106 147 197 251 301 365 447
#     4  10  26  46  74 106 148 198 250 294 368 448
#     4  11  28  48  73 112 149 194 242 312 370 432
#     4  11  28  48  73 112 149 194 242 312 370 432
#     4  10  25  47  77 106 147 197 251 301 365 447
#
# _framework density 25.121545999999999
#
# number of rings (size 3 to 8) (size 9 to 14) (size 15 to 20)
#    0.000    1.600    0.000    0.000   19.600    1.600 
#    0.000    0.000    0.000    0.000    0.000    0.000 
#    0.000    0.000    0.000    0.000    0.000    0.000 
#
# Total GULP energy -111837.739941 kJ/mol
# GULP energy per Si atom -5591.886997 kJ/mol
# Density = 2.506437 g / cm^3
# Si number density = 25.121546 Si / 1000 Ang^3
#
#
#
# Elastic Constant Matrix: (Units=GPa)
#
#
# Indices 1 2 3 4 5 6 
#
# 1 113.1460 61.2440 48.6112 0.0000 0.0000 0.0000
# 2 61.2440 174.3401 65.6881 0.0000 0.0000 0.0000
# 3 48.6112 65.6881 106.1423 0.0000 0.0000 0.0000
# 4 0.0000 0.0000 0.0000 45.0041 0.0000 0.0000
# 5 0.0000 0.0000 0.0000 0.0000 45.6262 0.0000
# 6 0.0000 0.0000 0.0000 0.0000 0.0000 49.0800
#
#
#
# Elastic Compliance Matrix: (Units=1/GPa)
#
#
# Indices 1 2 3 4 5 6 
#
# 1 0.011959 -0.002787 -0.003752 0.000000 0.000000 0.000000
# 2 -0.002787 0.008130 -0.003755 0.000000 0.000000 0.000000
# 3 -0.003752 -0.003755 0.013463 0.000000 0.000000 0.000000
# 4 0.000000 0.000000 0.000000 0.022220 0.000000 0.000000
# 5 0.000000 0.000000 0.000000 0.000000 0.021917 0.000000
# 6 0.000000 0.000000 0.000000 0.000000 0.000000 0.020375
#
#
# Mechanical properties :
#
#
# Convention : Reuss Voigt Hill
#
# Bulk Modulus (GPa) = 77.13702 82.74611 79.94156
# Shear Modulus (GPa) = 40.65917 42.48108 41.57012
#
# Velocity S-wave (km/s) = 4.02742 4.11666 4.07229
# Velocity P-wave (km/s) = 7.23872 7.45692 7.34863
#
# Compressibility (1/GPa) = 0.01296394
#
# Stress axis : x y z
#
# Youngs Moduli (GPa) = 83.62021 123.00437 74.27609
#
# Poissons Ratio (x) = 0.34286 0.27868
# Poissons Ratio (y) = 0.23308 0.27888
# Poissons Ratio (z) = 0.31373 0.46184
#
# Static dielectric constant tensor:
#      x y z
#    x 1.979970 0.000000 0.000000 
#    y 0.000000 1.995310 0.000000 
#    z 0.000000 0.000000 2.045970 
# 
# From -- ./inp_files/1411.got.cif
#   From: 2010.05.17/outbox.cif.g08.bks.cpg/sg18_1_cif.got.tgz:1411.got - 2010.06.03 22:40:56.
