data_PCOD9312111
_publ_section_title
;
Structure prediction by ZEFSAII (Michael W. Deem and Ramdas Pophale) SiO2 
 PCOD9312111
Probable space group: P 21 21 2
;
_chemical_formula_sum "Si O2"
_cell_formula_units_Z 16
_cell_length_a 5.702874
_cell_length_b 14.073867
_cell_length_c 7.216864
_cell_angle_alpha 90.000000
_cell_angle_beta 90.000000
_cell_angle_gamma 90.000000
_cell_volume 579.236259
_symmetry_space_group_name_H-M "P 21 21 2"
_symmetry_group_IT_number 18
_symmetry_cell_setting 'orthorhombic'
loop_
_space_group_symop_operation_xyz
x,y,z
-x,-y,z
1/2+x,1/2-y,-z
1/2-x,1/2+y,-z
loop_
_atom_site_type_symbol
_atom_site_label
_atom_site_fract_x
_atom_site_fract_y
_atom_site_fract_z
Si Si1 0.744645 0.965558 0.661505
Si Si2 0.002109 0.209225 0.613266
Si Si3 0.244056 0.396015 0.674822
Si Si4 0.748017 0.195840 0.961696
O O1 0.777128 0.852671 0.681275
O O2 0.500000 0.000000 0.746718
O O3 0.738119 0.010288 0.450593
O O4 0.000000 0.000000 0.733764
O O5 0.038513 0.320644 0.628026
O O6 0.956248 0.164815 0.413314
O O7 0.786086 0.179477 0.744164
O O8 0.254830 0.393681 0.896002
O O9 0.497787 0.248224 0.996364
#
# Coordination Sequence:
#
# PCOD9312111 Si02
#       4
#     4   4   4   4
#     4  10  22  38  60  92 124 162 206 246 306 370
#     4  10  20  38  65  91 127 163 204 256 309 368
#     4  10  20  38  65  91 127 163 204 256 309 368
#     4  10  22  38  63  96 123 160 210 256 309 364
#
# _framework density 27.622579999999999
#
# number of rings (size 3 to 8) (size 9 to 14) (size 15 to 20)
#    0.000    2.000    0.000    3.000    0.000   12.000 
#    0.000   11.250    0.000   12.000    0.000    0.000 
#    0.000    0.000    0.000    0.000    0.000    0.000 
#
# Total GULP energy -89175.727998 kJ/mol
# GULP energy per Si atom -5573.483000 kJ/mol
# Density = 2.755971 g / cm^3
# Si number density = 27.622580 Si / 1000 Ang^3
#
#
#
# Elastic Constant Matrix: (Units=GPa)
#
#
# Indices 1 2 3 4 5 6 
#
# 1 200.3765 36.5535 21.4837 0.0000 0.0000 0.0000
# 2 36.5535 127.1174 26.7861 0.0000 0.0000 0.0000
# 3 21.4837 26.7861 117.7174 0.0000 0.0000 0.0000
# 4 0.0000 0.0000 0.0000 39.8133 0.0000 0.0000
# 5 0.0000 0.0000 0.0000 0.0000 42.5208 0.0000
# 6 0.0000 0.0000 0.0000 0.0000 0.0000 56.0734
#
#
#
# Elastic Compliance Matrix: (Units=1/GPa)
#
#
# Indices 1 2 3 4 5 6 
#
# 1 0.005314 -0.001390 -0.000653 0.000000 0.000000 0.000000
# 2 -0.001390 0.008627 -0.001709 0.000000 0.000000 0.000000
# 3 -0.000653 -0.001709 0.009003 0.000000 0.000000 0.000000
# 4 0.000000 0.000000 0.000000 0.025117 0.000000 0.000000
# 5 0.000000 0.000000 0.000000 0.000000 0.023518 0.000000
# 6 0.000000 0.000000 0.000000 0.000000 0.000000 0.017834
#
#
# Mechanical properties :
#
#
# Convention : Reuss Voigt Hill
#
# Bulk Modulus (GPa) = 64.77588 68.31754 66.54671
# Shear Modulus (GPa) = 48.98821 51.70736 50.34779
#
# Velocity S-wave (km/s) = 4.21584 4.33127 4.27395
# Velocity P-wave (km/s) = 6.87016 7.05687 6.96414
#
# Compressibility (1/GPa) = 0.01543785
#
# Stress axis : x y z
#
# Youngs Moduli (GPa) = 188.17063 115.91849 111.07272
#
# Poissons Ratio (x) = 0.16118 0.07258
# Poissons Ratio (y) = 0.26165 0.18985
# Poissons Ratio (z) = 0.12297 0.19813
#
# Static dielectric constant tensor:
#      x y z
#    x 2.279510 0.000000 0.000000 
#    y 0.000000 2.270960 0.000000 
#    z 0.000000 0.000000 2.190030 
# 
# From -- ./inp_files/2413.got.cif
#   From: 2010.05.17/outbox.cif.g08.bks.cpg/sg18_2_cif.got.tgz:2413.got - 2010.06.03 22:40:56.
