data_PCOD9312396
_publ_section_title
;
Structure prediction by ZEFSAII (Michael W. Deem and Ramdas Pophale) SiO2 
 PCOD9312396
Probable space group: P 21 21 2
;
_chemical_formula_sum "Si O2"
_cell_formula_units_Z 32
_cell_length_a 11.317474
_cell_length_b 11.766243
_cell_length_c 11.563480
_cell_angle_alpha 90.000000
_cell_angle_beta 90.000000
_cell_angle_gamma 90.000000
_cell_volume 1539.840976
_symmetry_space_group_name_H-M "P 21 21 2"
_symmetry_group_IT_number 18
_symmetry_cell_setting 'orthorhombic'
loop_
_space_group_symop_operation_xyz
x,y,z
-x,-y,z
1/2+x,1/2-y,-z
1/2-x,1/2+y,-z
loop_
_atom_site_type_symbol
_atom_site_label
_atom_site_fract_x
_atom_site_fract_y
_atom_site_fract_z
Si Si1 0.267478 0.643823 0.300642
Si Si2 0.283651 0.386102 0.294528
Si Si3 0.254913 0.960368 0.167730
Si Si4 0.074303 0.830381 0.304471
Si Si5 0.655708 0.299665 0.829749
Si Si6 0.905794 0.100833 0.949816
Si Si7 0.996728 0.865466 0.561685
Si Si8 0.108387 0.263366 0.912116
O O1 0.244650 0.511913 0.332085
O O2 0.145471 0.712158 0.306770
O O3 0.374715 0.681464 0.386166
O O4 0.322576 0.676294 0.174160
O O5 0.184467 0.294870 0.265615
O O6 0.340588 0.413855 0.170656
O O7 0.383472 0.327756 0.373986
O O8 0.180167 0.918738 0.278579
O O9 0.373151 0.886556 0.147229
O O10 0.247307 0.095652 0.169852
O O11 0.178915 0.915068 0.058292
O O12 0.975505 0.841197 0.204674
O O13 0.011597 0.850295 0.426014
O O14 0.658060 0.246849 0.957671
O O15 0.976009 0.218595 0.932049
O O16 0.000000 0.000000 0.961485
O O17 0.000000 0.000000 0.589578
#
# Coordination Sequence:
#
# PCOD9312396 Si02
#       8
#     4   4   4   4   4   4   4   4
#     4  10  22  41  65  92 127 161 212 270 310 376
#     4  11  22  38  65  90 121 167 212 257 316 383
#     4  11  22  38  59  92 127 162 212 256 320 383
#     4  11  24  39  65  94 125 164 213 263 314 371
#     4  12  23  37  63  92 128 168 206 258 324 391
#     4  12  17  35  63  86 120 160 209 250 315 382
#     4  10  21  41  66  91 119 170 221 257 310 381
#     4  11  21  35  61  92 121 159 207 268 311 368
#
# _framework density 20.781365000000001
#
# number of rings (size 3 to 8) (size 9 to 14) (size 15 to 20)
#    0.000    1.000    6.250    1.500    1.750    0.500 
#    0.000    0.625    2.750    0.000    0.000    0.000 
#    0.000    0.000    0.000    0.000    0.000    0.000 
#
# Total GULP energy -178455.296393 kJ/mol
# GULP energy per Si atom -5576.728012 kJ/mol
# Density = 2.073407 g / cm^3
# Si number density = 20.781365 Si / 1000 Ang^3
#
#
#
# Elastic Constant Matrix: (Units=GPa)
#
#
# Indices 1 2 3 4 5 6 
#
# 1 19.2048 6.4369 -0.8231 0.0000 0.0000 0.0000
# 2 6.4369 57.8729 -15.9846 0.0000 0.0000 0.0000
# 3 -0.8231 -15.9846 77.0945 0.0000 0.0000 0.0000
# 4 0.0000 0.0000 0.0000 17.5138 0.0000 0.0000
# 5 0.0000 0.0000 0.0000 0.0000 28.8376 0.0000
# 6 0.0000 0.0000 0.0000 0.0000 0.0000 31.6397
#
#
#
# Elastic Compliance Matrix: (Units=1/GPa)
#
#
# Indices 1 2 3 4 5 6 
#
# 1 0.054123 -0.006216 -0.000711 0.000000 0.000000 0.000000
# 2 -0.006216 0.019043 0.003882 0.000000 0.000000 0.000000
# 3 -0.000711 0.003882 0.013768 0.000000 0.000000 0.000000
# 4 0.000000 0.000000 0.000000 0.057098 0.000000 0.000000
# 5 0.000000 0.000000 0.000000 0.000000 0.034677 0.000000
# 6 0.000000 0.000000 0.000000 0.000000 0.000000 0.031606
#
#
# Mechanical properties :
#
#
# Convention : Reuss Voigt Hill
#
# Bulk Modulus (GPa) = 12.36950 14.82561 13.59755
# Shear Modulus (GPa) = 20.54621 26.56774 23.55698
#
# Velocity S-wave (km/s) = 3.14775 3.57941 3.37049
# Velocity P-wave (km/s) = 4.37906 4.92265 4.65879
#
# Compressibility (1/GPa) = 0.08084401
#
# Stress axis : x y z
#
# Youngs Moduli (GPa) = 18.47630 52.51316 72.63017
#
# Poissons Ratio (x) = 0.32643 0.05164
# Poissons Ratio (y) = 0.11485 -0.28195
# Poissons Ratio (z) = 0.01314 -0.20385
#
# Static dielectric constant tensor:
#      x y z
#    x 2.134450 0.000000 0.000000 
#    y 0.000000 1.828990 0.000000 
#    z 0.000000 0.000000 1.728540 
# 
# From -- ./inp_files/5940.got.cif
#   From: 2010.05.17/outbox.cif.g08.bks.cpg/sg18_3_cif.got.tgz:5940.got - 2010.06.03 22:40:56.
