data_PCOD9312723
_publ_section_title
;
Structure prediction by ZEFSAII (Michael W. Deem and Ramdas Pophale) SiO2 
 PCOD9312723
Probable space group: P 21 21 2
;
_chemical_formula_sum "Si O2"
_cell_formula_units_Z 30
_cell_length_a 19.315103
_cell_length_b 11.391550
_cell_length_c 5.349061
_cell_angle_alpha 90.000000
_cell_angle_beta 90.000000
_cell_angle_gamma 90.000000
_cell_volume 1176.948337
_symmetry_space_group_name_H-M "P 21 21 2"
_symmetry_group_IT_number 18
_symmetry_cell_setting 'orthorhombic'
loop_
_space_group_symop_operation_xyz
x,y,z
-x,-y,z
1/2+x,1/2-y,-z
1/2-x,1/2+y,-z
loop_
_atom_site_type_symbol
_atom_site_label
_atom_site_fract_x
_atom_site_fract_y
_atom_site_fract_z
Si Si1 0.306916 0.249177 0.373237
Si Si2 0.143205 0.564797 0.309271
Si Si3 0.405841 0.560838 0.783845
Si Si4 0.751687 0.461806 0.938557
Si Si5 0.823854 0.650165 0.652662
Si Si6 0.037883 0.257000 0.544446
Si Si7 0.500000 0.000000 0.710549
Si Si8 0.577560 0.585676 0.271549
O O1 0.357486 0.197093 0.589216
O O2 0.297057 0.140448 0.190190
O O3 0.233543 0.287895 0.482581
O O4 0.347727 0.353578 0.244189
O O5 0.143377 0.461582 0.512322
O O6 0.073886 0.529399 0.152659
O O7 0.223369 0.555608 0.219056
O O8 0.323985 0.562991 0.839403
O O9 0.439147 0.684707 0.704697
O O10 0.419394 0.484930 0.532721
O O11 0.431475 0.496207 0.032331
O O12 0.780626 0.590872 0.873648
O O13 0.890197 0.730852 0.700805
O O14 0.009341 0.382961 0.456882
O O15 0.980933 0.184268 0.695329
#
# Coordination Sequence:
#
# PCOD9312723 Si02
#       8
#     4   4   4   4   4   4   2   4
#     4  11  22  43  73 107 151 203 264 336 397 478
#     4  10  23  42  68 107 150 201 265 327 404 474
#     4  12  28  51  82 112 163 212 270 330 401 484
#     4  11  24  43  72 114 150 207 273 340 407 478
#     4  10  22  45  71 106 151 199 266 328 405 469
#     4  11  25  51  80 116 159 212 266 336 399 491
#     4  10  22  50  76 110 164 208 268 328 408 482
#     4  12  28  51  79 114 161 214 268 329 407 485
#
# _framework density 25.489649
#
# number of rings (size 3 to 8) (size 9 to 14) (size 15 to 20)
#    0.000    1.067    4.000    1.200    3.733    3.200 
#   12.000    0.000    0.000    0.000    0.000    0.000 
#    0.000    0.000    0.000    0.000    0.000    0.000 
#
# Total GULP energy -167662.524972 kJ/mol
# GULP energy per Si atom -5588.750832 kJ/mol
# Density = 2.543163 g / cm^3
# Si number density = 25.489649 Si / 1000 Ang^3
#
#
#
# Elastic Constant Matrix: (Units=GPa)
#
#
# Indices 1 2 3 4 5 6 
#
# 1 156.7005 45.8050 17.6026 0.0000 0.0000 0.0000
# 2 45.8050 126.7971 39.8209 0.0000 0.0000 0.0000
# 3 17.6026 39.8209 78.4838 0.0000 0.0000 0.0000
# 4 0.0000 0.0000 0.0000 24.4138 0.0000 0.0000
# 5 0.0000 0.0000 0.0000 0.0000 112.7110 0.0000
# 6 0.0000 0.0000 0.0000 0.0000 0.0000 40.2470
#
#
#
# Elastic Compliance Matrix: (Units=1/GPa)
#
#
# Indices 1 2 3 4 5 6 
#
# 1 0.007143 -0.002471 -0.000348 0.000000 0.000000 0.000000
# 2 -0.002471 0.010236 -0.004639 0.000000 0.000000 0.000000
# 3 -0.000348 -0.004639 0.015174 0.000000 0.000000 0.000000
# 4 0.000000 0.000000 0.000000 0.040960 0.000000 0.000000
# 5 0.000000 0.000000 0.000000 0.000000 0.008872 0.000000
# 6 0.000000 0.000000 0.000000 0.000000 0.000000 0.024847
#
#
# Mechanical properties :
#
#
# Convention : Reuss Voigt Hill
#
# Bulk Modulus (GPa) = 56.70444 63.15982 59.93213
# Shear Modulus (GPa) = 39.05390 52.72454 45.88922
#
# Velocity S-wave (km/s) = 3.91851 4.55298 4.24761
# Velocity P-wave (km/s) = 6.53967 7.24375 6.90070
#
# Compressibility (1/GPa) = 0.01763530
#
# Stress axis : x y z
#
# Youngs Moduli (GPa) = 139.99672 97.69168 65.90405
#
# Poissons Ratio (x) = 0.24140 0.02296
# Poissons Ratio (y) = 0.34593 0.30576
# Poissons Ratio (z) = 0.04877 0.45324
#
# Static dielectric constant tensor:
#      x y z
#    x 2.078960 0.000000 0.000000 
#    y 0.000000 2.010550 0.000000 
#    z 0.000000 0.000000 2.160580 
# 
# From -- ./inp_files/1983.got.cif
#   From: 2010.05.17/outbox.cif.g08.bks.cpg/sg18_1_cif.got.tgz:1983.got - 2010.06.03 22:40:56.
