data_PCOD9312769
_publ_section_title
;
Structure prediction by ZEFSAII (Michael W. Deem and Ramdas Pophale) SiO2 
 PCOD9312769
Probable space group: P 21 21 2
;
_chemical_formula_sum "Si O2"
_cell_formula_units_Z 26
_cell_length_a 9.141561
_cell_length_b 15.831240
_cell_length_c 8.906098
_cell_angle_alpha 90.000000
_cell_angle_beta 90.000000
_cell_angle_gamma 90.000000
_cell_volume 1288.910507
_symmetry_space_group_name_H-M "P 21 21 2"
_symmetry_group_IT_number 18
_symmetry_cell_setting 'orthorhombic'
loop_
_space_group_symop_operation_xyz
x,y,z
-x,-y,z
1/2+x,1/2-y,-z
1/2-x,1/2+y,-z
loop_
_atom_site_type_symbol
_atom_site_label
_atom_site_fract_x
_atom_site_fract_y
_atom_site_fract_z
Si Si1 0.780188 0.291626 0.147010
Si Si2 0.409511 0.376022 0.390929
Si Si3 0.272865 0.555993 0.336173
Si Si4 0.500000 0.000000 0.478397
Si Si5 0.010053 0.227129 0.367518
Si Si6 0.082256 0.338566 0.662455
Si Si7 0.199442 0.715612 0.794075
O O1 0.744019 0.389429 0.184559
O O2 0.932975 0.275713 0.231600
O O3 0.675303 0.222916 0.228927
O O4 0.779854 0.277199 0.970751
O O5 0.326140 0.459455 0.339079
O O6 0.583403 0.396017 0.400208
O O7 0.391535 0.336661 0.557469
O O8 0.358460 0.304066 0.275935
O O9 0.117644 0.553693 0.422601
O O10 0.604000 0.064585 0.386899
O O11 0.057020 0.287063 0.506214
O O12 0.154817 0.189512 0.293845
O O13 0.928573 0.347395 0.750496
#
# Coordination Sequence:
#
# PCOD9312769 Si02
#       7
#     4   4   4   2   4   4   4
#     4  12  23  40  64  96 135 174 212 268 343 394
#     4  10  23  41  66  90 128 170 227 266 324 391
#     4  11  22  40  65  93 128 169 217 273 327 387
#     4  12  22  40  68 102 124 166 230 278 314 380
#     4  11  20  38  68  92 120 170 224 265 317 387
#     4  11  22  42  65  93 128 169 222 272 315 385
#     4  11  23  41  65  95 131 169 214 269 335 392
#
# _framework density 20.172075
#
# number of rings (size 3 to 8) (size 9 to 14) (size 15 to 20)
#    0.000    0.923    4.615    5.538    0.000    0.000 
#    2.769    0.000    0.000    0.000    0.000    0.000 
#    0.000    0.000    0.000    0.000    0.000    0.000 
#
# Total GULP energy -144774.888950 kJ/mol
# GULP energy per Si atom -5568.264960 kJ/mol
# Density = 2.012616 g / cm^3
# Si number density = 20.172075 Si / 1000 Ang^3
#
#
#
# Elastic Constant Matrix: (Units=GPa)
#
#
# Indices 1 2 3 4 5 6 
#
# 1 69.2032 5.0003 40.8241 0.0000 0.0000 0.0000
# 2 5.0003 103.1563 43.6709 0.0000 0.0000 0.0000
# 3 40.8241 43.6709 162.6776 0.0000 0.0000 0.0000
# 4 0.0000 0.0000 0.0000 14.4275 0.0000 0.0000
# 5 0.0000 0.0000 0.0000 0.0000 24.8950 0.0000
# 6 0.0000 0.0000 0.0000 0.0000 0.0000 29.9982
#
#
#
# Elastic Compliance Matrix: (Units=1/GPa)
#
#
# Indices 1 2 3 4 5 6 
#
# 1 0.017074 0.001113 -0.004583 0.000000 0.000000 0.000000
# 2 0.001113 0.011010 -0.003235 0.000000 0.000000 0.000000
# 3 -0.004583 -0.003235 0.008166 0.000000 0.000000 0.000000
# 4 0.000000 0.000000 0.000000 0.069312 0.000000 0.000000
# 5 0.000000 0.000000 0.000000 0.000000 0.040169 0.000000
# 6 0.000000 0.000000 0.000000 0.000000 0.000000 0.033335
#
#
# Mechanical properties :
#
#
# Convention : Reuss Voigt Hill
#
# Bulk Modulus (GPa) = 43.78655 57.11420 50.45037
# Shear Modulus (GPa) = 24.98896 30.23360 27.61128
#
# Velocity S-wave (km/s) = 3.52346 3.87561 3.70373
# Velocity P-wave (km/s) = 6.18924 6.95717 6.58441
#
# Compressibility (1/GPa) = 0.02283806
#
# Stress axis : x y z
#
# Youngs Moduli (GPa) = 58.57003 90.83057 122.46354
#
# Poissons Ratio (x) = -0.10107 0.56129
# Poissons Ratio (y) = -0.06517 0.39614
# Poissons Ratio (z) = 0.26845 0.29381
#
# Static dielectric constant tensor:
#      x y z
#    x 1.825630 0.000000 0.000000 
#    y 0.000000 1.747000 0.000000 
#    z 0.000000 0.000000 1.681940 
# 
# From -- ./inp_files/3387.got.cif
#   From: 2010.05.17/outbox.cif.g08.bks.cpg/sg18_2_cif.got.tgz:3387.got - 2010.06.03 22:40:56.
