data_PCOD9312602
_publ_section_title
;
Structure prediction by ZEFSAII (Michael W. Deem and Ramdas Pophale) SiO2 
 PCOD9312602
Probable space group: P 21 21 2
;
_chemical_formula_sum "Si O2"
_cell_formula_units_Z 26
_cell_length_a 27.065297
_cell_length_b 6.916226
_cell_length_c 5.602228
_cell_angle_alpha 90.000000
_cell_angle_beta 90.000000
_cell_angle_gamma 90.000000
_cell_volume 1048.679439
_symmetry_space_group_name_H-M "P 21 21 2"
_symmetry_group_IT_number 18
_symmetry_cell_setting 'orthorhombic'
loop_
_space_group_symop_operation_xyz
x,y,z
-x,-y,z
1/2+x,1/2-y,-z
1/2-x,1/2+y,-z
loop_
_atom_site_type_symbol
_atom_site_label
_atom_site_fract_x
_atom_site_fract_y
_atom_site_fract_z
Si Si1 0.205958 0.765108 0.221289
Si Si2 0.560778 0.829311 0.379249
Si Si3 0.000000 0.500000 0.001903
Si Si4 0.673179 0.744956 0.282187
Si Si5 0.356944 0.655109 0.701867
Si Si6 0.817929 0.786698 0.796380
Si Si7 0.460350 0.752438 0.608723
O O1 0.203486 0.675750 0.489560
O O2 0.263225 0.791958 0.162101
O O3 0.175501 0.962298 0.265921
O O4 0.182504 0.668287 0.982951
O O5 0.540446 0.864003 0.118001
O O6 0.616166 0.758673 0.362440
O O7 0.515449 0.713854 0.506916
O O8 0.557155 0.049765 0.476804
O O9 0.968959 0.662426 0.132697
O O10 0.686356 0.520239 0.234865
O O11 0.337799 0.770094 0.467140
O O12 0.413864 0.613172 0.631033
O O13 0.351086 0.747799 0.966501
#
# Coordination Sequence:
#
# PCOD9312602 Si02
#       7
#     4   4   2   4   4   4   4
#     4  10  22  43  63  88 132 167 219 275 320 386
#     4   9  20  38  63  96 128 171 213 274 321 406
#     4   8  18  36  60  88 132 156 222 246 338 372
#     4  10  22  41  66  92 127 170 222 261 340 386
#     4  10  22  41  66  92 127 170 222 261 340 386
#     4  10  22  43  63  88 132 167 219 275 320 386
#     4   9  20  38  63  96 128 171 213 274 321 406
#
# _framework density 24.793087
#
# number of rings (size 3 to 8) (size 9 to 14) (size 15 to 20)
#    0.000    2.769    0.000    0.923    8.615    0.000 
#   16.615    3.077    0.000    0.000    0.000    0.000 
#    0.000    0.000    0.000    0.000    0.000    0.000 
#
# Total GULP energy -144791.227582 kJ/mol
# GULP energy per Si atom -5568.893369 kJ/mol
# Density = 2.473666 g / cm^3
# Si number density = 24.793087 Si / 1000 Ang^3
#
#
#
# Elastic Constant Matrix: (Units=GPa)
#
#
# Indices 1 2 3 4 5 6 
#
# 1 200.8120 26.5596 41.6174 0.0000 0.0000 0.0000
# 2 26.5596 65.6207 -8.7989 0.0000 0.0000 0.0000
# 3 41.6174 -8.7989 173.0931 0.0000 0.0000 0.0000
# 4 0.0000 0.0000 0.0000 -44.9768 0.0000 0.0000
# 5 0.0000 0.0000 0.0000 0.0000 70.2726 0.0000
# 6 0.0000 0.0000 0.0000 0.0000 0.0000 39.7302
#
#
#
# Elastic Compliance Matrix: (Units=1/GPa)
#
#
# Indices 1 2 3 4 5 6 
#
# 1 0.005612 -0.002469 -0.001475 0.000000 0.000000 0.000000
# 2 -0.002469 0.016430 0.001429 0.000000 0.000000 0.000000
# 3 -0.001475 0.001429 0.006204 0.000000 0.000000 0.000000
# 4 0.000000 0.000000 0.000000 -0.022234 0.000000 0.000000
# 5 0.000000 0.000000 0.000000 0.000000 0.014230 0.000000
# 6 0.000000 0.000000 0.000000 0.000000 0.000000 0.025170
#
#
# Mechanical properties :
#
#
# Convention : Reuss Voigt Hill
#
# Bulk Modulus (GPa) = 43.07323 62.03131 52.55227
# Shear Modulus (GPa) = 85.93722 38.34838 62.14280
#
# Velocity S-wave (km/s) = 5.89381 3.93712 5.01188
# Velocity P-wave (km/s) = 7.98291 6.76327 7.39827
#
# Compressibility (1/GPa) = 0.02321627
#
# Stress axis : x y z
#
# Youngs Moduli (GPa) = 178.18923 60.86397 161.17410
#
# Poissons Ratio (x) = 0.15028 0.23770
# Poissons Ratio (y) = 0.43998 -0.23030
# Poissons Ratio (z) = 0.26280 -0.08697
#
# Static dielectric constant tensor:
#      x y z
#    x 1.975130 0.000000 0.000000 
#    y 0.000000 2.035110 0.000000 
#    z 0.000000 0.000000 2.056800 
# 
# From -- ./inp_files/2202.got.cif
#   From: 2010.05.17/outbox.cif.g08.bks.cpg/sg18_2_cif.got.tgz:2202.got - 2010.06.03 22:40:56.
