data_PCOD9312720
_publ_section_title
;
Structure prediction by ZEFSAII (Michael W. Deem and Ramdas Pophale) SiO2 
 PCOD9312720
Probable space group: P 21 21 2
;
_chemical_formula_sum "Si O2"
_cell_formula_units_Z 32
_cell_length_a 9.100338
_cell_length_b 14.073785
_cell_length_c 10.649012
_cell_angle_alpha 90.000000
_cell_angle_beta 90.000000
_cell_angle_gamma 90.000000
_cell_volume 1363.884995
_symmetry_space_group_name_H-M "P 21 21 2"
_symmetry_group_IT_number 18
_symmetry_cell_setting 'orthorhombic'
loop_
_space_group_symop_operation_xyz
x,y,z
-x,-y,z
1/2+x,1/2-y,-z
1/2-x,1/2+y,-z
loop_
_atom_site_type_symbol
_atom_site_label
_atom_site_fract_x
_atom_site_fract_y
_atom_site_fract_z
Si Si1 0.081876 0.261443 0.678245
Si Si2 0.153146 0.054765 0.338033
Si Si3 0.250803 0.751864 0.568997
Si Si4 0.638923 0.055718 0.166428
Si Si5 0.853671 0.841860 0.947135
Si Si6 0.327112 0.321030 0.022150
Si Si7 0.664822 0.517790 0.201903
Si Si8 0.163313 0.470033 0.433619
O O1 0.209665 0.234947 0.578596
O O2 0.091785 0.371813 0.721211
O O3 0.112224 0.203441 0.807737
O O4 0.921534 0.247909 0.611436
O O5 0.163655 0.168223 0.356762
O O6 0.251333 0.021558 0.222272
O O7 0.228464 0.010654 0.462033
O O8 0.000000 0.000000 0.325273
O O9 0.315424 0.857483 0.583373
O O10 0.717850 0.122628 0.067332
O O11 0.500000 0.000000 0.114593
O O12 0.724849 0.786678 0.015892
O O13 0.825573 0.951233 0.919607
O O14 0.005370 0.829755 0.021283
O O15 0.319345 0.374619 0.154863
O O16 0.500000 0.500000 0.254396
O O17 0.785913 0.488776 0.300348
O O18 0.000000 0.500000 0.465065
#
# Coordination Sequence:
#
# PCOD9312720 Si02
#       8
#     4   4   4   4   4   4   4   4
#     4  11  23  42  69 101 143 182 233 293 350 434
#     4  12  25  43  65 101 145 183 231 286 357 430
#     4  12  23  41  70  99 138 191 230 281 360 425
#     4  11  23  47  67  99 143 182 229 297 359 417
#     4  10  23  46  68  99 138 182 236 293 357 418
#     4  10  24  44  73  99 133 183 235 289 356 418
#     4  10  22  45  68  97 136 178 233 295 350 413
#     4  12  25  43  69 103 141 183 239 292 352 432
#
# _framework density 23.462389000000002
#
# number of rings (size 3 to 8) (size 9 to 14) (size 15 to 20)
#    0.000    1.000    2.500    4.500    0.000    5.000 
#    9.000    0.000    0.000    0.000    0.000    0.000 
#    0.000    0.000    0.000    0.000    0.000    0.000 
#
# Total GULP energy -179037.309084 kJ/mol
# GULP energy per Si atom -5594.915909 kJ/mol
# Density = 2.340899 g / cm^3
# Si number density = 23.462389 Si / 1000 Ang^3
#
#
#
# Elastic Constant Matrix: (Units=GPa)
#
#
# Indices 1 2 3 4 5 6 
#
# 1 91.2946 24.4638 28.3473 0.0000 0.0000 0.0000
# 2 24.4638 101.4691 4.5039 0.0000 0.0000 0.0000
# 3 28.3473 4.5039 50.8542 0.0000 0.0000 0.0000
# 4 0.0000 0.0000 0.0000 37.2729 0.0000 0.0000
# 5 0.0000 0.0000 0.0000 0.0000 29.8105 0.0000
# 6 0.0000 0.0000 0.0000 0.0000 0.0000 38.8091
#
#
#
# Elastic Compliance Matrix: (Units=1/GPa)
#
#
# Indices 1 2 3 4 5 6 
#
# 1 0.014139 -0.003071 -0.007610 0.000000 0.000000 0.000000
# 2 -0.003071 0.010561 0.000777 0.000000 0.000000 0.000000
# 3 -0.007610 0.000777 0.023837 0.000000 0.000000 0.000000
# 4 0.000000 0.000000 0.000000 0.026829 0.000000 0.000000
# 5 0.000000 0.000000 0.000000 0.000000 0.033545 0.000000
# 6 0.000000 0.000000 0.000000 0.000000 0.000000 0.025767
#
#
# Mechanical properties :
#
#
# Convention : Reuss Voigt Hill
#
# Bulk Modulus (GPa) = 34.80777 39.80534 37.30656
# Shear Modulus (GPa) = 30.47594 33.59870 32.03732
#
# Velocity S-wave (km/s) = 3.60797 3.78831 3.69924
# Velocity P-wave (km/s) = 5.67665 6.01145 5.84645
#
# Compressibility (1/GPa) = 0.02872921
#
# Stress axis : x y z
#
# Youngs Moduli (GPa) = 70.72469 94.68630 41.95147
#
# Poissons Ratio (x) = 0.29080 0.31923
# Poissons Ratio (y) = 0.21721 -0.03258
# Poissons Ratio (z) = 0.53819 -0.07353
#
# Static dielectric constant tensor:
#      x y z
#    x 1.859620 0.000000 0.000000 
#    y 0.000000 1.924200 0.000000 
#    z 0.000000 0.000000 1.899980 
# 
# From -- ./inp_files/5684.got.cif
#   From: 2010.05.17/outbox.cif.g08.bks.cpg/sg18_3_cif.got.tgz:5684.got - 2010.06.03 22:40:56.
