data_PCOD9312944
_publ_section_title
;
Structure prediction by ZEFSAII (Michael W. Deem and Ramdas Pophale) SiO2 
 PCOD9312944
Probable space group: P 21 21 2
;
_chemical_formula_sum "Si O2"
_cell_formula_units_Z 24
_cell_length_a 24.357640
_cell_length_b 5.499905
_cell_length_c 8.082588
_cell_angle_alpha 90.000000
_cell_angle_beta 90.000000
_cell_angle_gamma 90.000000
_cell_volume 1082.781525
_symmetry_space_group_name_H-M "P 21 21 2"
_symmetry_group_IT_number 18
_symmetry_cell_setting 'orthorhombic'
loop_
_space_group_symop_operation_xyz
x,y,z
-x,-y,z
1/2+x,1/2-y,-z
1/2-x,1/2+y,-z
loop_
_atom_site_type_symbol
_atom_site_label
_atom_site_fract_x
_atom_site_fract_y
_atom_site_fract_z
Si Si1 0.881124 0.586913 0.575642
Si Si2 0.500000 0.500000 0.708382
Si Si3 0.335898 0.904419 0.077791
Si Si4 0.290647 0.276326 0.895272
Si Si5 0.220508 0.615556 0.449039
Si Si6 0.500000 0.000000 0.497796
Si Si7 0.618592 0.357601 0.777155
O O1 0.858271 0.686418 0.748136
O O2 0.839606 0.369302 0.529867
O O3 0.943527 0.509678 0.601444
O O4 0.879438 0.751999 0.409737
O O5 0.497647 0.247826 0.605015
O O6 0.559318 0.485927 0.797261
O O7 0.272343 0.822770 0.060714
O O8 0.375137 0.832936 0.926887
O O9 0.325482 0.192377 0.053916
O O10 0.286152 0.081406 0.746781
O O11 0.327665 0.479475 0.807880
O O12 0.247279 0.366521 0.518349
#
# Coordination Sequence:
#
# PCOD9312944 Si02
#       7
#     4   2   4   4   4   2   4
#     4  11  25  47  74 104 142 194 243 304 368 436
#     4  10  24  48  82 100 142 194 246 304 358 434
#     4  12  26  43  69 107 148 189 244 300 370 440
#     4  12  25  43  68 106 152 190 237 313 363 441
#     4  12  25  41  72 106 140 191 240 290 366 440
#     4  10  24  52  74 108 140 188 246 308 358 426
#     4  11  25  50  70 105 144 195 246 305 369 441
#
# _framework density 22.165137000000001
#
# number of rings (size 3 to 8) (size 9 to 14) (size 15 to 20)
#    0.000    0.667    5.000    2.000    4.667    1.333 
#    9.000    0.833    0.000    0.000    0.000    0.000 
#    0.000    0.000    0.000    0.000    0.000    0.000 
#
# Total GULP energy -133843.927779 kJ/mol
# GULP energy per Si atom -5576.830324 kJ/mol
# Density = 2.211469 g / cm^3
# Si number density = 22.165137 Si / 1000 Ang^3
#
#
#
# Elastic Constant Matrix: (Units=GPa)
#
#
# Indices 1 2 3 4 5 6 
#
# 1 168.4633 37.8749 38.7222 0.0000 0.0000 0.0000
# 2 37.8749 70.2763 24.3901 0.0000 0.0000 0.0000
# 3 38.7222 24.3901 119.1728 0.0000 0.0000 0.0000
# 4 0.0000 0.0000 0.0000 20.8012 0.0000 0.0000
# 5 0.0000 0.0000 0.0000 0.0000 37.6133 0.0000
# 6 0.0000 0.0000 0.0000 0.0000 0.0000 33.4030
#
#
#
# Elastic Compliance Matrix: (Units=1/GPa)
#
#
# Indices 1 2 3 4 5 6 
#
# 1 0.007035 -0.003227 -0.001625 0.000000 0.000000 0.000000
# 2 -0.003227 0.016798 -0.002389 0.000000 0.000000 0.000000
# 3 -0.001625 -0.002389 0.009408 0.000000 0.000000 0.000000
# 4 0.000000 0.000000 0.000000 0.048074 0.000000 0.000000
# 5 0.000000 0.000000 0.000000 0.000000 0.026586 0.000000
# 6 0.000000 0.000000 0.000000 0.000000 0.000000 0.029937
#
#
# Mechanical properties :
#
#
# Convention : Reuss Voigt Hill
#
# Bulk Modulus (GPa) = 53.31207 62.20964 57.76086
# Shear Modulus (GPa) = 31.53056 35.49185 33.51120
#
# Velocity S-wave (km/s) = 3.77574 4.00590 3.89252
# Velocity P-wave (km/s) = 6.56602 7.03731 6.80575
#
# Compressibility (1/GPa) = 0.01875748
#
# Stress axis : x y z
#
# Youngs Moduli (GPa) = 142.14163 59.53021 106.28918
#
# Poissons Ratio (x) = 0.19213 0.17276
# Poissons Ratio (y) = 0.45876 0.25395
# Poissons Ratio (z) = 0.23103 0.14223
#
# Static dielectric constant tensor:
#      x y z
#    x 1.824540 0.000000 0.000000 
#    y 0.000000 1.888940 0.000000 
#    z 0.000000 0.000000 1.893600 
# 
# From -- ./inp_files/4738.got.cif
#   From: 2010.05.17/outbox.cif.g08.bks.cpg/sg18_3_cif.got.tgz:4738.got - 2010.06.03 22:40:56.
