data_PCOD9312168
_publ_section_title
;
Structure prediction by ZEFSAII (Michael W. Deem and Ramdas Pophale) SiO2 
 PCOD9312168
Probable space group: P 21 21 2
;
_chemical_formula_sum "Si O2"
_cell_formula_units_Z 32
_cell_length_a 32.466087
_cell_length_b 8.596521
_cell_length_c 5.289079
_cell_angle_alpha 90.000000
_cell_angle_beta 90.000000
_cell_angle_gamma 90.000000
_cell_volume 1476.157612
_symmetry_space_group_name_H-M "P 21 21 2"
_symmetry_group_IT_number 18
_symmetry_cell_setting 'orthorhombic'
loop_
_space_group_symop_operation_xyz
x,y,z
-x,-y,z
1/2+x,1/2-y,-z
1/2-x,1/2+y,-z
loop_
_atom_site_type_symbol
_atom_site_label
_atom_site_fract_x
_atom_site_fract_y
_atom_site_fract_z
Si Si1 0.362456 0.916114 0.519890
Si Si2 0.954514 0.004950 0.527328
Si Si3 0.576840 0.847976 0.589550
Si Si4 0.453490 0.002264 0.089215
Si Si5 0.278767 0.791358 0.744919
Si Si6 0.871734 0.876067 0.791715
Si Si7 0.217692 0.080359 0.748078
Si Si8 0.076273 0.217843 0.168674
O O1 0.322270 0.877716 0.682717
O O2 0.359664 0.804759 0.274126
O O3 0.376728 0.095478 0.507644
O O4 0.402964 0.840730 0.646554
O O5 0.913724 0.938059 0.665990
O O6 0.939124 0.173496 0.443619
O O7 0.958232 0.886919 0.290845
O O8 0.000000 0.000000 0.653338
O O9 0.570433 0.892656 0.883968
O O10 0.550372 0.936941 0.372606
O O11 0.500000 0.000000 0.000801
O O12 0.439387 0.824363 0.058753
O O13 0.270814 0.681107 0.500692
O O14 0.245477 0.927996 0.769104
O O15 0.279553 0.686452 0.998148
O O16 0.830553 0.965250 0.722062
O O17 0.884716 0.884652 0.083235
#
# Coordination Sequence:
#
# PCOD9312168 Si02
#       8
#     4   4   4   4   4   4   4   4
#     4   9  20  41  65  89 126 172 226 264 320 397
#     4  11  26  40  61  95 139 174 224 288 353 398
#     4  11  24  40  59  97 122 166 220 284 321 387
#     4  11  23  39  65  87 123 166 230 268 323 392
#     4  11  23  43  69 102 140 173 224 276 335 411
#     4  10  21  41  66  89 130 183 217 266 338 419
#     4  11  24  44  71 105 137 180 224 278 341 408
#     4  10  20  40  63  86 120 182 211 270 329 407
#
# _framework density 21.677903000000001
#
# number of rings (size 3 to 8) (size 9 to 14) (size 15 to 20)
#    0.000    1.500    2.500    1.875    3.500    1.500 
#    2.250    0.000    0.000    0.000    0.000    0.000 
#    0.000    0.000    0.000    0.000    0.000    0.000 
#
# Total GULP energy -178200.847503 kJ/mol
# GULP energy per Si atom -5568.776484 kJ/mol
# Density = 2.162856 g / cm^3
# Si number density = 21.677903 Si / 1000 Ang^3
#
#
#
# Elastic Constant Matrix: (Units=GPa)
#
#
# Indices 1 2 3 4 5 6 
#
# 1 113.2979 52.1495 25.7861 0.0000 0.0000 0.0000
# 2 52.1495 88.4946 33.3378 0.0000 0.0000 0.0000
# 3 25.7861 33.3378 88.5684 0.0000 0.0000 0.0000
# 4 0.0000 0.0000 0.0000 12.0704 0.0000 0.0000
# 5 0.0000 0.0000 0.0000 0.0000 21.9388 0.0000
# 6 0.0000 0.0000 0.0000 0.0000 0.0000 34.5871
#
#
#
# Elastic Compliance Matrix: (Units=1/GPa)
#
#
# Indices 1 2 3 4 5 6 
#
# 1 0.012185 -0.006810 -0.000984 0.000000 0.000000 0.000000
# 2 -0.006810 0.016973 -0.004406 0.000000 0.000000 0.000000
# 3 -0.000984 -0.004406 0.013236 0.000000 0.000000 0.000000
# 4 0.000000 0.000000 0.000000 0.082847 0.000000 0.000000
# 5 0.000000 0.000000 0.000000 0.000000 0.045581 0.000000
# 6 0.000000 0.000000 0.000000 0.000000 0.000000 0.028913
#
#
# Mechanical properties :
#
#
# Convention : Reuss Voigt Hill
#
# Bulk Modulus (GPa) = 55.57638 56.98977 56.28308
# Shear Modulus (GPa) = 21.72663 25.65842 23.69253
#
# Velocity S-wave (km/s) = 3.16926 3.44411 3.30954
# Velocity P-wave (km/s) = 6.25182 6.49325 6.37368
#
# Compressibility (1/GPa) = 0.01799325
#
# Stress axis : x y z
#
# Youngs Moduli (GPa) = 82.07038 58.91752 75.55269
#
# Poissons Ratio (x) = 0.40120 0.07437
# Poissons Ratio (y) = 0.55886 0.33290
# Poissons Ratio (z) = 0.08078 0.25960
#
# Static dielectric constant tensor:
#      x y z
#    x 1.872490 0.000000 0.000000 
#    y 0.000000 1.907440 0.000000 
#    z 0.000000 0.000000 1.895860 
# 
# From -- ./inp_files/2300.got.cif
#   From: 2010.05.17/outbox.cif.g08.bks.cpg/sg18_2_cif.got.tgz:2300.got - 2010.06.03 22:40:56.
