data_PCOD9312633
_publ_section_title
;
Structure prediction by ZEFSAII (Michael W. Deem and Ramdas Pophale) SiO2 
 PCOD9312633
Probable space group: P 21 21 2
;
_chemical_formula_sum "Si O2"
_cell_formula_units_Z 22
_cell_length_a 13.943853
_cell_length_b 11.449101
_cell_length_c 5.983366
_cell_angle_alpha 90.000000
_cell_angle_beta 90.000000
_cell_angle_gamma 90.000000
_cell_volume 955.211960
_symmetry_space_group_name_H-M "P 21 21 2"
_symmetry_group_IT_number 18
_symmetry_cell_setting 'orthorhombic'
loop_
_space_group_symop_operation_xyz
x,y,z
-x,-y,z
1/2+x,1/2-y,-z
1/2-x,1/2+y,-z
loop_
_atom_site_type_symbol
_atom_site_label
_atom_site_fract_x
_atom_site_fract_y
_atom_site_fract_z
Si Si1 0.813760 0.772373 0.396898
Si Si2 0.000000 0.500000 0.087964
Si Si3 0.326868 0.138725 0.773248
Si Si4 0.141721 0.822739 0.871642
Si Si5 0.857594 0.920614 0.009836
Si Si6 0.543641 0.207685 0.249291
O O1 0.738785 0.834978 0.562609
O O2 0.747059 0.693202 0.235942
O O3 0.866616 0.876715 0.263329
O O4 0.891806 0.696194 0.530262
O O5 0.958598 0.598715 0.919041
O O6 0.919188 0.441409 0.240526
O O7 0.357618 0.259840 0.887988
O O8 0.256060 0.081771 0.957446
O O9 0.065397 0.751844 0.720745
O O10 0.110617 0.954312 0.921617
O O11 0.906184 0.816698 0.873639
#
# Coordination Sequence:
#
# PCOD9312633 Si02
#       6
#     4   2   4   4   4   4
#     4  10  23  44  70 106 133 184 242 276 348 420
#     4  10  22  44  70 100 154 182 218 292 344 410
#     4   9  22  40  64  99 138 181 227 279 346 404
#     4  10  22  44  67  99 143 181 230 291 349 404
#     4  10  22  42  66  95 139 180 229 292 339 398
#     4  10  23  45  68 104 141 184 231 281 347 414
#
# _framework density 23.031538000000001
#
# number of rings (size 3 to 8) (size 9 to 14) (size 15 to 20)
#    0.000    2.182    0.000    0.545    7.636    5.818 
#   13.091    8.182    0.000    0.000    0.000    0.000 
#    0.000    0.000    0.000    0.000    0.000    0.000 
#
# Total GULP energy -122916.475875 kJ/mol
# GULP energy per Si atom -5587.112540 kJ/mol
# Density = 2.297912 g / cm^3
# Si number density = 23.031538 Si / 1000 Ang^3
#
#
#
# Elastic Constant Matrix: (Units=GPa)
#
#
# Indices 1 2 3 4 5 6 
#
# 1 74.4896 15.3726 9.7032 0.0000 0.0000 0.0000
# 2 15.3726 121.8485 21.6769 0.0000 0.0000 0.0000
# 3 9.7032 21.6769 59.0461 0.0000 0.0000 0.0000
# 4 0.0000 0.0000 0.0000 18.1756 0.0000 0.0000
# 5 0.0000 0.0000 0.0000 0.0000 37.4576 0.0000
# 6 0.0000 0.0000 0.0000 0.0000 0.0000 33.4911
#
#
#
# Elastic Compliance Matrix: (Units=1/GPa)
#
#
# Indices 1 2 3 4 5 6 
#
# 1 0.013953 -0.001447 -0.001762 0.000000 0.000000 0.000000
# 2 -0.001447 0.008930 -0.003041 0.000000 0.000000 0.000000
# 3 -0.001762 -0.003041 0.018342 0.000000 0.000000 0.000000
# 4 0.000000 0.000000 0.000000 0.055019 0.000000 0.000000
# 5 0.000000 0.000000 0.000000 0.000000 0.026697 0.000000
# 6 0.000000 0.000000 0.000000 0.000000 0.000000 0.029859
#
#
# Mechanical properties :
#
#
# Convention : Reuss Voigt Hill
#
# Bulk Modulus (GPa) = 34.81140 38.76551 36.78845
# Shear Modulus (GPa) = 28.59210 31.73362 30.16286
#
# Velocity S-wave (km/s) = 3.52722 3.71594 3.62281
# Velocity P-wave (km/s) = 5.63346 5.93961 5.78856
#
# Compressibility (1/GPa) = 0.02872623
#
# Stress axis : x y z
#
# Youngs Moduli (GPa) = 71.67031 111.97694 54.52043
#
# Poissons Ratio (x) = 0.16202 0.09605
# Poissons Ratio (y) = 0.10370 0.16578
# Poissons Ratio (z) = 0.12626 0.34049
#
# Static dielectric constant tensor:
#      x y z
#    x 1.925070 0.000000 0.000000 
#    y 0.000000 1.857570 0.000000 
#    z 0.000000 0.000000 1.896440 
# 
# From -- ./inp_files/1061.got.cif
#   From: 2010.05.17/outbox.cif.g08.bks.cpg/sg18_1_cif.got.tgz:1061.got - 2010.06.03 22:40:56.
