data_PCOD9312401
_publ_section_title
;
Structure prediction by ZEFSAII (Michael W. Deem and Ramdas Pophale) SiO2 
 PCOD9312401
Probable space group: P 21 21 2
;
_chemical_formula_sum "Si O2"
_cell_formula_units_Z 20
_cell_length_a 6.879539
_cell_length_b 16.238268
_cell_length_c 7.422548
_cell_angle_alpha 90.000000
_cell_angle_beta 90.000000
_cell_angle_gamma 90.000000
_cell_volume 829.186183
_symmetry_space_group_name_H-M "P 21 21 2"
_symmetry_group_IT_number 18
_symmetry_cell_setting 'orthorhombic'
loop_
_space_group_symop_operation_xyz
x,y,z
-x,-y,z
1/2+x,1/2-y,-z
1/2-x,1/2+y,-z
loop_
_atom_site_type_symbol
_atom_site_label
_atom_site_fract_x
_atom_site_fract_y
_atom_site_fract_z
Si Si1 0.187284 0.038815 0.574127
Si Si2 0.770407 0.314278 0.231643
Si Si3 0.639642 0.068337 0.256472
Si Si4 0.106168 0.722913 0.829545
Si Si5 0.010271 0.830284 0.306033
O O1 0.314294 0.093996 0.705605
O O2 0.086773 0.106795 0.444108
O O3 0.296217 0.974696 0.444348
O O4 0.000000 0.000000 0.670899
O O5 0.539129 0.298627 0.204865
O O6 0.848118 0.243622 0.367744
O O7 0.872247 0.294576 0.042380
O O8 0.499357 0.146117 0.265751
O O9 0.844185 0.109552 0.188993
O O10 0.500000 0.000000 0.162279
O O11 0.326882 0.719481 0.768675
#
# Coordination Sequence:
#
# PCOD9312401 Si02
#       5
#     4   4   4   4   4
#     4  10  23  45  65  98 136 175 226 280 340 409
#     4  11  24  42  68 101 132 175 233 281 335 415
#     4  10  21  41  68  92 132 181 219 274 348 403
#     4  11  22  43  66  98 136 178 221 282 346 399
#     4  10  22  40  69  93 133 174 226 282 332 404
#
# _framework density 24.120037
#
# number of rings (size 3 to 8) (size 9 to 14) (size 15 to 20)
#    0.000    1.600    4.000    0.000    2.800    0.000 
#    7.200    1.000    0.000    0.000    0.000    0.000 
#    0.000    0.000    0.000    0.000    0.000    0.000 
#
# Total GULP energy -111384.953059 kJ/mol
# GULP energy per Si atom -5569.247653 kJ/mol
# Density = 2.406514 g / cm^3
# Si number density = 24.120037 Si / 1000 Ang^3
#
#
#
# Elastic Constant Matrix: (Units=GPa)
#
#
# Indices 1 2 3 4 5 6 
#
# 1 144.2458 31.3162 38.0252 0.0000 0.0000 0.0000
# 2 31.3162 84.2627 16.1316 0.0000 0.0000 0.0000
# 3 38.0252 16.1316 30.8393 0.0000 0.0000 0.0000
# 4 0.0000 0.0000 0.0000 22.7765 0.0000 0.0000
# 5 0.0000 0.0000 0.0000 0.0000 18.8660 0.0000
# 6 0.0000 0.0000 0.0000 0.0000 0.0000 49.4823
#
#
#
# Elastic Compliance Matrix: (Units=1/GPa)
#
#
# Indices 1 2 3 4 5 6 
#
# 1 0.010456 -0.001576 -0.012068 0.000000 0.000000 0.000000
# 2 -0.001576 0.013426 -0.005080 0.000000 0.000000 0.000000
# 3 -0.012068 -0.005080 0.049964 0.000000 0.000000 0.000000
# 4 0.000000 0.000000 0.000000 0.043905 0.000000 0.000000
# 5 0.000000 0.000000 0.000000 0.000000 0.053005 0.000000
# 6 0.000000 0.000000 0.000000 0.000000 0.000000 0.020209
#
#
# Mechanical properties :
#
#
# Convention : Reuss Voigt Hill
#
# Bulk Modulus (GPa) = 27.47431 47.81043 37.64237
# Shear Modulus (GPa) = 20.78610 29.81661 25.30136
#
# Velocity S-wave (km/s) = 2.93879 3.51974 3.24230
# Velocity P-wave (km/s) = 4.78860 6.03183 5.44581
#
# Compressibility (1/GPa) = 0.03639763
#
# Stress axis : x y z
#
# Youngs Moduli (GPa) = 95.63872 74.48356 20.01456
#
# Poissons Ratio (x) = 0.11736 0.24154
# Poissons Ratio (y) = 0.15069 0.10168
# Poissons Ratio (z) = 1.15419 0.37839
#
# Static dielectric constant tensor:
#      x y z
#    x 1.983500 0.000000 0.000000 
#    y 0.000000 1.954210 0.000000 
#    z 0.000000 0.000000 2.050440 
# 
# From -- ./inp_files/2491.got.cif
#   From: 2010.05.17/outbox.cif.g08.bks.cpg/sg18_2_cif.got.tgz:2491.got - 2010.06.03 22:40:56.
