data_PCOD9312290
_publ_section_title
;
Structure prediction by ZEFSAII (Michael W. Deem and Ramdas Pophale) SiO2 
 PCOD9312290
Probable space group: P 21 21 2
;
_chemical_formula_sum "Si O2"
_cell_formula_units_Z 28
_cell_length_a 19.465828
_cell_length_b 10.947977
_cell_length_c 5.207346
_cell_angle_alpha 90.000000
_cell_angle_beta 90.000000
_cell_angle_gamma 90.000000
_cell_volume 1109.744990
_symmetry_space_group_name_H-M "P 21 21 2"
_symmetry_group_IT_number 18
_symmetry_cell_setting 'orthorhombic'
loop_
_space_group_symop_operation_xyz
x,y,z
-x,-y,z
1/2+x,1/2-y,-z
1/2-x,1/2+y,-z
loop_
_atom_site_type_symbol
_atom_site_label
_atom_site_fract_x
_atom_site_fract_y
_atom_site_fract_z
Si Si1 0.662434 0.142686 0.443252
Si Si2 0.690777 0.691252 0.718174
Si Si3 0.446193 0.655036 0.418310
Si Si4 0.637088 0.560135 0.211711
Si Si5 0.597807 0.994822 0.065314
Si Si6 0.224149 0.548019 0.184515
Si Si7 0.489823 0.789709 0.912401
O O1 0.728006 0.157034 0.247829
O O2 0.626358 0.273592 0.472302
O O3 0.700063 0.074392 0.673557
O O4 0.599694 0.054670 0.347072
O O5 0.660977 0.631331 0.463701
O O6 0.698417 0.834447 0.664030
O O7 0.643981 0.647746 0.960755
O O8 0.426151 0.519439 0.321754
O O9 0.488729 0.696987 0.671857
O O10 0.482171 0.713680 0.171877
O O11 0.695863 0.460572 0.137075
O O12 0.674791 0.944259 0.057327
O O13 0.550650 0.886060 0.965253
O O14 0.574857 0.115564 0.904892
#
# Coordination Sequence:
#
# PCOD9312290 Si02
#       7
#     4   4   4   4   4   4   4
#     4  10  21  37  60  93 126 162 206 258 320 374
#     4  11  24  38  60  93 125 168 203 251 320 382
#     4  11  21  41  61  89 128 163 206 258 316 385
#     4  11  24  40  61  90 128 170 207 252 320 384
#     4  10  21  37  60  95 127 158 211 266 320 376
#     4  11  22  38  63  89 132 162 210 264 314 385
#     4  10  23  36  65  91 126 163 207 264 325 368
#
# _framework density 25.231020999999998
#
# number of rings (size 3 to 8) (size 9 to 14) (size 15 to 20)
#    0.000    1.429    4.286    0.857    4.000    1.143 
#    0.000    0.000    0.000    5.143    0.000    0.000 
#    0.000    0.000    0.000    0.000    0.000    0.000 
#
# Total GULP energy -155986.273858 kJ/mol
# GULP energy per Si atom -5570.938352 kJ/mol
# Density = 2.517359 g / cm^3
# Si number density = 25.231021 Si / 1000 Ang^3
#
#
#
# Elastic Constant Matrix: (Units=GPa)
#
#
# Indices 1 2 3 4 5 6 
#
# 1 53.7739 5.0803 9.0959 0.0000 0.0000 0.0000
# 2 5.0803 61.2593 15.6443 0.0000 0.0000 0.0000
# 3 9.0959 15.6443 141.0576 0.0000 0.0000 0.0000
# 4 0.0000 0.0000 0.0000 29.2272 0.0000 0.0000
# 5 0.0000 0.0000 0.0000 0.0000 12.1354 0.0000
# 6 0.0000 0.0000 0.0000 0.0000 0.0000 40.9320
#
#
#
# Elastic Compliance Matrix: (Units=1/GPa)
#
#
# Indices 1 2 3 4 5 6 
#
# 1 0.018900 -0.001293 -0.001075 0.000000 0.000000 0.000000
# 2 -0.001293 0.016888 -0.001790 0.000000 0.000000 0.000000
# 3 -0.001075 -0.001790 0.007357 0.000000 0.000000 0.000000
# 4 0.000000 0.000000 0.000000 0.034215 0.000000 0.000000
# 5 0.000000 0.000000 0.000000 0.000000 0.082404 0.000000
# 6 0.000000 0.000000 0.000000 0.000000 0.000000 0.024431
#
#
# Mechanical properties :
#
#
# Convention : Reuss Voigt Hill
#
# Bulk Modulus (GPa) = 28.71075 35.08130 31.89602
# Shear Modulus (GPa) = 24.49529 31.54361 28.01945
#
# Velocity S-wave (km/s) = 3.11921 3.53964 3.33606
# Velocity P-wave (km/s) = 4.93726 5.53531 5.24481
#
# Compressibility (1/GPa) = 0.03483016
#
# Stress axis : x y z
#
# Youngs Moduli (GPa) = 52.90892 59.21256 135.92253
#
# Poissons Ratio (x) = 0.07655 0.14617
# Poissons Ratio (y) = 0.06840 0.24326
# Poissons Ratio (z) = 0.05690 0.10597
#
# Static dielectric constant tensor:
#      x y z
#    x 2.194140 0.000000 0.000000 
#    y 0.000000 2.134250 0.000000 
#    z 0.000000 0.000000 2.044170 
# 
# From -- ./inp_files/2120.got.cif
#   From: 2010.05.17/outbox.cif.g08.bks.cpg/sg18_2_cif.got.tgz:2120.got - 2010.06.03 22:40:56.
