data_PCOD9312915
_publ_section_title
;
Structure prediction by ZEFSAII (Michael W. Deem and Ramdas Pophale) SiO2 
 PCOD9312915
Probable space group: P 21 21 2
;
_chemical_formula_sum "Si O2"
_cell_formula_units_Z 28
_cell_length_a 8.507174
_cell_length_b 17.140568
_cell_length_c 6.975341
_cell_angle_alpha 90.000000
_cell_angle_beta 90.000000
_cell_angle_gamma 90.000000
_cell_volume 1017.128840
_symmetry_space_group_name_H-M "P 21 21 2"
_symmetry_group_IT_number 18
_symmetry_cell_setting 'orthorhombic'
loop_
_space_group_symop_operation_xyz
x,y,z
-x,-y,z
1/2+x,1/2-y,-z
1/2-x,1/2+y,-z
loop_
_atom_site_type_symbol
_atom_site_label
_atom_site_fract_x
_atom_site_fract_y
_atom_site_fract_z
Si Si1 0.996650 0.701374 0.045077
Si Si2 0.053396 0.794760 0.558197
Si Si3 0.290695 0.134989 0.501654
Si Si4 0.791550 0.624181 0.738003
Si Si5 0.500000 0.000000 0.486331
Si Si6 0.823000 0.858978 0.076486
Si Si7 0.720992 0.615705 0.156214
Si Si8 0.500000 0.500000 0.136395
O O1 0.943984 0.787109 0.110981
O O2 0.132630 0.807910 0.767124
O O3 0.901107 0.637604 0.172573
O O4 0.177110 0.677727 0.041862
O O5 0.085116 0.706410 0.494084
O O6 0.169325 0.842252 0.414171
O O7 0.878131 0.829634 0.566964
O O8 0.909007 0.686459 0.839830
O O9 0.249958 0.115831 0.279077
O O10 0.373455 0.057928 0.585081
O O11 0.896403 0.558192 0.643083
O O12 0.705499 0.594932 0.931243
O O13 0.902611 0.932027 0.972375
O O14 0.628786 0.546987 0.258346
#
# Coordination Sequence:
#
# PCOD9312915 Si02
#       8
#     4   4   4   4   2   4   4   2
#     4  10  24  45  78 105 155 198 261 321 377 468
#     4  12  27  49  77 112 155 204 269 315 393 473
#     4  12  26  46  79 115 158 207 264 334 388 482
#     4  10  24  48  77 107 155 207 252 329 388 469
#     4  12  24  48  76 120 158 202 272 324 410 462
#     4  12  24  46  78 121 152 209 266 325 393 480
#     4  10  24  48  70 112 150 200 260 320 385 469
#     4  12  26  40  74 112 156 204 256 312 406 452
#
# _framework density 27.528466999999999
#
# number of rings (size 3 to 8) (size 9 to 14) (size 15 to 20)
#    0.857    0.000    2.857    3.429    2.000    2.286 
#    0.000    2.143    0.000    0.000    0.000    0.000 
#    0.000    0.000    0.000    0.000    0.000    0.000 
#
# Total GULP energy -156736.641568 kJ/mol
# GULP energy per Si atom -5597.737199 kJ/mol
# Density = 2.746581 g / cm^3
# Si number density = 27.528467 Si / 1000 Ang^3
#
#
#
# Elastic Constant Matrix: (Units=GPa)
#
#
# Indices 1 2 3 4 5 6 
#
# 1 221.8563 105.7247 50.2812 0.0000 0.0000 0.0000
# 2 105.7247 191.6814 27.6014 0.0000 0.0000 0.0000
# 3 50.2812 27.6014 68.7231 0.0000 0.0000 0.0000
# 4 0.0000 0.0000 0.0000 36.4531 0.0000 0.0000
# 5 0.0000 0.0000 0.0000 0.0000 45.9570 0.0000
# 6 0.0000 0.0000 0.0000 0.0000 0.0000 81.5278
#
#
#
# Elastic Compliance Matrix: (Units=1/GPa)
#
#
# Indices 1 2 3 4 5 6 
#
# 1 0.006917 -0.003276 -0.003745 0.000000 0.000000 0.000000
# 2 -0.003276 0.007089 -0.000450 0.000000 0.000000 0.000000
# 3 -0.003745 -0.000450 0.017472 0.000000 0.000000 0.000000
# 4 0.000000 0.000000 0.000000 0.027433 0.000000 0.000000
# 5 0.000000 0.000000 0.000000 0.000000 0.021759 0.000000
# 6 0.000000 0.000000 0.000000 0.000000 0.000000 0.012266
#
#
# Mechanical properties :
#
#
# Convention : Reuss Voigt Hill
#
# Bulk Modulus (GPa) = 60.47670 94.38612 77.43141
# Shear Modulus (GPa) = 44.09510 52.69781 48.39646
#
# Velocity S-wave (km/s) = 4.00659 4.38002 4.19746
# Velocity P-wave (km/s) = 6.58940 7.74213 7.18891
#
# Compressibility (1/GPa) = 0.01653529
#
# Stress axis : x y z
#
# Youngs Moduli (GPa) = 144.56100 141.06759 57.23365
#
# Poissons Ratio (x) = 0.46216 0.21436
# Poissons Ratio (y) = 0.47360 0.02576
# Poissons Ratio (z) = 0.54144 0.06350
#
# Static dielectric constant tensor:
#      x y z
#    x 2.124880 0.000000 0.000000 
#    y 0.000000 2.152920 0.000000 
#    z 0.000000 0.000000 2.257020 
# 
# From -- ./inp_files/5614.got.cif
#   From: 2010.05.17/outbox.cif.g08.bks.cpg/sg18_3_cif.got.tgz:5614.got - 2010.06.03 22:40:56.
