data_PCOD9312833
_publ_section_title
;
Structure prediction by ZEFSAII (Michael W. Deem and Ramdas Pophale) SiO2 
 PCOD9312833
Probable space group: P 21 21 2
;
_chemical_formula_sum "Si O2"
_cell_formula_units_Z 20
_cell_length_a 17.585214
_cell_length_b 7.561143
_cell_length_c 6.041979
_cell_angle_alpha 90.000000
_cell_angle_beta 90.000000
_cell_angle_gamma 90.000000
_cell_volume 803.367616
_symmetry_space_group_name_H-M "P 21 21 2"
_symmetry_group_IT_number 18
_symmetry_cell_setting 'orthorhombic'
loop_
_space_group_symop_operation_xyz
x,y,z
-x,-y,z
1/2+x,1/2-y,-z
1/2-x,1/2+y,-z
loop_
_atom_site_type_symbol
_atom_site_label
_atom_site_fract_x
_atom_site_fract_y
_atom_site_fract_z
Si Si1 0.353927 0.720021 0.069138
Si Si2 0.920538 0.051413 0.254341
Si Si3 0.845680 0.328514 0.566234
Si Si4 0.515903 0.814229 0.115236
Si Si5 0.735183 0.062465 0.768267
O O1 0.433442 0.747525 0.193203
O O2 0.295671 0.593692 0.193314
O O3 0.379557 0.619529 0.843898
O O4 0.314063 0.899274 0.987847
O O5 0.864537 0.171490 0.393468
O O6 0.947341 0.169954 0.045218
O O7 0.000000 0.000000 0.371603
O O8 0.924206 0.354967 0.694519
O O9 0.816798 0.498610 0.434184
O O10 0.781387 0.241483 0.719778
O O11 0.500000 0.000000 0.991422
#
# Coordination Sequence:
#
# PCOD9312833 Si02
#       5
#     4   4   4   4   4
#     4  11  25  48  77 103 155 203 243 314 382 452
#     4  10  23  45  72 104 148 192 253 307 368 443
#     4  12  27  45  74 111 146 199 253 312 372 454
#     4  11  26  45  74 105 149 200 253 301 378 450
#     4  12  27  44  79 109 154 194 257 308 390 442
#
# _framework density 24.895202999999999
#
# number of rings (size 3 to 8) (size 9 to 14) (size 15 to 20)
#    0.000    0.800    2.000    3.600    8.400    4.000 
#    0.000    0.000    0.000    0.000    0.000    0.000 
#    0.000    0.000    0.000    0.000    0.000    0.000 
#
# Total GULP energy -112110.261016 kJ/mol
# GULP energy per Si atom -5605.513051 kJ/mol
# Density = 2.483854 g / cm^3
# Si number density = 24.895203 Si / 1000 Ang^3
#
#
#
# Elastic Constant Matrix: (Units=GPa)
#
#
# Indices 1 2 3 4 5 6 
#
# 1 164.8574 37.6636 49.1327 0.0000 0.0000 0.0000
# 2 37.6636 95.1463 14.0352 0.0000 0.0000 0.0000
# 3 49.1327 14.0352 44.7297 0.0000 0.0000 0.0000
# 4 0.0000 0.0000 0.0000 46.8057 0.0000 0.0000
# 5 0.0000 0.0000 0.0000 0.0000 31.9613 0.0000
# 6 0.0000 0.0000 0.0000 0.0000 0.0000 45.4674
#
#
#
# Elastic Compliance Matrix: (Units=1/GPa)
#
#
# Indices 1 2 3 4 5 6 
#
# 1 0.009485 -0.002325 -0.009689 0.000000 0.000000 0.000000
# 2 -0.002325 0.011590 -0.001083 0.000000 0.000000 0.000000
# 3 -0.009689 -0.001083 0.033339 0.000000 0.000000 0.000000
# 4 0.000000 0.000000 0.000000 0.021365 0.000000 0.000000
# 5 0.000000 0.000000 0.000000 0.000000 0.031288 0.000000
# 6 0.000000 0.000000 0.000000 0.000000 0.000000 0.021994
#
#
# Mechanical properties :
#
#
# Convention : Reuss Voigt Hill
#
# Bulk Modulus (GPa) = 35.43529 56.26625 45.85077
# Shear Modulus (GPa) = 30.36564 38.44033 34.40298
#
# Velocity S-wave (km/s) = 3.49626 3.93375 3.72144
# Velocity P-wave (km/s) = 5.52840 6.57897 6.07643
#
# Compressibility (1/GPa) = 0.02822046
#
# Stress axis : x y z
#
# Youngs Moduli (GPa) = 105.43404 86.27910 29.99531
#
# Poissons Ratio (x) = 0.20062 0.29061
# Poissons Ratio (y) = 0.24516 0.03247
# Poissons Ratio (z) = 1.02151 0.09340
#
# Static dielectric constant tensor:
#      x y z
#    x 1.972660 0.000000 0.000000 
#    y 0.000000 1.953340 0.000000 
#    z 0.000000 0.000000 1.957030 
# 
# From -- ./inp_files/1725.got.cif
#   From: 2010.05.17/outbox.cif.g08.bks.cpg/sg18_1_cif.got.tgz:1725.got - 2010.06.03 22:40:56.
