data_PCOD9312058
_publ_section_title
;
Structure prediction by ZEFSAII (Michael W. Deem and Ramdas Pophale) SiO2 
 PCOD9312058
Probable space group: P 21 21 2
;
_chemical_formula_sum "Si O2"
_cell_formula_units_Z 30
_cell_length_a 11.983360
_cell_length_b 5.683209
_cell_length_c 22.910718
_cell_angle_alpha 90.000000
_cell_angle_beta 90.000000
_cell_angle_gamma 90.000000
_cell_volume 1560.310150
_symmetry_space_group_name_H-M "P 21 21 2"
_symmetry_group_IT_number 18
_symmetry_cell_setting 'orthorhombic'
loop_
_space_group_symop_operation_xyz
x,y,z
-x,-y,z
1/2+x,1/2-y,-z
1/2-x,1/2+y,-z
loop_
_atom_site_type_symbol
_atom_site_label
_atom_site_fract_x
_atom_site_fract_y
_atom_site_fract_z
Si Si1 0.321096 0.333487 0.688842
Si Si2 0.174263 0.081365 0.068408
Si Si3 0.624251 0.390269 0.801277
Si Si4 0.500000 0.000000 0.741862
Si Si5 0.613363 0.921754 0.984628
Si Si6 0.626675 0.463944 0.367257
Si Si7 0.387428 0.859952 0.478523
Si Si8 0.208138 0.156028 0.413988
O O1 0.313366 0.490137 0.747096
O O2 0.426379 0.168356 0.701782
O O3 0.205916 0.201118 0.672474
O O4 0.348262 0.489500 0.632715
O O5 0.112765 0.837700 0.046307
O O6 0.185098 0.069509 0.137905
O O7 0.127445 0.347609 0.057138
O O8 0.286962 0.079581 0.030806
O O9 0.500000 0.500000 0.807672
O O10 0.591892 0.127166 0.782380
O O11 0.500000 0.000000 0.016231
O O12 0.500000 0.500000 0.345227
O O13 0.614317 0.350594 0.431806
O O14 0.700793 0.694748 0.377931
O O15 0.377203 0.798450 0.546354
O O16 0.500000 0.000000 0.467179
O O17 0.279771 0.011952 0.461305
#
# Coordination Sequence:
#
# PCOD9312058 Si02
#       8
#     4   4   4   2   4   4   4   4
#     4  10  24  41  63  88 124 155 205 256 315 369
#     4  10  22  35  64  95 128 172 219 260 318 377
#     4  10  21  39  62  89 120 162 208 258 309 368
#     4  10  22  44  62  90 120 160 202 266 312 376
#     4  10  20  37  59  96 134 172 211 264 317 377
#     4  11  22  41  65  84 117 157 200 252 303 378
#     4  11  22  39  62  86 115 152 194 248 308 380
#     4  11  22  41  61  91 117 152 199 247 311 377
#
# _framework density 19.226948
#
# number of rings (size 3 to 8) (size 9 to 14) (size 15 to 20)
#    0.000    1.600    2.667    2.000    4.667    0.000 
#    9.600    1.333    5.867    0.000    0.000    0.000 
#    0.000    0.000    0.000    0.000    0.000    0.000 
#
# Total GULP energy -167246.917456 kJ/mol
# GULP energy per Si atom -5574.897249 kJ/mol
# Density = 1.918319 g / cm^3
# Si number density = 19.226948 Si / 1000 Ang^3
#
#
#
# Elastic Constant Matrix: (Units=GPa)
#
#
# Indices 1 2 3 4 5 6 
#
# 1 48.5738 26.1609 28.9573 0.0000 0.0000 0.0000
# 2 26.1609 98.8882 41.8929 0.0000 0.0000 0.0000
# 3 28.9573 41.8929 119.7374 0.0000 0.0000 0.0000
# 4 0.0000 0.0000 0.0000 17.9186 0.0000 0.0000
# 5 0.0000 0.0000 0.0000 0.0000 -14.0483 0.0000
# 6 0.0000 0.0000 0.0000 0.0000 0.0000 28.2330
#
#
#
# Elastic Compliance Matrix: (Units=1/GPa)
#
#
# Indices 1 2 3 4 5 6 
#
# 1 0.025960 -0.004940 -0.004550 0.000000 0.000000 0.000000
# 2 -0.004940 0.012812 -0.003288 0.000000 0.000000 0.000000
# 3 -0.004550 -0.003288 0.010602 0.000000 0.000000 0.000000
# 4 0.000000 0.000000 0.000000 0.055808 0.000000 0.000000
# 5 0.000000 0.000000 0.000000 0.000000 -0.071183 0.000000
# 6 0.000000 0.000000 0.000000 0.000000 0.000000 0.035420
#
#
# Mechanical properties :
#
#
# Convention : Reuss Voigt Hill
#
# Bulk Modulus (GPa) = 41.98349 51.24683 46.61516
# Shear Modulus (GPa) = 48.58367 17.76654 33.17511
#
# Velocity S-wave (km/s) = 5.03223 3.04311 4.15836
# Velocity P-wave (km/s) = 7.45974 6.24971 6.88137
#
# Compressibility (1/GPa) = 0.02381889
#
# Stress axis : x y z
#
# Youngs Moduli (GPa) = 38.52028 78.05010 94.31951
#
# Poissons Ratio (x) = 0.38560 0.42913
# Poissons Ratio (y) = 0.19030 0.31011
# Poissons Ratio (z) = 0.17526 0.25662
#
# Static dielectric constant tensor:
#      x y z
#    x 1.692200 0.000000 0.000000 
#    y 0.000000 1.782110 0.000000 
#    z 0.000000 0.000000 1.626650 
# 
# From -- ./inp_files/7567.got.cif
#   From: 2010.05.17/outbox.cif.g08.bks.cpg/sg18_4_cif.got.tgz:7567.got - 2010.06.03 22:40:56.
