data_PCOD9312997
_publ_section_title
;
Structure prediction by ZEFSAII (Michael W. Deem and Ramdas Pophale) SiO2 
 PCOD9312997
Probable space group: P 21 21 2
;
_chemical_formula_sum "Si O2"
_cell_formula_units_Z 20
_cell_length_a 18.542172
_cell_length_b 8.119387
_cell_length_c 4.953107
_cell_angle_alpha 90.000000
_cell_angle_beta 90.000000
_cell_angle_gamma 90.000000
_cell_volume 745.695560
_symmetry_space_group_name_H-M "P 21 21 2"
_symmetry_group_IT_number 18
_symmetry_cell_setting 'orthorhombic'
loop_
_space_group_symop_operation_xyz
x,y,z
-x,-y,z
1/2+x,1/2-y,-z
1/2-x,1/2+y,-z
loop_
_atom_site_type_symbol
_atom_site_label
_atom_site_fract_x
_atom_site_fract_y
_atom_site_fract_z
Si Si1 0.375954 0.744754 0.247185
Si Si2 0.919039 0.046954 0.157436
Si Si3 0.831593 0.283726 0.507403
Si Si4 0.469324 0.157050 0.200453
Si Si5 0.706115 0.119093 0.755620
O O1 0.458192 0.778228 0.334288
O O2 0.334152 0.773093 0.524872
O O3 0.386728 0.585016 0.053667
O O4 0.335487 0.866571 0.036917
O O5 0.859635 0.115517 0.364485
O O6 0.938396 0.208387 0.991844
O O7 0.000000 0.000000 0.266155
O O8 0.905130 0.374804 0.594724
O O9 0.782619 0.213366 0.750031
O O10 0.791721 0.427257 0.335711
O O11 0.500000 0.000000 0.044605
#
# Coordination Sequence:
#
# PCOD9312997 Si02
#       5
#     4   4   4   4   4
#     4  11  27  51  78 114 157 209 264 335 388 488
#     4  10  26  45  79 113 160 204 276 328 403 464
#     4  12  28  47  83 116 164 214 263 338 402 492
#     4  11  24  46  76 112 152 212 268 325 393 473
#     4  12  29  50  81 116 165 208 267 324 420 473
#
# _framework density 26.820595999999998
#
# number of rings (size 3 to 8) (size 9 to 14) (size 15 to 20)
#    0.000    0.800    2.000    2.400   14.000    1.600 
#    0.000    0.000    0.000    0.000    0.000    0.000 
#    0.000    0.000    0.000    0.000    0.000    0.000 
#
# Total GULP energy -111860.000043 kJ/mol
# GULP energy per Si atom -5593.000002 kJ/mol
# Density = 2.675955 g / cm^3
# Si number density = 26.820596 Si / 1000 Ang^3
#
#
#
# Elastic Constant Matrix: (Units=GPa)
#
#
# Indices 1 2 3 4 5 6 
#
# 1 122.5210 24.6637 48.2229 0.0000 0.0000 0.0000
# 2 24.6637 118.7575 13.2530 0.0000 0.0000 0.0000
# 3 48.2229 13.2530 78.1714 0.0000 0.0000 0.0000
# 4 0.0000 0.0000 0.0000 59.5062 0.0000 0.0000
# 5 0.0000 0.0000 0.0000 0.0000 4.9992 0.0000
# 6 0.0000 0.0000 0.0000 0.0000 0.0000 56.4325
#
#
#
# Elastic Compliance Matrix: (Units=1/GPa)
#
#
# Indices 1 2 3 4 5 6 
#
# 1 0.011057 -0.001565 -0.006556 0.000000 0.000000 0.000000
# 2 -0.001565 0.008804 -0.000527 0.000000 0.000000 0.000000
# 3 -0.006556 -0.000527 0.016926 0.000000 0.000000 0.000000
# 4 0.000000 0.000000 0.000000 0.016805 0.000000 0.000000
# 5 0.000000 0.000000 0.000000 0.000000 0.200031 0.000000
# 6 0.000000 0.000000 0.000000 0.000000 0.000000 0.017720
#
#
# Mechanical properties :
#
#
# Convention : Reuss Voigt Hill
#
# Bulk Modulus (GPa) = 51.30386 54.63655 52.97021
# Shear Modulus (GPa) = 16.94131 39.74160 28.34146
#
# Velocity S-wave (km/s) = 2.51600 3.85354 3.25423
# Velocity P-wave (km/s) = 5.25456 6.34153 5.82346
#
# Compressibility (1/GPa) = 0.01949171
#
# Stress axis : x y z
#
# Youngs Moduli (GPa) = 90.43955 113.58024 59.08091
#
# Poissons Ratio (x) = 0.17773 0.38732
# Poissons Ratio (y) = 0.14152 0.03116
# Poissons Ratio (z) = 0.59289 0.05990
#
# Static dielectric constant tensor:
#      x y z
#    x 1.747280 0.000000 0.000000 
#    y 0.000000 2.228860 0.000000 
#    z 0.000000 0.000000 2.045340 
# 
# From -- ./inp_files/526.got.cif
#   From: 2010.05.17/outbox.cif.g08.bks.cpg/sg18_1_cif.got.tgz:526.got - 2010.06.03 22:40:56.
