data_PCOD9312427
_publ_section_title
;
Structure prediction by ZEFSAII (Michael W. Deem and Ramdas Pophale) SiO2 
 PCOD9312427
Probable space group: P 21 21 2
;
_chemical_formula_sum "Si O2"
_cell_formula_units_Z 20
_cell_length_a 8.479127
_cell_length_b 8.860967
_cell_length_c 10.810154
_cell_angle_alpha 90.000000
_cell_angle_beta 90.000000
_cell_angle_gamma 90.000000
_cell_volume 812.202160
_symmetry_space_group_name_H-M "P 21 21 2"
_symmetry_group_IT_number 18
_symmetry_cell_setting 'orthorhombic'
loop_
_space_group_symop_operation_xyz
x,y,z
-x,-y,z
1/2+x,1/2-y,-z
1/2-x,1/2+y,-z
loop_
_atom_site_type_symbol
_atom_site_label
_atom_site_fract_x
_atom_site_fract_y
_atom_site_fract_z
Si Si1 0.411596 0.346318 0.151816
Si Si2 0.169367 0.433805 0.645075
Si Si3 0.860153 0.823036 0.265193
Si Si4 0.630159 0.380424 0.469135
Si Si5 0.408361 0.845522 0.970959
O O1 0.500000 0.500000 0.175358
O O2 0.302049 0.277025 0.259622
O O3 0.277822 0.370325 0.045716
O O4 0.536420 0.228708 0.097502
O O5 0.299092 0.504085 0.738415
O O6 0.222165 0.521526 0.518261
O O7 0.166495 0.255807 0.622295
O O8 0.000000 0.500000 0.678388
O O9 0.933267 0.806941 0.400887
O O10 0.947448 0.765251 0.144584
O O11 0.500000 0.500000 0.429597
O O12 0.500000 0.000000 0.953913
#
# Coordination Sequence:
#
# PCOD9312427 Si02
#       5
#     4   4   4   4   4
#     4  10  21  43  67 100 141 185 237 299 362 423
#     4  10  21  43  64  97 135 180 232 285 352 417
#     4   8  24  39  64 105 136 183 236 279 363 428
#     4  10  21  43  69  97 139 183 230 293 354 423
#     4  10  21  42  69  98 142 186 236 300 358 427
#
# _framework density 24.624410999999998
#
# number of rings (size 3 to 8) (size 9 to 14) (size 15 to 20)
#    2.400    0.000    0.000    2.400    0.000    2.400 
#    3.600    2.000    0.000    0.000    0.000    0.000 
#    0.000    0.000    0.000    0.000    0.000    0.000 
#
# Total GULP energy -111642.069396 kJ/mol
# GULP energy per Si atom -5582.103470 kJ/mol
# Density = 2.456837 g / cm^3
# Si number density = 24.624411 Si / 1000 Ang^3
#
#
#
# Elastic Constant Matrix: (Units=GPa)
#
#
# Indices 1 2 3 4 5 6 
#
# 1 55.5212 40.2170 32.1103 0.0000 0.0000 0.0000
# 2 40.2170 186.2507 60.9061 0.0000 0.0000 0.0000
# 3 32.1103 60.9061 103.6415 0.0000 0.0000 0.0000
# 4 0.0000 0.0000 0.0000 5.8139 0.0000 0.0000
# 5 0.0000 0.0000 0.0000 0.0000 20.5129 0.0000
# 6 0.0000 0.0000 0.0000 0.0000 0.0000 47.7484
#
#
#
# Elastic Compliance Matrix: (Units=1/GPa)
#
#
# Indices 1 2 3 4 5 6 
#
# 1 0.023505 -0.003335 -0.005323 0.000000 0.000000 0.000000
# 2 -0.003335 0.007119 -0.003151 0.000000 0.000000 0.000000
# 3 -0.005323 -0.003151 0.013149 0.000000 0.000000 0.000000
# 4 0.000000 0.000000 0.000000 0.172002 0.000000 0.000000
# 5 0.000000 0.000000 0.000000 0.000000 0.048750 0.000000
# 6 0.000000 0.000000 0.000000 0.000000 0.000000 0.020943
#
#
# Mechanical properties :
#
#
# Convention : Reuss Voigt Hill
#
# Bulk Modulus (GPa) = 49.60922 67.98670 58.79796
# Shear Modulus (GPa) = 15.83258 28.96039 22.39649
#
# Velocity S-wave (km/s) = 2.53842 3.43313 3.01910
# Velocity P-wave (km/s) = 5.36484 6.58670 6.00692
#
# Compressibility (1/GPa) = 0.02015754
#
# Stress axis : x y z
#
# Youngs Moduli (GPa) = 42.54409 140.45933 76.05031
#
# Poissons Ratio (x) = 0.46842 0.40478
# Poissons Ratio (y) = 0.14188 0.23961
# Poissons Ratio (z) = 0.22644 0.44254
#
# Static dielectric constant tensor:
#      x y z
#    x 1.994680 0.000000 0.000000 
#    y 0.000000 1.922370 0.000000 
#    z 0.000000 0.000000 1.966820 
# 
# From -- ./inp_files/6614.got.cif
#   From: 2010.05.17/outbox.cif.g08.bks.cpg/sg18_4_cif.got.tgz:6614.got - 2010.06.03 22:40:56.
