data_PCOD9312654
_publ_section_title
;
Structure prediction by ZEFSAII (Michael W. Deem and Ramdas Pophale) SiO2 
 PCOD9312654
Probable space group: P 21 21 2
;
_chemical_formula_sum "Si O2"
_cell_formula_units_Z 20
_cell_length_a 10.030456
_cell_length_b 8.899851
_cell_length_c 9.785777
_cell_angle_alpha 90.000000
_cell_angle_beta 90.000000
_cell_angle_gamma 90.000000
_cell_volume 873.572045
_symmetry_space_group_name_H-M "P 21 21 2"
_symmetry_group_IT_number 18
_symmetry_cell_setting 'orthorhombic'
loop_
_space_group_symop_operation_xyz
x,y,z
-x,-y,z
1/2+x,1/2-y,-z
1/2-x,1/2+y,-z
loop_
_atom_site_type_symbol
_atom_site_label
_atom_site_fract_x
_atom_site_fract_y
_atom_site_fract_z
Si Si1 0.000000 0.000000 0.651780
Si Si2 0.300029 0.744215 0.420041
Si Si3 0.183500 0.656803 0.125936
Si Si4 0.318581 0.249413 0.288503
Si Si5 0.000000 0.500000 0.668102
Si Si6 0.614506 0.196408 0.918755
O O1 0.907892 0.888912 0.565627
O O2 0.098860 0.899437 0.741810
O O3 0.218816 0.701389 0.282602
O O4 0.203351 0.749070 0.548896
O O5 0.390760 0.895593 0.409148
O O6 0.154946 0.480160 0.096186
O O7 0.041914 0.725476 0.080595
O O8 0.304575 0.725647 0.039884
O O9 0.177401 0.237199 0.219428
O O10 0.412262 0.113459 0.244799
#
# Coordination Sequence:
#
# PCOD9312654 Si02
#       6
#     2   4   4   4   2   4
#     4  10  22  42  72  96 140 182 230 282 358 400
#     4  11  24  44  71 103 139 185 233 290 346 413
#     4  11  28  48  71 100 140 185 235 289 349 415
#     4  11  24  44  71 103 139 185 233 290 346 413
#     4  10  26  38  72 104 144 174 238 290 354 408
#     4  11  28  48  71 100 140 185 235 289 349 415
#
# _framework density 22.894507000000001
#
# number of rings (size 3 to 8) (size 9 to 14) (size 15 to 20)
#    0.000    1.200    2.000    1.200   14.000    0.800 
#    0.000    0.000    0.000    0.000    0.000    0.000 
#    0.000    0.000    0.000    0.000    0.000    0.000 
#
# Total GULP energy -111784.334579 kJ/mol
# GULP energy per Si atom -5589.216729 kJ/mol
# Density = 2.284240 g / cm^3
# Si number density = 22.894507 Si / 1000 Ang^3
#
#
#
# Elastic Constant Matrix: (Units=GPa)
#
#
# Indices 1 2 3 4 5 6 
#
# 1 147.3031 17.5694 33.7524 0.0000 0.0000 0.0000
# 2 17.5694 70.2606 -4.4406 0.0000 0.0000 0.0000
# 3 33.7524 -4.4406 119.1370 0.0000 0.0000 0.0000
# 4 0.0000 0.0000 0.0000 0.7241 0.0000 0.0000
# 5 0.0000 0.0000 0.0000 0.0000 17.6522 0.0000
# 6 0.0000 0.0000 0.0000 0.0000 0.0000 41.2442
#
#
#
# Elastic Compliance Matrix: (Units=1/GPa)
#
#
# Indices 1 2 3 4 5 6 
#
# 1 0.007537 -0.002024 -0.002211 0.000000 0.000000 0.000000
# 2 -0.002024 0.014810 0.001126 0.000000 0.000000 0.000000
# 3 -0.002211 0.001126 0.009062 0.000000 0.000000 0.000000
# 4 0.000000 0.000000 0.000000 1.381096 0.000000 0.000000
# 5 0.000000 0.000000 0.000000 0.000000 0.056650 0.000000
# 6 0.000000 0.000000 0.000000 0.000000 0.000000 0.024246
#
#
# Mechanical properties :
#
#
# Convention : Reuss Voigt Hill
#
# Bulk Modulus (GPa) = 39.69865 47.82923 43.76394
# Shear Modulus (GPa) = 3.31561 31.24538 17.28050
#
# Velocity S-wave (km/s) = 1.20472 3.69827 2.75032
# Velocity P-wave (km/s) = 4.39461 6.25881 5.40765
#
# Compressibility (1/GPa) = 0.02518977
#
# Stress axis : x y z
#
# Youngs Moduli (GPa) = 132.68370 67.52158 110.35156
#
# Poissons Ratio (x) = 0.13669 0.24395
# Poissons Ratio (y) = 0.26860 -0.12420
# Poissons Ratio (z) = 0.29332 -0.07600
#
# Static dielectric constant tensor:
#      x y z
#    x 1.944460 0.000000 0.000000 
#    y 0.000000 1.932820 0.000000 
#    z 0.000000 0.000000 1.857650 
# 
# From -- ./inp_files/5435.got.cif
#   From: 2010.05.17/outbox.cif.g08.bks.cpg/sg18_3_cif.got.tgz:5435.got - 2010.06.03 22:40:56.
