data_PCOD9312581
_publ_section_title
;
Structure prediction by ZEFSAII (Michael W. Deem and Ramdas Pophale) SiO2 
 PCOD9312581
Probable space group: P 21 21 2
;
_chemical_formula_sum "Si O2"
_cell_formula_units_Z 28
_cell_length_a 19.234446
_cell_length_b 13.159198
_cell_length_c 5.160862
_cell_angle_alpha 90.000000
_cell_angle_beta 90.000000
_cell_angle_gamma 90.000000
_cell_volume 1306.265179
_symmetry_space_group_name_H-M "P 21 21 2"
_symmetry_group_IT_number 18
_symmetry_cell_setting 'orthorhombic'
loop_
_space_group_symop_operation_xyz
x,y,z
-x,-y,z
1/2+x,1/2-y,-z
1/2-x,1/2+y,-z
loop_
_atom_site_type_symbol
_atom_site_label
_atom_site_fract_x
_atom_site_fract_y
_atom_site_fract_z
Si Si1 0.168361 0.026141 0.779918
Si Si2 0.869655 0.249999 0.250001
Si Si3 0.580031 0.973152 0.781619
Si Si4 0.919969 0.026846 0.281621
Si Si5 0.668362 0.026138 0.279916
Si Si6 0.247782 0.168072 0.428103
Si Si7 0.752217 0.668071 0.071897
O O1 0.112402 0.007547 0.553672
O O2 0.127760 0.019941 0.051723
O O3 0.225088 0.934311 0.785384
O O4 0.208012 0.126875 0.682495
O O5 0.912959 0.351499 0.219571
O O6 0.912958 0.148498 0.280433
O O7 0.816961 0.273632 0.482212
O O8 0.816961 0.226367 0.017789
O O9 0.627760 0.019938 0.551719
O O10 0.500000 0.000000 0.749170
O O11 0.612403 0.007544 0.053668
O O12 0.000000 0.000000 0.249168
O O13 0.708012 0.126874 0.182493
O O14 0.725089 0.934310 0.285384
O O15 0.208483 0.250001 0.250000
#
# Coordination Sequence:
#
# PCOD9312581 Si02
#       7
#     4   4   4   4   4   4   4
#     4  11  24  41  68 102 132 172 226 287 339 397
#     4  10  22  40  68  94 134 184 224 280 350 404
#     4  11  24  45  66  94 137 187 228 271 330 414
#     4  11  24  45  66  94 137 187 228 271 330 414
#     4  11  24  41  68 102 132 172 226 287 339 397
#     4  11  22  41  69 104 135 171 225 289 355 403
#     4  11  22  41  69 104 135 171 225 289 355 403
#
# _framework density 21.435157
#
# number of rings (size 3 to 8) (size 9 to 14) (size 15 to 20)
#    0.000    1.143    2.857    4.286    4.000    0.000 
#    2.571    0.000    0.000    0.000    0.000    0.000 
#    0.000    0.000    0.000    0.000    0.000    0.000 
#
# Total GULP energy -156543.004415 kJ/mol
# GULP energy per Si atom -5590.821586 kJ/mol
# Density = 2.138637 g / cm^3
# Si number density = 21.435157 Si / 1000 Ang^3
#
#
#
# Elastic Constant Matrix: (Units=GPa)
#
#
# Indices 1 2 3 4 5 6 
#
# 1 127.9144 57.6275 39.2476 0.0000 0.0000 0.0000
# 2 57.6275 123.7525 39.9829 0.0000 0.0000 0.0000
# 3 39.2476 39.9829 113.1783 0.0000 0.0000 0.0000
# 4 0.0000 0.0000 0.0000 47.9272 0.0000 0.0000
# 5 0.0000 0.0000 0.0000 0.0000 48.2841 0.0000
# 6 0.0000 0.0000 0.0000 0.0000 0.0000 20.4026
#
#
#
# Elastic Compliance Matrix: (Units=1/GPa)
#
#
# Indices 1 2 3 4 5 6 
#
# 1 0.010327 -0.004122 -0.002125 0.000000 0.000000 0.000000
# 2 -0.004122 0.010767 -0.002374 0.000000 0.000000 0.000000
# 3 -0.002125 -0.002374 0.010411 0.000000 0.000000 0.000000
# 4 0.000000 0.000000 0.000000 0.020865 0.000000 0.000000
# 5 0.000000 0.000000 0.000000 0.000000 0.020711 0.000000
# 6 0.000000 0.000000 0.000000 0.000000 0.000000 0.049013
#
#
# Mechanical properties :
#
#
# Convention : Reuss Voigt Hill
#
# Bulk Modulus (GPa) = 70.11366 70.95126 70.53246
# Shear Modulus (GPa) = 34.70010 38.52192 36.61101
#
# Velocity S-wave (km/s) = 4.02785 4.24386 4.13727
# Velocity P-wave (km/s) = 7.37645 7.56215 7.46988
#
# Compressibility (1/GPa) = 0.01426256
#
# Stress axis : x y z
#
# Youngs Moduli (GPa) = 96.83471 92.87286 96.05029
#
# Poissons Ratio (x) = 0.38286 0.20409
# Poissons Ratio (y) = 0.39919 0.22805
# Poissons Ratio (z) = 0.20575 0.22051
#
# Static dielectric constant tensor:
#      x y z
#    x 1.730390 0.000000 0.000000 
#    y 0.000000 1.797990 0.000000 
#    z 0.000000 0.000000 1.838170 
# 
# From -- ./inp_files/1971.got.cif
#   From: 2010.05.17/outbox.cif.g08.bks.cpg/sg18_1_cif.got.tgz:1971.got - 2010.06.03 22:40:56.
