data_PCOD9312075
_publ_section_title
;
Structure prediction by ZEFSAII (Michael W. Deem and Ramdas Pophale) SiO2 
 PCOD9312075
Probable space group: P 21 21 2
;
_chemical_formula_sum "Si O2"
_cell_formula_units_Z 28
_cell_length_a 20.782780
_cell_length_b 11.915601
_cell_length_c 5.046200
_cell_angle_alpha 90.000000
_cell_angle_beta 90.000000
_cell_angle_gamma 90.000000
_cell_volume 1249.637507
_symmetry_space_group_name_H-M "P 21 21 2"
_symmetry_group_IT_number 18
_symmetry_cell_setting 'orthorhombic'
loop_
_space_group_symop_operation_xyz
x,y,z
-x,-y,z
1/2+x,1/2-y,-z
1/2-x,1/2+y,-z
loop_
_atom_site_type_symbol
_atom_site_label
_atom_site_fract_x
_atom_site_fract_y
_atom_site_fract_z
Si Si1 0.761839 0.285780 0.506512
Si Si2 0.865046 0.756059 0.226312
Si Si3 0.534775 0.749139 0.205692
Si Si4 0.673028 0.687178 0.000029
Si Si5 0.444096 0.579720 0.423729
Si Si6 0.010556 0.374013 0.274170
Si Si7 0.186598 0.055158 0.826213
O O1 0.692338 0.229162 0.568020
O O2 0.796178 0.273929 0.788019
O O3 0.739999 0.405351 0.385107
O O4 0.807689 0.227846 0.291618
O O5 0.914629 0.843669 0.352179
O O6 0.913663 0.651544 0.210808
O O7 0.831353 0.831461 0.994911
O O8 0.598765 0.693325 0.087258
O O9 0.477987 0.656404 0.201089
O O10 0.525380 0.795462 0.505513
O O11 0.521735 0.850188 0.007123
O O12 0.701917 0.560824 0.026477
O O13 0.500000 0.500000 0.523953
O O14 0.380159 0.522956 0.316163
O O15 0.000000 0.500000 0.363201
#
# Coordination Sequence:
#
# PCOD9312075 Si02
#       7
#     4   4   4   4   4   4   4
#     4  11  26  47  62 100 138 183 231 279 327 419
#     4  10  23  44  69  96 138 179 228 282 333 419
#     4  11  23  43  66 102 136 168 220 286 333 406
#     4  12  26  44  71  98 140 176 233 285 340 396
#     4  10  20  37  69 106 134 166 214 280 363 403
#     4  11  24  45  67  97 136 177 222 273 342 408
#     4  11  23  45  72  96 137 182 226 282 355 401
#
# _framework density 22.406497999999999
#
# number of rings (size 3 to 8) (size 9 to 14) (size 15 to 20)
#    0.000    1.143    4.286    1.286    4.000    2.857 
#    7.714    0.000    0.000    0.000    0.000    0.000 
#    0.000    0.000    0.000    0.000    0.000    0.000 
#
# Total GULP energy -155949.002950 kJ/mol
# GULP energy per Si atom -5569.607248 kJ/mol
# Density = 2.235550 g / cm^3
# Si number density = 22.406498 Si / 1000 Ang^3
#
#
#
# Elastic Constant Matrix: (Units=GPa)
#
#
# Indices 1 2 3 4 5 6 
#
# 1 -0.3744 -6.8424 20.8868 0.0000 0.0000 0.0000
# 2 -6.8424 25.7072 -14.6806 0.0000 0.0000 0.0000
# 3 20.8868 -14.6806 79.7666 0.0000 0.0000 0.0000
# 4 0.0000 0.0000 0.0000 17.5295 0.0000 0.0000
# 5 0.0000 0.0000 0.0000 0.0000 1.2934 0.0000
# 6 0.0000 0.0000 0.0000 0.0000 0.0000 7.7477
#
#
#
# Elastic Compliance Matrix: (Units=1/GPa)
#
#
# Indices 1 2 3 4 5 6 
#
# 1 -0.160403 -0.020905 0.038154 0.000000 0.000000 0.000000
# 2 -0.020905 0.040744 0.012973 0.000000 0.000000 0.000000
# 3 0.038154 0.012973 0.004934 0.000000 0.000000 0.000000
# 4 0.000000 0.000000 0.000000 0.057047 0.000000 0.000000
# 5 0.000000 0.000000 0.000000 0.000000 0.773144 0.000000
# 6 0.000000 0.000000 0.000000 0.000000 0.000000 0.129071
#
#
# Mechanical properties :
#
#
# Convention : Reuss Voigt Hill
#
# Bulk Modulus (GPa) = -18.42190 11.53635 -3.44278
# Shear Modulus (GPa) = 6.52742 12.36317 9.44529
#
# Velocity S-wave (km/s) = 1.70866 2.35152 2.05538
# Velocity P-wave (km/s) = 2.08491 3.54016 2.02310
#
# Compressibility (1/GPa) = -0.05428321
#
# Stress axis : x y z
#
# Youngs Moduli (GPa) = -6.23430 24.54369 202.69236
#
# Poissons Ratio (x) = 0.51309 -7.73349
# Poissons Ratio (y) = -0.13033 -2.62946
# Poissons Ratio (z) = 0.23786 -0.31840
#
# Static dielectric constant tensor:
#      x y z
#    x 1.977140 0.000000 0.000000 
#    y 0.000000 1.905700 0.000000 
#    z 0.000000 0.000000 1.860100 
# 
# From -- ./inp_files/1975.got.cif
#   From: 2010.05.17/outbox.cif.g08.bks.cpg/sg18_1_cif.got.tgz:1975.got - 2010.06.03 22:40:56.
