data_PCOD9312126
_publ_section_title
;
Structure prediction by ZEFSAII (Michael W. Deem and Ramdas Pophale) SiO2 
 PCOD9312126
Probable space group: P 21 21 2
;
_chemical_formula_sum "Si O2"
_cell_formula_units_Z 26
_cell_length_a 25.439206
_cell_length_b 8.849604
_cell_length_c 5.354489
_cell_angle_alpha 90.000000
_cell_angle_beta 90.000000
_cell_angle_gamma 90.000000
_cell_volume 1205.439505
_symmetry_space_group_name_H-M "P 21 21 2"
_symmetry_group_IT_number 18
_symmetry_cell_setting 'orthorhombic'
loop_
_space_group_symop_operation_xyz
x,y,z
-x,-y,z
1/2+x,1/2-y,-z
1/2-x,1/2+y,-z
loop_
_atom_site_type_symbol
_atom_site_label
_atom_site_fract_x
_atom_site_fract_y
_atom_site_fract_z
Si Si1 0.000000 0.500000 0.219841
Si Si2 0.827904 0.139194 0.545510
Si Si3 0.907569 0.364916 0.562968
Si Si4 0.825725 0.789656 0.679117
Si Si5 0.085375 0.375793 0.928413
Si Si6 0.675610 0.058449 0.718021
Si Si7 0.223157 0.723799 0.046827
O O1 0.956417 0.418630 0.394214
O O2 0.972052 0.627717 0.047792
O O3 0.889445 0.192227 0.565552
O O4 0.804120 0.181848 0.273392
O O5 0.823739 0.960417 0.588501
O O6 0.799318 0.218576 0.784445
O O7 0.853963 0.436806 0.455894
O O8 0.913590 0.452414 0.823040
O O9 0.801093 0.678597 0.471374
O O10 0.785995 0.769753 0.913507
O O11 0.885804 0.733475 0.730789
O O12 0.126567 0.364233 0.149419
O O13 0.708859 0.952884 0.902175
#
# Coordination Sequence:
#
# PCOD9312126 Si02
#       7
#     2   4   4   4   4   4   4
#     4  10  20  38  74  96 122 172 240 282 348 412
#     4  11  25  42  65 102 141 184 230 287 340 401
#     4   9  19  39  64  94 123 169 226 281 336 412
#     4  11  25  36  65  98 143 173 233 282 344 398
#     4  10  20  39  66  93 125 170 228 283 338 409
#     4   9  20  39  59  90 128 177 223 274 317 411
#     4  11  24  41  64  94 141 195 228 261 335 420
#
# _framework density 21.568898000000001
#
# number of rings (size 3 to 8) (size 9 to 14) (size 15 to 20)
#    0.000    1.846    1.538    1.385    6.462    0.000 
#    0.000    0.000    0.000   22.154    0.000    0.000 
#    0.000    0.000    0.000    0.000    0.000    0.000 
#
# Total GULP energy -144886.288717 kJ/mol
# GULP energy per Si atom -5572.549566 kJ/mol
# Density = 2.151981 g / cm^3
# Si number density = 21.568898 Si / 1000 Ang^3
#
#
#
# Elastic Constant Matrix: (Units=GPa)
#
#
# Indices 1 2 3 4 5 6 
#
# 1 118.4649 32.7264 32.9335 0.0000 0.0000 0.0000
# 2 32.7264 96.4421 11.1193 0.0000 0.0000 0.0000
# 3 32.9335 11.1193 91.1408 0.0000 0.0000 0.0000
# 4 0.0000 0.0000 0.0000 16.7411 0.0000 0.0000
# 5 0.0000 0.0000 0.0000 0.0000 37.9521 0.0000
# 6 0.0000 0.0000 0.0000 0.0000 0.0000 24.1588
#
#
#
# Elastic Compliance Matrix: (Units=1/GPa)
#
#
# Indices 1 2 3 4 5 6 
#
# 1 0.010215 -0.003084 -0.003315 0.000000 0.000000 0.000000
# 2 -0.003084 0.011448 -0.000282 0.000000 0.000000 0.000000
# 3 -0.003315 -0.000282 0.012204 0.000000 0.000000 0.000000
# 4 0.000000 0.000000 0.000000 0.059733 0.000000 0.000000
# 5 0.000000 0.000000 0.000000 0.000000 0.026349 0.000000
# 6 0.000000 0.000000 0.000000 0.000000 0.000000 0.041393
#
#
# Mechanical properties :
#
#
# Convention : Reuss Voigt Hill
#
# Bulk Modulus (GPa) = 48.76915 51.06736 49.91826
# Shear Modulus (GPa) = 27.54223 31.05499 29.29861
#
# Velocity S-wave (km/s) = 3.57731 3.79859 3.68961
# Velocity P-wave (km/s) = 6.30260 6.55491 6.42999
#
# Compressibility (1/GPa) = 0.02050477
#
# Stress axis : x y z
#
# Youngs Moduli (GPa) = 97.89675 87.35150 81.93844
#
# Poissons Ratio (x) = 0.26940 0.27161
# Poissons Ratio (y) = 0.30192 0.02313
# Poissons Ratio (z) = 0.32451 0.02465
#
# Static dielectric constant tensor:
#      x y z
#    x 1.857470 0.000000 0.000000 
#    y 0.000000 1.865110 0.000000 
#    z 0.000000 0.000000 1.835710 
# 
# From -- ./inp_files/655.got.cif
#   From: 2010.05.17/outbox.cif.g08.bks.cpg/sg18_1_cif.got.tgz:655.got - 2010.06.03 22:40:56.
