data_PCOD9312613
_publ_section_title
;
Structure prediction by ZEFSAII (Michael W. Deem and Ramdas Pophale) SiO2 
 PCOD9312613
Probable space group: P 21 21 2
;
_chemical_formula_sum "Si O2"
_cell_formula_units_Z 26
_cell_length_a 11.604603
_cell_length_b 5.555310
_cell_length_c 16.397968
_cell_angle_alpha 90.000000
_cell_angle_beta 90.000000
_cell_angle_gamma 90.000000
_cell_volume 1057.130543
_symmetry_space_group_name_H-M "P 21 21 2"
_symmetry_group_IT_number 18
_symmetry_cell_setting 'orthorhombic'
loop_
_space_group_symop_operation_xyz
x,y,z
-x,-y,z
1/2+x,1/2-y,-z
1/2-x,1/2+y,-z
loop_
_atom_site_type_symbol
_atom_site_label
_atom_site_fract_x
_atom_site_fract_y
_atom_site_fract_z
Si Si1 0.500000 0.500000 0.495051
Si Si2 0.000000 0.500000 0.667171
Si Si3 0.313319 0.330612 0.386515
Si Si4 0.620406 0.534688 0.646333
Si Si5 0.186558 0.185987 0.748706
Si Si6 0.613597 0.377325 0.947229
Si Si7 0.317541 0.370753 0.105791
Si Si8 0.500000 0.000000 0.068620
O O1 0.385159 0.536122 0.437681
O O2 0.567139 0.664123 0.564619
O O3 0.907594 0.376703 0.608935
O O4 0.929036 0.680836 0.723093
O O5 0.189501 0.197714 0.391523
O O6 0.313845 0.427606 0.294927
O O7 0.500000 0.500000 0.693556
O O8 0.709355 0.674132 0.703853
O O9 0.188686 0.114847 0.842745
O O10 0.500000 0.500000 0.912466
O O11 0.671021 0.564782 0.010130
O O12 0.574894 0.160619 0.006432
O O13 0.701983 0.279671 0.881851
O O14 0.424064 0.190668 0.119166
#
# Coordination Sequence:
#
# PCOD9312613 Si02
#       8
#     2   2   4   4   4   4   4   2
#     4  10  22  42  70 102 142 192 244 306 358 444
#     4  10  22  43  62 104 145 168 244 296 367 432
#     4  11  22  41  69 104 137 185 240 295 370 439
#     4   9  25  44  65 102 148 190 239 300 364 445
#     4  11  24  43  71 105 144 193 239 302 374 435
#     4  10  22  42  70 103 142 189 247 300 369 431
#     4  11  23  43  73 104 147 193 242 307 362 436
#     4  10  22  41  70 104 141 182 246 300 357 428
#
# _framework density 24.59488
#
# number of rings (size 3 to 8) (size 9 to 14) (size 15 to 20)
#    0.462    1.231    3.077    0.000    2.154    8.000 
#    0.000    2.308    0.000    1.846    0.000    0.000 
#    0.000    0.000    0.000    0.000    0.000    0.000 
#
# Total GULP energy -144766.815210 kJ/mol
# GULP energy per Si atom -5567.954431 kJ/mol
# Density = 2.453890 g / cm^3
# Si number density = 24.594880 Si / 1000 Ang^3
#
#
#
# Elastic Constant Matrix: (Units=GPa)
#
#
# Indices 1 2 3 4 5 6 
#
# 1 199.1295 48.5028 35.4628 0.0000 0.0000 0.0000
# 2 48.5028 72.3456 17.3633 0.0000 0.0000 0.0000
# 3 35.4628 17.3633 71.3346 0.0000 0.0000 0.0000
# 4 0.0000 0.0000 0.0000 16.5971 0.0000 0.0000
# 5 0.0000 0.0000 0.0000 0.0000 25.1333 0.0000
# 6 0.0000 0.0000 0.0000 0.0000 0.0000 37.6144
#
#
#
# Elastic Compliance Matrix: (Units=1/GPa)
#
#
# Indices 1 2 3 4 5 6 
#
# 1 0.006323 -0.003701 -0.002242 0.000000 0.000000 0.000000
# 2 -0.003701 0.016846 -0.002261 0.000000 0.000000 0.000000
# 3 -0.002242 -0.002261 0.015683 0.000000 0.000000 0.000000
# 4 0.000000 0.000000 0.000000 0.060251 0.000000 0.000000
# 5 0.000000 0.000000 0.000000 0.000000 0.039788 0.000000
# 6 0.000000 0.000000 0.000000 0.000000 0.000000 0.026586
#
#
# Mechanical properties :
#
#
# Convention : Reuss Voigt Hill
#
# Bulk Modulus (GPa) = 44.55410 60.60752 52.58081
# Shear Modulus (GPa) = 26.40386 31.96769 29.18578
#
# Velocity S-wave (km/s) = 3.28006 3.60914 3.44853
# Velocity P-wave (km/s) = 5.70084 6.48565 6.10587
#
# Compressibility (1/GPa) = 0.02244462
#
# Stress axis : x y z
#
# Youngs Moduli (GPa) = 158.16289 59.36059 63.76131
#
# Poissons Ratio (x) = 0.21967 0.14298
# Poissons Ratio (y) = 0.58531 0.14415
# Poissons Ratio (z) = 0.35466 0.13420
#
# Static dielectric constant tensor:
#      x y z
#    x 2.042540 0.000000 0.000000 
#    y 0.000000 2.153470 0.000000 
#    z 0.000000 0.000000 1.993510 
# 
# From -- ./inp_files/7381.got.cif
#   From: 2010.05.17/outbox.cif.g08.bks.cpg/sg18_4_cif.got.tgz:7381.got - 2010.06.03 22:40:56.
