data_PCOD9312073
_publ_section_title
;
Structure prediction by ZEFSAII (Michael W. Deem and Ramdas Pophale) SiO2 
 PCOD9312073
Probable space group: P 21 21 2
;
_chemical_formula_sum "Si O2"
_cell_formula_units_Z 24
_cell_length_a 8.534690
_cell_length_b 13.710247
_cell_length_c 8.618249
_cell_angle_alpha 90.000000
_cell_angle_beta 90.000000
_cell_angle_gamma 90.000000
_cell_volume 1008.444653
_symmetry_space_group_name_H-M "P 21 21 2"
_symmetry_group_IT_number 18
_symmetry_cell_setting 'orthorhombic'
loop_
_space_group_symop_operation_xyz
x,y,z
-x,-y,z
1/2+x,1/2-y,-z
1/2-x,1/2+y,-z
loop_
_atom_site_type_symbol
_atom_site_label
_atom_site_fract_x
_atom_site_fract_y
_atom_site_fract_z
Si Si1 0.371929 0.337727 0.130583
Si Si2 0.131428 0.177397 0.103702
Si Si3 0.058303 0.253379 0.588165
Si Si4 0.130221 0.716014 0.306904
Si Si5 0.685066 0.991901 0.697561
Si Si6 0.155051 0.061526 0.391722
O O1 0.255080 0.259486 0.049183
O O2 0.447536 0.277760 0.272536
O O3 0.276606 0.427477 0.203729
O O4 0.515704 0.368992 0.022209
O O5 0.210415 0.101101 0.223998
O O6 0.004466 0.239680 0.203240
O O7 0.227360 0.288299 0.648995
O O8 0.101263 0.156880 0.488992
O O9 0.958678 0.315531 0.466613
O O10 0.211759 0.618747 0.242747
O O11 0.740343 0.995649 0.517713
O O12 0.500000 0.000000 0.714793
O O13 0.000000 0.000000 0.359468
#
# Coordination Sequence:
#
# PCOD9312073 Si02
#       6
#     4   4   4   4   4   4
#     4  12  23  44  64 101 136 188 228 283 349 429
#     4  11  25  43  65  99 143 183 228 278 360 419
#     4  10  20  37  68  94 135 173 228 280 340 408
#     4  10  21  39  66 102 129 177 228 289 338 407
#     4  11  22  39  72 103 132 175 243 289 343 403
#     4  10  21  43  64 101 132 175 226 286 341 405
#
# _framework density 23.799025
#
# number of rings (size 3 to 8) (size 9 to 14) (size 15 to 20)
#    0.000    1.333    3.333    4.000    0.000    0.000 
#    9.000    1.667    0.000    0.000    0.000    0.000 
#    0.000    0.000    0.000    0.000    0.000    0.000 
#
# Total GULP energy -134067.172245 kJ/mol
# GULP energy per Si atom -5586.132177 kJ/mol
# Density = 2.374486 g / cm^3
# Si number density = 23.799025 Si / 1000 Ang^3
#
#
#
# Elastic Constant Matrix: (Units=GPa)
#
#
# Indices 1 2 3 4 5 6 
#
# 1 114.4790 18.9724 33.1196 0.0000 0.0000 0.0000
# 2 18.9724 54.3106 22.4043 0.0000 0.0000 0.0000
# 3 33.1196 22.4043 83.5384 0.0000 0.0000 0.0000
# 4 0.0000 0.0000 0.0000 29.1028 0.0000 0.0000
# 5 0.0000 0.0000 0.0000 0.0000 42.3080 0.0000
# 6 0.0000 0.0000 0.0000 0.0000 0.0000 31.2581
#
#
#
# Elastic Compliance Matrix: (Units=1/GPa)
#
#
# Indices 1 2 3 4 5 6 
#
# 1 0.010077 -0.002105 -0.003430 0.000000 0.000000 0.000000
# 2 -0.002105 0.021143 -0.004836 0.000000 0.000000 0.000000
# 3 -0.003430 -0.004836 0.014627 0.000000 0.000000 0.000000
# 4 0.000000 0.000000 0.000000 0.034361 0.000000 0.000000
# 5 0.000000 0.000000 0.000000 0.000000 0.023636 0.000000
# 6 0.000000 0.000000 0.000000 0.000000 0.000000 0.031992
#
#
# Mechanical properties :
#
#
# Convention : Reuss Voigt Hill
#
# Bulk Modulus (GPa) = 39.83345 44.59118 42.21231
# Shear Modulus (GPa) = 30.31291 32.38921 31.35106
#
# Velocity S-wave (km/s) = 3.57277 3.69310 3.63344
# Velocity P-wave (km/s) = 5.81320 6.07969 5.94794
#
# Compressibility (1/GPa) = 0.02510453
#
# Stress axis : x y z
#
# Youngs Moduli (GPa) = 99.24069 47.29736 68.36442
#
# Poissons Ratio (x) = 0.09956 0.23452
# Poissons Ratio (y) = 0.20889 0.33060
# Poissons Ratio (z) = 0.34044 0.22872
#
# Static dielectric constant tensor:
#      x y z
#    x 1.923500 0.000000 0.000000 
#    y 0.000000 1.967670 0.000000 
#    z 0.000000 0.000000 1.975310 
# 
# From -- ./inp_files/3141.got.cif
#   From: 2010.05.17/outbox.cif.g08.bks.cpg/sg18_2_cif.got.tgz:3141.got - 2010.06.03 22:40:56.
