data_PCOD9312216
_publ_section_title
;
Structure prediction by ZEFSAII (Michael W. Deem and Ramdas Pophale) SiO2 
 PCOD9312216
Probable space group: P 21 21 2
;
_chemical_formula_sum "Si O2"
_cell_formula_units_Z 16
_cell_length_a 10.829259
_cell_length_b 14.016032
_cell_length_c 4.843031
_cell_angle_alpha 90.000000
_cell_angle_beta 90.000000
_cell_angle_gamma 90.000000
_cell_volume 735.090940
_symmetry_space_group_name_H-M "P 21 21 2"
_symmetry_group_IT_number 18
_symmetry_cell_setting 'orthorhombic'
loop_
_space_group_symop_operation_xyz
x,y,z
-x,-y,z
1/2+x,1/2-y,-z
1/2-x,1/2+y,-z
loop_
_atom_site_type_symbol
_atom_site_label
_atom_site_fract_x
_atom_site_fract_y
_atom_site_fract_z
Si Si1 0.589685 0.714603 0.039315
Si Si2 0.093524 0.586793 0.718115
Si Si3 0.502754 0.389618 0.513657
Si Si4 0.255123 0.137275 0.811287
O O1 0.511315 0.671148 0.790456
O O2 0.716465 0.754725 0.909287
O O3 0.537215 0.813589 0.167298
O O4 0.601731 0.641633 0.292058
O O5 0.141928 0.606892 0.412177
O O6 0.000000 0.500000 0.734130
O O7 0.214157 0.574860 0.916945
O O8 0.500000 0.500000 0.585761
O O9 0.626176 0.371152 0.338589
#
# Coordination Sequence:
#
# PCOD9312216 Si02
#       4
#     4   4   4   4
#     4  10  22  44  61  94 125 171 210 260 309 383
#     4  10  20  42  63  93 127 162 215 263 312 375
#     4  12  24  44  64  94 136 164 212 267 317 383
#     4  10  22  42  60  93 129 161 218 254 315 381
#
# _framework density 21.766013000000001
#
# number of rings (size 3 to 8) (size 9 to 14) (size 15 to 20)
#    1.500    0.000    2.500    3.000    0.000    0.000 
#   13.500    0.000    0.000    0.000    0.000    0.000 
#    0.000    0.000    0.000    0.000    0.000    0.000 
#
# Total GULP energy -89218.607207 kJ/mol
# GULP energy per Si atom -5576.162950 kJ/mol
# Density = 2.171647 g / cm^3
# Si number density = 21.766013 Si / 1000 Ang^3
#
#
#
# Elastic Constant Matrix: (Units=GPa)
#
#
# Indices 1 2 3 4 5 6 
#
# 1 28.6210 8.6250 -8.8001 0.0000 0.0000 0.0000
# 2 8.6250 75.5434 4.7829 0.0000 0.0000 0.0000
# 3 -8.8001 4.7829 107.0090 0.0000 0.0000 0.0000
# 4 0.0000 0.0000 0.0000 -254.9153 0.0000 0.0000
# 5 0.0000 0.0000 0.0000 0.0000 21.5712 0.0000
# 6 0.0000 0.0000 0.0000 0.0000 0.0000 18.7952
#
#
#
# Elastic Compliance Matrix: (Units=1/GPa)
#
#
# Indices 1 2 3 4 5 6 
#
# 1 0.037289 -0.004464 0.003266 0.000000 0.000000 0.000000
# 2 -0.004464 0.013809 -0.000984 0.000000 0.000000 0.000000
# 3 0.003266 -0.000984 0.009658 0.000000 0.000000 0.000000
# 4 0.000000 0.000000 0.000000 -0.003923 0.000000 0.000000
# 5 0.000000 0.000000 0.000000 0.000000 0.046358 0.000000
# 6 0.000000 0.000000 0.000000 0.000000 0.000000 0.053205
#
#
# Mechanical properties :
#
#
# Convention : Reuss Voigt Hill
#
# Bulk Modulus (GPa) = 17.73330 24.48764 21.11047
# Shear Modulus (GPa) = 27.84616 -29.13872 -0.64628
#
# Velocity S-wave (km/s) = 3.58067 -3.66283 -0.54550
# Velocity P-wave (km/s) = 5.02592 2.57169 3.05338
#
# Compressibility (1/GPa) = 0.05639108
#
# Stress axis : x y z
#
# Youngs Moduli (GPa) = 26.81764 72.41431 103.54542
#
# Poissons Ratio (x) = 0.32327 -0.33819
# Poissons Ratio (y) = 0.11972 0.10192
# Poissons Ratio (z) = -0.08759 0.07128
#
# Static dielectric constant tensor:
#      x y z
#    x 1.885400 0.000000 0.000000 
#    y 0.000000 1.789310 0.000000 
#    z 0.000000 0.000000 1.790620 
# 
# From -- ./inp_files/840.got.cif
#   From: 2010.05.17/outbox.cif.g08.bks.cpg/sg18_1_cif.got.tgz:840.got - 2010.06.03 22:40:56.
