data_PCOD9312301
_publ_section_title
;
Structure prediction by ZEFSAII (Michael W. Deem and Ramdas Pophale) SiO2 
 PCOD9312301
Probable space group: P 21 21 2
;
_chemical_formula_sum "Si O2"
_cell_formula_units_Z 24
_cell_length_a 14.856309
_cell_length_b 8.411619
_cell_length_c 9.246369
_cell_angle_alpha 90.000000
_cell_angle_beta 90.000000
_cell_angle_gamma 90.000000
_cell_volume 1155.478152
_symmetry_space_group_name_H-M "P 21 21 2"
_symmetry_group_IT_number 18
_symmetry_cell_setting 'orthorhombic'
loop_
_space_group_symop_operation_xyz
x,y,z
-x,-y,z
1/2+x,1/2-y,-z
1/2-x,1/2+y,-z
loop_
_atom_site_type_symbol
_atom_site_label
_atom_site_fract_x
_atom_site_fract_y
_atom_site_fract_z
Si Si1 0.791637 0.733253 0.308487
Si Si2 0.664003 0.715016 0.826243
Si Si3 0.251114 0.483666 0.053218
Si Si4 0.030190 0.180871 0.128025
Si Si5 0.286945 0.926317 0.389867
Si Si6 0.082232 0.379104 0.866704
O O1 0.738390 0.636915 0.185412
O O2 0.887111 0.775168 0.233033
O O3 0.804283 0.619216 0.445811
O O4 0.737179 0.889907 0.357824
O O5 0.562338 0.775000 0.832104
O O6 0.698222 0.664893 0.669495
O O7 0.737306 0.840587 0.886517
O O8 0.675834 0.563224 0.933714
O O9 0.157812 0.455991 0.969481
O O10 0.051960 0.226303 0.961043
O O11 0.000000 0.000000 0.151098
O O12 0.368872 0.866494 0.288162
O O13 0.000000 0.500000 0.852587
#
# Coordination Sequence:
#
# PCOD9312301 Si02
#       6
#     4   4   4   4   4   4
#     4  11  24  44  63  94 131 174 219 268 325 395
#     4  11  21  39  69  96 129 170 215 273 322 381
#     4  10  21  37  66  94 127 168 213 264 326 382
#     4  11  23  42  67  98 131 164 220 276 321 382
#     4  11  24  43  63  89 132 171 216 263 322 392
#     4  10  21  40  62  93 124 160 213 266 322 382
#
# _framework density 20.770620999999998
#
# number of rings (size 3 to 8) (size 9 to 14) (size 15 to 20)
#    0.000    1.333    3.333    3.000    4.667    0.000 
#    6.000    0.833    0.000    0.000    0.000    0.000 
#    0.000    0.000    0.000    0.000    0.000    0.000 
#
# Total GULP energy -133975.782280 kJ/mol
# GULP energy per Si atom -5582.324262 kJ/mol
# Density = 2.072335 g / cm^3
# Si number density = 20.770621 Si / 1000 Ang^3
#
#
#
# Elastic Constant Matrix: (Units=GPa)
#
#
# Indices 1 2 3 4 5 6 
#
# 1 90.5966 18.9536 42.3790 0.0000 0.0000 0.0000
# 2 18.9536 63.5371 22.9970 0.0000 0.0000 0.0000
# 3 42.3790 22.9970 128.3603 0.0000 0.0000 0.0000
# 4 0.0000 0.0000 0.0000 36.5888 0.0000 0.0000
# 5 0.0000 0.0000 0.0000 0.0000 18.9344 0.0000
# 6 0.0000 0.0000 0.0000 0.0000 0.0000 24.6427
#
#
#
# Elastic Compliance Matrix: (Units=1/GPa)
#
#
# Indices 1 2 3 4 5 6 
#
# 1 0.013435 -0.002569 -0.003975 0.000000 0.000000 0.000000
# 2 -0.002569 0.017321 -0.002255 0.000000 0.000000 0.000000
# 3 -0.003975 -0.002255 0.009507 0.000000 0.000000 0.000000
# 4 0.000000 0.000000 0.000000 0.027331 0.000000 0.000000
# 5 0.000000 0.000000 0.000000 0.000000 0.052814 0.000000
# 6 0.000000 0.000000 0.000000 0.000000 0.000000 0.040580
#
#
# Mechanical properties :
#
#
# Convention : Reuss Voigt Hill
#
# Bulk Modulus (GPa) = 44.12170 50.12812 47.12491
# Shear Modulus (GPa) = 26.86124 29.24415 28.05269
#
# Velocity S-wave (km/s) = 3.60006 3.75635 3.67903
# Velocity P-wave (km/s) = 6.21039 6.55744 6.38628
#
# Compressibility (1/GPa) = 0.02266459
#
# Stress axis : x y z
#
# Youngs Moduli (GPa) = 74.43254 57.73210 105.18441
#
# Poissons Ratio (x) = 0.14831 0.41815
# Poissons Ratio (y) = 0.19121 0.23721
# Poissons Ratio (z) = 0.29590 0.13020
#
# Static dielectric constant tensor:
#      x y z
#    x 1.795840 0.000000 0.000000 
#    y 0.000000 1.820940 0.000000 
#    z 0.000000 0.000000 1.707180 
# 
# From -- ./inp_files/3284.got.cif
#   From: 2010.05.17/outbox.cif.g08.bks.cpg/sg18_2_cif.got.tgz:3284.got - 2010.06.03 22:40:56.
