data_PCOD9312194
_publ_section_title
;
Structure prediction by ZEFSAII (Michael W. Deem and Ramdas Pophale) SiO2 
 PCOD9312194
Probable space group: P 21 21 2
;
_chemical_formula_sum "Si O2"
_cell_formula_units_Z 26
_cell_length_a 9.585374
_cell_length_b 15.287312
_cell_length_c 7.226410
_cell_angle_alpha 90.000000
_cell_angle_beta 90.000000
_cell_angle_gamma 90.000000
_cell_volume 1058.919120
_symmetry_space_group_name_H-M "P 21 21 2"
_symmetry_group_IT_number 18
_symmetry_cell_setting 'orthorhombic'
loop_
_space_group_symop_operation_xyz
x,y,z
-x,-y,z
1/2+x,1/2-y,-z
1/2-x,1/2+y,-z
loop_
_atom_site_type_symbol
_atom_site_label
_atom_site_fract_x
_atom_site_fract_y
_atom_site_fract_z
Si Si1 0.066803 0.630518 0.207650
Si Si2 0.072285 0.205676 0.338555
Si Si3 0.500000 0.500000 0.050766
Si Si4 0.472409 0.861510 0.189063
Si Si5 0.785834 0.415184 0.533953
Si Si6 0.831278 0.076111 0.287494
Si Si7 0.630789 0.323300 0.096529
O O1 0.970213 0.693545 0.331683
O O2 0.133866 0.561762 0.346805
O O3 0.204876 0.683941 0.139483
O O4 0.989641 0.605058 0.021600
O O5 0.934060 0.148381 0.368712
O O6 0.194790 0.173964 0.472325
O O7 0.118640 0.183212 0.127290
O O8 0.572731 0.418800 0.152803
O O9 0.387864 0.454771 0.912911
O O10 0.599195 0.898664 0.308041
O O11 0.325236 0.890996 0.267982
O O12 0.461722 0.755938 0.175274
O O13 0.678480 0.489308 0.591236
#
# Coordination Sequence:
#
# PCOD9312194 Si02
#       7
#     4   4   2   4   4   4   4
#     4  11  24  41  68 106 136 178 245 286 349 426
#     4  10  21  41  72  95 137 191 233 284 359 426
#     4  10  20  40  72 102 132 180 240 282 352 426
#     4  11  24  43  70  99 138 188 227 292 353 416
#     4  12  24  42  68 101 143 181 235 295 352 423
#     4  11  20  43  72  97 138 190 226 285 365 421
#     4  10  20  41  65  97 136 179 230 284 347 417
#
# _framework density 24.553338
#
# number of rings (size 3 to 8) (size 9 to 14) (size 15 to 20)
#    0.000    1.231    6.154    0.462    2.154    0.000 
#    2.769    6.154    3.385    0.000    0.000    0.000 
#    0.000    0.000    0.000    0.000    0.000    0.000 
#
# Total GULP energy -145573.876072 kJ/mol
# GULP energy per Si atom -5598.995234 kJ/mol
# Density = 2.449745 g / cm^3
# Si number density = 24.553338 Si / 1000 Ang^3
#
#
#
# Elastic Constant Matrix: (Units=GPa)
#
#
# Indices 1 2 3 4 5 6 
#
# 1 95.3519 0.3942 7.5767 0.0000 0.0000 0.0000
# 2 0.3942 61.4711 -2.3441 0.0000 0.0000 0.0000
# 3 7.5767 -2.3441 56.2797 0.0000 0.0000 0.0000
# 4 0.0000 0.0000 0.0000 5.8758 0.0000 0.0000
# 5 0.0000 0.0000 0.0000 0.0000 27.9123 0.0000
# 6 0.0000 0.0000 0.0000 0.0000 0.0000 40.1900
#
#
#
# Elastic Compliance Matrix: (Units=1/GPa)
#
#
# Indices 1 2 3 4 5 6 
#
# 1 0.010602 -0.000123 -0.001432 0.000000 0.000000 0.000000
# 2 -0.000123 0.016295 0.000695 0.000000 0.000000 0.000000
# 3 -0.001432 0.000695 0.017990 0.000000 0.000000 0.000000
# 4 0.000000 0.000000 0.000000 0.170188 0.000000 0.000000
# 5 0.000000 0.000000 0.000000 0.000000 0.035827 0.000000
# 6 0.000000 0.000000 0.000000 0.000000 0.000000 0.024882
#
#
# Mechanical properties :
#
#
# Convention : Reuss Voigt Hill
#
# Bulk Modulus (GPa) = 23.16556 24.92849 24.04702
# Shear Modulus (GPa) = 17.12959 28.62734 22.87847
#
# Velocity S-wave (km/s) = 2.64417 3.41827 3.05583
# Velocity P-wave (km/s) = 4.33329 5.07486 4.71867
#
# Compressibility (1/GPa) = 0.04316753
#
# Stress axis : x y z
#
# Youngs Moduli (GPa) = 94.32367 61.36808 55.58587
#
# Poissons Ratio (x) = 0.00752 0.07962
# Poissons Ratio (y) = 0.01157 -0.03864
# Poissons Ratio (z) = 0.13511 -0.04266
#
# Static dielectric constant tensor:
#      x y z
#    x 1.888950 0.000000 0.000000 
#    y 0.000000 1.992260 0.000000 
#    z 0.000000 0.000000 1.955350 
# 
# From -- ./inp_files/3368.got.cif
#   From: 2010.05.17/outbox.cif.g08.bks.cpg/sg18_2_cif.got.tgz:3368.got - 2010.06.03 22:40:56.
