data_PCOD9312685
_publ_section_title
;
Structure prediction by ZEFSAII (Michael W. Deem and Ramdas Pophale) SiO2 
 PCOD9312685
Probable space group: P 21 21 2
;
_chemical_formula_sum "Si O2"
_cell_formula_units_Z 20
_cell_length_a 7.479204
_cell_length_b 5.432358
_cell_length_c 22.824984
_cell_angle_alpha 90.000000
_cell_angle_beta 90.000000
_cell_angle_gamma 90.000000
_cell_volume 927.372565
_symmetry_space_group_name_H-M "P 21 21 2"
_symmetry_group_IT_number 18
_symmetry_cell_setting 'orthorhombic'
loop_
_space_group_symop_operation_xyz
x,y,z
-x,-y,z
1/2+x,1/2-y,-z
1/2-x,1/2+y,-z
loop_
_atom_site_type_symbol
_atom_site_label
_atom_site_fract_x
_atom_site_fract_y
_atom_site_fract_z
Si Si1 0.849748 0.799804 0.930743
Si Si2 0.795779 0.923001 0.532847
Si Si3 0.793841 0.483044 0.333610
Si Si4 0.281501 0.518780 0.725931
Si Si5 0.000000 0.500000 0.034077
Si Si6 0.500000 0.000000 0.175642
O O1 0.919619 0.696221 0.869489
O O2 0.641185 0.860109 0.925762
O O3 0.866211 0.627298 0.987763
O O4 0.000000 0.000000 0.945426
O O5 0.714380 0.151654 0.495817
O O6 0.715998 0.922376 0.597846
O O7 0.000000 0.000000 0.539008
O O8 0.730435 0.758813 0.318519
O O9 0.000000 0.500000 0.316223
O O10 0.719160 0.248511 0.298306
O O11 0.500000 0.500000 0.733301
O O12 0.166812 0.576671 0.783789
#
# Coordination Sequence:
#
# PCOD9312685 Si02
#       6
#     4   4   4   4   2   2
#     4  11  24  42  69 102 135 178 223 284 345 408
#     4  12  25  41  67 102 139 176 229 290 352 421
#     4  10  22  43  69  94 131 182 226 286 350 412
#     4  10  24  44  68  97 138 182 236 286 347 411
#     4  11  22  44  70  98 138 176 225 272 350 428
#     4  11  28  42  68 100 138 180 235 282 336 418
#
# _framework density 21.566306000000001
#
# number of rings (size 3 to 8) (size 9 to 14) (size 15 to 20)
#    0.000    1.200    2.000    3.000    5.600    3.200 
#    1.800    0.000    0.000    0.000    0.000    0.000 
#    0.000    0.000    0.000    0.000    0.000    0.000 
#
# Total GULP energy -111488.162242 kJ/mol
# GULP energy per Si atom -5574.408112 kJ/mol
# Density = 2.151722 g / cm^3
# Si number density = 21.566306 Si / 1000 Ang^3
#
#
#
# Elastic Constant Matrix: (Units=GPa)
#
#
# Indices 1 2 3 4 5 6 
#
# 1 94.2093 27.8510 9.0041 0.0000 0.0000 0.0000
# 2 27.8510 86.3025 37.4554 0.0000 0.0000 0.0000
# 3 9.0041 37.4554 95.3456 0.0000 0.0000 0.0000
# 4 0.0000 0.0000 0.0000 5.5568 0.0000 0.0000
# 5 0.0000 0.0000 0.0000 0.0000 49.0761 0.0000
# 6 0.0000 0.0000 0.0000 0.0000 0.0000 27.9438
#
#
#
# Elastic Compliance Matrix: (Units=1/GPa)
#
#
# Indices 1 2 3 4 5 6 
#
# 1 0.011751 -0.003991 0.000458 0.000000 0.000000 0.000000
# 2 -0.003991 0.015324 -0.005643 0.000000 0.000000 0.000000
# 3 0.000458 -0.005643 0.012662 0.000000 0.000000 0.000000
# 4 0.000000 0.000000 0.000000 0.179960 0.000000 0.000000
# 5 0.000000 0.000000 0.000000 0.000000 0.020377 0.000000
# 6 0.000000 0.000000 0.000000 0.000000 0.000000 0.035786
#
#
# Mechanical properties :
#
#
# Convention : Reuss Voigt Hill
#
# Bulk Modulus (GPa) = 46.76209 47.16427 46.96318
# Shear Modulus (GPa) = 16.59260 29.95180 23.27220
#
# Velocity S-wave (km/s) = 2.77677 3.73074 3.28853
# Velocity P-wave (km/s) = 5.65779 6.36198 6.02019
#
# Compressibility (1/GPa) = 0.02138484
#
# Stress axis : x y z
#
# Youngs Moduli (GPa) = 85.10122 65.25642 78.97842
#
# Poissons Ratio (x) = 0.26043 -0.03618
# Poissons Ratio (y) = 0.33963 0.44568
# Poissons Ratio (z) = -0.03898 0.36824
#
# Static dielectric constant tensor:
#      x y z
#    x 1.628810 0.000000 0.000000 
#    y 0.000000 1.777320 0.000000 
#    z 0.000000 0.000000 1.741030 
# 
# From -- ./inp_files/7288.got.cif
#   From: 2010.05.17/outbox.cif.g08.bks.cpg/sg18_4_cif.got.tgz:7288.got - 2010.06.03 22:40:56.
