data_PCOD9312752
_publ_section_title
;
Structure prediction by ZEFSAII (Michael W. Deem and Ramdas Pophale) SiO2 
 PCOD9312752
Probable space group: P 21 21 2
;
_chemical_formula_sum "Si O2"
_cell_formula_units_Z 16
_cell_length_a 21.920108
_cell_length_b 5.270699
_cell_length_c 5.034817
_cell_angle_alpha 90.000000
_cell_angle_beta 90.000000
_cell_angle_gamma 90.000000
_cell_volume 581.694014
_symmetry_space_group_name_H-M "P 21 21 2"
_symmetry_group_IT_number 18
_symmetry_cell_setting 'orthorhombic'
loop_
_space_group_symop_operation_xyz
x,y,z
-x,-y,z
1/2+x,1/2-y,-z
1/2-x,1/2+y,-z
loop_
_atom_site_type_symbol
_atom_site_label
_atom_site_fract_x
_atom_site_fract_y
_atom_site_fract_z
Si Si1 0.198179 0.204348 0.252069
Si Si2 0.907432 0.548841 0.513151
Si Si3 0.174105 0.703697 0.906198
Si Si4 0.016487 0.741711 0.169847
O O1 0.148427 0.253262 0.480102
O O2 0.270280 0.199557 0.312880
O O3 0.190684 0.463735 0.087113
O O4 0.179517 0.966543 0.066770
O O5 0.887943 0.377970 0.761696
O O6 0.919231 0.321199 0.298143
O O7 0.966549 0.714592 0.415724
O O8 0.000000 0.500000 0.991832
O O9 0.000000 0.000000 0.035466
#
# Coordination Sequence:
#
# PCOD9312752 Si02
#       4
#     4   4   4   4
#     4  10  23  38  59  97 128 159 212 256 309 392
#     4   9  22  40  68  80 132 167 200 264 328 353
#     4  10  23  38  59  97 128 159 212 256 309 392
#     4   8  20  36  62  90 112 162 226 246 302 396
#
# _framework density 27.505868
#
# number of rings (size 3 to 8) (size 9 to 14) (size 15 to 20)
#    1.500    1.000    0.000    0.000    7.000    6.000 
#    0.000    5.000    0.000    0.000    0.000    0.000 
#    0.000    0.000    0.000    0.000    0.000    0.000 
#
# Total GULP energy -89114.985410 kJ/mol
# GULP energy per Si atom -5569.686588 kJ/mol
# Density = 2.744326 g / cm^3
# Si number density = 27.505868 Si / 1000 Ang^3
#
#
#
# Elastic Constant Matrix: (Units=GPa)
#
#
# Indices 1 2 3 4 5 6 
#
# 1 141.6549 24.6940 12.5391 0.0000 0.0000 0.0000
# 2 24.6940 205.2163 26.4739 0.0000 0.0000 0.0000
# 3 12.5391 26.4739 57.0410 0.0000 0.0000 0.0000
# 4 0.0000 0.0000 0.0000 16.6035 0.0000 0.0000
# 5 0.0000 0.0000 0.0000 0.0000 20.8060 0.0000
# 6 0.0000 0.0000 0.0000 0.0000 0.0000 32.1754
#
#
#
# Elastic Compliance Matrix: (Units=1/GPa)
#
#
# Indices 1 2 3 4 5 6 
#
# 1 0.007297 -0.000714 -0.001273 0.000000 0.000000 0.000000
# 2 -0.000714 0.005253 -0.002281 0.000000 0.000000 0.000000
# 3 -0.001273 -0.002281 0.018870 0.000000 0.000000 0.000000
# 4 0.000000 0.000000 0.000000 0.060228 0.000000 0.000000
# 5 0.000000 0.000000 0.000000 0.000000 0.048063 0.000000
# 6 0.000000 0.000000 0.000000 0.000000 0.000000 0.031080
#
#
# Mechanical properties :
#
#
# Convention : Reuss Voigt Hill
#
# Bulk Modulus (GPa) = 43.69856 59.03626 51.36741
# Shear Modulus (GPa) = 26.74464 36.59734 31.67099
#
# Velocity S-wave (km/s) = 3.12160 3.65160 3.39695
# Velocity P-wave (km/s) = 5.37717 6.26806 5.83963
#
# Compressibility (1/GPa) = 0.02288405
#
# Stress axis : x y z
#
# Youngs Moduli (GPa) = 137.05200 190.36443 52.99494
#
# Poissons Ratio (x) = 0.13589 0.06744
# Poissons Ratio (y) = 0.09783 0.12089
# Poissons Ratio (z) = 0.17442 0.43425
#
# Static dielectric constant tensor:
#      x y z
#    x 2.399070 0.000000 0.000000 
#    y 0.000000 2.168810 0.000000 
#    z 0.000000 0.000000 2.201610 
# 
# From -- ./inp_files/2152.got.cif
#   From: 2010.05.17/outbox.cif.g08.bks.cpg/sg18_2_cif.got.tgz:2152.got - 2010.06.03 22:40:56.
