data_PCOD9312181
_publ_section_title
;
Structure prediction by ZEFSAII (Michael W. Deem and Ramdas Pophale) SiO2 
 PCOD9312181
Probable space group: P 21 21 2
;
_chemical_formula_sum "Si O2"
_cell_formula_units_Z 22
_cell_length_a 5.041135
_cell_length_b 24.661012
_cell_length_c 6.673359
_cell_angle_alpha 90.000000
_cell_angle_beta 90.000000
_cell_angle_gamma 90.000000
_cell_volume 829.628592
_symmetry_space_group_name_H-M "P 21 21 2"
_symmetry_group_IT_number 18
_symmetry_cell_setting 'orthorhombic'
loop_
_space_group_symop_operation_xyz
x,y,z
-x,-y,z
1/2+x,1/2-y,-z
1/2-x,1/2+y,-z
loop_
_atom_site_type_symbol
_atom_site_label
_atom_site_fract_x
_atom_site_fract_y
_atom_site_fract_z
Si Si1 0.764317 0.925450 0.480277
Si Si2 0.217505 0.355399 0.449230
Si Si3 0.125188 0.181486 0.029848
Si Si4 0.450271 0.087336 0.891920
Si Si5 0.000000 0.500000 0.809167
Si Si6 0.374274 0.772501 0.257709
O O1 0.522674 0.884514 0.433093
O O2 0.692247 0.943550 0.707318
O O3 0.726145 0.975354 0.332838
O O4 0.023762 0.888738 0.488711
O O5 0.144733 0.370161 0.220634
O O6 0.195232 0.293197 0.519433
O O7 0.220632 0.120562 0.003322
O O8 0.151088 0.210069 0.809780
O O9 0.341338 0.210098 0.172953
O O10 0.844717 0.194692 0.127454
O O11 0.592417 0.047562 0.043234
#
# Coordination Sequence:
#
# PCOD9312181 Si02
#       6
#     4   4   4   4   2   4
#     4  10  25  44  63 100 128 176 219 279 326 402
#     4  10  22  44  63  95 138 160 225 269 331 389
#     4  10  22  39  67  98 136 170 227 259 335 393
#     4  10  25  43  68 103 131 176 227 278 327 406
#     4  12  22  50  70  94 134 184 220 286 338 390
#     4  10  20  40  66 100 131 182 210 270 325 407
#
# _framework density 26.517890999999999
#
# number of rings (size 3 to 8) (size 9 to 14) (size 15 to 20)
#    1.091    0.727    0.000    3.818    2.545    0.727 
#    9.818    0.000    0.000    0.000    0.000    0.000 
#    0.000    0.000    0.000    0.000    0.000    0.000 
#
# Total GULP energy -123148.428480 kJ/mol
# GULP energy per Si atom -5597.655840 kJ/mol
# Density = 2.645753 g / cm^3
# Si number density = 26.517891 Si / 1000 Ang^3
#
#
#
# Elastic Constant Matrix: (Units=GPa)
#
#
# Indices 1 2 3 4 5 6 
#
# 1 139.3922 4.9060 20.8624 0.0000 0.0000 0.0000
# 2 4.9060 68.6337 41.3248 0.0000 0.0000 0.0000
# 3 20.8624 41.3248 114.3720 0.0000 0.0000 0.0000
# 4 0.0000 0.0000 0.0000 63.8960 0.0000 0.0000
# 5 0.0000 0.0000 0.0000 0.0000 10.1062 0.0000
# 6 0.0000 0.0000 0.0000 0.0000 0.0000 23.6535
#
#
#
# Elastic Compliance Matrix: (Units=1/GPa)
#
#
# Indices 1 2 3 4 5 6 
#
# 1 0.007382 0.000362 -0.001477 0.000000 0.000000 0.000000
# 2 0.000362 0.018639 -0.006801 0.000000 0.000000 0.000000
# 3 -0.001477 -0.006801 0.011470 0.000000 0.000000 0.000000
# 4 0.000000 0.000000 0.000000 0.015650 0.000000 0.000000
# 5 0.000000 0.000000 0.000000 0.000000 0.098949 0.000000
# 6 0.000000 0.000000 0.000000 0.000000 0.000000 0.042277
#
#
# Mechanical properties :
#
#
# Convention : Reuss Voigt Hill
#
# Bulk Modulus (GPa) = 46.16990 50.73157 48.45073
# Shear Modulus (GPa) = 22.99697 36.55146 29.77422
#
# Velocity S-wave (km/s) = 2.94806 3.71667 3.35445
# Velocity P-wave (km/s) = 5.38858 6.13113 5.77181
#
# Compressibility (1/GPa) = 0.02165913
#
# Stress axis : x y z
#
# Youngs Moduli (GPa) = 135.45775 53.65116 87.18352
#
# Poissons Ratio (x) = -0.01941 0.12880
# Poissons Ratio (y) = -0.04901 0.59290
# Poissons Ratio (z) = 0.20012 0.36486
#
# Static dielectric constant tensor:
#      x y z
#    x 2.033610 0.000000 0.000000 
#    y 0.000000 2.100360 0.000000 
#    z 0.000000 0.000000 2.138210 
# 
# From -- ./inp_files/328.got.cif
#   From: 2010.05.17/outbox.cif.g08.bks.cpg/sg18_1_cif.got.tgz:328.got - 2010.06.03 22:40:56.
