data_PCOD9312106
_publ_section_title
;
Structure prediction by ZEFSAII (Michael W. Deem and Ramdas Pophale) SiO2 
 PCOD9312106
Probable space group: P 21 21 2
;
_chemical_formula_sum "Si O2"
_cell_formula_units_Z 22
_cell_length_a 13.699774
_cell_length_b 8.946405
_cell_length_c 8.474611
_cell_angle_alpha 90.000000
_cell_angle_beta 90.000000
_cell_angle_gamma 90.000000
_cell_volume 1038.679906
_symmetry_space_group_name_H-M "P 21 21 2"
_symmetry_group_IT_number 18
_symmetry_cell_setting 'orthorhombic'
loop_
_space_group_symop_operation_xyz
x,y,z
-x,-y,z
1/2+x,1/2-y,-z
1/2-x,1/2+y,-z
loop_
_atom_site_type_symbol
_atom_site_label
_atom_site_fract_x
_atom_site_fract_y
_atom_site_fract_z
Si Si1 0.405284 0.317553 0.433092
Si Si2 0.212807 0.333225 0.244630
Si Si3 0.411037 0.111781 0.738172
Si Si4 0.000000 0.000000 0.812579
Si Si5 0.391152 0.549233 0.691770
Si Si6 0.337282 0.369655 0.960171
O O1 0.307433 0.278576 0.340133
O O2 0.425486 0.202250 0.574154
O O3 0.489424 0.357106 0.306017
O O4 0.382063 0.473798 0.522575
O O5 0.182191 0.502632 0.279294
O O6 0.126040 0.223218 0.293171
O O7 0.244132 0.324191 0.062075
O O8 0.391045 0.226994 0.881611
O O9 0.500000 0.000000 0.771843
O O10 0.907055 0.030976 0.924940
O O11 0.500000 0.500000 0.744091
O O12 0.315110 0.472242 0.809863
#
# Coordination Sequence:
#
# PCOD9312106 Si02
#       6
#     4   4   4   2   4   4
#     4  10  22  39  63  93 122 168 212 251 319 377
#     4  11  22  39  63  91 131 157 214 268 311 370
#     4  11  24  41  63  97 128 164 210 272 317 365
#     4  10  20  38  64  88 120 160 214 256 294 394
#     4  11  20  38  67  87 120 173 213 249 317 390
#     4  10  22  39  63  93 122 168 212 251 319 377
#
# _framework density 21.180731000000002
#
# number of rings (size 3 to 8) (size 9 to 14) (size 15 to 20)
#    0.000    1.455    1.818    4.364    0.000    0.000 
#    0.000    3.636    8.000    0.000    0.000    0.000 
#    0.000    0.000    0.000    0.000    0.000    0.000 
#
# Total GULP energy -122642.710351 kJ/mol
# GULP energy per Si atom -5574.668652 kJ/mol
# Density = 2.113252 g / cm^3
# Si number density = 21.180731 Si / 1000 Ang^3
#
#
#
# Elastic Constant Matrix: (Units=GPa)
#
#
# Indices 1 2 3 4 5 6 
#
# 1 55.6833 31.3989 13.9394 0.0000 0.0000 0.0000
# 2 31.3989 103.6205 23.5114 0.0000 0.0000 0.0000
# 3 13.9394 23.5114 80.4329 0.0000 0.0000 0.0000
# 4 0.0000 0.0000 0.0000 24.5291 0.0000 0.0000
# 5 0.0000 0.0000 0.0000 0.0000 23.8613 0.0000
# 6 0.0000 0.0000 0.0000 0.0000 0.0000 29.2306
#
#
#
# Elastic Compliance Matrix: (Units=1/GPa)
#
#
# Indices 1 2 3 4 5 6 
#
# 1 0.021954 -0.006200 -0.001992 0.000000 0.000000 0.000000
# 2 -0.006200 0.012087 -0.002459 0.000000 0.000000 0.000000
# 3 -0.001992 -0.002459 0.013497 0.000000 0.000000 0.000000
# 4 0.000000 0.000000 0.000000 0.040768 0.000000 0.000000
# 5 0.000000 0.000000 0.000000 0.000000 0.041909 0.000000
# 6 0.000000 0.000000 0.000000 0.000000 0.000000 0.034211
#
#
# Mechanical properties :
#
#
# Convention : Reuss Voigt Hill
#
# Bulk Modulus (GPa) = 38.11685 41.93736 40.02710
# Shear Modulus (GPa) = 25.71054 26.91668 26.31361
#
# Velocity S-wave (km/s) = 3.48784 3.56871 3.52850
# Velocity P-wave (km/s) = 5.85278 6.06825 5.96149
#
# Compressibility (1/GPa) = 0.02623512
#
# Stress axis : x y z
#
# Youngs Moduli (GPa) = 45.55038 82.73148 74.09226
#
# Poissons Ratio (x) = 0.51296 0.14761
# Poissons Ratio (y) = 0.28243 0.18217
# Poissons Ratio (z) = 0.09075 0.20341
#
# Static dielectric constant tensor:
#      x y z
#    x 1.837430 0.000000 0.000000 
#    y 0.000000 1.790860 0.000000 
#    z 0.000000 0.000000 1.769890 
# 
# From -- ./inp_files/3109.got.cif
#   From: 2010.05.17/outbox.cif.g08.bks.cpg/sg18_2_cif.got.tgz:3109.got - 2010.06.03 22:40:56.
