data_PCOD9312551
_publ_section_title
;
Structure prediction by ZEFSAII (Michael W. Deem and Ramdas Pophale) SiO2 
 PCOD9312551
Probable space group: P 21 21 2
;
_chemical_formula_sum "Si O2"
_cell_formula_units_Z 24
_cell_length_a 19.140857
_cell_length_b 9.103764
_cell_length_c 5.573761
_cell_angle_alpha 90.000000
_cell_angle_beta 90.000000
_cell_angle_gamma 90.000000
_cell_volume 971.249285
_symmetry_space_group_name_H-M "P 21 21 2"
_symmetry_group_IT_number 18
_symmetry_cell_setting 'orthorhombic'
loop_
_space_group_symop_operation_xyz
x,y,z
-x,-y,z
1/2+x,1/2-y,-z
1/2-x,1/2+y,-z
loop_
_atom_site_type_symbol
_atom_site_label
_atom_site_fract_x
_atom_site_fract_y
_atom_site_fract_z
Si Si1 0.284960 0.496425 0.033659
Si Si2 0.252165 0.229845 0.319171
Si Si3 0.572095 0.090552 0.397521
Si Si4 0.634819 0.688275 0.670703
Si Si5 0.582773 0.972747 0.900234
Si Si6 0.384497 0.599411 0.409466
O O1 0.245376 0.632045 0.920397
O O2 0.303628 0.389475 0.817630
O O3 0.248918 0.399175 0.236360
O O4 0.357587 0.551954 0.147987
O O5 0.324519 0.222379 0.464409
O O6 0.185778 0.170734 0.468165
O O7 0.562225 0.266251 0.391528
O O8 0.500000 0.000000 0.401608
O O9 0.604840 0.054884 0.656253
O O10 0.610378 0.040340 0.151331
O O11 0.595302 0.801023 0.843348
O O12 0.595346 0.548811 0.551631
O O13 0.500000 0.000000 0.916729
#
# Coordination Sequence:
#
# PCOD9312551 Si02
#       6
#     4   4   4   4   4   4
#     4  10  22  40  62  93 143 180 232 278 354 428
#     4  10  22  40  60 102 134 186 224 282 352 432
#     4  10  24  46  72 100 135 180 243 298 352 416
#     4  10  23  42  66  99 142 184 233 292 359 428
#     4  10  24  46  72 100 135 180 243 298 352 416
#     4  10  23  42  66  99 142 184 233 292 359 428
#
# _framework density 24.710445
#
# number of rings (size 3 to 8) (size 9 to 14) (size 15 to 20)
#    0.000    2.000    0.000    1.000    9.333    6.667 
#    3.000    3.333    0.000    0.000    0.000    0.000 
#    0.000    0.000    0.000    0.000    0.000    0.000 
#
# Total GULP energy -134096.446593 kJ/mol
# GULP energy per Si atom -5587.351941 kJ/mol
# Density = 2.465420 g / cm^3
# Si number density = 24.710445 Si / 1000 Ang^3
#
#
#
# Elastic Constant Matrix: (Units=GPa)
#
#
# Indices 1 2 3 4 5 6 
#
# 1 49.2674 17.6467 -11.4068 0.0000 0.0000 0.0000
# 2 17.6467 106.5521 2.6321 0.0000 0.0000 0.0000
# 3 -11.4068 2.6321 113.7227 0.0000 0.0000 0.0000
# 4 0.0000 0.0000 0.0000 48.7228 0.0000 0.0000
# 5 0.0000 0.0000 0.0000 0.0000 9.1931 0.0000
# 6 0.0000 0.0000 0.0000 0.0000 0.0000 51.1199
#
#
#
# Elastic Compliance Matrix: (Units=1/GPa)
#
#
# Indices 1 2 3 4 5 6 
#
# 1 0.022168 -0.003728 0.002310 0.000000 0.000000 0.000000
# 2 -0.003728 0.010018 -0.000606 0.000000 0.000000 0.000000
# 3 0.002310 -0.000606 0.009039 0.000000 0.000000 0.000000
# 4 0.000000 0.000000 0.000000 0.020524 0.000000 0.000000
# 5 0.000000 0.000000 0.000000 0.000000 0.108777 0.000000
# 6 0.000000 0.000000 0.000000 0.000000 0.000000 0.019562
#
#
# Mechanical properties :
#
#
# Convention : Reuss Voigt Hill
#
# Bulk Modulus (GPa) = 26.89952 31.92067 29.41009
# Shear Modulus (GPa) = 24.20980 39.18519 31.69750
#
# Velocity S-wave (km/s) = 3.13348 3.98650 3.58545
# Velocity P-wave (km/s) = 4.89909 5.84256 5.39150
#
# Compressibility (1/GPa) = 0.03717539
#
# Stress axis : x y z
#
# Youngs Moduli (GPa) = 45.11083 99.82507 110.63140
#
# Poissons Ratio (x) = 0.37218 -0.25554
# Poissons Ratio (y) = 0.16819 0.06702
# Poissons Ratio (z) = -0.10420 0.06048
#
# Static dielectric constant tensor:
#      x y z
#    x 2.668120 0.000000 0.000000 
#    y 0.000000 2.000400 0.000000 
#    z 0.000000 0.000000 1.990910 
# 
# From -- ./inp_files/2072.got.cif
#   From: 2010.05.17/outbox.cif.g08.bks.cpg/sg18_2_cif.got.tgz:2072.got - 2010.06.03 22:40:56.
