data_PCOD9312788
_publ_section_title
;
Structure prediction by ZEFSAII (Michael W. Deem and Ramdas Pophale) SiO2 
 PCOD9312788
Probable space group: P 21 21 2
;
_chemical_formula_sum "Si O2"
_cell_formula_units_Z 18
_cell_length_a 10.992453
_cell_length_b 8.479171
_cell_length_c 8.063403
_cell_angle_alpha 90.000000
_cell_angle_beta 90.000000
_cell_angle_gamma 90.000000
_cell_volume 751.564706
_symmetry_space_group_name_H-M "P 21 21 2"
_symmetry_group_IT_number 18
_symmetry_cell_setting 'orthorhombic'
loop_
_space_group_symop_operation_xyz
x,y,z
-x,-y,z
1/2+x,1/2-y,-z
1/2-x,1/2+y,-z
loop_
_atom_site_type_symbol
_atom_site_label
_atom_site_fract_x
_atom_site_fract_y
_atom_site_fract_z
Si Si1 0.244706 0.555559 0.868451
Si Si2 0.500000 0.000000 0.924339
Si Si3 0.652911 0.364381 0.202816
Si Si4 0.909025 0.209844 0.670052
Si Si5 0.606154 0.726128 0.709622
O O1 0.190620 0.660972 0.720150
O O2 0.342329 0.426404 0.807050
O O3 0.123580 0.498351 0.967333
O O4 0.312646 0.652696 0.011403
O O5 0.483468 0.157239 0.809360
O O6 0.540629 0.255619 0.252392
O O7 0.626316 0.546476 0.241667
O O8 0.769768 0.324448 0.310262
O O9 0.932601 0.186016 0.475739
#
# Coordination Sequence:
#
# PCOD9312788 Si02
#       5
#     4   2   4   4   4
#     4  11  23  45  72  98 135 182 226 274 334 409
#     4  10  24  44  70 102 136 176 224 278 340 406
#     4  10  23  43  66  99 136 178 224 276 338 401
#     4  11  24  44  68  99 137 176 226 282 335 396
#     4  11  24  44  71 101 134 177 226 281 337 396
#
# _framework density 23.950035
#
# number of rings (size 3 to 8) (size 9 to 14) (size 15 to 20)
#    0.000    1.333    0.000    5.333    0.000    9.778 
#    0.000   28.889    0.000    0.000    0.000    0.000 
#    0.000    0.000    0.000    0.000    0.000    0.000 
#
# Total GULP energy -100661.821121 kJ/mol
# GULP energy per Si atom -5592.323396 kJ/mol
# Density = 2.389552 g / cm^3
# Si number density = 23.950035 Si / 1000 Ang^3
#
#
#
# Elastic Constant Matrix: (Units=GPa)
#
#
# Indices 1 2 3 4 5 6 
#
# 1 80.3109 19.2868 32.6206 0.0000 0.0000 0.0000
# 2 19.2868 87.4874 41.8773 0.0000 0.0000 0.0000
# 3 32.6206 41.8773 143.7371 0.0000 0.0000 0.0000
# 4 0.0000 0.0000 0.0000 9.8847 0.0000 0.0000
# 5 0.0000 0.0000 0.0000 0.0000 28.4878 0.0000
# 6 0.0000 0.0000 0.0000 0.0000 0.0000 49.2905
#
#
#
# Elastic Compliance Matrix: (Units=1/GPa)
#
#
# Indices 1 2 3 4 5 6 
#
# 1 0.013959 -0.001814 -0.002640 0.000000 0.000000 0.000000
# 2 -0.001814 0.013518 -0.003527 0.000000 0.000000 0.000000
# 3 -0.002640 -0.003527 0.008584 0.000000 0.000000 0.000000
# 4 0.000000 0.000000 0.000000 0.101166 0.000000 0.000000
# 5 0.000000 0.000000 0.000000 0.000000 0.035103 0.000000
# 6 0.000000 0.000000 0.000000 0.000000 0.000000 0.020288
#
#
# Mechanical properties :
#
#
# Convention : Reuss Voigt Hill
#
# Bulk Modulus (GPa) = 49.74937 55.45607 52.60272
# Shear Modulus (GPa) = 23.22566 32.04931 27.63749
#
# Velocity S-wave (km/s) = 3.11747 3.66207 3.40069
# Velocity P-wave (km/s) = 5.81166 6.40985 6.11807
#
# Compressibility (1/GPa) = 0.02010076
#
# Stress axis : x y z
#
# Youngs Moduli (GPa) = 71.63659 73.97392 116.49971
#
# Poissons Ratio (x) = 0.13418 0.30751
# Poissons Ratio (y) = 0.12994 0.41088
# Poissons Ratio (z) = 0.18909 0.26089
#
# Static dielectric constant tensor:
#      x y z
#    x 1.930750 0.000000 0.000000 
#    y 0.000000 1.982350 0.000000 
#    z 0.000000 0.000000 1.900670 
# 
# From -- ./inp_files/3618.got.cif
#   From: 2010.05.17/outbox.cif.g08.bks.cpg/sg18_2_cif.got.tgz:3618.got - 2010.06.03 22:40:56.
