data_PCOD9312880
_publ_section_title
;
Structure prediction by ZEFSAII (Michael W. Deem and Ramdas Pophale) SiO2 
 PCOD9312880
Probable space group: P 21 21 2
;
_chemical_formula_sum "Si O2"
_cell_formula_units_Z 24
_cell_length_a 13.225522
_cell_length_b 9.114036
_cell_length_c 9.312325
_cell_angle_alpha 90.000000
_cell_angle_beta 90.000000
_cell_angle_gamma 90.000000
_cell_volume 1122.487947
_symmetry_space_group_name_H-M "P 21 21 2"
_symmetry_group_IT_number 18
_symmetry_cell_setting 'orthorhombic'
loop_
_space_group_symop_operation_xyz
x,y,z
-x,-y,z
1/2+x,1/2-y,-z
1/2-x,1/2+y,-z
loop_
_atom_site_type_symbol
_atom_site_label
_atom_site_fract_x
_atom_site_fract_y
_atom_site_fract_z
Si Si1 0.000000 0.500000 0.322040
Si Si2 0.487268 0.304763 0.559810
Si Si3 0.682460 0.125151 0.868004
Si Si4 0.714400 0.652121 0.668297
Si Si5 0.322017 0.640729 0.103220
Si Si6 0.226349 0.176331 0.382084
Si Si7 0.500000 0.500000 0.291621
O O1 0.027371 0.632484 0.425758
O O2 0.091888 0.451304 0.219663
O O3 0.406942 0.365159 0.675229
O O4 0.604466 0.331299 0.595473
O O5 0.465182 0.375217 0.405320
O O6 0.746790 0.214832 0.749818
O O7 0.749516 0.996140 0.938561
O O8 0.644547 0.252975 0.974223
O O9 0.759242 0.748553 0.795172
O O10 0.734096 0.747779 0.525635
O O11 0.760430 0.490033 0.647860
O O12 0.413208 0.570189 0.193698
#
# Coordination Sequence:
#
# PCOD9312880 Si02
#       7
#     2   4   4   4   4   4   2
#     4  10  24  42  70 102 134 182 236 288 344 420
#     4  11  21  40  69  98 141 169 238 290 343 415
#     4  11  25  47  66 101 138 190 230 280 350 428
#     4  12  21  41  69 100 137 180 228 293 345 413
#     4  12  26  46  70  98 147 184 236 286 357 422
#     4  11  23  39  68 103 134 179 233 284 346 412
#     4  12  24  46  66 112 138 180 234 300 362 406
#
# _framework density 21.381076
#
# number of rings (size 3 to 8) (size 9 to 14) (size 15 to 20)
#    0.000    0.667    5.000    3.000    2.333    1.333 
#    6.000    2.500    0.000    0.000    0.000    0.000 
#    0.000    0.000    0.000    0.000    0.000    0.000 
#
# Total GULP energy -134046.433102 kJ/mol
# GULP energy per Si atom -5585.268046 kJ/mol
# Density = 2.133241 g / cm^3
# Si number density = 21.381076 Si / 1000 Ang^3
#
#
#
# Elastic Constant Matrix: (Units=GPa)
#
#
# Indices 1 2 3 4 5 6 
#
# 1 82.7691 30.0201 12.5639 0.0000 0.0000 0.0000
# 2 30.0201 184.3491 42.7496 0.0000 0.0000 0.0000
# 3 12.5639 42.7496 69.2865 0.0000 0.0000 0.0000
# 4 0.0000 0.0000 0.0000 50.9336 0.0000 0.0000
# 5 0.0000 0.0000 0.0000 0.0000 12.5107 0.0000
# 6 0.0000 0.0000 0.0000 0.0000 0.0000 25.4231
#
#
#
# Elastic Compliance Matrix: (Units=1/GPa)
#
#
# Indices 1 2 3 4 5 6 
#
# 1 0.012928 -0.001822 -0.001220 0.000000 0.000000 0.000000
# 2 -0.001822 0.006587 -0.003734 0.000000 0.000000 0.000000
# 3 -0.001220 -0.003734 0.016958 0.000000 0.000000 0.000000
# 4 0.000000 0.000000 0.000000 0.019633 0.000000 0.000000
# 5 0.000000 0.000000 0.000000 0.000000 0.079931 0.000000
# 6 0.000000 0.000000 0.000000 0.000000 0.000000 0.039334
#
#
# Mechanical properties :
#
#
# Convention : Reuss Voigt Hill
#
# Bulk Modulus (GPa) = 43.62849 56.34131 49.98490
# Shear Modulus (GPa) = 25.43702 34.51158 29.97430
#
# Velocity S-wave (km/s) = 3.45294 4.02197 3.74827
# Velocity P-wave (km/s) = 6.02881 6.92651 6.49319
#
# Compressibility (1/GPa) = 0.02292080
#
# Stress axis : x y z
#
# Youngs Moduli (GPa) = 77.35189 151.81211 58.97007
#
# Poissons Ratio (x) = 0.27665 0.07194
# Poissons Ratio (y) = 0.14096 0.22018
# Poissons Ratio (z) = 0.09436 0.56683
#
# Static dielectric constant tensor:
#      x y z
#    x 1.834590 0.000000 0.000000 
#    y 0.000000 1.845510 0.000000 
#    z 0.000000 0.000000 1.760490 
# 
# From -- ./inp_files/3189.got.cif
#   From: 2010.05.17/outbox.cif.g08.bks.cpg/sg18_2_cif.got.tgz:3189.got - 2010.06.03 22:40:56.
