data_PCOD9312091
_publ_section_title
;
Structure prediction by ZEFSAII (Michael W. Deem and Ramdas Pophale) SiO2 
 PCOD9312091
Probable space group: P 21 21 2
;
_chemical_formula_sum "Si O2"
_cell_formula_units_Z 32
_cell_length_a 12.603995
_cell_length_b 8.104532
_cell_length_c 14.477914
_cell_angle_alpha 90.000000
_cell_angle_beta 90.000000
_cell_angle_gamma 90.000000
_cell_volume 1478.911398
_symmetry_space_group_name_H-M "P 21 21 2"
_symmetry_group_IT_number 18
_symmetry_cell_setting 'orthorhombic'
loop_
_space_group_symop_operation_xyz
x,y,z
-x,-y,z
1/2+x,1/2-y,-z
1/2-x,1/2+y,-z
loop_
_atom_site_type_symbol
_atom_site_label
_atom_site_fract_x
_atom_site_fract_y
_atom_site_fract_z
Si Si1 0.893361 0.207713 0.760200
Si Si2 0.264712 0.669276 0.612671
Si Si3 0.624775 0.317338 0.284009
Si Si4 0.011708 0.198887 0.314529
Si Si5 0.203505 0.783451 0.419294
Si Si6 0.591401 0.103622 0.861189
Si Si7 0.238964 0.674405 0.125586
Si Si8 0.194767 0.847334 0.949459
O O1 0.798356 0.294002 0.706312
O O2 0.878753 0.230621 0.870198
O O3 0.007207 0.255542 0.719015
O O4 0.883498 0.010725 0.742119
O O5 0.384801 0.734277 0.622791
O O6 0.201233 0.746519 0.527486
O O7 0.275598 0.475934 0.595953
O O8 0.693708 0.304845 0.375698
O O9 0.692090 0.234061 0.201237
O O10 0.904839 0.258709 0.365155
O O11 0.040149 0.283660 0.216930
O O12 0.000000 0.000000 0.302594
O O13 0.337639 0.047317 0.820037
O O14 0.681220 0.189220 0.922888
O O15 0.500000 0.000000 0.913235
O O16 0.308843 0.544577 0.065505
O O17 0.178045 0.787359 0.052888
#
# Coordination Sequence:
#
# PCOD9312091 Si02
#       8
#     4   4   4   4   4   4   4   4
#     4  10  21  40  65  84 132 163 207 255 320 372
#     4  11  23  43  60  96 124 163 207 262 319 382
#     4  10  21  40  61  91 119 172 206 255 314 380
#     4  10  22  42  65  90 125 166 216 266 316 379
#     4  11  25  39  66  91 126 163 213 258 319 377
#     4  10  20  38  61  90 124 162 217 259 318 372
#     4   9  20  38  60  88 128 157 214 253 316 375
#     4   9  20  38  59  91 121 166 205 263 310 376
#
# _framework density 21.637536999999998
#
# number of rings (size 3 to 8) (size 9 to 14) (size 15 to 20)
#    0.750    1.250    1.250    1.500    1.750    3.500 
#    2.250    0.000    0.000    0.000    0.000    0.000 
#    0.000    0.000    0.000    0.000    0.000    0.000 
#
# Total GULP energy -178357.921206 kJ/mol
# GULP energy per Si atom -5573.685038 kJ/mol
# Density = 2.158829 g / cm^3
# Si number density = 21.637537 Si / 1000 Ang^3
#
#
#
# Elastic Constant Matrix: (Units=GPa)
#
#
# Indices 1 2 3 4 5 6 
#
# 1 100.4802 4.7180 -2.5915 0.0000 0.0000 0.0000
# 2 4.7180 20.0053 10.6996 0.0000 0.0000 0.0000
# 3 -2.5915 10.6996 53.1791 0.0000 0.0000 0.0000
# 4 0.0000 0.0000 0.0000 32.3803 0.0000 0.0000
# 5 0.0000 0.0000 0.0000 0.0000 28.3025 0.0000
# 6 0.0000 0.0000 0.0000 0.0000 0.0000 14.9618
#
#
#
# Elastic Compliance Matrix: (Units=1/GPa)
#
#
# Indices 1 2 3 4 5 6 
#
# 1 0.010120 -0.002970 0.001091 0.000000 0.000000 0.000000
# 2 -0.002970 0.056886 -0.011590 0.000000 0.000000 0.000000
# 3 0.001091 -0.011590 0.021189 0.000000 0.000000 0.000000
# 4 0.000000 0.000000 0.000000 0.030883 0.000000 0.000000
# 5 0.000000 0.000000 0.000000 0.000000 0.035333 0.000000
# 6 0.000000 0.000000 0.000000 0.000000 0.000000 0.066837
#
#
# Mechanical properties :
#
#
# Convention : Reuss Voigt Hill
#
# Bulk Modulus (GPa) = 16.32480 22.14629 19.23554
# Shear Modulus (GPa) = 18.61466 25.85148 22.23307
#
# Velocity S-wave (km/s) = 2.93626 3.46027 3.20898
# Velocity P-wave (km/s) = 4.36538 5.12074 4.75807
#
# Compressibility (1/GPa) = 0.06125650
#
# Stress axis : x y z
#
# Youngs Moduli (GPa) = 98.81622 17.57900 47.19325
#
# Poissons Ratio (x) = 0.05221 -0.05147
# Poissons Ratio (y) = 0.29348 0.54698
# Poissons Ratio (z) = -0.10778 0.20374
#
# Static dielectric constant tensor:
#      x y z
#    x 1.865160 0.000000 0.000000 
#    y 0.000000 1.806460 0.000000 
#    z 0.000000 0.000000 1.783700 
# 
# From -- ./inp_files/6937.got.cif
#   From: 2010.05.17/outbox.cif.g08.bks.cpg/sg18_4_cif.got.tgz:6937.got - 2010.06.03 22:40:56.
