data_PCOD9312197
_publ_section_title
;
Structure prediction by ZEFSAII (Michael W. Deem and Ramdas Pophale) SiO2 
 PCOD9312197
Probable space group: P 21 21 2
;
_chemical_formula_sum "Si O2"
_cell_formula_units_Z 30
_cell_length_a 5.000759
_cell_length_b 12.384136
_cell_length_c 22.268831
_cell_angle_alpha 90.000000
_cell_angle_beta 90.000000
_cell_angle_gamma 90.000000
_cell_volume 1379.110476
_symmetry_space_group_name_H-M "P 21 21 2"
_symmetry_group_IT_number 18
_symmetry_cell_setting 'orthorhombic'
loop_
_space_group_symop_operation_xyz
x,y,z
-x,-y,z
1/2+x,1/2-y,-z
1/2-x,1/2+y,-z
loop_
_atom_site_type_symbol
_atom_site_label
_atom_site_fract_x
_atom_site_fract_y
_atom_site_fract_z
Si Si1 0.493727 0.764082 0.787939
Si Si2 0.659702 0.181863 0.357159
Si Si3 0.403914 0.756794 0.919759
Si Si4 0.057640 0.678656 0.513396
Si Si5 0.988437 0.617412 0.766653
Si Si6 0.408245 0.876948 0.043907
Si Si7 0.000000 0.500000 0.424913
Si Si8 0.163430 0.324719 0.335689
O O1 0.441572 0.806831 0.854260
O O2 0.280293 0.669336 0.772118
O O3 0.445693 0.843847 0.731833
O O4 0.780300 0.706097 0.790255
O O5 0.549433 0.143641 0.421249
O O6 0.624158 0.101963 0.301497
O O7 0.955183 0.232509 0.359576
O O8 0.460338 0.278015 0.337150
O O9 0.618251 0.660857 0.932825
O O10 0.117311 0.700347 0.922672
O O11 0.426026 0.842010 0.973800
O O12 0.301740 0.761831 0.515893
O O13 0.147750 0.581488 0.470260
O O14 0.000000 0.500000 0.796402
O O15 0.500000 0.000000 0.051240
O O16 0.163309 0.425615 0.379653
#
# Coordination Sequence:
#
# PCOD9312197 Si02
#       8
#     4   4   4   4   4   4   2   4
#     4  10  21  38  56  83 118 154 189 244 280 345
#     4  10  20  41  53  78 115 144 179 243 294 337
#     4  10  21  37  59  86 122 156 197 235 296 334
#     4  12  24  40  61  88 115 148 195 248 290 358
#     4  10  21  34  57  80 113 151 193 239 297 346
#     4  10  21  37  59  89 121 158 190 247 282 339
#     4  12  24  40  66  88 114 158 198 236 304 352
#     4  10  22  39  60  79 114 148 188 235 288 337
#
# _framework density 21.753149000000001
#
# number of rings (size 3 to 8) (size 9 to 14) (size 15 to 20)
#    0.000    1.600    2.667    1.600    0.933    5.333 
#    1.200    0.000    0.000    0.000    0.000    0.000 
#    0.000    0.000    0.000    0.000    0.000    0.000 
#
# Total GULP energy -167465.278708 kJ/mol
# GULP energy per Si atom -5582.175957 kJ/mol
# Density = 2.170364 g / cm^3
# Si number density = 21.753149 Si / 1000 Ang^3
#
#
#
# Elastic Constant Matrix: (Units=GPa)
#
#
# Indices 1 2 3 4 5 6 
#
# 1 83.6001 -6.7795 -9.2232 0.0000 0.0000 0.0000
# 2 -6.7795 38.8694 8.3453 0.0000 0.0000 0.0000
# 3 -9.2232 8.3453 159.1592 0.0000 0.0000 0.0000
# 4 0.0000 0.0000 0.0000 4.5371 0.0000 0.0000
# 5 0.0000 0.0000 0.0000 0.0000 25.4775 0.0000
# 6 0.0000 0.0000 0.0000 0.0000 0.0000 7.0779
#
#
#
# Elastic Compliance Matrix: (Units=1/GPa)
#
#
# Indices 1 2 3 4 5 6 
#
# 1 0.012190 0.001997 0.000602 0.000000 0.000000 0.000000
# 2 0.001997 0.026347 -0.001266 0.000000 0.000000 0.000000
# 3 0.000602 -0.001266 0.006384 0.000000 0.000000 0.000000
# 4 0.000000 0.000000 0.000000 0.220403 0.000000 0.000000
# 5 0.000000 0.000000 0.000000 0.000000 0.039250 0.000000
# 6 0.000000 0.000000 0.000000 0.000000 0.000000 0.141284
#
#
# Mechanical properties :
#
#
# Convention : Reuss Voigt Hill
#
# Bulk Modulus (GPa) = 21.01400 29.59044 25.30222
# Shear Modulus (GPa) = 10.89192 26.70426 18.79809
#
# Velocity S-wave (km/s) = 2.24007 3.50752 2.94284
# Velocity P-wave (km/s) = 4.04620 5.48051 4.81704
#
# Compressibility (1/GPa) = 0.04758733
#
# Stress axis : x y z
#
# Youngs Moduli (GPa) = 82.03419 37.95465 156.63535
#
# Poissons Ratio (x) = -0.07579 -0.09425
# Poissons Ratio (y) = -0.16382 0.19826
# Poissons Ratio (z) = -0.04936 0.04804
#
# Static dielectric constant tensor:
#      x y z
#    x 1.751630 0.000000 0.000000 
#    y 0.000000 1.789170 0.000000 
#    z 0.000000 0.000000 1.889440 
# 
# From -- ./inp_files/7510.got.cif
#   From: 2010.05.17/outbox.cif.g08.bks.cpg/sg18_4_cif.got.tgz:7510.got - 2010.06.03 22:40:56.
