data_PCOD9312959
_publ_section_title
;
Structure prediction by ZEFSAII (Michael W. Deem and Ramdas Pophale) SiO2 
 PCOD9312959
Probable space group: P 21 21 2
;
_chemical_formula_sum "Si O2"
_cell_formula_units_Z 12
_cell_length_a 9.775372
_cell_length_b 9.524474
_cell_length_c 4.899449
_cell_angle_alpha 90.000000
_cell_angle_beta 90.000000
_cell_angle_gamma 90.000000
_cell_volume 456.164554
_symmetry_space_group_name_H-M "P 21 21 2"
_symmetry_group_IT_number 18
_symmetry_cell_setting 'orthorhombic'
loop_
_space_group_symop_operation_xyz
x,y,z
-x,-y,z
1/2+x,1/2-y,-z
1/2-x,1/2+y,-z
loop_
_atom_site_type_symbol
_atom_site_label
_atom_site_fract_x
_atom_site_fract_y
_atom_site_fract_z
Si Si1 0.250321 0.366055 0.440917
Si Si2 0.000000 0.500000 0.705260
Si Si3 0.127325 0.246598 0.928252
Si Si4 0.500000 0.500000 0.732531
O O1 0.135184 0.481080 0.524639
O O2 0.231862 0.326667 0.129135
O O3 0.397186 0.412962 0.541482
O O4 0.197220 0.237860 0.633414
O O5 0.003761 0.358525 0.884209
O O6 0.081105 0.106471 0.072055
#
# Coordination Sequence:
#
# PCOD9312959 Si02
#       4
#     4   2   4   2
#     4  10  25  44  73 105 147 187 242 300 369 432
#     4   8  22  44  74  96 162 176 250 288 394 400
#     4  10  25  44  73 105 147 187 242 300 369 432
#     4  12  28  46  84 110 144 198 256 298 372 446
#
# _framework density 26.306294000000001
#
# number of rings (size 3 to 8) (size 9 to 14) (size 15 to 20)
#    2.000    0.000    0.000    1.000    4.667   13.333 
#    0.000    0.000    0.000    0.000    0.000    0.000 
#    0.000    0.000    0.000    0.000    0.000    0.000 
#
# Total GULP energy -67232.860481 kJ/mol
# GULP energy per Si atom -5602.738373 kJ/mol
# Density = 2.624642 g / cm^3
# Si number density = 26.306294 Si / 1000 Ang^3
#
#
#
# Elastic Constant Matrix: (Units=GPa)
#
#
# Indices 1 2 3 4 5 6 
#
# 1 107.9881 29.4868 2.9927 0.0000 0.0000 0.0000
# 2 29.4868 112.4223 15.8771 0.0000 0.0000 0.0000
# 3 2.9927 15.8771 86.7327 0.0000 0.0000 0.0000
# 4 0.0000 0.0000 0.0000 23.3625 0.0000 0.0000
# 5 0.0000 0.0000 0.0000 0.0000 16.9408 0.0000
# 6 0.0000 0.0000 0.0000 0.0000 0.0000 51.6951
#
#
#
# Elastic Compliance Matrix: (Units=1/GPa)
#
#
# Indices 1 2 3 4 5 6 
#
# 1 0.009976 -0.002636 0.000138 0.000000 0.000000 0.000000
# 2 -0.002636 0.009828 -0.001708 0.000000 0.000000 0.000000
# 3 0.000138 -0.001708 0.011838 0.000000 0.000000 0.000000
# 4 0.000000 0.000000 0.000000 0.042804 0.000000 0.000000
# 5 0.000000 0.000000 0.000000 0.000000 0.059029 0.000000
# 6 0.000000 0.000000 0.000000 0.000000 0.000000 0.019344
#
#
# Mechanical properties :
#
#
# Convention : Reuss Voigt Hill
#
# Bulk Modulus (GPa) = 43.04829 44.87292 43.96061
# Shear Modulus (GPa) = 29.59047 35.65213 32.62130
#
# Velocity S-wave (km/s) = 3.35751 3.68539 3.52526
# Velocity P-wave (km/s) = 5.60627 5.93333 5.77212
#
# Compressibility (1/GPa) = 0.02322972
#
# Stress axis : x y z
#
# Youngs Moduli (GPa) = 100.23790 101.75339 84.47677
#
# Poissons Ratio (x) = 0.26824 -0.01169
# Poissons Ratio (y) = 0.26424 0.14429
# Poissons Ratio (z) = -0.01387 0.17380
#
# Static dielectric constant tensor:
#      x y z
#    x 2.053650 0.000000 0.000000 
#    y 0.000000 2.067560 0.000000 
#    z 0.000000 0.000000 1.980410 
# 
# From -- ./inp_files/361.got.cif
#   From: 2010.05.17/outbox.cif.g08.bks.cpg/sg18_1_cif.got.tgz:361.got - 2010.06.03 22:40:56.
