data_PCOD9312916
_publ_section_title
;
Structure prediction by ZEFSAII (Michael W. Deem and Ramdas Pophale) SiO2 
 PCOD9312916
Probable space group: P 21 21 2
;
_chemical_formula_sum "Si O2"
_cell_formula_units_Z 28
_cell_length_a 12.648203
_cell_length_b 19.233616
_cell_length_c 5.087815
_cell_angle_alpha 90.000000
_cell_angle_beta 90.000000
_cell_angle_gamma 90.000000
_cell_volume 1237.716213
_symmetry_space_group_name_H-M "P 21 21 2"
_symmetry_group_IT_number 18
_symmetry_cell_setting 'orthorhombic'
loop_
_space_group_symop_operation_xyz
x,y,z
-x,-y,z
1/2+x,1/2-y,-z
1/2-x,1/2+y,-z
loop_
_atom_site_type_symbol
_atom_site_label
_atom_site_fract_x
_atom_site_fract_y
_atom_site_fract_z
Si Si1 0.398859 0.458869 0.461951
Si Si2 0.394260 0.759583 0.953225
Si Si3 0.901740 0.185101 0.263417
Si Si4 0.878499 0.482797 0.987151
Si Si5 0.230477 0.386340 0.079506
Si Si6 0.725422 0.932562 0.486404
Si Si7 0.272303 0.720527 0.465447
O O1 0.500000 0.500000 0.342336
O O2 0.437723 0.391043 0.627242
O O3 0.309387 0.422725 0.283012
O O4 0.330619 0.522712 0.581765
O O5 0.508046 0.728598 0.882269
O O6 0.370563 0.838541 0.852521
O O7 0.316829 0.717999 0.759108
O O8 0.359210 0.750351 0.256948
O O9 0.835558 0.234309 0.461594
O O10 0.808698 0.164840 0.066747
O O11 0.815747 0.552524 0.902161
O O12 0.844066 0.468668 0.285664
O O13 0.000000 0.500000 0.971944
O O14 0.842217 0.425634 0.778967
O O15 0.753280 0.858682 0.609056
#
# Coordination Sequence:
#
# PCOD9312916 Si02
#       7
#     4   4   4   4   4   4   4
#     4  11  23  42  72 100 142 185 233 293 355 417
#     4  11  25  42  74  96 145 182 233 282 363 409
#     4  11  24  44  70 103 141 189 232 293 355 420
#     4  11  24  44  70  97 138 183 232 285 354 407
#     4  10  24  46  64 106 139 183 235 297 340 433
#     4  11  24  44  67 104 136 178 239 292 336 428
#     4  11  25  46  66 105 140 178 237 289 343 433
#
# _framework density 22.622309999999999
#
# number of rings (size 3 to 8) (size 9 to 14) (size 15 to 20)
#    0.000    1.143    2.857    2.143    6.000    0.571 
#    5.143    0.000    0.000    0.000    0.000    0.000 
#    0.000    0.000    0.000    0.000    0.000    0.000 
#
# Total GULP energy -156035.325577 kJ/mol
# GULP energy per Si atom -5572.690199 kJ/mol
# Density = 2.257082 g / cm^3
# Si number density = 22.622310 Si / 1000 Ang^3
#
#
#
# Elastic Constant Matrix: (Units=GPa)
#
#
# Indices 1 2 3 4 5 6 
#
# 1 66.4704 44.5056 14.9793 0.0000 0.0000 0.0000
# 2 44.5056 72.5162 6.5763 0.0000 0.0000 0.0000
# 3 14.9793 6.5763 46.0581 0.0000 0.0000 0.0000
# 4 0.0000 0.0000 0.0000 31.1251 0.0000 0.0000
# 5 0.0000 0.0000 0.0000 0.0000 11.1475 0.0000
# 6 0.0000 0.0000 0.0000 0.0000 0.0000 45.9181
#
#
#
# Elastic Compliance Matrix: (Units=1/GPa)
#
#
# Indices 1 2 3 4 5 6 
#
# 1 0.027381 -0.016207 -0.006591 0.000000 0.000000 0.000000
# 2 -0.016207 0.023564 0.001906 0.000000 0.000000 0.000000
# 3 -0.006591 0.001906 0.023583 0.000000 0.000000 0.000000
# 4 0.000000 0.000000 0.000000 0.032128 0.000000 0.000000
# 5 0.000000 0.000000 0.000000 0.000000 0.089707 0.000000
# 6 0.000000 0.000000 0.000000 0.000000 0.000000 0.021778
#
#
# Mechanical properties :
#
#
# Convention : Reuss Voigt Hill
#
# Bulk Modulus (GPa) = 30.53902 35.24079 32.88991
# Shear Modulus (GPa) = 18.46116 25.57036 22.01576
#
# Velocity S-wave (km/s) = 2.85978 3.36566 3.12298
# Velocity P-wave (km/s) = 4.94300 5.54214 5.25112
#
# Compressibility (1/GPa) = 0.03274499
#
# Stress axis : x y z
#
# Youngs Moduli (GPa) = 36.52163 42.43780 42.40330
#
# Poissons Ratio (x) = 0.68779 0.27948
# Poissons Ratio (y) = 0.59190 -0.08084
# Poissons Ratio (z) = 0.24071 -0.08090
#
# Static dielectric constant tensor:
#      x y z
#    x 1.848130 0.000000 0.000000 
#    y 0.000000 2.043030 0.000000 
#    z 0.000000 0.000000 1.916060 
# 
# From -- ./inp_files/1215.got.cif
#   From: 2010.05.17/outbox.cif.g08.bks.cpg/sg18_1_cif.got.tgz:1215.got - 2010.06.03 22:40:56.
