data_PCOD9312159
_publ_section_title
;
Structure prediction by ZEFSAII (Michael W. Deem and Ramdas Pophale) SiO2 
 PCOD9312159
Probable space group: P 21 21 2
;
_chemical_formula_sum "Si O2"
_cell_formula_units_Z 30
_cell_length_a 25.249832
_cell_length_b 9.179216
_cell_length_c 5.946418
_cell_angle_alpha 90.000000
_cell_angle_beta 90.000000
_cell_angle_gamma 90.000000
_cell_volume 1378.223075
_symmetry_space_group_name_H-M "P 21 21 2"
_symmetry_group_IT_number 18
_symmetry_cell_setting 'orthorhombic'
loop_
_space_group_symop_operation_xyz
x,y,z
-x,-y,z
1/2+x,1/2-y,-z
1/2-x,1/2+y,-z
loop_
_atom_site_type_symbol
_atom_site_label
_atom_site_fract_x
_atom_site_fract_y
_atom_site_fract_z
Si Si1 0.419914 0.803254 0.650708
Si Si2 0.871308 0.261652 0.246177
Si Si3 0.910827 0.504959 0.953347
Si Si4 0.830764 0.499800 0.571807
Si Si5 0.500000 0.000000 0.404636
Si Si6 0.201368 0.884663 0.862006
Si Si7 0.127751 0.019082 0.473299
Si Si8 0.766593 0.904535 0.223663
O O1 0.472764 0.878519 0.556693
O O2 0.414994 0.646407 0.535810
O O3 0.419683 0.842058 0.917407
O O4 0.366441 0.884751 0.560391
O O5 0.910046 0.378987 0.138093
O O6 0.840814 0.349546 0.440386
O O7 0.897256 0.122734 0.359336
O O8 0.832357 0.198267 0.056169
O O9 0.855267 0.502619 0.822389
O O10 0.952647 0.461003 0.764387
O O11 0.768468 0.507194 0.611040
O O12 0.241123 0.756551 0.779043
O O13 0.159334 0.959412 0.691305
O O14 0.232824 0.017149 0.981025
O O15 0.174093 0.086321 0.314731
#
# Coordination Sequence:
#
# PCOD9312159 Si02
#       8
#     4   4   4   4   2   4   4   4
#     4  10  24  39  67  96 124 163 216 275 341 394
#     4  10  20  40  60  88 120 173 209 265 326 382
#     4  10  20  40  68  90 120 157 213 267 336 396
#     4  10  21  37  63  87 125 174 218 266 317 388
#     4  10  22  42  68  98 118 156 210 280 338 410
#     4  11  25  39  57  88 132 177 222 268 314 374
#     4  11  25  38  59  92 134 169 218 271 321 393
#     4  11  25  35  60  88 131 177 228 261 316 382
#
# _framework density 21.767157000000001
#
# number of rings (size 3 to 8) (size 9 to 14) (size 15 to 20)
#    0.000    1.600    2.667    0.400    7.467    3.200 
#    0.000    0.000    0.000   32.800    0.000    0.000 
#    0.000    0.000    0.000    0.000    0.000    0.000 
#
# Total GULP energy -167295.468088 kJ/mol
# GULP energy per Si atom -5576.515603 kJ/mol
# Density = 2.171761 g / cm^3
# Si number density = 21.767157 Si / 1000 Ang^3
#
#
#
# Elastic Constant Matrix: (Units=GPa)
#
#
# Indices 1 2 3 4 5 6 
#
# 1 20.5275 -18.4833 -9.7262 0.0000 0.0000 0.0000
# 2 -18.4833 86.7555 23.6449 0.0000 0.0000 0.0000
# 3 -9.7262 23.6449 79.3292 0.0000 0.0000 0.0000
# 4 0.0000 0.0000 0.0000 21.9854 0.0000 0.0000
# 5 0.0000 0.0000 0.0000 0.0000 29.7501 0.0000
# 6 0.0000 0.0000 0.0000 0.0000 0.0000 21.6919
#
#
#
# Elastic Compliance Matrix: (Units=1/GPa)
#
#
# Indices 1 2 3 4 5 6 
#
# 1 0.061395 0.012004 0.003949 0.000000 0.000000 0.000000
# 2 0.012004 0.014893 -0.002967 0.000000 0.000000 0.000000
# 3 0.003949 -0.002967 0.013974 0.000000 0.000000 0.000000
# 4 0.000000 0.000000 0.000000 0.045485 0.000000 0.000000
# 5 0.000000 0.000000 0.000000 0.000000 0.033613 0.000000
# 6 0.000000 0.000000 0.000000 0.000000 0.000000 0.046100
#
#
# Mechanical properties :
#
#
# Convention : Reuss Voigt Hill
#
# Bulk Modulus (GPa) = 8.60332 19.72033 14.16182
# Shear Modulus (GPa) = 21.90746 27.43061 24.66903
#
# Velocity S-wave (km/s) = 3.17589 3.55376 3.37013
# Velocity P-wave (km/s) = 4.17246 5.09100 4.65444
#
# Compressibility (1/GPa) = 0.11623426
#
# Stress axis : x y z
#
# Youngs Moduli (GPa) = 16.28798 67.14662 71.55975
#
# Poissons Ratio (x) = -0.80602 -0.28262
# Poissons Ratio (y) = -0.19552 0.21233
# Poissons Ratio (z) = -0.06433 0.19924
#
# Static dielectric constant tensor:
#      x y z
#    x 1.811550 0.000000 0.000000 
#    y 0.000000 1.854450 0.000000 
#    z 0.000000 0.000000 1.858740 
# 
# From -- ./inp_files/2290.got.cif
#   From: 2010.05.17/outbox.cif.g08.bks.cpg/sg18_2_cif.got.tgz:2290.got - 2010.06.03 22:40:56.
