data_PCOD9312680
_publ_section_title
;
Structure prediction by ZEFSAII (Michael W. Deem and Ramdas Pophale) SiO2 
 PCOD9312680
Probable space group: P 21 21 2
;
_chemical_formula_sum "Si O2"
_cell_formula_units_Z 26
_cell_length_a 12.512723
_cell_length_b 8.378882
_cell_length_c 12.185730
_cell_angle_alpha 90.000000
_cell_angle_beta 90.000000
_cell_angle_gamma 90.000000
_cell_volume 1277.583976
_symmetry_space_group_name_H-M "P 21 21 2"
_symmetry_group_IT_number 18
_symmetry_cell_setting 'orthorhombic'
loop_
_space_group_symop_operation_xyz
x,y,z
-x,-y,z
1/2+x,1/2-y,-z
1/2-x,1/2+y,-z
loop_
_atom_site_type_symbol
_atom_site_label
_atom_site_fract_x
_atom_site_fract_y
_atom_site_fract_z
Si Si1 0.606489 0.606995 0.141309
Si Si2 0.266542 0.027447 0.694402
Si Si3 0.902314 0.110197 0.532792
Si Si4 0.930665 0.163818 0.105743
Si Si5 0.405107 0.117762 0.320948
Si Si6 0.791348 0.114647 0.315061
Si Si7 0.000000 0.500000 0.210768
O O1 0.500000 0.500000 0.147279
O O2 0.705921 0.507832 0.190454
O O3 0.596224 0.752205 0.225223
O O4 0.614971 0.669689 0.017463
O O5 0.246530 0.209730 0.659673
O O6 0.391499 0.993767 0.716295
O O7 0.206375 0.927421 0.600320
O O8 0.926733 0.291223 0.565071
O O9 0.882000 0.084331 0.405320
O O10 0.000000 0.000000 0.571771
O O11 0.839165 0.133176 0.194670
O O12 0.987339 0.332747 0.141098
O O13 0.000000 0.000000 0.110344
O O14 0.500000 0.000000 0.297165
O O15 0.295539 0.021781 0.323654
#
# Coordination Sequence:
#
# PCOD9312680 Si02
#       7
#     4   4   4   4   4   4   2
#     4  10  22  43  68  95 132 174 217 281 337 392
#     4  10  22  45  65  95 134 173 218 283 338 403
#     4  11  23  43  66  94 134 175 220 282 337 397
#     4  10  24  43  66  98 133 177 219 279 334 405
#     4  11  23  39  65  97 125 170 226 274 329 407
#     4  11  23  41  62  99 129 174 223 271 341 407
#     4  10  24  44  66 100 138 176 228 270 346 408
#
# _framework density 20.350915000000001
#
# number of rings (size 3 to 8) (size 9 to 14) (size 15 to 20)
#    0.000    1.538    0.000    5.077    5.385    2.462 
#   23.538    0.000    0.000    0.000    0.000    0.000 
#    0.000    0.000    0.000    0.000    0.000    0.000 
#
# Total GULP energy -145151.257256 kJ/mol
# GULP energy per Si atom -5582.740664 kJ/mol
# Density = 2.030459 g / cm^3
# Si number density = 20.350915 Si / 1000 Ang^3
#
#
#
# Elastic Constant Matrix: (Units=GPa)
#
#
# Indices 1 2 3 4 5 6 
#
# 1 88.8628 35.4300 35.6578 0.0000 0.0000 0.0000
# 2 35.4300 109.2374 18.8539 0.0000 0.0000 0.0000
# 3 35.6578 18.8539 90.2437 0.0000 0.0000 0.0000
# 4 0.0000 0.0000 0.0000 -85.0907 0.0000 0.0000
# 5 0.0000 0.0000 0.0000 0.0000 30.0943 0.0000
# 6 0.0000 0.0000 0.0000 0.0000 0.0000 20.1927
#
#
#
# Elastic Compliance Matrix: (Units=1/GPa)
#
#
# Indices 1 2 3 4 5 6 
#
# 1 0.014850 -0.003946 -0.005043 0.000000 0.000000 0.000000
# 2 -0.003946 0.010545 -0.000644 0.000000 0.000000 0.000000
# 3 -0.005043 -0.000644 0.013208 0.000000 0.000000 0.000000
# 4 0.000000 0.000000 0.000000 -0.011752 0.000000 0.000000
# 5 0.000000 0.000000 0.000000 0.000000 0.033229 0.000000
# 6 0.000000 0.000000 0.000000 0.000000 0.000000 0.049523
#
#
# Mechanical properties :
#
#
# Convention : Reuss Voigt Hill
#
# Bulk Modulus (GPa) = 51.71341 52.02526 51.86933
# Shear Modulus (GPa) = 36.95041 6.26605 21.60823
#
# Velocity S-wave (km/s) = 4.26568 1.75661 3.26203
# Velocity P-wave (km/s) = 7.05177 5.45287 6.30322
#
# Compressibility (1/GPa) = 0.01933734
#
# Stress axis : x y z
#
# Youngs Moduli (GPa) = 67.33836 94.82816 75.70925
#
# Poissons Ratio (x) = 0.37420 0.38183
# Poissons Ratio (y) = 0.26572 0.04875
# Poissons Ratio (z) = 0.33961 0.06107
#
# Static dielectric constant tensor:
#      x y z
#    x 1.740980 0.000000 0.000000 
#    y 0.000000 1.725440 0.000000 
#    z 0.000000 0.000000 1.726380 
# 
# From -- ./inp_files/5562.got.cif
#   From: 2010.05.17/outbox.cif.g08.bks.cpg/sg18_3_cif.got.tgz:5562.got - 2010.06.03 22:40:56.
