data_PCOD9312036
_publ_section_title
;
Structure prediction by ZEFSAII (Michael W. Deem and Ramdas Pophale) SiO2 
 PCOD9312036
Probable space group: P 21 21 2
;
_chemical_formula_sum "Si O2"
_cell_formula_units_Z 24
_cell_length_a 5.748593
_cell_length_b 20.454068
_cell_length_c 7.922125
_cell_angle_alpha 90.000000
_cell_angle_beta 90.000000
_cell_angle_gamma 90.000000
_cell_volume 931.500190
_symmetry_space_group_name_H-M "P 21 21 2"
_symmetry_group_IT_number 18
_symmetry_cell_setting 'orthorhombic'
loop_
_space_group_symop_operation_xyz
x,y,z
-x,-y,z
1/2+x,1/2-y,-z
1/2-x,1/2+y,-z
loop_
_atom_site_type_symbol
_atom_site_label
_atom_site_fract_x
_atom_site_fract_y
_atom_site_fract_z
Si Si1 0.626742 0.720070 0.561255
Si Si2 0.196764 0.114313 0.515199
Si Si3 0.227708 0.118363 0.142925
Si Si4 0.000000 0.000000 0.641465
Si Si5 0.500000 0.000000 0.035515
Si Si6 0.329624 0.395636 0.100414
Si Si7 0.447759 0.189027 0.824839
O O1 0.385751 0.756758 0.493998
O O2 0.564028 0.646183 0.508379
O O3 0.608541 0.738738 0.759830
O O4 0.333768 0.145825 0.672456
O O5 0.190062 0.035511 0.525249
O O6 0.291521 0.137357 0.332535
O O7 0.340039 0.166707 0.002791
O O8 0.966188 0.111896 0.072992
O O9 0.316724 0.043547 0.132391
O O10 0.028464 0.937807 0.764869
O O11 0.382210 0.945023 0.923342
O O12 0.220528 0.328016 0.162444
#
# Coordination Sequence:
#
# PCOD9312036 Si02
#       7
#     4   4   4   2   2   4   4
#     4  10  23  48  76 102 141 185 239 298 359 430
#     4  11  25  43  67 108 135 183 241 289 363 429
#     4  11  23  42  63 102 139 181 242 291 359 430
#     4  12  20  36  70  92 136 182 222 282 352 434
#     4  10  20  36  62  90 138 184 212 292 346 428
#     4  11  20  40  66  94 133 186 230 280 357 420
#     4  10  23  46  69  94 137 184 230 296 355 428
#
# _framework density 25.764889
#
# number of rings (size 3 to 8) (size 9 to 14) (size 15 to 20)
#    0.000    1.333    3.333    2.000    4.667    1.333 
#   18.000    0.000    0.000    0.000    0.000    0.000 
#    0.000    0.000    0.000    0.000    0.000    0.000 
#
# Total GULP energy -133721.232559 kJ/mol
# GULP energy per Si atom -5571.718023 kJ/mol
# Density = 2.570625 g / cm^3
# Si number density = 25.764889 Si / 1000 Ang^3
#
#
#
# Elastic Constant Matrix: (Units=GPa)
#
#
# Indices 1 2 3 4 5 6 
#
# 1 74.1026 16.8703 22.3489 0.0000 0.0000 0.0000
# 2 16.8703 96.4846 28.7058 0.0000 0.0000 0.0000
# 3 22.3489 28.7058 159.0227 0.0000 0.0000 0.0000
# 4 0.0000 0.0000 0.0000 43.2461 0.0000 0.0000
# 5 0.0000 0.0000 0.0000 0.0000 -3.9313 0.0000
# 6 0.0000 0.0000 0.0000 0.0000 0.0000 35.4407
#
#
#
# Elastic Compliance Matrix: (Units=1/GPa)
#
#
# Indices 1 2 3 4 5 6 
#
# 1 0.014460 -0.002033 -0.001665 0.000000 0.000000 0.000000
# 2 -0.002033 0.011238 -0.001743 0.000000 0.000000 0.000000
# 3 -0.001665 -0.001743 0.006837 0.000000 0.000000 0.000000
# 4 0.000000 0.000000 0.000000 0.023123 0.000000 0.000000
# 5 0.000000 0.000000 0.000000 0.000000 -0.254368 0.000000
# 6 0.000000 0.000000 0.000000 0.000000 0.000000 0.028216
#
#
# Mechanical properties :
#
#
# Convention : Reuss Voigt Hill
#
# Bulk Modulus (GPa) = 46.18269 51.71778 48.95023
# Shear Modulus (GPa) = -32.80980 32.39677 -0.20652
#
# Velocity S-wave (km/s) = -3.57239 3.54983 -0.28342
# Velocity P-wave (km/s) = 0.97347 6.07604 4.35120
#
# Compressibility (1/GPa) = 0.02165314
#
# Stress axis : x y z
#
# Youngs Moduli (GPa) = 69.15709 88.98089 146.26151
#
# Poissons Ratio (x) = 0.18089 0.24356
# Poissons Ratio (y) = 0.14059 0.25493
# Poissons Ratio (z) = 0.11516 0.15509
#
# Static dielectric constant tensor:
#      x y z
#    x 2.278570 0.000000 0.000000 
#    y 0.000000 2.113540 0.000000 
#    z 0.000000 0.000000 2.159160 
# 
# From -- ./inp_files/2565.got.cif
#   From: 2010.05.17/outbox.cif.g08.bks.cpg/sg18_2_cif.got.tgz:2565.got - 2010.06.03 22:40:56.
