data_PCOD9312368
_publ_section_title
;
Structure prediction by ZEFSAII (Michael W. Deem and Ramdas Pophale) SiO2 
 PCOD9312368
Probable space group: P 21 21 2
;
_chemical_formula_sum "Si O2"
_cell_formula_units_Z 32
_cell_length_a 13.849713
_cell_length_b 13.410040
_cell_length_c 8.696345
_cell_angle_alpha 90.000000
_cell_angle_beta 90.000000
_cell_angle_gamma 90.000000
_cell_volume 1615.130461
_symmetry_space_group_name_H-M "P 21 21 2"
_symmetry_group_IT_number 18
_symmetry_cell_setting 'orthorhombic'
loop_
_space_group_symop_operation_xyz
x,y,z
-x,-y,z
1/2+x,1/2-y,-z
1/2-x,1/2+y,-z
loop_
_atom_site_type_symbol
_atom_site_label
_atom_site_fract_x
_atom_site_fract_y
_atom_site_fract_z
Si Si1 0.606528 0.384278 0.334030
Si Si2 0.617435 0.998889 0.404782
Si Si3 0.879907 0.108156 0.655310
Si Si4 0.278773 0.815905 0.874532
Si Si5 0.222807 0.658600 0.120784
Si Si6 0.611653 0.205592 0.567030
Si Si7 0.120050 0.707471 0.430372
Si Si8 0.114927 0.484412 0.950898
O O1 0.492362 0.376780 0.299511
O O2 0.626320 0.494307 0.402732
O O3 0.672425 0.371979 0.184563
O O4 0.632188 0.295027 0.449615
O O5 0.649115 0.895972 0.484700
O O6 0.500000 0.000000 0.404159
O O7 0.644964 0.098598 0.498159
O O8 0.647389 0.003807 0.226446
O O9 0.807769 0.120945 0.797831
O O10 0.857401 0.195329 0.532759
O O11 0.339427 0.776908 0.730057
O O12 0.233022 0.730644 0.977100
O O13 0.349467 0.879522 0.982904
O O14 0.168699 0.709084 0.264384
O O15 0.162745 0.564392 0.063534
O O16 0.495904 0.202289 0.586137
O O17 0.000000 0.500000 0.955625
#
# Coordination Sequence:
#
# PCOD9312368 Si02
#       8
#     4   4   4   4   4   4   4   4
#     4  10  22  42  63  87 126 175 217 254 302 375
#     4   9  19  37  65  95 124 161 208 260 311 371
#     4  10  22  42  63  87 126 175 217 254 302 375
#     4  12  24  40  62  98 132 162 206 264 325 385
#     4  12  24  40  62  98 132 162 206 264 325 385
#     4  10  21  40  66  95 124 164 214 261 312 373
#     4  10  21  40  66  95 124 164 214 261 312 373
#     4  11  23  41  64  95 132 167 207 266 332 381
#
# _framework density 19.812642
#
# number of rings (size 3 to 8) (size 9 to 14) (size 15 to 20)
#    0.000    1.500    1.250    3.750    0.000    5.000 
#    2.250    0.000    0.000    0.000    0.000    0.000 
#    0.000    0.000    0.000    0.000    0.000    0.000 
#
# Total GULP energy -178878.473994 kJ/mol
# GULP energy per Si atom -5589.952312 kJ/mol
# Density = 1.976755 g / cm^3
# Si number density = 19.812642 Si / 1000 Ang^3
#
#
#
# Elastic Constant Matrix: (Units=GPa)
#
#
# Indices 1 2 3 4 5 6 
#
# 1 60.8286 16.6181 25.0826 0.0000 0.0000 0.0000
# 2 16.6181 83.4525 18.1729 0.0000 0.0000 0.0000
# 3 25.0826 18.1729 95.7264 0.0000 0.0000 0.0000
# 4 0.0000 0.0000 0.0000 30.2013 0.0000 0.0000
# 5 0.0000 0.0000 0.0000 0.0000 34.7001 0.0000
# 6 0.0000 0.0000 0.0000 0.0000 0.0000 25.5849
#
#
#
# Elastic Compliance Matrix: (Units=1/GPa)
#
#
# Indices 1 2 3 4 5 6 
#
# 1 0.019048 -0.002823 -0.004455 0.000000 0.000000 0.000000
# 2 -0.002823 0.012918 -0.001713 0.000000 0.000000 0.000000
# 3 -0.004455 -0.001713 0.011939 0.000000 0.000000 0.000000
# 4 0.000000 0.000000 0.000000 0.033111 0.000000 0.000000
# 5 0.000000 0.000000 0.000000 0.000000 0.028818 0.000000
# 6 0.000000 0.000000 0.000000 0.000000 0.000000 0.039086
#
#
# Mechanical properties :
#
#
# Convention : Reuss Voigt Hill
#
# Bulk Modulus (GPa) = 38.57521 39.97274 39.27398
# Shear Modulus (GPa) = 29.14732 30.10619 29.62676
#
# Velocity S-wave (km/s) = 3.83972 3.90236 3.87117
# Velocity P-wave (km/s) = 6.25861 6.36583 6.31244
#
# Compressibility (1/GPa) = 0.02592338
#
# Stress axis : x y z
#
# Youngs Moduli (GPa) = 52.49924 77.41164 83.75966
#
# Poissons Ratio (x) = 0.21852 0.37316
# Poissons Ratio (y) = 0.14820 0.14346
# Poissons Ratio (z) = 0.23389 0.13258
#
# Static dielectric constant tensor:
#      x y z
#    x 1.719150 0.000000 0.000000 
#    y 0.000000 1.724640 0.000000 
#    z 0.000000 0.000000 1.641710 
# 
# From -- ./inp_files/4320.got.cif
#   From: 2010.05.17/outbox.cif.g08.bks.cpg/sg18_3_cif.got.tgz:4320.got - 2010.06.03 22:40:56.
