data_PCOD9312835
_publ_section_title
;
Structure prediction by ZEFSAII (Michael W. Deem and Ramdas Pophale) SiO2 
 PCOD9312835
Probable space group: P 21 21 2
;
_chemical_formula_sum "Si O2"
_cell_formula_units_Z 18
_cell_length_a 9.765513
_cell_length_b 12.469461
_cell_length_c 6.269512
_cell_angle_alpha 90.000000
_cell_angle_beta 90.000000
_cell_angle_gamma 90.000000
_cell_volume 763.442761
_symmetry_space_group_name_H-M "P 21 21 2"
_symmetry_group_IT_number 18
_symmetry_cell_setting 'orthorhombic'
loop_
_space_group_symop_operation_xyz
x,y,z
-x,-y,z
1/2+x,1/2-y,-z
1/2-x,1/2+y,-z
loop_
_atom_site_type_symbol
_atom_site_label
_atom_site_fract_x
_atom_site_fract_y
_atom_site_fract_z
Si Si1 0.054299 0.823528 0.440136
Si Si2 0.216914 0.243322 0.286013
Si Si3 0.219856 0.473010 0.439887
Si Si4 0.000000 0.500000 0.809293
Si Si5 0.153452 0.658246 0.107008
O O1 0.129163 0.748783 0.617315
O O2 0.130223 0.935357 0.481583
O O3 0.100139 0.765931 0.220622
O O4 0.891659 0.819304 0.431664
O O5 0.172222 0.367106 0.307636
O O6 0.226225 0.193409 0.053915
O O7 0.126837 0.480890 0.649707
O O8 0.200857 0.572240 0.283073
O O9 0.042075 0.597770 0.961678
#
# Coordination Sequence:
#
# PCOD9312835 Si02
#       5
#     4   4   4   2   4
#     4  10  25  44  72 109 149 189 238 310 358 420
#     4  10  23  45  74 105 148 192 238 301 363 435
#     4  10  25  43  72 109 145 189 243 309 353 430
#     4  12  24  46  74 106 144 198 246 300 362 450
#     4  12  24  43  79 106 140 200 246 286 373 447
#
# _framework density 23.577406
#
# number of rings (size 3 to 8) (size 9 to 14) (size 15 to 20)
#    1.333    0.000    0.000    6.000    6.222    0.000 
#    0.000    6.667    0.000    0.000    0.000    0.000 
#    0.000    0.000    0.000    0.000    0.000    0.000 
#
# Total GULP energy -100517.368811 kJ/mol
# GULP energy per Si atom -5584.298267 kJ/mol
# Density = 2.352374 g / cm^3
# Si number density = 23.577406 Si / 1000 Ang^3
#
#
#
# Elastic Constant Matrix: (Units=GPa)
#
#
# Indices 1 2 3 4 5 6 
#
# 1 87.7915 23.3097 62.1378 0.0000 0.0000 0.0000
# 2 23.3097 93.0781 64.4768 0.0000 0.0000 0.0000
# 3 62.1378 64.4768 138.4955 0.0000 0.0000 0.0000
# 4 0.0000 0.0000 0.0000 37.9636 0.0000 0.0000
# 5 0.0000 0.0000 0.0000 0.0000 46.3764 0.0000
# 6 0.0000 0.0000 0.0000 0.0000 0.0000 28.7206
#
#
#
# Elastic Compliance Matrix: (Units=1/GPa)
#
#
# Indices 1 2 3 4 5 6 
#
# 1 0.016832 0.001500 -0.008250 0.000000 0.000000 0.000000
# 2 0.001500 0.015991 -0.008118 0.000000 0.000000 0.000000
# 3 -0.008250 -0.008118 0.014701 0.000000 0.000000 0.000000
# 4 0.000000 0.000000 0.000000 0.026341 0.000000 0.000000
# 5 0.000000 0.000000 0.000000 0.000000 0.021563 0.000000
# 6 0.000000 0.000000 0.000000 0.000000 0.000000 0.034818
#
#
# Mechanical properties :
#
#
# Convention : Reuss Voigt Hill
#
# Bulk Modulus (GPa) = 56.21681 68.80154 62.50917
# Shear Modulus (GPa) = 30.13661 33.90817 32.02239
#
# Velocity S-wave (km/s) = 3.57907 3.79643 3.68935
# Velocity P-wave (km/s) = 6.40117 6.96144 6.68717
#
# Compressibility (1/GPa) = 0.01778827
#
# Stress axis : x y z
#
# Youngs Moduli (GPa) = 59.41193 62.53393 68.02227
#
# Poissons Ratio (x) = -0.09378 0.56118
# Poissons Ratio (y) = -0.08910 0.55218
# Poissons Ratio (z) = 0.49014 0.50763
#
# Static dielectric constant tensor:
#      x y z
#    x 1.952430 0.000000 0.000000 
#    y 0.000000 1.933980 0.000000 
#    z 0.000000 0.000000 1.859500 
# 
# From -- ./inp_files/481.got.cif
#   From: 2010.05.17/outbox.cif.g08.bks.cpg/sg18_1_cif.got.tgz:481.got - 2010.06.03 22:40:56.
