data_PCOD9312303
_publ_section_title
;
Structure prediction by ZEFSAII (Michael W. Deem and Ramdas Pophale) SiO2 
 PCOD9312303
Probable space group: P 21 21 2
;
_chemical_formula_sum "Si O2"
_cell_formula_units_Z 32
_cell_length_a 11.590135
_cell_length_b 14.265193
_cell_length_c 9.371428
_cell_angle_alpha 90.000000
_cell_angle_beta 90.000000
_cell_angle_gamma 90.000000
_cell_volume 1549.429853
_symmetry_space_group_name_H-M "P 21 21 2"
_symmetry_group_IT_number 18
_symmetry_cell_setting 'orthorhombic'
loop_
_space_group_symop_operation_xyz
x,y,z
-x,-y,z
1/2+x,1/2-y,-z
1/2-x,1/2+y,-z
loop_
_atom_site_type_symbol
_atom_site_label
_atom_site_fract_x
_atom_site_fract_y
_atom_site_fract_z
Si Si1 0.377200 0.775342 0.521345
Si Si2 0.486531 0.114450 0.758765
Si Si3 0.261187 0.621325 0.107657
Si Si4 0.815639 0.680326 0.024810
Si Si5 0.331929 0.295838 0.280426
Si Si6 0.560754 0.401444 0.361892
Si Si7 0.358745 0.088566 0.181619
Si Si8 0.121503 0.398940 0.753547
O O1 0.474118 0.822848 0.622909
O O2 0.257992 0.808788 0.592641
O O3 0.384446 0.663688 0.488116
O O4 0.383857 0.825729 0.370251
O O5 0.355893 0.138734 0.802274
O O6 0.572182 0.148755 0.885466
O O7 0.500000 0.000000 0.739134
O O8 0.351778 0.584309 0.227034
O O9 0.317749 0.711997 0.029939
O O10 0.206501 0.568978 0.967804
O O11 0.714351 0.659346 0.135234
O O12 0.793058 0.629155 0.877479
O O13 0.456123 0.334817 0.312335
O O14 0.322910 0.186098 0.247009
O O15 0.500000 0.500000 0.403045
O O16 0.497127 0.098312 0.168084
O O17 0.346144 0.003258 0.291531
#
# Coordination Sequence:
#
# PCOD9312303 Si02
#       8
#     4   4   4   4   4   4   4   4
#     4  11  26  44  68 100 140 193 231 298 353 419
#     4  11  25  43  72 108 141 185 253 289 352 435
#     4  11  23  42  70 104 139 190 226 296 362 419
#     4  10  21  41  67  98 139 176 230 295 343 410
#     4  10  24  45  64  96 142 183 233 288 357 424
#     4  12  28  44  67  99 146 189 238 288 370 437
#     4  10  21  37  71  97 137 168 236 297 339 410
#     4  11  20  39  67 106 129 170 233 294 345 401
#
# _framework density 20.652759
#
# number of rings (size 3 to 8) (size 9 to 14) (size 15 to 20)
#    0.000    1.250    3.750    0.750   10.500    1.000 
#    0.000    0.000    0.000    5.250    0.000    0.000 
#    0.000    0.000    0.000    0.000    0.000    0.000 
#
# Total GULP energy -178201.953639 kJ/mol
# GULP energy per Si atom -5568.811051 kJ/mol
# Density = 2.060575 g / cm^3
# Si number density = 20.652759 Si / 1000 Ang^3
#
#
#
# Elastic Constant Matrix: (Units=GPa)
#
#
# Indices 1 2 3 4 5 6 
#
# 1 73.7138 12.7861 20.3703 0.0000 0.0000 0.0000
# 2 12.7861 90.3401 45.1190 0.0000 0.0000 0.0000
# 3 20.3703 45.1190 87.0488 0.0000 0.0000 0.0000
# 4 0.0000 0.0000 0.0000 17.3512 0.0000 0.0000
# 5 0.0000 0.0000 0.0000 0.0000 90.7682 0.0000
# 6 0.0000 0.0000 0.0000 0.0000 0.0000 20.2241
#
#
#
# Elastic Compliance Matrix: (Units=1/GPa)
#
#
# Indices 1 2 3 4 5 6 
#
# 1 0.014520 -0.000483 -0.003147 0.000000 0.000000 0.000000
# 2 -0.000483 0.014952 -0.007637 0.000000 0.000000 0.000000
# 3 -0.003147 -0.007637 0.016183 0.000000 0.000000 0.000000
# 4 0.000000 0.000000 0.000000 0.057633 0.000000 0.000000
# 5 0.000000 0.000000 0.000000 0.000000 0.011017 0.000000
# 6 0.000000 0.000000 0.000000 0.000000 0.000000 0.049446
#
#
# Mechanical properties :
#
#
# Convention : Reuss Voigt Hill
#
# Bulk Modulus (GPa) = 43.25347 45.29484 44.27415
# Shear Modulus (GPa) = 25.77447 37.19052 31.48250
#
# Velocity S-wave (km/s) = 3.53653 4.24813 3.90856
# Velocity P-wave (km/s) = 6.13716 6.78538 6.46939
#
# Compressibility (1/GPa) = 0.02311953
#
# Stress axis : x y z
#
# Youngs Moduli (GPa) = 68.87286 66.88214 61.79503
#
# Poissons Ratio (x) = 0.03231 0.19449
# Poissons Ratio (y) = 0.03327 0.47191
# Poissons Ratio (z) = 0.21676 0.51076
#
# Static dielectric constant tensor:
#      x y z
#    x 1.763460 0.000000 0.000000 
#    y 0.000000 1.676700 0.000000 
#    z 0.000000 0.000000 1.751510 
# 
# From -- ./inp_files/3946.got.cif
#   From: 2010.05.17/outbox.cif.g08.bks.cpg/sg18_2_cif.got.tgz:3946.got - 2010.06.03 22:40:56.
