data_PCOD9312489
_publ_section_title
;
Structure prediction by ZEFSAII (Michael W. Deem and Ramdas Pophale) SiO2 
 PCOD9312489
Probable space group: P 21 21 2
;
_chemical_formula_sum "Si O2"
_cell_formula_units_Z 16
_cell_length_a 6.890261
_cell_length_b 9.254306
_cell_length_c 9.305621
_cell_angle_alpha 90.000000
_cell_angle_beta 90.000000
_cell_angle_gamma 90.000000
_cell_volume 593.369049
_symmetry_space_group_name_H-M "P 21 21 2"
_symmetry_group_IT_number 18
_symmetry_cell_setting 'orthorhombic'
loop_
_space_group_symop_operation_xyz
x,y,z
-x,-y,z
1/2+x,1/2-y,-z
1/2-x,1/2+y,-z
loop_
_atom_site_type_symbol
_atom_site_label
_atom_site_fract_x
_atom_site_fract_y
_atom_site_fract_z
Si Si1 0.617726 0.314352 0.264881
Si Si2 0.750703 0.017522 0.241492
Si Si3 0.000000 0.000000 0.504246
Si Si4 0.580925 0.298515 0.931356
Si Si5 0.500000 0.000000 0.793955
O O1 0.607268 0.142077 0.286629
O O2 0.470688 0.371788 0.384449
O O3 0.821375 0.409995 0.284186
O O4 0.569325 0.335121 0.097891
O O5 0.903626 0.127597 0.156460
O O6 0.834318 0.960325 0.391132
O O7 0.736315 0.887281 0.130825
O O8 0.589293 0.130598 0.889916
#
# Coordination Sequence:
#
# PCOD9312489 Si02
#       5
#     4   4   2   4   2
#     4  11  21  38  64  90 120 165 208 256 316 379
#     4   9  21  38  57  86 126 159 200 259 307 365
#     4  10  22  38  60  88 124 168 206 252 314 384
#     4   9  18  37  58  83 114 153 202 252 304 359
#     4  10  22  36  62  94 120 154 206 270 316 362
#
# _framework density 26.964669000000001
#
# number of rings (size 3 to 8) (size 9 to 14) (size 15 to 20)
#    0.000    2.500    0.000    3.000    0.000    8.000 
#    0.000    2.500    0.000    7.500    0.000    0.000 
#    0.000    0.000    0.000    0.000    0.000    0.000 
#
# Total GULP energy -89220.175546 kJ/mol
# GULP energy per Si atom -5576.260972 kJ/mol
# Density = 2.690330 g / cm^3
# Si number density = 26.964669 Si / 1000 Ang^3
#
#
#
# Elastic Constant Matrix: (Units=GPa)
#
#
# Indices 1 2 3 4 5 6 
#
# 1 64.5874 -0.7990 -5.2801 0.0000 0.0000 0.0000
# 2 -0.7990 189.8381 41.9758 0.0000 0.0000 0.0000
# 3 -5.2801 41.9758 181.0892 0.0000 0.0000 0.0000
# 4 0.0000 0.0000 0.0000 -24.0612 0.0000 0.0000
# 5 0.0000 0.0000 0.0000 0.0000 16.2971 0.0000
# 6 0.0000 0.0000 0.0000 0.0000 0.0000 43.8101
#
#
#
# Elastic Compliance Matrix: (Units=1/GPa)
#
#
# Indices 1 2 3 4 5 6 
#
# 1 0.015520 -0.000037 0.000461 0.000000 0.000000 0.000000
# 2 -0.000037 0.005552 -0.001288 0.000000 0.000000 0.000000
# 3 0.000461 -0.001288 0.005834 0.000000 0.000000 0.000000
# 4 0.000000 0.000000 0.000000 -0.041561 0.000000 0.000000
# 5 0.000000 0.000000 0.000000 0.000000 0.061361 0.000000
# 6 0.000000 0.000000 0.000000 0.000000 0.000000 0.022826
#
#
# Mechanical properties :
#
#
# Convention : Reuss Voigt Hill
#
# Bulk Modulus (GPa) = 39.71526 56.36756 48.04141
# Shear Modulus (GPa) = 62.77234 33.85038 48.31136
#
# Velocity S-wave (km/s) = 4.83012 3.54695 4.23739
# Velocity P-wave (km/s) = 6.77254 6.14199 6.46496
#
# Compressibility (1/GPa) = 0.02517924
#
# Stress axis : x y z
#
# Youngs Moduli (GPa) = 64.43247 180.10551 171.40447
#
# Poissons Ratio (x) = 0.00659 -0.07902
# Poissons Ratio (y) = 0.00236 0.22078
# Poissons Ratio (z) = -0.02970 0.23199
#
# Static dielectric constant tensor:
#      x y z
#    x 2.923500 0.000000 0.000000 
#    y 0.000000 2.192600 0.000000 
#    z 0.000000 0.000000 1.943990 
# 
# From -- ./inp_files/2796.got.cif
#   From: 2010.05.17/outbox.cif.g08.bks.cpg/sg18_2_cif.got.tgz:2796.got - 2010.06.03 22:40:56.
