data_PCOD9312388
_publ_section_title
;
Structure prediction by ZEFSAII (Michael W. Deem and Ramdas Pophale) SiO2 
 PCOD9312388
Probable space group: P 21 21 2
;
_chemical_formula_sum "Si O2"
_cell_formula_units_Z 32
_cell_length_a 12.459756
_cell_length_b 15.412686
_cell_length_c 8.572329
_cell_angle_alpha 90.000000
_cell_angle_beta 90.000000
_cell_angle_gamma 90.000000
_cell_volume 1646.215547
_symmetry_space_group_name_H-M "P 21 21 2"
_symmetry_group_IT_number 18
_symmetry_cell_setting 'orthorhombic'
loop_
_space_group_symop_operation_xyz
x,y,z
-x,-y,z
1/2+x,1/2-y,-z
1/2-x,1/2+y,-z
loop_
_atom_site_type_symbol
_atom_site_label
_atom_site_fract_x
_atom_site_fract_y
_atom_site_fract_z
Si Si1 0.778692 0.714327 0.945710
Si Si2 0.572406 0.807519 0.370337
Si Si3 0.918268 0.570040 0.806921
Si Si4 0.118991 0.963081 0.535165
Si Si5 0.925031 0.860931 0.090620
Si Si6 0.256954 0.563186 0.689315
Si Si7 0.906326 0.139877 0.834776
Si Si8 0.607623 0.707031 0.679588
O O1 0.870911 0.643270 0.917484
O O2 0.710731 0.728814 0.786460
O O3 0.836568 0.798467 0.013255
O O4 0.692103 0.675497 0.064673
O O5 0.483260 0.879336 0.328628
O O6 0.685737 0.850145 0.319334
O O7 0.550810 0.721840 0.266706
O O8 0.579840 0.778507 0.549321
O O9 0.820103 0.513578 0.744695
O O10 0.000000 0.500000 0.879830
O O11 0.132282 0.930293 0.710355
O O12 0.130484 0.881149 0.418157
O O13 0.199166 0.037301 0.479543
O O14 0.000000 0.000000 0.518938
O O15 0.857691 0.928240 0.194344
O O16 0.005901 0.810667 0.208079
O O17 0.001816 0.892926 0.951777
#
# Coordination Sequence:
#
# PCOD9312388 Si02
#       8
#     4   4   4   4   4   4   4   4
#     4  11  21  40  62  95 123 165 207 257 319 374
#     4  10  21  41  62  92 120 164 215 251 306 379
#     4  10  22  38  62  89 126 165 202 255 312 374
#     4  11  22  40  58  90 122 159 204 256 313 364
#     4  11  22  39  64  91 127 164 209 264 313 380
#     4  11  22  39  64  89 124 168 205 254 325 370
#     4  10  23  38  63  94 123 158 212 263 303 377
#     4  10  23  38  64  90 123 163 212 259 309 373
#
# _framework density 19.438523
#
# number of rings (size 3 to 8) (size 9 to 14) (size 15 to 20)
#    0.000    1.500    5.000    0.000    0.000    4.000 
#    0.000    1.250    0.000    0.000    0.000    0.000 
#    0.000    0.000    0.000    0.000    0.000    0.000 
#
# Total GULP energy -178675.772309 kJ/mol
# GULP energy per Si atom -5583.617885 kJ/mol
# Density = 1.939428 g / cm^3
# Si number density = 19.438523 Si / 1000 Ang^3
#
#
#
# Elastic Constant Matrix: (Units=GPa)
#
#
# Indices 1 2 3 4 5 6 
#
# 1 75.8635 14.6759 39.0884 0.0000 0.0000 0.0000
# 2 14.6759 52.7601 30.7059 0.0000 0.0000 0.0000
# 3 39.0884 30.7059 119.2625 0.0000 0.0000 0.0000
# 4 0.0000 0.0000 0.0000 33.1241 0.0000 0.0000
# 5 0.0000 0.0000 0.0000 0.0000 14.1598 0.0000
# 6 0.0000 0.0000 0.0000 0.0000 0.0000 28.4510
#
#
#
# Elastic Compliance Matrix: (Units=1/GPa)
#
#
# Indices 1 2 3 4 5 6 
#
# 1 0.015980 -0.001643 -0.004814 0.000000 0.000000 0.000000
# 2 -0.001643 0.022463 -0.005245 0.000000 0.000000 0.000000
# 3 -0.004814 -0.005245 0.011313 0.000000 0.000000 0.000000
# 4 0.000000 0.000000 0.000000 0.030190 0.000000 0.000000
# 5 0.000000 0.000000 0.000000 0.000000 0.070622 0.000000
# 6 0.000000 0.000000 0.000000 0.000000 0.000000 0.035148
#
#
# Mechanical properties :
#
#
# Convention : Reuss Voigt Hill
#
# Bulk Modulus (GPa) = 37.94850 46.31407 42.13129
# Shear Modulus (GPa) = 22.94573 26.04138 24.49355
#
# Velocity S-wave (km/s) = 3.43946 3.66413 3.55357
# Velocity P-wave (km/s) = 5.94457 6.46365 6.20954
#
# Compressibility (1/GPa) = 0.02635150
#
# Stress axis : x y z
#
# Youngs Moduli (GPa) = 62.57802 44.51704 88.39224
#
# Poissons Ratio (x) = 0.07315 0.42556
# Poissons Ratio (y) = 0.10282 0.46362
# Poissons Ratio (z) = 0.30128 0.23349
#
# Static dielectric constant tensor:
#      x y z
#    x 1.670880 0.000000 0.000000 
#    y 0.000000 1.689010 0.000000 
#    z 0.000000 0.000000 1.664330 
# 
# From -- ./inp_files/3959.got.cif
#   From: 2010.05.17/outbox.cif.g08.bks.cpg/sg18_2_cif.got.tgz:3959.got - 2010.06.03 22:40:56.
