data_PCOD9312910
_publ_section_title
;
Structure prediction by ZEFSAII (Michael W. Deem and Ramdas Pophale) SiO2 
 PCOD9312910
Probable space group: P 21 21 2
;
_chemical_formula_sum "Si O2"
_cell_formula_units_Z 30
_cell_length_a 6.543251
_cell_length_b 19.091282
_cell_length_c 10.931905
_cell_angle_alpha 90.000000
_cell_angle_beta 90.000000
_cell_angle_gamma 90.000000
_cell_volume 1365.603188
_symmetry_space_group_name_H-M "P 21 21 2"
_symmetry_group_IT_number 18
_symmetry_cell_setting 'orthorhombic'
loop_
_space_group_symop_operation_xyz
x,y,z
-x,-y,z
1/2+x,1/2-y,-z
1/2-x,1/2+y,-z
loop_
_atom_site_type_symbol
_atom_site_label
_atom_site_fract_x
_atom_site_fract_y
_atom_site_fract_z
Si Si1 0.418318 0.732390 0.359177
Si Si2 0.500000 0.000000 0.362528
Si Si3 0.098757 0.430430 0.868956
Si Si4 0.941897 0.079329 0.943152
Si Si5 0.916455 0.364653 0.490502
Si Si6 0.795562 0.641528 0.268797
Si Si7 0.594801 0.754547 0.852110
Si Si8 0.248173 0.672157 0.931244
O O1 0.470575 0.802793 0.433421
O O2 0.630630 0.697964 0.316750
O O3 0.284601 0.674858 0.435878
O O4 0.279323 0.751344 0.241789
O O5 0.648724 0.040824 0.266232
O O6 0.390335 0.062648 0.435813
O O7 0.000000 0.500000 0.931168
O O8 0.924387 0.372169 0.866036
O O9 0.281359 0.403081 0.950056
O O10 0.835521 0.089176 0.813115
O O11 0.000000 0.000000 0.962989
O O12 0.140404 0.126589 0.963860
O O13 0.072660 0.385242 0.381862
O O14 0.964381 0.676607 0.181180
O O15 0.424317 0.695011 0.839133
O O16 0.660506 0.761902 0.993562
#
# Coordination Sequence:
#
# PCOD9312910 Si02
#       8
#     4   2   4   4   4   4   4   4
#     4  11  24  45  72 100 139 188 244 291 362 419
#     4  10  26  46  70  98 142 178 236 298 360 416
#     4  10  24  45  65  98 140 181 225 284 361 435
#     4  12  23  42  68  99 140 186 227 283 362 433
#     4  11  25  47  70 101 137 191 241 304 350 425
#     4  11  24  44  68  98 132 184 235 291 355 414
#     4  11  26  38  69 103 138 179 229 297 347 432
#     4  12  24  41  65 106 140 180 232 281 362 430
#
# _framework density 21.968312999999998
#
# number of rings (size 3 to 8) (size 9 to 14) (size 15 to 20)
#    0.400    0.533    5.333    0.800    3.733    1.067 
#    1.200    2.667    0.000    0.000    0.000    0.000 
#    0.000    0.000    0.000    0.000    0.000    0.000 
#
# Total GULP energy -167604.763915 kJ/mol
# GULP energy per Si atom -5586.825464 kJ/mol
# Density = 2.191831 g / cm^3
# Si number density = 21.968313 Si / 1000 Ang^3
#
#
#
# Elastic Constant Matrix: (Units=GPa)
#
#
# Indices 1 2 3 4 5 6 
#
# 1 89.6006 35.0654 31.6586 0.0000 0.0000 0.0000
# 2 35.0654 80.7323 26.1758 0.0000 0.0000 0.0000
# 3 31.6586 26.1758 87.2373 0.0000 0.0000 0.0000
# 4 0.0000 0.0000 0.0000 37.8669 0.0000 0.0000
# 5 0.0000 0.0000 0.0000 0.0000 34.1296 0.0000
# 6 0.0000 0.0000 0.0000 0.0000 0.0000 27.5082
#
#
#
# Elastic Compliance Matrix: (Units=1/GPa)
#
#
# Indices 1 2 3 4 5 6 
#
# 1 0.014463 -0.005074 -0.003726 0.000000 0.000000 0.000000
# 2 -0.005074 0.015501 -0.002810 0.000000 0.000000 0.000000
# 3 -0.003726 -0.002810 0.013658 0.000000 0.000000 0.000000
# 4 0.000000 0.000000 0.000000 0.026408 0.000000 0.000000
# 5 0.000000 0.000000 0.000000 0.000000 0.029300 0.000000
# 6 0.000000 0.000000 0.000000 0.000000 0.000000 0.036353
#
#
# Mechanical properties :
#
#
# Convention : Reuss Voigt Hill
#
# Bulk Modulus (GPa) = 49.01274 49.26330 49.13802
# Shear Modulus (GPa) = 30.17419 30.87896 30.52657
#
# Velocity S-wave (km/s) = 3.71014 3.75322 3.73174
# Velocity P-wave (km/s) = 6.38064 6.42305 6.40188
#
# Compressibility (1/GPa) = 0.02040286
#
# Stress axis : x y z
#
# Youngs Moduli (GPa) = 69.14285 64.51025 73.21511
#
# Poissons Ratio (x) = 0.32730 0.27281
# Poissons Ratio (y) = 0.35081 0.20574
# Poissons Ratio (z) = 0.25764 0.18127
#
# Static dielectric constant tensor:
#      x y z
#    x 1.789290 0.000000 0.000000 
#    y 0.000000 1.831000 0.000000 
#    z 0.000000 0.000000 1.837750 
# 
# From -- ./inp_files/5230.got.cif
#   From: 2010.05.17/outbox.cif.g08.bks.cpg/sg18_3_cif.got.tgz:5230.got - 2010.06.03 22:40:56.
