data_PCOD9312464
_publ_section_title
;
Structure prediction by ZEFSAII (Michael W. Deem and Ramdas Pophale) SiO2 
 PCOD9312464
Probable space group: P 21 21 2
;
_chemical_formula_sum "Si O2"
_cell_formula_units_Z 20
_cell_length_a 9.726669
_cell_length_b 11.041925
_cell_length_c 7.701872
_cell_angle_alpha 90.000000
_cell_angle_beta 90.000000
_cell_angle_gamma 90.000000
_cell_volume 827.189907
_symmetry_space_group_name_H-M "P 21 21 2"
_symmetry_group_IT_number 18
_symmetry_cell_setting 'orthorhombic'
loop_
_space_group_symop_operation_xyz
x,y,z
-x,-y,z
1/2+x,1/2-y,-z
1/2-x,1/2+y,-z
loop_
_atom_site_type_symbol
_atom_site_label
_atom_site_fract_x
_atom_site_fract_y
_atom_site_fract_z
Si Si1 0.770924 0.821483 0.473133
Si Si2 0.018892 0.365369 0.541797
Si Si3 0.590913 0.378217 0.893435
Si Si4 0.432544 0.880609 0.864446
Si Si5 0.166986 0.007609 0.781485
O O1 0.845018 0.711572 0.574023
O O2 0.616764 0.789072 0.418977
O O3 0.847414 0.857968 0.296803
O O4 0.776749 0.935696 0.603319
O O5 0.015305 0.376429 0.333353
O O6 0.000000 0.500000 0.616371
O O7 0.500000 0.500000 0.883077
O O8 0.525666 0.248237 0.942040
O O9 0.690062 0.403341 0.055093
O O10 0.500000 0.000000 0.946645
O O11 0.267117 0.897628 0.839297
O O12 0.000000 0.000000 0.762049
#
# Coordination Sequence:
#
# PCOD9312464 Si02
#       5
#     4   4   4   4   4
#     4  11  23  44  71  96 144 183 223 293 340 408
#     4  10  22  42  67 102 135 181 234 278 346 413
#     4  10  25  45  68 108 136 176 242 283 342 419
#     4  10  21  46  68  96 146 180 221 299 346 398
#     4  11  24  43  70  98 136 188 225 279 352 410
#
# _framework density 24.178243999999999
#
# number of rings (size 3 to 8) (size 9 to 14) (size 15 to 20)
#    0.000    1.600    4.000    0.600    5.600    6.400 
#    3.600    0.000    0.000    0.000    0.000    0.000 
#    0.000    0.000    0.000    0.000    0.000    0.000 
#
# Total GULP energy -111510.140266 kJ/mol
# GULP energy per Si atom -5575.507013 kJ/mol
# Density = 2.412321 g / cm^3
# Si number density = 24.178244 Si / 1000 Ang^3
#
#
#
# Elastic Constant Matrix: (Units=GPa)
#
#
# Indices 1 2 3 4 5 6 
#
# 1 134.5374 47.2177 -15.9885 0.0000 0.0000 0.0000
# 2 47.2177 146.7717 10.6658 0.0000 0.0000 0.0000
# 3 -15.9885 10.6658 76.4727 0.0000 0.0000 0.0000
# 4 0.0000 0.0000 0.0000 13.3885 0.0000 0.0000
# 5 0.0000 0.0000 0.0000 0.0000 5.9843 0.0000
# 6 0.0000 0.0000 0.0000 0.0000 0.0000 42.0016
#
#
#
# Elastic Compliance Matrix: (Units=1/GPa)
#
#
# Indices 1 2 3 4 5 6 
#
# 1 0.008744 -0.002976 0.002243 0.000000 0.000000 0.000000
# 2 -0.002976 0.007896 -0.001723 0.000000 0.000000 0.000000
# 3 0.002243 -0.001723 0.013786 0.000000 0.000000 0.000000
# 4 0.000000 0.000000 0.000000 0.074691 0.000000 0.000000
# 5 0.000000 0.000000 0.000000 0.000000 0.167103 0.000000
# 6 0.000000 0.000000 0.000000 0.000000 0.000000 0.023809
#
#
# Mechanical properties :
#
#
# Convention : Reuss Voigt Hill
#
# Bulk Modulus (GPa) = 39.19533 49.06355 44.12944
# Shear Modulus (GPa) = 16.15798 33.33402 24.74600
#
# Velocity S-wave (km/s) = 2.58793 3.71708 3.20266
# Velocity P-wave (km/s) = 5.01757 6.22565 5.65397
#
# Compressibility (1/GPa) = 0.02551325
#
# Stress axis : x y z
#
# Youngs Moduli (GPa) = 114.36510 126.64722 72.53777
#
# Poissons Ratio (x) = 0.37690 -0.16272
# Poissons Ratio (y) = 0.34035 0.12502
# Poissons Ratio (z) = -0.25654 0.21827
#
# Static dielectric constant tensor:
#      x y z
#    x 2.139380 0.000000 0.000000 
#    y 0.000000 2.049190 0.000000 
#    z 0.000000 0.000000 1.877180 
# 
# From -- ./inp_files/2944.got.cif
#   From: 2010.05.17/outbox.cif.g08.bks.cpg/sg18_2_cif.got.tgz:2944.got - 2010.06.03 22:40:56.
