data_PCOD9312165
_publ_section_title
;
Structure prediction by ZEFSAII (Michael W. Deem and Ramdas Pophale) SiO2 
 PCOD9312165
Probable space group: P 21 21 2
;
_chemical_formula_sum "Si O2"
_cell_formula_units_Z 26
_cell_length_a 8.541770
_cell_length_b 11.895691
_cell_length_c 12.147197
_cell_angle_alpha 90.000000
_cell_angle_beta 90.000000
_cell_angle_gamma 90.000000
_cell_volume 1234.279803
_symmetry_space_group_name_H-M "P 21 21 2"
_symmetry_group_IT_number 18
_symmetry_cell_setting 'orthorhombic'
loop_
_space_group_symop_operation_xyz
x,y,z
-x,-y,z
1/2+x,1/2-y,-z
1/2-x,1/2+y,-z
loop_
_atom_site_type_symbol
_atom_site_label
_atom_site_fract_x
_atom_site_fract_y
_atom_site_fract_z
Si Si1 0.000000 0.000000 0.763781
Si Si2 0.897870 0.212777 0.520628
Si Si3 0.188977 0.324465 0.871873
Si Si4 0.133846 0.797976 0.905924
Si Si5 0.000000 0.000000 0.392650
Si Si6 0.291292 0.681261 0.346601
Si Si7 0.751790 0.831474 0.292263
Si Si8 0.500000 0.000000 0.239307
O O1 0.087749 0.909368 0.839179
O O2 0.866543 0.935862 0.693708
O O3 0.856955 0.303152 0.425682
O O4 0.772810 0.233443 0.617995
O O5 0.066427 0.226455 0.577590
O O6 0.899591 0.088099 0.466274
O O7 0.237058 0.254836 0.763186
O O8 0.026538 0.270828 0.912363
O O9 0.138780 0.447439 0.833008
O O10 0.304667 0.321724 0.973181
O O11 0.249525 0.724581 0.828175
O O12 0.890734 0.916223 0.322240
O O13 0.590380 0.903309 0.303413
#
# Coordination Sequence:
#
# PCOD9312165 Si02
#       8
#     2   4   4   4   2   4   4   2
#     4  10  21  44  71 100 132 183 219 282 342 406
#     4  12  23  42  67  96 132 179 216 278 330 399
#     4  10  22  42  64  94 131 171 221 281 328 407
#     4  10  23  42  70  92 136 177 223 274 345 393
#     4  12  27  40  71  98 136 173 231 272 334 408
#     4  11  23  43  68  96 135 175 227 275 338 400
#     4  11  24  41  65  97 128 173 219 279 332 401
#     4  10  20  40  62  90 130 166 216 268 338 388
#
# _framework density 21.064914999999999
#
# number of rings (size 3 to 8) (size 9 to 14) (size 15 to 20)
#    0.000    1.231    6.154    1.385    0.000    7.385 
#    0.000    1.538    0.000    0.000    0.000    0.000 
#    0.000    0.000    0.000    0.000    0.000    0.000 
#
# Total GULP energy -145066.070204 kJ/mol
# GULP energy per Si atom -5579.464239 kJ/mol
# Density = 2.101697 g / cm^3
# Si number density = 21.064915 Si / 1000 Ang^3
#
#
#
# Elastic Constant Matrix: (Units=GPa)
#
#
# Indices 1 2 3 4 5 6 
#
# 1 50.9655 24.6945 32.6853 0.0000 0.0000 0.0000
# 2 24.6945 98.4578 36.3406 0.0000 0.0000 0.0000
# 3 32.6853 36.3406 79.3246 0.0000 0.0000 0.0000
# 4 0.0000 0.0000 0.0000 1.6234 0.0000 0.0000
# 5 0.0000 0.0000 0.0000 0.0000 3.4738 0.0000
# 6 0.0000 0.0000 0.0000 0.0000 0.0000 27.3005
#
#
#
# Elastic Compliance Matrix: (Units=1/GPa)
#
#
# Indices 1 2 3 4 5 6 
#
# 1 0.027516 -0.003269 -0.009840 0.000000 0.000000 0.000000
# 2 -0.003269 0.012612 -0.004431 0.000000 0.000000 0.000000
# 3 -0.009840 -0.004431 0.018691 0.000000 0.000000 0.000000
# 4 0.000000 0.000000 0.000000 0.616001 0.000000 0.000000
# 5 0.000000 0.000000 0.000000 0.000000 0.287871 0.000000
# 6 0.000000 0.000000 0.000000 0.000000 0.000000 0.036629
#
#
# Mechanical properties :
#
#
# Convention : Reuss Voigt Hill
#
# Bulk Modulus (GPa) = 42.12586 46.24321 44.18453
# Shear Modulus (GPa) = 4.79702 15.48136 10.13919
#
# Velocity S-wave (km/s) = 1.51070 2.71391 2.19631
# Velocity P-wave (km/s) = 4.80463 5.64099 5.23953
#
# Compressibility (1/GPa) = 0.02373839
#
# Stress axis : x y z
#
# Youngs Moduli (GPa) = 36.34266 79.28938 53.50236
#
# Poissons Ratio (x) = 0.25923 0.52646
# Poissons Ratio (y) = 0.11882 0.23705
# Poissons Ratio (z) = 0.35761 0.35131
#
# Static dielectric constant tensor:
#      x y z
#    x 1.819330 0.000000 0.000000 
#    y 0.000000 1.840450 0.000000 
#    z 0.000000 0.000000 1.772390 
# 
# From -- ./inp_files/5578.got.cif
#   From: 2010.05.17/outbox.cif.g08.bks.cpg/sg18_3_cif.got.tgz:5578.got - 2010.06.03 22:40:56.
