data_PCOD9312449
_publ_section_title
;
Structure prediction by ZEFSAII (Michael W. Deem and Ramdas Pophale) SiO2 
 PCOD9312449
Probable space group: P 21 21 2
;
_chemical_formula_sum "Si O2"
_cell_formula_units_Z 24
_cell_length_a 8.177138
_cell_length_b 10.389527
_cell_length_c 12.816116
_cell_angle_alpha 90.000000
_cell_angle_beta 90.000000
_cell_angle_gamma 90.000000
_cell_volume 1088.813590
_symmetry_space_group_name_H-M "P 21 21 2"
_symmetry_group_IT_number 18
_symmetry_cell_setting 'orthorhombic'
loop_
_space_group_symop_operation_xyz
x,y,z
-x,-y,z
1/2+x,1/2-y,-z
1/2-x,1/2+y,-z
loop_
_atom_site_type_symbol
_atom_site_label
_atom_site_fract_x
_atom_site_fract_y
_atom_site_fract_z
Si Si1 0.296961 0.088860 0.200526
Si Si2 0.636187 0.742429 0.550966
Si Si3 0.319492 0.872841 0.843786
Si Si4 0.982664 0.749889 0.660405
Si Si5 0.500000 0.500000 0.665324
Si Si6 0.000000 0.500000 0.347560
Si Si7 0.500000 0.500000 0.195735
Si Si8 0.000000 0.500000 0.985009
O O1 0.216600 0.225405 0.173309
O O2 0.455938 0.134134 0.266892
O O3 0.352015 0.025680 0.093062
O O4 0.163129 0.011400 0.265420
O O5 0.816868 0.723329 0.597341
O O6 0.622480 0.730364 0.426739
O O7 0.522178 0.629203 0.597442
O O8 0.578074 0.885207 0.585041
O O9 0.375996 0.933025 0.733733
O O10 0.155919 0.953448 0.870038
O O11 0.452739 0.888475 0.934148
O O12 0.960744 0.877008 0.730875
#
# Coordination Sequence:
#
# PCOD9312449 Si02
#       8
#     4   4   4   4   2   2   2   2
#     4  11  25  46  66 101 139 175 232 298 349 417
#     4  12  25  41  70  99 143 183 234 271 351 417
#     4  10  23  45  70  96 130 181 235 283 359 417
#     4  11  25  41  67 102 141 185 227 289 344 423
#     4  12  25  43  70 102 140 184 223 293 346 416
#     4  11  22  45  68  98 132 189 222 291 332 434
#     4  10  21  43  68  96 138 176 233 285 348 420
#     4  11  26  43  68  98 134 171 234 295 356 418
#
# _framework density 22.042341
#
# number of rings (size 3 to 8) (size 9 to 14) (size 15 to 20)
#    0.000    1.000    3.333    2.500    2.333    8.000 
#    0.000    0.000    0.000    0.000    0.000    0.000 
#    0.000    0.000    0.000    0.000    0.000    0.000 
#
# Total GULP energy -134231.984449 kJ/mol
# GULP energy per Si atom -5592.999352 kJ/mol
# Density = 2.199217 g / cm^3
# Si number density = 22.042341 Si / 1000 Ang^3
#
#
#
# Elastic Constant Matrix: (Units=GPa)
#
#
# Indices 1 2 3 4 5 6 
#
# 1 49.2797 -6.3278 6.5011 0.0000 0.0000 0.0000
# 2 -6.3278 96.0939 25.5518 0.0000 0.0000 0.0000
# 3 6.5011 25.5518 90.3203 0.0000 0.0000 0.0000
# 4 0.0000 0.0000 0.0000 7.5787 0.0000 0.0000
# 5 0.0000 0.0000 0.0000 0.0000 42.9625 0.0000
# 6 0.0000 0.0000 0.0000 0.0000 0.0000 38.1257
#
#
#
# Elastic Compliance Matrix: (Units=1/GPa)
#
#
# Indices 1 2 3 4 5 6 
#
# 1 0.020807 0.001912 -0.002039 0.000000 0.000000 0.000000
# 2 0.001912 0.011429 -0.003371 0.000000 0.000000 0.000000
# 3 -0.002039 -0.003371 0.012172 0.000000 0.000000 0.000000
# 4 0.000000 0.000000 0.000000 0.131949 0.000000 0.000000
# 5 0.000000 0.000000 0.000000 0.000000 0.023276 0.000000
# 6 0.000000 0.000000 0.000000 0.000000 0.000000 0.026229
#
#
# Mechanical properties :
#
#
# Convention : Reuss Voigt Hill
#
# Bulk Modulus (GPa) = 26.72861 31.90490 29.31675
# Shear Modulus (GPa) = 20.38092 31.73129 26.05611
#
# Velocity S-wave (km/s) = 3.04407 3.79827 3.44189
# Velocity P-wave (km/s) = 4.95050 5.80875 5.39672
#
# Compressibility (1/GPa) = 0.03741310
#
# Stress axis : x y z
#
# Youngs Moduli (GPa) = 48.06121 87.49873 82.15530
#
# Poissons Ratio (x) = -0.16732 0.16748
# Poissons Ratio (y) = -0.09190 0.27693
# Poissons Ratio (z) = 0.09798 0.29495
#
# Static dielectric constant tensor:
#      x y z
#    x 1.873030 0.000000 0.000000 
#    y 0.000000 1.781840 0.000000 
#    z 0.000000 0.000000 1.756830 
# 
# From -- ./inp_files/5570.got.cif
#   From: 2010.05.17/outbox.cif.g08.bks.cpg/sg18_3_cif.got.tgz:5570.got - 2010.06.03 22:40:56.
