data_PCOD9312324
_publ_section_title
;
Structure prediction by ZEFSAII (Michael W. Deem and Ramdas Pophale) SiO2 
 PCOD9312324
Probable space group: P 21 21 2
;
_chemical_formula_sum "Si O2"
_cell_formula_units_Z 16
_cell_length_a 9.257832
_cell_length_b 9.924670
_cell_length_c 6.944207
_cell_angle_alpha 90.000000
_cell_angle_beta 90.000000
_cell_angle_gamma 90.000000
_cell_volume 638.040180
_symmetry_space_group_name_H-M "P 21 21 2"
_symmetry_group_IT_number 18
_symmetry_cell_setting 'orthorhombic'
loop_
_space_group_symop_operation_xyz
x,y,z
-x,-y,z
1/2+x,1/2-y,-z
1/2-x,1/2+y,-z
loop_
_atom_site_type_symbol
_atom_site_label
_atom_site_fract_x
_atom_site_fract_y
_atom_site_fract_z
Si Si1 0.352154 0.576600 0.003675
Si Si2 0.088897 0.380958 0.019123
Si Si3 0.610686 0.383401 0.462425
Si Si4 0.573099 0.862796 0.376510
O O1 0.500000 0.500000 0.959593
O O2 0.358840 0.730881 0.922203
O O3 0.346060 0.594524 0.237315
O O4 0.229089 0.466325 0.952053
O O5 0.000000 0.500000 0.131890
O O6 0.977203 0.345382 0.845860
O O7 0.500000 0.500000 0.517955
O O8 0.511280 0.253523 0.484567
O O9 0.759534 0.370658 0.575312
O O10 0.500000 0.000000 0.435404
#
# Coordination Sequence:
#
# PCOD9312324 Si02
#       4
#     4   4   4   4
#     4  10  21  39  63  92 127 169 215 269 331 393
#     4  10  21  39  61  91 129 166 214 270 327 398
#     4  10  21  39  65  97 131 170 215 268 328 393
#     4  10  21  39  61  92 131 169 215 267 324 390
#
# _framework density 25.076792000000001
#
# number of rings (size 3 to 8) (size 9 to 14) (size 15 to 20)
#    0.000    2.000    0.000    3.000    0.000    3.000 
#    0.000   20.000    0.000    0.000    0.000    0.000 
#    0.000    0.000    0.000    0.000    0.000    0.000 
#
# Total GULP energy -89341.463482 kJ/mol
# GULP energy per Si atom -5583.841468 kJ/mol
# Density = 2.501972 g / cm^3
# Si number density = 25.076792 Si / 1000 Ang^3
#
#
#
# Elastic Constant Matrix: (Units=GPa)
#
#
# Indices 1 2 3 4 5 6 
#
# 1 207.2364 85.0256 15.0057 0.0000 0.0000 0.0000
# 2 85.0256 251.9864 6.9188 0.0000 0.0000 0.0000
# 3 15.0057 6.9188 108.1160 0.0000 0.0000 0.0000
# 4 0.0000 0.0000 0.0000 -48.0948 0.0000 0.0000
# 5 0.0000 0.0000 0.0000 0.0000 29.7407 0.0000
# 6 0.0000 0.0000 0.0000 0.0000 0.0000 50.3802
#
#
#
# Elastic Compliance Matrix: (Units=1/GPa)
#
#
# Indices 1 2 3 4 5 6 
#
# 1 0.005648 -0.001887 -0.000663 0.000000 0.000000 0.000000
# 2 -0.001887 0.004606 -0.000033 0.000000 0.000000 0.000000
# 3 -0.000663 -0.000033 0.009343 0.000000 0.000000 0.000000
# 4 0.000000 0.000000 0.000000 -0.020792 0.000000 0.000000
# 5 0.000000 0.000000 0.000000 0.000000 0.033624 0.000000
# 6 0.000000 0.000000 0.000000 0.000000 0.000000 0.019849
#
#
# Mechanical properties :
#
#
# Convention : Reuss Voigt Hill
#
# Bulk Modulus (GPa) = 69.29639 86.80433 78.05036
# Shear Modulus (GPa) = 80.31444 37.09779 58.70612
#
# Velocity S-wave (km/s) = 5.66542 3.85043 4.84369
# Velocity P-wave (km/s) = 8.39581 7.37958 7.90404
#
# Compressibility (1/GPa) = 0.01443077
#
# Stress axis : x y z
#
# Youngs Moduli (GPa) = 177.05924 217.09632 107.02681
#
# Poissons Ratio (x) = 0.40977 0.07097
# Poissons Ratio (y) = 0.33420 0.00351
# Poissons Ratio (z) = 0.11741 0.00712
#
# Static dielectric constant tensor:
#      x y z
#    x 1.935810 0.000000 0.000000 
#    y 0.000000 1.918200 0.000000 
#    z 0.000000 0.000000 2.124290 
# 
# From -- ./inp_files/2770.got.cif
#   From: 2010.05.17/outbox.cif.g08.bks.cpg/sg18_2_cif.got.tgz:2770.got - 2010.06.03 22:40:56.
