data_PCOD9312320
_publ_section_title
;
Structure prediction by ZEFSAII (Michael W. Deem and Ramdas Pophale) SiO2 
 PCOD9312320
Probable space group: P 21 21 2
;
_chemical_formula_sum "Si O2"
_cell_formula_units_Z 32
_cell_length_a 7.914258
_cell_length_b 33.788427
_cell_length_c 5.488724
_cell_angle_alpha 90.000000
_cell_angle_beta 90.000000
_cell_angle_gamma 90.000000
_cell_volume 1467.741489
_symmetry_space_group_name_H-M "P 21 21 2"
_symmetry_group_IT_number 18
_symmetry_cell_setting 'orthorhombic'
loop_
_space_group_symop_operation_xyz
x,y,z
-x,-y,z
1/2+x,1/2-y,-z
1/2-x,1/2+y,-z
loop_
_atom_site_type_symbol
_atom_site_label
_atom_site_fract_x
_atom_site_fract_y
_atom_site_fract_z
Si Si1 0.349524 0.424424 0.582632
Si Si2 0.181319 0.502647 0.600188
Si Si3 0.052858 0.039144 0.030813
Si Si4 0.237435 0.295507 0.014112
Si Si5 0.170843 0.703821 0.996400
Si Si6 0.167150 0.664407 0.496374
Si Si7 0.263341 0.835202 0.485406
Si Si8 0.278131 0.578153 0.349257
O O1 0.231506 0.460106 0.493379
O O2 0.274020 0.381450 0.547298
O O3 0.531108 0.425204 0.452955
O O4 0.395962 0.436425 0.861032
O O5 0.172126 0.539280 0.415823
O O6 0.000000 0.500000 0.727683
O O7 0.334906 0.516058 0.770529
O O8 0.181665 0.072319 0.933245
O O9 0.000000 0.000000 0.871415
O O10 0.301179 0.318365 0.255829
O O11 0.033398 0.299563 0.006103
O O12 0.282100 0.249521 0.034013
O O13 0.302220 0.312805 0.756363
O O14 0.234132 0.687674 0.257849
O O15 0.232703 0.679734 0.757821
O O16 0.202154 0.618448 0.444648
O O17 0.965457 0.670347 0.506606
#
# Coordination Sequence:
#
# PCOD9312320 Si02
#       8
#     4   4   4   4   4   4   4   4
#     4  10  22  37  59  86 125 156 210 253 309 359
#     4  10  21  39  59  86 120 163 205 257 308 369
#     4   9  20  38  57  85 120 162 203 257 304 365
#     4  10  22  40  65  87 127 155 209 248 317 364
#     4  10  22  41  62  92 121 163 201 259 307 375
#     4  10  23  39  63  90 127 160 210 253 311 364
#     4  10  22  41  60  94 121 167 201 261 300 374
#     4  11  22  37  61  86 123 160 209 256 308 366
#
# _framework density 21.802206000000002
#
# number of rings (size 3 to 8) (size 9 to 14) (size 15 to 20)
#    0.000    2.000    0.000    3.375    5.250    2.500 
#    2.250    0.000    0.000    0.000    0.000    0.000 
#    0.000    0.000    0.000    0.000    0.000    0.000 
#
# Total GULP energy -178392.419017 kJ/mol
# GULP energy per Si atom -5574.763094 kJ/mol
# Density = 2.175258 g / cm^3
# Si number density = 21.802206 Si / 1000 Ang^3
#
#
#
# Elastic Constant Matrix: (Units=GPa)
#
#
# Indices 1 2 3 4 5 6 
#
# 1 30.0745 -11.7479 13.4527 0.0000 0.0000 0.0000
# 2 -11.7479 183.4155 94.1552 0.0000 0.0000 0.0000
# 3 13.4527 94.1552 136.5343 0.0000 0.0000 0.0000
# 4 0.0000 0.0000 0.0000 29.3119 0.0000 0.0000
# 5 0.0000 0.0000 0.0000 0.0000 2.1478 0.0000
# 6 0.0000 0.0000 0.0000 0.0000 0.0000 36.1035
#
#
#
# Elastic Compliance Matrix: (Units=1/GPa)
#
#
# Indices 1 2 3 4 5 6 
#
# 1 0.039971 0.007093 -0.008830 0.000000 0.000000 0.000000
# 2 0.007093 0.009698 -0.007387 0.000000 0.000000 0.000000
# 3 -0.008830 -0.007387 0.013288 0.000000 0.000000 0.000000
# 4 0.000000 0.000000 0.000000 0.034116 0.000000 0.000000
# 5 0.000000 0.000000 0.000000 0.000000 0.465585 0.000000
# 6 0.000000 0.000000 0.000000 0.000000 0.000000 0.027698
#
#
# Mechanical properties :
#
#
# Convention : Reuss Voigt Hill
#
# Bulk Modulus (GPa) = 22.36628 60.19381 41.28005
# Shear Modulus (GPa) = 8.01914 30.45693 19.23804
#
# Velocity S-wave (km/s) = 1.91993 3.74166 2.97373
# Velocity P-wave (km/s) = 3.89818 6.80703 5.54669
#
# Compressibility (1/GPa) = 0.04471016
#
# Stress axis : x y z
#
# Youngs Moduli (GPa) = 25.01814 103.10901 75.25424
#
# Poissons Ratio (x) = -0.73133 0.66446
# Poissons Ratio (y) = -0.17745 0.55590
# Poissons Ratio (z) = 0.22090 0.76167
#
# Static dielectric constant tensor:
#      x y z
#    x 1.793870 0.000000 0.000000 
#    y 0.000000 1.791170 0.000000 
#    z 0.000000 0.000000 1.990720 
# 
# From -- ./inp_files/798.got.cif
#   From: 2010.05.17/outbox.cif.g08.bks.cpg/sg18_1_cif.got.tgz:798.got - 2010.06.03 22:40:56.
