data_PCOD9312933
_publ_section_title
;
Structure prediction by ZEFSAII (Michael W. Deem and Ramdas Pophale) SiO2 
 PCOD9312933
Probable space group: P 21 21 2
;
_chemical_formula_sum "Si O2"
_cell_formula_units_Z 22
_cell_length_a 16.846958
_cell_length_b 4.869997
_cell_length_c 11.033985
_cell_angle_alpha 90.000000
_cell_angle_beta 90.000000
_cell_angle_gamma 90.000000
_cell_volume 905.279271
_symmetry_space_group_name_H-M "P 21 21 2"
_symmetry_group_IT_number 18
_symmetry_cell_setting 'orthorhombic'
loop_
_space_group_symop_operation_xyz
x,y,z
-x,-y,z
1/2+x,1/2-y,-z
1/2-x,1/2+y,-z
loop_
_atom_site_type_symbol
_atom_site_label
_atom_site_fract_x
_atom_site_fract_y
_atom_site_fract_z
Si Si1 0.912501 0.401151 0.294276
Si Si2 0.698514 0.812280 0.507233
Si Si3 0.000000 0.000000 0.443765
Si Si4 0.579825 0.103176 0.351388
Si Si5 0.289022 0.734410 0.157695
Si Si6 0.682525 0.253540 0.877135
O O1 0.835111 0.456310 0.373282
O O2 0.930972 0.093479 0.347315
O O3 0.891787 0.582022 0.176062
O O4 0.000000 0.500000 0.329673
O O5 0.729406 0.509987 0.528613
O O6 0.627058 0.850989 0.413515
O O7 0.045450 0.205494 0.539431
O O8 0.500000 0.000000 0.286321
O O9 0.645286 0.222017 0.260301
O O10 0.210632 0.938143 0.161415
O O11 0.258769 0.424652 0.160318
O O12 0.323640 0.767614 0.022468
#
# Coordination Sequence:
#
# PCOD9312933 Si02
#       6
#     4   4   2   4   4   4
#     4  12  25  42  67 100 145 188 231 297 352 425
#     4  12  24  40  63  95 132 182 236 276 346 414
#     4  12  24  44  64 106 156 182 234 292 358 434
#     4  12  25  42  67 100 145 188 231 297 352 425
#     4  10  24  47  74 104 139 185 244 299 352 422
#     4  10  24  47  74 104 139 185 244 299 352 422
#
# _framework density 24.301893
#
# number of rings (size 3 to 8) (size 9 to 14) (size 15 to 20)
#    0.000    0.727    3.636    3.273    5.091    0.727 
#    0.000    0.000    0.000    0.000    0.000    0.000 
#    0.000    0.000    0.000    0.000    0.000    0.000 
#
# Total GULP energy -122536.419140 kJ/mol
# GULP energy per Si atom -5569.837234 kJ/mol
# Density = 2.424658 g / cm^3
# Si number density = 24.301893 Si / 1000 Ang^3
#
#
#
# Elastic Constant Matrix: (Units=GPa)
#
#
# Indices 1 2 3 4 5 6 
#
# 1 91.8146 16.0313 22.2073 0.0000 0.0000 0.0000
# 2 16.0313 103.0701 2.8787 0.0000 0.0000 0.0000
# 3 22.2073 2.8787 82.2983 0.0000 0.0000 0.0000
# 4 0.0000 0.0000 0.0000 24.5310 0.0000 0.0000
# 5 0.0000 0.0000 0.0000 0.0000 41.3319 0.0000
# 6 0.0000 0.0000 0.0000 0.0000 0.0000 32.9876
#
#
#
# Elastic Compliance Matrix: (Units=1/GPa)
#
#
# Indices 1 2 3 4 5 6 
#
# 1 0.011967 -0.001773 -0.003167 0.000000 0.000000 0.000000
# 2 -0.001773 0.009974 0.000130 0.000000 0.000000 0.000000
# 3 -0.003167 0.000130 0.013001 0.000000 0.000000 0.000000
# 4 0.000000 0.000000 0.000000 0.040765 0.000000 0.000000
# 5 0.000000 0.000000 0.000000 0.000000 0.024194 0.000000
# 6 0.000000 0.000000 0.000000 0.000000 0.000000 0.030314
#
#
# Mechanical properties :
#
#
# Convention : Reuss Voigt Hill
#
# Bulk Modulus (GPa) = 39.49246 39.93528 39.71387
# Shear Modulus (GPa) = 33.72054 35.50780 34.61417
#
# Velocity S-wave (km/s) = 3.72905 3.82660 3.77814
# Velocity P-wave (km/s) = 5.90145 5.99937 5.95061
#
# Compressibility (1/GPa) = 0.02532129
#
# Stress axis : x y z
#
# Youngs Moduli (GPa) = 83.56229 100.25803 76.91708
#
# Poissons Ratio (x) = 0.17775 0.24361
# Poissons Ratio (y) = 0.14815 -0.00996
# Poissons Ratio (z) = 0.26466 -0.01298
#
# Static dielectric constant tensor:
#      x y z
#    x 2.014630 0.000000 0.000000 
#    y 0.000000 2.211680 0.000000 
#    z 0.000000 0.000000 2.009860 
# 
# From -- ./inp_files/6014.got.cif
#   From: 2010.05.17/outbox.cif.g08.bks.cpg/sg18_4_cif.got.tgz:6014.got - 2010.06.03 22:40:56.
