data_PCOD9312071
_publ_section_title
;
Structure prediction by ZEFSAII (Michael W. Deem and Ramdas Pophale) SiO2 
 PCOD9312071
Probable space group: P 21 21 2
;
_chemical_formula_sum "Si O2"
_cell_formula_units_Z 26
_cell_length_a 8.112481
_cell_length_b 16.757364
_cell_length_c 9.581832
_cell_angle_alpha 90.000000
_cell_angle_beta 90.000000
_cell_angle_gamma 90.000000
_cell_volume 1302.590625
_symmetry_space_group_name_H-M "P 21 21 2"
_symmetry_group_IT_number 18
_symmetry_cell_setting 'orthorhombic'
loop_
_space_group_symop_operation_xyz
x,y,z
-x,-y,z
1/2+x,1/2-y,-z
1/2-x,1/2+y,-z
loop_
_atom_site_type_symbol
_atom_site_label
_atom_site_fract_x
_atom_site_fract_y
_atom_site_fract_z
Si Si1 0.914384 0.917802 0.284933
Si Si2 0.000000 0.500000 0.260786
Si Si3 0.979373 0.327339 0.161632
Si Si4 0.652603 0.717285 0.607932
Si Si5 0.839157 0.944484 0.598295
Si Si6 0.011010 0.222676 0.682161
Si Si7 0.731523 0.792341 0.096241
O O1 0.820034 0.929806 0.432160
O O2 0.800678 0.870719 0.175722
O O3 0.062340 0.858746 0.328031
O O4 0.000000 0.000000 0.237527
O O5 0.973693 0.580582 0.173119
O O6 0.169771 0.518218 0.344533
O O7 0.933402 0.291825 0.313394
O O8 0.126101 0.273539 0.102300
O O9 0.826785 0.313978 0.057939
O O10 0.620805 0.721234 0.443663
O O11 0.844023 0.717010 0.641436
O O12 0.897625 0.863146 0.675260
O O13 0.000000 0.000000 0.612745
O O14 0.919029 0.252164 0.818895
#
# Coordination Sequence:
#
# PCOD9312071 Si02
#       7
#     4   2   4   4   4   4   4
#     4   9  21  43  62  99 134 166 216 275 342 394
#     4  12  24  42  68 102 134 174 226 278 340 424
#     4  11  24  43  63  95 131 175 225 271 333 403
#     4  10  20  37  66  92 128 172 212 267 324 403
#     4  10  21  39  66 102 137 168 215 284 341 397
#     4  11  20  39  65  98 129 170 224 266 335 397
#     4  11  24  44  68  90 132 183 221 277 333 403
#
# _framework density 19.960224
#
# number of rings (size 3 to 8) (size 9 to 14) (size 15 to 20)
#    0.000    1.538    1.538    4.615    0.000    2.462 
#    8.308    0.000    0.000    0.000    0.000    0.000 
#    0.000    0.000    0.000    0.000    0.000    0.000 
#
# Total GULP energy -145217.027956 kJ/mol
# GULP energy per Si atom -5585.270306 kJ/mol
# Density = 1.991479 g / cm^3
# Si number density = 19.960224 Si / 1000 Ang^3
#
#
#
# Elastic Constant Matrix: (Units=GPa)
#
#
# Indices 1 2 3 4 5 6 
#
# 1 95.3803 25.0113 28.8019 0.0000 0.0000 0.0000
# 2 25.0113 124.5743 37.2164 0.0000 0.0000 0.0000
# 3 28.8019 37.2164 53.4818 0.0000 0.0000 0.0000
# 4 0.0000 0.0000 0.0000 18.5755 0.0000 0.0000
# 5 0.0000 0.0000 0.0000 0.0000 38.6418 0.0000
# 6 0.0000 0.0000 0.0000 0.0000 0.0000 32.3999
#
#
#
# Elastic Compliance Matrix: (Units=1/GPa)
#
#
# Indices 1 2 3 4 5 6 
#
# 1 0.012560 -0.000632 -0.006324 0.000000 0.000000 0.000000
# 2 -0.000632 0.010166 -0.006734 0.000000 0.000000 0.000000
# 3 -0.006324 -0.006734 0.026789 0.000000 0.000000 0.000000
# 4 0.000000 0.000000 0.000000 0.053834 0.000000 0.000000
# 5 0.000000 0.000000 0.000000 0.000000 0.025879 0.000000
# 6 0.000000 0.000000 0.000000 0.000000 0.000000 0.030864
#
#
# Mechanical properties :
#
#
# Convention : Reuss Voigt Hill
#
# Bulk Modulus (GPa) = 45.17667 50.61061 47.89364
# Shear Modulus (GPa) = 25.66070 30.08389 27.87229
#
# Velocity S-wave (km/s) = 3.58940 3.88647 3.74089
# Velocity P-wave (km/s) = 6.31355 6.74910 6.53495
#
# Compressibility (1/GPa) = 0.02213532
#
# Stress axis : x y z
#
# Youngs Moduli (GPa) = 79.61918 98.36737 37.32840
#
# Poissons Ratio (x) = 0.06221 0.23606
# Poissons Ratio (y) = 0.05036 0.25135
# Poissons Ratio (z) = 0.50350 0.66237
#
# Static dielectric constant tensor:
#      x y z
#    x 1.709920 0.000000 0.000000 
#    y 0.000000 1.749760 0.000000 
#    z 0.000000 0.000000 1.702620 
# 
# From -- ./inp_files/3360.got.cif
#   From: 2010.05.17/outbox.cif.g08.bks.cpg/sg18_2_cif.got.tgz:3360.got - 2010.06.03 22:40:56.
