data_PCOD9312079
_publ_section_title
;
Structure prediction by ZEFSAII (Michael W. Deem and Ramdas Pophale) SiO2 
 PCOD9312079
Probable space group: P 21 21 2
;
_chemical_formula_sum "Si O2"
_cell_formula_units_Z 22
_cell_length_a 20.168996
_cell_length_b 8.918386
_cell_length_c 5.395608
_cell_angle_alpha 90.000000
_cell_angle_beta 90.000000
_cell_angle_gamma 90.000000
_cell_volume 970.534404
_symmetry_space_group_name_H-M "P 21 21 2"
_symmetry_group_IT_number 18
_symmetry_cell_setting 'orthorhombic'
loop_
_space_group_symop_operation_xyz
x,y,z
-x,-y,z
1/2+x,1/2-y,-z
1/2-x,1/2+y,-z
loop_
_atom_site_type_symbol
_atom_site_label
_atom_site_fract_x
_atom_site_fract_y
_atom_site_fract_z
Si Si1 0.745130 0.066700 0.361072
Si Si2 0.621795 0.381946 0.685556
Si Si3 0.666761 0.854155 0.644684
Si Si4 0.572327 0.245633 0.170564
Si Si5 0.000000 0.000000 0.068908
Si Si6 0.880542 0.434873 0.854215
O O1 0.808423 0.960150 0.342065
O O2 0.703101 0.015297 0.601948
O O3 0.775270 0.231068 0.346827
O O4 0.691226 0.020193 0.157892
O O5 0.601712 0.298393 0.433033
O O6 0.564416 0.501971 0.756453
O O7 0.618930 0.281159 0.932721
O O8 0.624368 0.833926 0.391928
O O9 0.621157 0.853066 0.885023
O O10 0.566634 0.067334 0.173749
O O11 0.510177 0.352194 0.100637
#
# Coordination Sequence:
#
# PCOD9312079 Si02
#       6
#     4   4   4   4   2   4
#     4  10  24  35  58  84 127 152 195 235 295 359
#     4  10  21  34  61  88 114 150 201 247 289 341
#     4  10  24  34  55  84 118 160 187 226 297 350
#     4  10  20  38  58  90 113 151 198 251 287 342
#     4   8  22  34  64  90 108 154 206 252 286 332
#     4  10  23  34  57  82 123 154 190 236 296 352
#
# _framework density 22.667925
#
# number of rings (size 3 to 8) (size 9 to 14) (size 15 to 20)
#    2.182    0.000    0.000    2.727   10.182    0.000 
#    0.000    0.000    0.000    1.091    0.000    0.000 
#    0.000    0.000    0.000    0.000    0.000    0.000 
#
# Total GULP energy -122510.142541 kJ/mol
# GULP energy per Si atom -5568.642843 kJ/mol
# Density = 2.261633 g / cm^3
# Si number density = 22.667925 Si / 1000 Ang^3
#
#
#
# Elastic Constant Matrix: (Units=GPa)
#
#
# Indices 1 2 3 4 5 6 
#
# 1 78.4251 20.5334 21.3960 0.0000 0.0000 0.0000
# 2 20.5334 25.0067 21.4651 0.0000 0.0000 0.0000
# 3 21.3960 21.4651 167.4397 0.0000 0.0000 0.0000
# 4 0.0000 0.0000 0.0000 144.4272 0.0000 0.0000
# 5 0.0000 0.0000 0.0000 0.0000 5.9017 0.0000
# 6 0.0000 0.0000 0.0000 0.0000 0.0000 58.9573
#
#
#
# Elastic Compliance Matrix: (Units=1/GPa)
#
#
# Indices 1 2 3 4 5 6 
#
# 1 0.016268 -0.013005 -0.000412 0.000000 0.000000 0.000000
# 2 -0.013005 0.055330 -0.005431 0.000000 0.000000 0.000000
# 3 -0.000412 -0.005431 0.006721 0.000000 0.000000 0.000000
# 4 0.000000 0.000000 0.000000 0.006924 0.000000 0.000000
# 5 0.000000 0.000000 0.000000 0.000000 0.169442 0.000000
# 6 0.000000 0.000000 0.000000 0.000000 0.000000 0.016961
#
#
# Mechanical properties :
#
#
# Convention : Reuss Voigt Hill
#
# Bulk Modulus (GPa) = 24.61613 44.18451 34.40032
# Shear Modulus (GPa) = 15.48550 55.68904 35.58727
#
# Velocity S-wave (km/s) = 2.61654 4.96192 3.96654
# Velocity P-wave (km/s) = 4.47341 7.23616 6.01554
#
# Compressibility (1/GPa) = 0.04062377
#
# Stress axis : x y z
#
# Youngs Moduli (GPa) = 61.46939 18.07348 148.78365
#
# Poissons Ratio (x) = 0.23504 0.06125
# Poissons Ratio (y) = 0.79939 0.80808
# Poissons Ratio (z) = 0.02530 0.09816
#
# Static dielectric constant tensor:
#      x y z
#    x 1.834240 0.000000 0.000000 
#    y 0.000000 1.886500 0.000000 
#    z 0.000000 0.000000 1.743020 
# 
# From -- ./inp_files/2182.got.cif
#   From: 2010.05.17/outbox.cif.g08.bks.cpg/sg18_2_cif.got.tgz:2182.got - 2010.06.03 22:40:56.
