data_PCOD9312359
_publ_section_title
;
Structure prediction by ZEFSAII (Michael W. Deem and Ramdas Pophale) SiO2 
 PCOD9312359
Probable space group: P 21 21 2
;
_chemical_formula_sum "Si O2"
_cell_formula_units_Z 20
_cell_length_a 9.202066
_cell_length_b 9.210971
_cell_length_c 11.468768
_cell_angle_alpha 90.000000
_cell_angle_beta 90.000000
_cell_angle_gamma 90.000000
_cell_volume 972.092352
_symmetry_space_group_name_H-M "P 21 21 2"
_symmetry_group_IT_number 18
_symmetry_cell_setting 'orthorhombic'
loop_
_space_group_symop_operation_xyz
x,y,z
-x,-y,z
1/2+x,1/2-y,-z
1/2-x,1/2+y,-z
loop_
_atom_site_type_symbol
_atom_site_label
_atom_site_fract_x
_atom_site_fract_y
_atom_site_fract_z
Si Si1 0.395634 0.637440 0.553040
Si Si2 0.396836 0.642801 0.818811
Si Si3 0.667048 0.804493 0.856911
Si Si4 0.108248 0.630920 0.406607
Si Si5 0.668566 0.025201 0.040442
O O1 0.500000 0.500000 0.555705
O O2 0.358515 0.680120 0.686278
O O3 0.253010 0.602681 0.480086
O O4 0.503289 0.766506 0.515953
O O5 0.500000 0.500000 0.815846
O O6 0.498036 0.761543 0.881587
O O7 0.255025 0.595586 0.885201
O O8 0.665556 0.800915 0.715848
O O9 0.766804 0.679135 0.915309
O O10 0.699282 0.963437 0.909336
O O11 0.000000 0.500000 0.375269
O O12 0.500000 0.000000 0.064479
#
# Coordination Sequence:
#
# PCOD9312359 Si02
#       5
#     4   4   4   4   4
#     4  10  21  40  63  89 121 159 200 247 309 371
#     4   8  18  36  56  80 116 152 184 235 300 353
#     4  10  22  40  58  85 122 160 197 247 310 357
#     4  11  23  40  63  90 124 161 202 253 308 368
#     4  11  21  36  61  86 113 152 203 248 291 359
#
# _framework density 20.574178
#
# number of rings (size 3 to 8) (size 9 to 14) (size 15 to 20)
#    0.000    2.000    0.000    4.200    0.000    4.000 
#    0.000    5.000    0.000    0.000    0.000    0.000 
#    0.000    0.000    0.000    0.000    0.000    0.000 
#
# Total GULP energy -111426.418101 kJ/mol
# GULP energy per Si atom -5571.320905 kJ/mol
# Density = 2.052735 g / cm^3
# Si number density = 20.574178 Si / 1000 Ang^3
#
#
#
# Elastic Constant Matrix: (Units=GPa)
#
#
# Indices 1 2 3 4 5 6 
#
# 1 131.8648 27.9942 58.9138 0.0000 0.0000 0.0000
# 2 27.9942 89.4147 18.5848 0.0000 0.0000 0.0000
# 3 58.9138 18.5848 72.5949 0.0000 0.0000 0.0000
# 4 0.0000 0.0000 0.0000 -9.4989 0.0000 0.0000
# 5 0.0000 0.0000 0.0000 0.0000 21.1164 0.0000
# 6 0.0000 0.0000 0.0000 0.0000 0.0000 36.8114
#
#
#
# Elastic Compliance Matrix: (Units=1/GPa)
#
#
# Indices 1 2 3 4 5 6 
#
# 1 0.012183 -0.001858 -0.009411 0.000000 0.000000 0.000000
# 2 -0.001858 0.012096 -0.001589 0.000000 0.000000 0.000000
# 3 -0.009411 -0.001589 0.021819 0.000000 0.000000 0.000000
# 4 0.000000 0.000000 0.000000 -0.105276 0.000000 0.000000
# 5 0.000000 0.000000 0.000000 0.000000 0.047357 0.000000
# 6 0.000000 0.000000 0.000000 0.000000 0.000000 0.027166
#
#
# Mechanical properties :
#
#
# Convention : Reuss Voigt Hill
#
# Bulk Modulus (GPa) = 49.06286 56.09557 52.57922
# Shear Modulus (GPa) = 104.48531 22.24454 63.36493
#
# Velocity S-wave (km/s) = 7.13407 3.29171 5.55564
# Velocity P-wave (km/s) = 9.57907 6.46308 8.17098
#
# Compressibility (1/GPa) = 0.02038202
#
# Stress axis : x y z
#
# Youngs Moduli (GPa) = 82.08450 82.67344 45.83125
#
# Poissons Ratio (x) = 0.15361 0.43132
# Poissons Ratio (y) = 0.15252 0.07281
# Poissons Ratio (z) = 0.77249 0.13134
#
# Static dielectric constant tensor:
#      x y z
#    x 1.716820 0.000000 0.000000 
#    y 0.000000 1.855550 0.000000 
#    z 0.000000 0.000000 1.750800 
# 
# From -- ./inp_files/5391.got.cif
#   From: 2010.05.17/outbox.cif.g08.bks.cpg/sg18_3_cif.got.tgz:5391.got - 2010.06.03 22:40:56.
