data_PCOD9312711
_publ_section_title
;
Structure prediction by ZEFSAII (Michael W. Deem and Ramdas Pophale) SiO2 
 PCOD9312711
Probable space group: P 21 21 2
;
_chemical_formula_sum "Si O2"
_cell_formula_units_Z 30
_cell_length_a 5.041732
_cell_length_b 21.709710
_cell_length_c 12.671355
_cell_angle_alpha 90.000000
_cell_angle_beta 90.000000
_cell_angle_gamma 90.000000
_cell_volume 1386.937328
_symmetry_space_group_name_H-M "P 21 21 2"
_symmetry_group_IT_number 18
_symmetry_cell_setting 'orthorhombic'
loop_
_space_group_symop_operation_xyz
x,y,z
-x,-y,z
1/2+x,1/2-y,-z
1/2-x,1/2+y,-z
loop_
_atom_site_type_symbol
_atom_site_label
_atom_site_fract_x
_atom_site_fract_y
_atom_site_fract_z
Si Si1 0.772154 0.307601 0.601839
Si Si2 0.038483 0.141350 0.182056
Si Si3 0.950249 0.573041 0.910600
Si Si4 0.000000 0.000000 0.844281
Si Si5 0.222072 0.827502 0.534171
Si Si6 0.611921 0.062339 0.677974
Si Si7 0.223815 0.743075 0.065789
Si Si8 0.641496 0.894625 0.881207
O O1 0.662198 0.342035 0.704187
O O2 0.741877 0.233324 0.606771
O O3 0.576679 0.326961 0.507334
O O4 0.071708 0.321224 0.563888
O O5 0.792329 0.094522 0.163951
O O6 0.914291 0.205238 0.137634
O O7 0.285343 0.111038 0.120563
O O8 0.000000 0.500000 0.902152
O O9 0.905898 0.594466 0.033258
O O10 0.166429 0.048737 0.910404
O O11 0.818924 0.038676 0.764692
O O12 0.281101 0.889151 0.596525
O O13 0.406667 0.094493 0.757294
O O14 0.500000 0.000000 0.626643
O O15 0.239721 0.674578 0.110496
O O16 0.519196 0.761094 0.032252
#
# Coordination Sequence:
#
# PCOD9312711 Si02
#       8
#     4   4   4   2   4   4   4   4
#     4  10  23  43  70  97 125 172 216 273 331 401
#     4  12  24  46  65  98 138 170 228 278 325 398
#     4  12  26  42  67  90 133 187 224 270 322 396
#     4  10  24  40  66  98 138 180 228 268 340 420
#     4  10  22  44  71  97 128 165 219 268 346 396
#     4  10  23  41  64 101 132 169 218 276 342 397
#     4  12  24  41  64 101 134 178 220 276 337 384
#     4  11  24  41  65  97 140 175 229 265 339 403
#
# _framework density 21.630393999999999
#
# number of rings (size 3 to 8) (size 9 to 14) (size 15 to 20)
#    0.000    1.067    2.667    3.200    9.333    0.000 
#    4.800    4.000    0.000    0.000    0.000    0.000 
#    0.000    0.000    0.000    0.000    0.000    0.000 
#
# Total GULP energy -167579.421640 kJ/mol
# GULP energy per Si atom -5585.980721 kJ/mol
# Density = 2.158116 g / cm^3
# Si number density = 21.630394 Si / 1000 Ang^3
#
#
#
# Elastic Constant Matrix: (Units=GPa)
#
#
# Indices 1 2 3 4 5 6 
#
# 1 54.1044 3.9047 -20.1240 0.0000 0.0000 0.0000
# 2 3.9047 150.9689 28.4643 0.0000 0.0000 0.0000
# 3 -20.1240 28.4643 35.1400 0.0000 0.0000 0.0000
# 4 0.0000 0.0000 0.0000 38.2192 0.0000 0.0000
# 5 0.0000 0.0000 0.0000 0.0000 13.1138 0.0000
# 6 0.0000 0.0000 0.0000 0.0000 0.0000 27.6638
#
#
#
# Elastic Compliance Matrix: (Units=1/GPa)
#
#
# Indices 1 2 3 4 5 6 
#
# 1 0.025388 -0.004010 0.017788 0.000000 0.000000 0.000000
# 2 -0.004010 0.008451 -0.009143 0.000000 0.000000 0.000000
# 3 0.017788 -0.009143 0.046050 0.000000 0.000000 0.000000
# 4 0.000000 0.000000 0.000000 0.026165 0.000000 0.000000
# 5 0.000000 0.000000 0.000000 0.000000 0.076255 0.000000
# 6 0.000000 0.000000 0.000000 0.000000 0.000000 0.036148
#
#
# Mechanical properties :
#
#
# Convention : Reuss Voigt Hill
#
# Bulk Modulus (GPa) = 11.21578 29.41146 20.31362
# Shear Modulus (GPa) = 20.92852 30.99727 25.96289
#
# Velocity S-wave (km/s) = 3.11392 3.78966 3.46829
# Velocity P-wave (km/s) = 4.25736 5.72499 5.04483
#
# Compressibility (1/GPa) = 0.08916011
#
# Stress axis : x y z
#
# Youngs Moduli (GPa) = 39.38798 118.32375 21.71542
#
# Poissons Ratio (x) = 0.47454 -0.38628
# Poissons Ratio (y) = 0.15797 0.19853
# Poissons Ratio (z) = -0.70064 1.08178
#
# Static dielectric constant tensor:
#      x y z
#    x 1.908160 0.000000 0.000000 
#    y 0.000000 1.792330 0.000000 
#    z 0.000000 0.000000 1.785790 
# 
# From -- ./inp_files/5229.got.cif
#   From: 2010.05.17/outbox.cif.g08.bks.cpg/sg18_3_cif.got.tgz:5229.got - 2010.06.03 22:40:56.
