data_PCOD9312692
_publ_section_title
;
Structure prediction by ZEFSAII (Michael W. Deem and Ramdas Pophale) SiO2 
 PCOD9312692
Probable space group: P 21 21 2
;
_chemical_formula_sum "Si O2"
_cell_formula_units_Z 20
_cell_length_a 8.721035
_cell_length_b 10.708423
_cell_length_c 9.552137
_cell_angle_alpha 90.000000
_cell_angle_beta 90.000000
_cell_angle_gamma 90.000000
_cell_volume 892.060050
_symmetry_space_group_name_H-M "P 21 21 2"
_symmetry_group_IT_number 18
_symmetry_cell_setting 'orthorhombic'
loop_
_space_group_symop_operation_xyz
x,y,z
-x,-y,z
1/2+x,1/2-y,-z
1/2-x,1/2+y,-z
loop_
_atom_site_type_symbol
_atom_site_label
_atom_site_fract_x
_atom_site_fract_y
_atom_site_fract_z
Si Si1 0.757204 0.235314 0.178382
Si Si2 0.745102 0.707425 0.326773
Si Si3 0.946781 0.137830 0.922040
Si Si4 0.827592 0.478103 0.696716
Si Si5 0.086029 0.662531 0.434122
O O1 0.590618 0.281549 0.131615
O O2 0.820067 0.331349 0.292135
O O3 0.755708 0.102803 0.259791
O O4 0.864522 0.212566 0.045907
O O5 0.672371 0.623120 0.206934
O O6 0.853373 0.450723 0.531403
O O7 0.627706 0.725516 0.456927
O O8 0.910844 0.675199 0.386683
O O9 0.000000 0.000000 0.967149
O O10 0.751367 0.347962 0.742298
O O11 0.000000 0.500000 0.753671
#
# Coordination Sequence:
#
# PCOD9312692 Si02
#       5
#     4   4   4   4   4
#     4  12  26  49  72 106 153 192 252 305 372 436
#     4  10  22  47  70 110 143 187 250 296 375 436
#     4  12  29  46  72 109 148 199 248 306 368 447
#     4  10  22  43  76 101 143 193 234 309 372 420
#     4  10  23  43  74 103 140 194 242 307 366 436
#
# _framework density 22.420013999999998
#
# number of rings (size 3 to 8) (size 9 to 14) (size 15 to 20)
#    1.200    0.000    2.000    3.600    5.600    3.200 
#    0.000    2.000    0.000    0.000    0.000    0.000 
#    0.000    0.000    0.000    0.000    0.000    0.000 
#
# Total GULP energy -111612.491396 kJ/mol
# GULP energy per Si atom -5580.624570 kJ/mol
# Density = 2.236899 g / cm^3
# Si number density = 22.420014 Si / 1000 Ang^3
#
#
#
# Elastic Constant Matrix: (Units=GPa)
#
#
# Indices 1 2 3 4 5 6 
#
# 1 78.1902 14.3203 32.2373 0.0000 0.0000 0.0000
# 2 14.3203 70.5679 10.5166 0.0000 0.0000 0.0000
# 3 32.2373 10.5166 98.9458 0.0000 0.0000 0.0000
# 4 0.0000 0.0000 0.0000 28.4477 0.0000 0.0000
# 5 0.0000 0.0000 0.0000 0.0000 45.0585 0.0000
# 6 0.0000 0.0000 0.0000 0.0000 0.0000 22.9209
#
#
#
# Elastic Compliance Matrix: (Units=1/GPa)
#
#
# Indices 1 2 3 4 5 6 
#
# 1 0.015157 -0.002377 -0.004685 0.000000 0.000000 0.000000
# 2 -0.002377 0.014772 -0.000795 0.000000 0.000000 0.000000
# 3 -0.004685 -0.000795 0.011718 0.000000 0.000000 0.000000
# 4 0.000000 0.000000 0.000000 0.035152 0.000000 0.000000
# 5 0.000000 0.000000 0.000000 0.000000 0.022193 0.000000
# 6 0.000000 0.000000 0.000000 0.000000 0.000000 0.043628
#
#
# Mechanical properties :
#
#
# Convention : Reuss Voigt Hill
#
# Bulk Modulus (GPa) = 38.56643 40.20580 39.38611
# Shear Modulus (GPa) = 29.94381 31.99408 30.96894
#
# Velocity S-wave (km/s) = 3.65853 3.78171 3.72063
# Velocity P-wave (km/s) = 5.92331 6.08608 6.00524
#
# Compressibility (1/GPa) = 0.02592929
#
# Stress axis : x y z
#
# Youngs Moduli (GPa) = 65.97817 67.69682 85.34140
#
# Poissons Ratio (x) = 0.16094 0.39986
# Poissons Ratio (y) = 0.15686 0.06788
# Poissons Ratio (z) = 0.30914 0.05385
#
# Static dielectric constant tensor:
#      x y z
#    x 1.815940 0.000000 0.000000 
#    y 0.000000 1.927630 0.000000 
#    z 0.000000 0.000000 1.827340 
# 
# From -- ./inp_files/2955.got.cif
#   From: 2010.05.17/outbox.cif.g08.bks.cpg/sg18_2_cif.got.tgz:2955.got - 2010.06.03 22:40:56.
