data_PCOD9312906
_publ_section_title
;
Structure prediction by ZEFSAII (Michael W. Deem and Ramdas Pophale) SiO2 
 PCOD9312906
Probable space group: P 21 21 2
;
_chemical_formula_sum "Si O2"
_cell_formula_units_Z 18
_cell_length_a 14.771830
_cell_length_b 9.251809
_cell_length_c 5.339929
_cell_angle_alpha 90.000000
_cell_angle_beta 90.000000
_cell_angle_gamma 90.000000
_cell_volume 729.787536
_symmetry_space_group_name_H-M "P 21 21 2"
_symmetry_group_IT_number 18
_symmetry_cell_setting 'orthorhombic'
loop_
_space_group_symop_operation_xyz
x,y,z
-x,-y,z
1/2+x,1/2-y,-z
1/2-x,1/2+y,-z
loop_
_atom_site_type_symbol
_atom_site_label
_atom_site_fract_x
_atom_site_fract_y
_atom_site_fract_z
Si Si1 0.000000 0.000000 0.525958
Si Si2 0.742168 0.938761 0.115813
Si Si3 0.864894 0.157715 0.887110
Si Si4 0.144334 0.512949 0.393676
Si Si5 0.001941 0.283252 0.253699
O O1 0.967708 0.867253 0.361164
O O2 0.084508 0.939852 0.683969
O O3 0.829991 0.042055 0.094019
O O4 0.685523 0.018395 0.336185
O O5 0.718163 0.768668 0.179333
O O6 0.714104 0.941904 0.821524
O O7 0.945915 0.256329 0.001501
O O8 0.072754 0.642183 0.430887
O O9 0.086071 0.389132 0.258283
#
# Coordination Sequence:
#
# PCOD9312906 Si02
#       5
#     2   4   4   4   4
#     4  12  24  44  68 102 146 186 242 302 352 438
#     4  11  26  46  73 106 146 187 240 299 362 432
#     4  11  27  45  69 109 146 192 243 298 370 429
#     4  10  24  46  75 101 139 190 240 292 362 426
#     4  10  24  44  71 102 142 184 242 297 356 433
#
# _framework density 24.664712000000002
#
# number of rings (size 3 to 8) (size 9 to 14) (size 15 to 20)
#    0.000    1.333    2.222    0.667    9.333    3.556 
#    0.000    0.000    0.000    0.000    0.000    0.000 
#    0.000    0.000    0.000    0.000    0.000    0.000 
#
# Total GULP energy -100394.024948 kJ/mol
# GULP energy per Si atom -5577.445830 kJ/mol
# Density = 2.460857 g / cm^3
# Si number density = 24.664712 Si / 1000 Ang^3
#
#
#
# Elastic Constant Matrix: (Units=GPa)
#
#
# Indices 1 2 3 4 5 6 
#
# 1 47.3190 24.2383 14.9572 0.0000 0.0000 0.0000
# 2 24.2383 125.4424 6.3864 0.0000 0.0000 0.0000
# 3 14.9572 6.3864 69.9234 0.0000 0.0000 0.0000
# 4 0.0000 0.0000 0.0000 29.6487 0.0000 0.0000
# 5 0.0000 0.0000 0.0000 0.0000 70.5088 0.0000
# 6 0.0000 0.0000 0.0000 0.0000 0.0000 30.2581
#
#
#
# Elastic Compliance Matrix: (Units=1/GPa)
#
#
# Indices 1 2 3 4 5 6 
#
# 1 0.025044 -0.004588 -0.004938 0.000000 0.000000 0.000000
# 2 -0.004588 0.008849 0.000173 0.000000 0.000000 0.000000
# 3 -0.004938 0.000173 0.015342 0.000000 0.000000 0.000000
# 4 0.000000 0.000000 0.000000 0.033728 0.000000 0.000000
# 5 0.000000 0.000000 0.000000 0.000000 0.014183 0.000000
# 6 0.000000 0.000000 0.000000 0.000000 0.000000 0.033049
#
#
# Mechanical properties :
#
#
# Convention : Reuss Voigt Hill
#
# Bulk Modulus (GPa) = 32.75477 37.09427 34.92452
# Shear Modulus (GPa) = 31.43129 39.22333 35.32731
#
# Velocity S-wave (km/s) = 3.57367 3.99213 3.78868
# Velocity P-wave (km/s) = 5.50790 6.02674 5.77315
#
# Compressibility (1/GPa) = 0.03052990
#
# Stress axis : x y z
#
# Youngs Moduli (GPa) = 39.92972 113.00187 65.18116
#
# Poissons Ratio (x) = 0.51841 0.32187
# Poissons Ratio (y) = 0.18318 -0.01128
# Poissons Ratio (z) = 0.19718 -0.01956
#
# Static dielectric constant tensor:
#      x y z
#    x 2.071870 0.000000 0.000000 
#    y 0.000000 1.951590 0.000000 
#    z 0.000000 0.000000 1.935270 
# 
# From -- ./inp_files/474.got.cif
#   From: 2010.05.17/outbox.cif.g08.bks.cpg/sg18_1_cif.got.tgz:474.got - 2010.06.03 22:40:56.
