data_PCOD9312263
_publ_section_title
;
Structure prediction by ZEFSAII (Michael W. Deem and Ramdas Pophale) SiO2 
 PCOD9312263
Probable space group: P 21 21 2
;
_chemical_formula_sum "Si O2"
_cell_formula_units_Z 24
_cell_length_a 5.130194
_cell_length_b 13.563278
_cell_length_c 13.726163
_cell_angle_alpha 90.000000
_cell_angle_beta 90.000000
_cell_angle_gamma 90.000000
_cell_volume 955.097270
_symmetry_space_group_name_H-M "P 21 21 2"
_symmetry_group_IT_number 18
_symmetry_cell_setting 'orthorhombic'
loop_
_space_group_symop_operation_xyz
x,y,z
-x,-y,z
1/2+x,1/2-y,-z
1/2-x,1/2+y,-z
loop_
_atom_site_type_symbol
_atom_site_label
_atom_site_fract_x
_atom_site_fract_y
_atom_site_fract_z
Si Si1 0.422380 0.181890 0.413888
Si Si2 0.429944 0.317164 0.717590
Si Si3 0.326451 0.621894 0.029432
Si Si4 0.079498 0.106184 0.568813
Si Si5 0.821409 0.643292 0.920000
Si Si6 0.842668 0.405737 0.240810
O O1 0.697401 0.346842 0.664620
O O2 0.697420 0.171030 0.360493
O O3 0.405844 0.296987 0.445096
O O4 0.350938 0.126142 0.512963
O O5 0.312011 0.367926 0.814491
O O6 0.473356 0.202103 0.748749
O O7 0.329742 0.739362 0.056441
O O8 0.238080 0.575845 0.130526
O O9 0.616559 0.597687 0.995590
O O10 0.113108 0.607870 0.943798
O O11 0.104948 0.103255 0.685130
O O12 0.000000 0.000000 0.532430
O O13 0.000000 0.500000 0.276274
#
# Coordination Sequence:
#
# PCOD9312263 Si02
#       6
#     4   4   4   4   4   4
#     4  11  23  41  63  96 129 168 223 275 327 402
#     4  10  21  38  63  89 124 164 215 272 319 386
#     4   9  18  31  53  83 117 151 194 245 303 383
#     4  11  24  42  67  98 137 179 221 281 348 406
#     4   9  17  33  55  82 112 153 199 248 309 368
#     4  10  21  35  57  92 128 165 207 261 332 397
#
# _framework density 25.128329999999998
#
# number of rings (size 3 to 8) (size 9 to 14) (size 15 to 20)
#    0.000    2.000    0.000    4.000    0.000   10.667 
#    0.000    0.000    0.000    4.000    0.000    0.000 
#    0.000    0.000    0.000    0.000    0.000    0.000 
#
# Total GULP energy -134235.350172 kJ/mol
# GULP energy per Si atom -5593.139591 kJ/mol
# Density = 2.507114 g / cm^3
# Si number density = 25.128330 Si / 1000 Ang^3
#
#
#
# Elastic Constant Matrix: (Units=GPa)
#
#
# Indices 1 2 3 4 5 6 
#
# 1 111.6804 -1.9388 25.2471 0.0000 0.0000 0.0000
# 2 -1.9388 60.8334 -2.7733 0.0000 0.0000 0.0000
# 3 25.2471 -2.7733 124.6608 0.0000 0.0000 0.0000
# 4 0.0000 0.0000 0.0000 11.5262 0.0000 0.0000
# 5 0.0000 0.0000 0.0000 0.0000 29.8614 0.0000
# 6 0.0000 0.0000 0.0000 0.0000 0.0000 39.5309
#
#
#
# Elastic Compliance Matrix: (Units=1/GPa)
#
#
# Indices 1 2 3 4 5 6 
#
# 1 0.009386 0.000213 -0.001896 0.000000 0.000000 0.000000
# 2 0.000213 0.016460 0.000323 0.000000 0.000000 0.000000
# 3 -0.001896 0.000323 0.008413 0.000000 0.000000 0.000000
# 4 0.000000 0.000000 0.000000 0.086759 0.000000 0.000000
# 5 0.000000 0.000000 0.000000 0.000000 0.033488 0.000000
# 6 0.000000 0.000000 0.000000 0.000000 0.000000 0.025297
#
#
# Mechanical properties :
#
#
# Convention : Reuss Voigt Hill
#
# Bulk Modulus (GPa) = 31.70738 37.58274 34.64506
# Shear Modulus (GPa) = 25.90181 34.62635 30.26408
#
# Velocity S-wave (km/s) = 3.21406 3.71614 3.47418
# Velocity P-wave (km/s) = 5.13996 5.77942 5.46905
#
# Compressibility (1/GPa) = 0.03153840
#
# Stress axis : x y z
#
# Youngs Moduli (GPa) = 106.53603 60.75391 118.86360
#
# Poissons Ratio (x) = -0.01292 0.22540
# Poissons Ratio (y) = -0.02266 -0.03841
# Poissons Ratio (z) = 0.20202 -0.01963
#
# Static dielectric constant tensor:
#      x y z
#    x 1.968850 0.000000 0.000000 
#    y 0.000000 2.102680 0.000000 
#    z 0.000000 0.000000 1.953250 
# 
# From -- ./inp_files/6485.got.cif
#   From: 2010.05.17/outbox.cif.g08.bks.cpg/sg18_4_cif.got.tgz:6485.got - 2010.06.03 22:40:56.
