data_PCOD9312120
_publ_section_title
;
Structure prediction by ZEFSAII (Michael W. Deem and Ramdas Pophale) SiO2 
 PCOD9312120
Probable space group: P 21 21 2
;
_chemical_formula_sum "Si O2"
_cell_formula_units_Z 32
_cell_length_a 10.813599
_cell_length_b 15.277119
_cell_length_c 8.880854
_cell_angle_alpha 90.000000
_cell_angle_beta 90.000000
_cell_angle_gamma 90.000000
_cell_volume 1467.122753
_symmetry_space_group_name_H-M "P 21 21 2"
_symmetry_group_IT_number 18
_symmetry_cell_setting 'orthorhombic'
loop_
_space_group_symop_operation_xyz
x,y,z
-x,-y,z
1/2+x,1/2-y,-z
1/2-x,1/2+y,-z
loop_
_atom_site_type_symbol
_atom_site_label
_atom_site_fract_x
_atom_site_fract_y
_atom_site_fract_z
Si Si1 0.664582 0.192321 0.219480
Si Si2 0.674947 0.344737 0.717976
Si Si3 0.993465 0.775262 0.532749
Si Si4 0.647863 0.997149 0.821906
Si Si5 0.622161 0.817366 0.726293
Si Si6 0.353540 0.006131 0.178174
Si Si7 0.987810 0.784257 0.026346
Si Si8 0.321876 0.336109 0.234204
O O1 0.555221 0.215972 0.331468
O O2 0.780416 0.240656 0.286148
O O3 0.693111 0.091709 0.203425
O O4 0.623111 0.239410 0.066134
O O5 0.606631 0.332981 0.558136
O O6 0.773707 0.422303 0.733742
O O7 0.745781 0.253893 0.751191
O O8 0.569940 0.349135 0.849149
O O9 0.034781 0.702287 0.412336
O O10 0.095540 0.836421 0.613256
O O11 0.727720 0.082555 0.782233
O O12 0.500000 0.000000 0.789389
O O13 0.687856 0.910224 0.733521
O O14 0.659490 0.977748 0.999523
O O15 0.551299 0.795193 0.881593
O O16 0.500000 0.000000 0.214154
O O17 0.085491 0.827647 0.910460
#
# Coordination Sequence:
#
# PCOD9312120 Si02
#       8
#     4   4   4   4   4   4   4   4
#     4  11  22  41  64  92 128 168 215 265 325 394
#     4  11  22  42  68  99 136 175 224 278 335 398
#     4  10  24  44  64  92 136 180 216 272 338 390
#     4  11  22  39  69 102 127 164 222 279 329 391
#     4  11  22  41  64  92 128 168 215 265 325 394
#     4  11  22  39  69 102 127 164 222 279 329 391
#     4  10  20  38  68  98 134 172 210 278 344 392
#     4  11  22  42  68  99 136 175 224 278 335 398
#
# _framework density 21.811399999999999
#
# number of rings (size 3 to 8) (size 9 to 14) (size 15 to 20)
#    0.000    1.250    0.000    9.000    0.000    0.000 
#    0.000   25.000    0.000    6.000    0.000    0.000 
#    0.000    0.000    0.000    0.000    0.000    0.000 
#
# Total GULP energy -178841.603009 kJ/mol
# GULP energy per Si atom -5588.800094 kJ/mol
# Density = 2.176176 g / cm^3
# Si number density = 21.811400 Si / 1000 Ang^3
#
#
#
# Elastic Constant Matrix: (Units=GPa)
#
#
# Indices 1 2 3 4 5 6 
#
# 1 70.5189 21.5050 26.7780 0.0000 0.0000 0.0000
# 2 21.5050 62.5960 23.2672 0.0000 0.0000 0.0000
# 3 26.7780 23.2672 87.4750 0.0000 0.0000 0.0000
# 4 0.0000 0.0000 0.0000********** 0.0000 0.0000
# 5 0.0000 0.0000 0.0000 0.0000 23.5555 0.0000
# 6 0.0000 0.0000 0.0000 0.0000 0.0000 46.6575
#
#
#
# Elastic Compliance Matrix: (Units=1/GPa)
#
#
# Indices 1 2 3 4 5 6 
#
# 1 0.017049 -0.004347 -0.004063 0.000000 0.000000 0.000000
# 2 -0.004347 0.018837 -0.003680 0.000000 0.000000 0.000000
# 3 -0.004063 -0.003680 0.013654 0.000000 0.000000 0.000000
# 4 0.000000 0.000000 0.000000 -0.000074 0.000000 0.000000
# 5 0.000000 0.000000 0.000000 0.000000 0.042453 0.000000
# 6 0.000000 0.000000 0.000000 0.000000 0.000000 0.021433
#
#
# Mechanical properties :
#
#
# Convention : Reuss Voigt Hill
#
# Bulk Modulus (GPa) = 39.43060 40.41004 39.92032
# Shear Modulus (GPa) = 34.25027 -2679.33820 -1322.54396
#
# Velocity S-wave (km/s) = 3.96699 -35.08673 -24.65098
# Velocity P-wave (km/s) = 6.25299 40.28487 28.14046
#
# Compressibility (1/GPa) = 0.02536101
#
# Stress axis : x y z
#
# Youngs Moduli (GPa) = 58.65441 53.08810 73.23716
#
# Poissons Ratio (x) = 0.23078 0.29755
# Poissons Ratio (y) = 0.25497 0.26948
# Poissons Ratio (z) = 0.23830 0.19534
#
# Static dielectric constant tensor:
#      x y z
#    x 25.608340 0.000000 0.000000 
#    y 0.000000 1.768330 0.000000 
#    z 0.000000 0.000000 1.776830 
# 
# From -- ./inp_files/3926.got.cif
#   From: 2010.05.17/outbox.cif.g08.bks.cpg/sg18_2_cif.got.tgz:3926.got - 2010.06.03 22:40:56.
