data_PCOD9312881
_publ_section_title
;
Structure prediction by ZEFSAII (Michael W. Deem and Ramdas Pophale) SiO2 
 PCOD9312881
Probable space group: P 21 21 2
;
_chemical_formula_sum "Si O2"
_cell_formula_units_Z 28
_cell_length_a 6.457579
_cell_length_b 11.503126
_cell_length_c 19.287404
_cell_angle_alpha 90.000000
_cell_angle_beta 90.000000
_cell_angle_gamma 90.000000
_cell_volume 1432.713596
_symmetry_space_group_name_H-M "P 21 21 2"
_symmetry_group_IT_number 18
_symmetry_cell_setting 'orthorhombic'
loop_
_space_group_symop_operation_xyz
x,y,z
-x,-y,z
1/2+x,1/2-y,-z
1/2-x,1/2+y,-z
loop_
_atom_site_type_symbol
_atom_site_label
_atom_site_fract_x
_atom_site_fract_y
_atom_site_fract_z
Si Si1 0.270761 0.294161 0.172245
Si Si2 0.229240 0.205840 0.327754
Si Si3 0.003397 0.861828 0.571201
Si Si4 0.338226 0.679967 0.081775
Si Si5 0.003397 0.138172 0.071202
Si Si6 0.161774 0.820034 0.418225
Si Si7 0.000000 0.500000 0.122004
Si Si8 0.500000 0.000000 0.377994
O O1 0.250000 0.250002 0.250000
O O2 0.498072 0.327595 0.144202
O O3 0.176652 0.198247 0.119432
O O4 0.128193 0.407417 0.165441
O O5 0.323349 0.301753 0.380568
O O6 0.001929 0.172405 0.355797
O O7 0.371808 0.092584 0.334557
O O8 0.787191 0.799775 0.589428
O O9 0.045690 0.828330 0.491301
O O10 0.000000 0.000000 0.579031
O O11 0.168430 0.576427 0.080728
O O12 0.212808 0.799775 0.089428
O O13 0.454310 0.671672 0.008698
O O14 0.000000 0.000000 0.079031
O O15 0.331569 0.923574 0.419271
#
# Coordination Sequence:
#
# PCOD9312881 Si02
#       8
#     4   4   4   4   4   4   2   2
#     4  11  25  43  66  98 137 174 221 277 339 397
#     4  11  25  43  66  98 137 174 221 277 339 397
#     4  11  24  39  67  98 131 175 225 276 324 400
#     4  11  23  43  66  99 131 177 225 273 338 390
#     4  11  24  39  67  98 131 175 225 276 324 400
#     4  11  23  43  66  99 131 177 225 273 338 390
#     4  10  24  42  70  94 138 180 216 274 338 400
#     4  10  24  42  70  94 138 180 216 274 338 400
#
# _framework density 19.543334999999999
#
# number of rings (size 3 to 8) (size 9 to 14) (size 15 to 20)
#    0.000    1.143    2.857    2.571    4.000   10.286 
#    0.000    0.000    0.000    0.000    0.000    0.000 
#    0.000    0.000    0.000    0.000    0.000    0.000 
#
# Total GULP energy -156464.328104 kJ/mol
# GULP energy per Si atom -5588.011718 kJ/mol
# Density = 1.949885 g / cm^3
# Si number density = 19.543335 Si / 1000 Ang^3
#
#
#
# Elastic Constant Matrix: (Units=GPa)
#
#
# Indices 1 2 3 4 5 6 
#
# 1 114.8614 35.2263 38.3494 0.0000 0.0000 0.0000
# 2 35.2263 130.1042 15.3982 0.0000 0.0000 0.0000
# 3 38.3494 15.3982 108.1344 0.0000 0.0000 0.0000
# 4 0.0000 0.0000 0.0000 9.4723 0.0000 0.0000
# 5 0.0000 0.0000 0.0000 0.0000 15.9507 0.0000
# 6 0.0000 0.0000 0.0000 0.0000 0.0000 21.8421
#
#
#
# Elastic Compliance Matrix: (Units=1/GPa)
#
#
# Indices 1 2 3 4 5 6 
#
# 1 0.010601 -0.002467 -0.003408 0.000000 0.000000 0.000000
# 2 -0.002467 0.008392 -0.000320 0.000000 0.000000 0.000000
# 3 -0.003408 -0.000320 0.010502 0.000000 0.000000 0.000000
# 4 0.000000 0.000000 0.000000 0.105571 0.000000 0.000000
# 5 0.000000 0.000000 0.000000 0.000000 0.062693 0.000000
# 6 0.000000 0.000000 0.000000 0.000000 0.000000 0.045783
#
#
# Mechanical properties :
#
#
# Convention : Reuss Voigt Hill
#
# Bulk Modulus (GPa) = 58.46488 59.00530 58.73509
# Shear Modulus (GPa) = 19.11068 27.06141 23.08605
#
# Velocity S-wave (km/s) = 3.13047 3.72518 3.44070
# Velocity P-wave (km/s) = 6.56101 6.98285 6.77521
#
# Compressibility (1/GPa) = 0.01710428
#
# Stress axis : x y z
#
# Youngs Moduli (GPa) = 94.33444 119.16203 95.21959
#
# Poissons Ratio (x) = 0.29395 0.32453
# Poissons Ratio (y) = 0.23270 0.03049
# Poissons Ratio (z) = 0.32151 0.03815
#
# Static dielectric constant tensor:
#      x y z
#    x 1.716640 0.000000 0.000000 
#    y 0.000000 1.684120 0.000000 
#    z 0.000000 0.000000 1.643660 
# 
# From -- ./inp_files/7496.got.cif
#   From: 2010.05.17/outbox.cif.g08.bks.cpg/sg18_4_cif.got.tgz:7496.got - 2010.06.03 22:40:56.
