data_PCOD9312131
_publ_section_title
;
Structure prediction by ZEFSAII (Michael W. Deem and Ramdas Pophale) SiO2 
 PCOD9312131
Probable space group: P 21 21 2
;
_chemical_formula_sum "Si O2"
_cell_formula_units_Z 20
_cell_length_a 12.644490
_cell_length_b 8.086678
_cell_length_c 7.944623
_cell_angle_alpha 90.000000
_cell_angle_beta 90.000000
_cell_angle_gamma 90.000000
_cell_volume 812.352948
_symmetry_space_group_name_H-M "P 21 21 2"
_symmetry_group_IT_number 18
_symmetry_cell_setting 'orthorhombic'
loop_
_space_group_symop_operation_xyz
x,y,z
-x,-y,z
1/2+x,1/2-y,-z
1/2-x,1/2+y,-z
loop_
_atom_site_type_symbol
_atom_site_label
_atom_site_fract_x
_atom_site_fract_y
_atom_site_fract_z
Si Si1 0.935058 0.336602 0.885319
Si Si2 0.877168 0.986601 0.507939
Si Si3 0.830729 0.169299 0.165028
Si Si4 0.770717 0.716146 0.296079
Si Si5 0.365021 0.670933 0.035619
O O1 0.832463 0.321008 0.767857
O O2 0.000000 0.500000 0.851242
O O3 0.894321 0.316877 0.076455
O O4 0.021128 0.190687 0.882939
O O5 0.869823 0.106029 0.342790
O O6 0.788603 0.054772 0.636143
O O7 0.837325 0.810365 0.438464
O O8 0.000000 0.000000 0.558936
O O9 0.840218 0.012259 0.035378
O O10 0.713936 0.241079 0.164134
O O11 0.846621 0.717241 0.133222
#
# Coordination Sequence:
#
# PCOD9312131 Si02
#       5
#     4   4   4   4   4
#     4  11  22  39  63  92 125 164 215 273 324 381
#     4  11  24  44  64  93 137 176 215 272 330 391
#     4  10  21  38  62  92 128 168 218 273 326 392
#     4  10  25  42  63  96 130 171 222 265 324 401
#     4  10  20  39  62  91 124 163 218 273 321 379
#
# _framework density 24.619838000000001
#
# number of rings (size 3 to 8) (size 9 to 14) (size 15 to 20)
#    0.000    1.600    0.000    6.600    0.000   11.200 
#    0.000    1.000    0.000    0.000    0.000    0.000 
#    0.000    0.000    0.000    0.000    0.000    0.000 
#
# Total GULP energy -111751.305772 kJ/mol
# GULP energy per Si atom -5587.565289 kJ/mol
# Density = 2.456380 g / cm^3
# Si number density = 24.619838 Si / 1000 Ang^3
#
#
#
# Elastic Constant Matrix: (Units=GPa)
#
#
# Indices 1 2 3 4 5 6 
#
# 1 149.8786 23.8902 12.7393 0.0000 0.0000 0.0000
# 2 23.8902 95.3235 24.6070 0.0000 0.0000 0.0000
# 3 12.7393 24.6070 98.5580 0.0000 0.0000 0.0000
# 4 0.0000 0.0000 0.0000 34.0822 0.0000 0.0000
# 5 0.0000 0.0000 0.0000 0.0000 20.2660 0.0000
# 6 0.0000 0.0000 0.0000 0.0000 0.0000 41.7596
#
#
#
# Elastic Compliance Matrix: (Units=1/GPa)
#
#
# Indices 1 2 3 4 5 6 
#
# 1 0.006972 -0.001619 -0.000497 0.000000 0.000000 0.000000
# 2 -0.001619 0.011589 -0.002684 0.000000 0.000000 0.000000
# 3 -0.000497 -0.002684 0.010881 0.000000 0.000000 0.000000
# 4 0.000000 0.000000 0.000000 0.029341 0.000000 0.000000
# 5 0.000000 0.000000 0.000000 0.000000 0.049344 0.000000
# 6 0.000000 0.000000 0.000000 0.000000 0.000000 0.023947
#
#
# Mechanical properties :
#
#
# Convention : Reuss Voigt Hill
#
# Bulk Modulus (GPa) = 50.39885 51.80368 51.10126
# Shear Modulus (GPa) = 33.71813 38.05646 35.88729
#
# Velocity S-wave (km/s) = 3.70476 3.93589 3.82207
# Velocity P-wave (km/s) = 6.23022 6.46081 6.34656
#
# Compressibility (1/GPa) = 0.01984172
#
# Stress axis : x y z
#
# Youngs Moduli (GPa) = 143.42274 86.28648 91.90574
#
# Poissons Ratio (x) = 0.13971 0.04567
# Poissons Ratio (y) = 0.23222 0.24670
# Poissons Ratio (z) = 0.07128 0.23161
#
# Static dielectric constant tensor:
#      x y z
#    x 2.011850 0.000000 0.000000 
#    y 0.000000 2.013710 0.000000 
#    z 0.000000 0.000000 1.996380 
# 
# From -- ./inp_files/2952.got.cif
#   From: 2010.05.17/outbox.cif.g08.bks.cpg/sg18_2_cif.got.tgz:2952.got - 2010.06.03 22:40:56.
