data_PCOD9312452
_publ_section_title
;
Structure prediction by ZEFSAII (Michael W. Deem and Ramdas Pophale) SiO2 
 PCOD9312452
Probable space group: P 21 21 2
;
_chemical_formula_sum "Si O2"
_cell_formula_units_Z 22
_cell_length_a 5.447034
_cell_length_b 14.753342
_cell_length_c 12.386905
_cell_angle_alpha 90.000000
_cell_angle_beta 90.000000
_cell_angle_gamma 90.000000
_cell_volume 995.435908
_symmetry_space_group_name_H-M "P 21 21 2"
_symmetry_group_IT_number 18
_symmetry_cell_setting 'orthorhombic'
loop_
_space_group_symop_operation_xyz
x,y,z
-x,-y,z
1/2+x,1/2-y,-z
1/2-x,1/2+y,-z
loop_
_atom_site_type_symbol
_atom_site_label
_atom_site_fract_x
_atom_site_fract_y
_atom_site_fract_z
Si Si1 0.752279 0.056520 0.213981
Si Si2 0.075918 0.299102 0.636682
Si Si3 0.133567 0.625680 0.427458
Si Si4 0.753500 0.166227 0.756528
Si Si5 0.746923 0.058385 0.960183
Si Si6 0.500000 0.500000 0.348716
O O1 0.757105 0.146190 0.286532
O O2 0.500000 0.000000 0.236884
O O3 0.742351 0.080871 0.086962
O O4 0.000000 0.000000 0.232949
O O5 0.001022 0.364472 0.540100
O O6 0.861808 0.260769 0.714817
O O7 0.180128 0.210907 0.575872
O O8 0.273208 0.531076 0.419821
O O9 0.976671 0.641728 0.318948
O O10 0.727048 0.146434 0.882918
O O11 0.942760 0.086772 0.722611
O O12 0.500000 0.000000 0.935227
O O13 0.000000 0.000000 0.943664
#
# Coordination Sequence:
#
# PCOD9312452 Si02
#       6
#     4   4   4   4   4   2
#     4  10  25  48  71  98 138 185 233 281 350 420
#     4  11  25  44  63  99 140 184 225 294 344 415
#     4  11  23  43  64  96 142 176 232 290 347 415
#     4  11  22  41  67  98 135 175 233 284 356 410
#     4  10  21  43  70 100 134 175 232 294 342 415
#     4  10  22  38  68 100 124 182 228 278 354 418
#
# _framework density 22.10087
#
# number of rings (size 3 to 8) (size 9 to 14) (size 15 to 20)
#    0.000    1.455    2.727    1.636    5.091    1.455 
#    6.545    0.000    0.000    0.000    0.000    0.000 
#    0.000    0.000    0.000    0.000    0.000    0.000 
#
# Total GULP energy -122865.351865 kJ/mol
# GULP energy per Si atom -5584.788721 kJ/mol
# Density = 2.205057 g / cm^3
# Si number density = 22.100870 Si / 1000 Ang^3
#
#
#
# Elastic Constant Matrix: (Units=GPa)
#
#
# Indices 1 2 3 4 5 6 
#
# 1 96.5599 11.9265 22.6153 0.0000 0.0000 0.0000
# 2 11.9265 53.1697 37.1268 0.0000 0.0000 0.0000
# 3 22.6153 37.1268 96.7322 0.0000 0.0000 0.0000
# 4 0.0000 0.0000 0.0000 37.1015 0.0000 0.0000
# 5 0.0000 0.0000 0.0000 0.0000 14.9587 0.0000
# 6 0.0000 0.0000 0.0000 0.0000 0.0000 40.3779
#
#
#
# Elastic Compliance Matrix: (Units=1/GPa)
#
#
# Indices 1 2 3 4 5 6 
#
# 1 0.010989 -0.000917 -0.002217 0.000000 0.000000 0.000000
# 2 -0.000917 0.025770 -0.009677 0.000000 0.000000 0.000000
# 3 -0.002217 -0.009677 0.014570 0.000000 0.000000 0.000000
# 4 0.000000 0.000000 0.000000 0.026953 0.000000 0.000000
# 5 0.000000 0.000000 0.000000 0.000000 0.066851 0.000000
# 6 0.000000 0.000000 0.000000 0.000000 0.000000 0.024766
#
#
# Mechanical properties :
#
#
# Convention : Reuss Voigt Hill
#
# Bulk Modulus (GPa) = 38.89812 43.31100 41.10456
# Shear Modulus (GPa) = 24.49910 30.14050 27.31980
#
# Velocity S-wave (km/s) = 3.33305 3.69693 3.51969
# Velocity P-wave (km/s) = 5.69655 6.15326 5.92930
#
# Compressibility (1/GPa) = 0.02570818
#
# Stress axis : x y z
#
# Youngs Moduli (GPa) = 91.00177 38.80457 68.63338
#
# Poissons Ratio (x) = 0.03557 0.15218
# Poissons Ratio (y) = 0.08341 0.66413
# Poissons Ratio (z) = 0.20178 0.37549
#
# Static dielectric constant tensor:
#      x y z
#    x 1.930510 0.000000 0.000000 
#    y 0.000000 1.831490 0.000000 
#    z 0.000000 0.000000 1.814820 
# 
# From -- ./inp_files/5102.got.cif
#   From: 2010.05.17/outbox.cif.g08.bks.cpg/sg18_3_cif.got.tgz:5102.got - 2010.06.03 22:40:56.
