data_PCOD9312319
_publ_section_title
;
Structure prediction by ZEFSAII (Michael W. Deem and Ramdas Pophale) SiO2 
 PCOD9312319
Probable space group: P 21 21 2
;
_chemical_formula_sum "Si O2"
_cell_formula_units_Z 30
_cell_length_a 12.854718
_cell_length_b 7.470010
_cell_length_c 14.443311
_cell_angle_alpha 90.000000
_cell_angle_beta 90.000000
_cell_angle_gamma 90.000000
_cell_volume 1386.917090
_symmetry_space_group_name_H-M "P 21 21 2"
_symmetry_group_IT_number 18
_symmetry_cell_setting 'orthorhombic'
loop_
_space_group_symop_operation_xyz
x,y,z
-x,-y,z
1/2+x,1/2-y,-z
1/2-x,1/2+y,-z
loop_
_atom_site_type_symbol
_atom_site_label
_atom_site_fract_x
_atom_site_fract_y
_atom_site_fract_z
Si Si1 0.500000 0.000000 0.149761
Si Si2 0.885918 0.987883 0.217875
Si Si3 0.271915 0.478185 0.131807
Si Si4 0.116491 0.429116 0.286064
Si Si5 0.222364 0.566405 0.927929
Si Si6 0.118680 0.942759 0.420232
Si Si7 0.936765 0.151807 0.738328
Si Si8 0.269412 0.277466 0.413627
O O1 0.395300 0.999963 0.087945
O O2 0.491866 0.179233 0.212945
O O3 0.883190 0.781919 0.255507
O O4 0.799019 0.033569 0.143122
O O5 0.877625 0.106191 0.311168
O O6 0.000000 0.000000 0.174395
O O7 0.179192 0.522826 0.202511
O O8 0.268144 0.268674 0.106468
O O9 0.380479 0.479299 0.186582
O O10 0.259911 0.569127 0.033246
O O11 0.187611 0.429358 0.378310
O O12 0.000000 0.500000 0.298095
O O13 0.198132 0.106953 0.429985
O O14 0.160986 0.809452 0.496707
O O15 0.000000 0.000000 0.437749
O O16 0.847851 0.236466 0.673396
O O17 0.000000 0.000000 0.682099
#
# Coordination Sequence:
#
# PCOD9312319 Si02
#       8
#     2   4   4   4   4   4   4   4
#     4  10  22  40  64  88 128 176 212 264 332 392
#     4   9  20  39  58  81 117 155 200 251 309 380
#     4   9  21  36  57  86 126 158 210 262 307 379
#     4   9  19  37  59  82 118 157 196 249 305 367
#     4  10  21  39  57  90 120 164 214 256 319 384
#     4  10  21  41  63  89 126 162 209 266 324 385
#     4  10  22  44  64  93 132 169 217 272 327 391
#     4  10  22  42  62  93 128 161 210 267 320 399
#
# _framework density 21.630710000000001
#
# number of rings (size 3 to 8) (size 9 to 14) (size 15 to 20)
#    0.000    2.400    0.000    2.800    2.800    4.800 
#   16.800    0.000    1.467    0.000    0.000    0.000 
#    0.000    0.000    0.000    0.000    0.000    0.000 
#
# Total GULP energy -167305.268606 kJ/mol
# GULP energy per Si atom -5576.842287 kJ/mol
# Density = 2.158148 g / cm^3
# Si number density = 21.630710 Si / 1000 Ang^3
#
#
#
# Elastic Constant Matrix: (Units=GPa)
#
#
# Indices 1 2 3 4 5 6 
#
# 1 96.1927 18.4907 24.0365 0.0000 0.0000 0.0000
# 2 18.4907 48.7227 14.2360 0.0000 0.0000 0.0000
# 3 24.0365 14.2360 66.1186 0.0000 0.0000 0.0000
# 4 0.0000 0.0000 0.0000 -21.4989 0.0000 0.0000
# 5 0.0000 0.0000 0.0000 0.0000 -0.7630 0.0000
# 6 0.0000 0.0000 0.0000 0.0000 0.0000 31.7594
#
#
#
# Elastic Compliance Matrix: (Units=1/GPa)
#
#
# Indices 1 2 3 4 5 6 
#
# 1 0.011966 -0.003490 -0.003599 0.000000 0.000000 0.000000
# 2 -0.003490 0.022920 -0.003666 0.000000 0.000000 0.000000
# 3 -0.003599 -0.003666 0.017222 0.000000 0.000000 0.000000
# 4 0.000000 0.000000 0.000000 -0.046514 0.000000 0.000000
# 5 0.000000 0.000000 0.000000 0.000000 -1.310556 0.000000
# 6 0.000000 0.000000 0.000000 0.000000 0.000000 0.031487
#
#
# Mechanical properties :
#
#
# Convention : Reuss Voigt Hill
#
# Bulk Modulus (GPa) = 32.68136 36.06230 34.37183
# Shear Modulus (GPa) = -4.02652 12.18422 4.07885
#
# Velocity S-wave (km/s) = -1.36584 2.37593 1.37469
# Velocity P-wave (km/s) = 3.55728 4.92288 4.29470
#
# Compressibility (1/GPa) = 0.03059848
#
# Stress axis : x y z
#
# Youngs Moduli (GPa) = 83.57132 43.63024 58.06542
#
# Poissons Ratio (x) = 0.15226 0.20896
# Poissons Ratio (y) = 0.29164 0.21288
# Poissons Ratio (z) = 0.30074 0.15996
#
# Static dielectric constant tensor:
#      x y z
#    x 1.941960 0.000000 0.000000 
#    y 0.000000 1.582740 0.000000 
#    z 0.000000 0.000000 1.851810 
# 
# From -- ./inp_files/6891.got.cif
#   From: 2010.05.17/outbox.cif.g08.bks.cpg/sg18_4_cif.got.tgz:6891.got - 2010.06.03 22:40:56.
