data_PCOD9312840
_publ_section_title
;
Structure prediction by ZEFSAII (Michael W. Deem and Ramdas Pophale) SiO2 
 PCOD9312840
Probable space group: P 21 21 2
;
_chemical_formula_sum "Si O2"
_cell_formula_units_Z 20
_cell_length_a 11.813205
_cell_length_b 11.421573
_cell_length_c 6.337653
_cell_angle_alpha 90.000000
_cell_angle_beta 90.000000
_cell_angle_gamma 90.000000
_cell_volume 855.110260
_symmetry_space_group_name_H-M "P 21 21 2"
_symmetry_group_IT_number 18
_symmetry_cell_setting 'orthorhombic'
loop_
_space_group_symop_operation_xyz
x,y,z
-x,-y,z
1/2+x,1/2-y,-z
1/2-x,1/2+y,-z
loop_
_atom_site_type_symbol
_atom_site_label
_atom_site_fract_x
_atom_site_fract_y
_atom_site_fract_z
Si Si1 0.000000 0.500000 0.920181
Si Si2 0.384463 0.382214 0.189622
Si Si3 0.174356 0.086591 0.525854
Si Si4 0.500000 0.500000 0.821758
Si Si5 0.041321 0.297634 0.593276
Si Si6 0.851306 0.554176 0.273724
O O1 0.969763 0.610444 0.779572
O O2 0.893788 0.481351 0.075006
O O3 0.382569 0.513822 0.283384
O O4 0.443741 0.296194 0.356101
O O5 0.249497 0.361235 0.189856
O O6 0.445865 0.397003 0.966460
O O7 0.156664 0.221094 0.583111
O O8 0.101296 0.052773 0.321104
O O9 0.298406 0.029355 0.542679
O O10 0.049097 0.369829 0.377012
#
# Coordination Sequence:
#
# PCOD9312840 Si02
#       6
#     2   4   4   2   4   4
#     4  12  30  44  68 106 150 200 252 316 380 452
#     4  10  23  46  73 111 135 200 257 294 385 462
#     4  10  23  46  74 108 143 197 248 312 379 450
#     4  12  18  44  82 110 138 190 274 300 360 478
#     4  12  24  49  73 104 153 195 250 320 374 457
#     4  10  27  48  67 111 153 188 252 317 379 449
#
# _framework density 23.388798000000001
#
# number of rings (size 3 to 8) (size 9 to 14) (size 15 to 20)
#    1.200    0.000    4.000    0.600    5.600    4.800 
#    0.000    0.000    0.000    0.000    0.000    0.000 
#    0.000    0.000    0.000    0.000    0.000    0.000 
#
# Total GULP energy -111479.055236 kJ/mol
# GULP energy per Si atom -5573.952762 kJ/mol
# Density = 2.333556 g / cm^3
# Si number density = 23.388798 Si / 1000 Ang^3
#
#
#
# Elastic Constant Matrix: (Units=GPa)
#
#
# Indices 1 2 3 4 5 6 
#
# 1 94.1185 14.2554 31.7649 0.0000 0.0000 0.0000
# 2 14.2554 98.8618 27.1473 0.0000 0.0000 0.0000
# 3 31.7649 27.1473 83.7382 0.0000 0.0000 0.0000
# 4 0.0000 0.0000 0.0000 30.3347 0.0000 0.0000
# 5 0.0000 0.0000 0.0000 0.0000 34.8087 0.0000
# 6 0.0000 0.0000 0.0000 0.0000 0.0000 11.6804
#
#
#
# Elastic Compliance Matrix: (Units=1/GPa)
#
#
# Indices 1 2 3 4 5 6 
#
# 1 0.012211 -0.000537 -0.004458 0.000000 0.000000 0.000000
# 2 -0.000537 0.011127 -0.003404 0.000000 0.000000 0.000000
# 3 -0.004458 -0.003404 0.014737 0.000000 0.000000 0.000000
# 4 0.000000 0.000000 0.000000 0.032966 0.000000 0.000000
# 5 0.000000 0.000000 0.000000 0.000000 0.028728 0.000000
# 6 0.000000 0.000000 0.000000 0.000000 0.000000 0.085613
#
#
# Mechanical properties :
#
#
# Convention : Reuss Voigt Hill
#
# Bulk Modulus (GPa) = 46.99756 47.00595 47.00175
# Shear Modulus (GPa) = 23.89243 28.93482 26.41363
#
# Velocity S-wave (km/s) = 3.19961 3.52109 3.36419
# Velocity P-wave (km/s) = 5.81272 6.05574 5.93548
#
# Compressibility (1/GPa) = 0.02127770
#
# Stress axis : x y z
#
# Youngs Moduli (GPa) = 81.89498 89.86998 67.85842
#
# Poissons Ratio (x) = 0.04822 0.30252
# Poissons Ratio (y) = 0.04394 0.23098
# Poissons Ratio (z) = 0.36509 0.30590
#
# Static dielectric constant tensor:
#      x y z
#    x 2.059790 0.000000 0.000000 
#    y 0.000000 1.901150 0.000000 
#    z 0.000000 0.000000 1.843580 
# 
# From -- ./inp_files/1427.got.cif
#   From: 2010.05.17/outbox.cif.g08.bks.cpg/sg18_1_cif.got.tgz:1427.got - 2010.06.03 22:40:56.
