data_PCOD9312405
_publ_section_title
;
Structure prediction by ZEFSAII (Michael W. Deem and Ramdas Pophale) SiO2 
 PCOD9312405
Probable space group: P 21 21 2
;
_chemical_formula_sum "Si O2"
_cell_formula_units_Z 24
_cell_length_a 9.750437
_cell_length_b 11.055864
_cell_length_c 10.251499
_cell_angle_alpha 90.000000
_cell_angle_beta 90.000000
_cell_angle_gamma 90.000000
_cell_volume 1105.106522
_symmetry_space_group_name_H-M "P 21 21 2"
_symmetry_group_IT_number 18
_symmetry_cell_setting 'orthorhombic'
loop_
_space_group_symop_operation_xyz
x,y,z
-x,-y,z
1/2+x,1/2-y,-z
1/2-x,1/2+y,-z
loop_
_atom_site_type_symbol
_atom_site_label
_atom_site_fract_x
_atom_site_fract_y
_atom_site_fract_z
Si Si1 0.113988 0.601520 0.395182
Si Si2 0.020369 0.647775 0.127144
Si Si3 0.783463 0.832117 0.050790
Si Si4 0.500000 0.500000 0.094275
Si Si5 0.670011 0.588077 0.324681
Si Si6 0.739858 0.342420 0.661174
Si Si7 0.000000 0.000000 0.448383
O O1 0.060115 0.683716 0.276606
O O2 0.248380 0.537128 0.333123
O O3 0.157353 0.640304 0.539698
O O4 0.000000 0.500000 0.414681
O O5 0.000000 0.500000 0.123596
O O6 0.884694 0.716805 0.075464
O O7 0.153276 0.684344 0.042629
O O8 0.721557 0.872612 0.190502
O O9 0.886305 0.932032 0.990649
O O10 0.579524 0.589724 0.194432
O O11 0.773972 0.697783 0.335534
O O12 0.575459 0.590270 0.451939
O O13 0.609383 0.424596 0.631467
#
# Coordination Sequence:
#
# PCOD9312405 Si02
#       7
#     4   4   4   2   4   4   2
#     4  10  22  43  68  99 135 179 235 287 351 433
#     4  11  26  48  72 106 145 193 241 286 366 437
#     4  12  26  43  73 104 143 187 238 303 348 428
#     4  11  23  46  70 102 140 190 240 282 372 430
#     4  10  21  41  69  92 137 184 229 278 359 430
#     4  11  23  41  66 101 135 178 233 294 353 401
#     4   9  23  40  60 106 130 174 234 292 330 432
#
# _framework density 21.717365000000001
#
# number of rings (size 3 to 8) (size 9 to 14) (size 15 to 20)
#    0.000    1.333    1.667    3.500    7.000    0.667 
#    0.000    0.000    0.000    0.000    0.000    0.000 
#    0.000    0.000    0.000    0.000    0.000    0.000 
#
# Total GULP energy -133919.681392 kJ/mol
# GULP energy per Si atom -5579.986725 kJ/mol
# Density = 2.166794 g / cm^3
# Si number density = 21.717365 Si / 1000 Ang^3
#
#
#
# Elastic Constant Matrix: (Units=GPa)
#
#
# Indices 1 2 3 4 5 6 
#
# 1 116.6795 24.6686 71.6219 0.0000 0.0000 0.0000
# 2 24.6686 60.5112 40.4836 0.0000 0.0000 0.0000
# 3 71.6219 40.4836 182.9934 0.0000 0.0000 0.0000
# 4 0.0000 0.0000 0.0000 7.1131 0.0000 0.0000
# 5 0.0000 0.0000 0.0000 0.0000 34.6051 0.0000
# 6 0.0000 0.0000 0.0000 0.0000 0.0000 32.2752
#
#
#
# Elastic Compliance Matrix: (Units=1/GPa)
#
#
# Indices 1 2 3 4 5 6 
#
# 1 0.011476 -0.001964 -0.004057 0.000000 0.000000 0.000000
# 2 -0.001964 0.019733 -0.003597 0.000000 0.000000 0.000000
# 3 -0.004057 -0.003597 0.007848 0.000000 0.000000 0.000000
# 4 0.000000 0.000000 0.000000 0.140585 0.000000 0.000000
# 5 0.000000 0.000000 0.000000 0.000000 0.028897 0.000000
# 6 0.000000 0.000000 0.000000 0.000000 0.000000 0.030984
#
#
# Mechanical properties :
#
#
# Convention : Reuss Voigt Hill
#
# Bulk Modulus (GPa) = 50.45078 70.41472 60.43275
# Shear Modulus (GPa) = 18.84184 29.69268 24.26726
#
# Velocity S-wave (km/s) = 2.94869 3.70162 3.34640
# Velocity P-wave (km/s) = 5.90543 7.12481 6.54359
#
# Compressibility (1/GPa) = 0.01982130
#
# Stress axis : x y z
#
# Youngs Moduli (GPa) = 87.13718 50.67666 127.41593
#
# Poissons Ratio (x) = 0.09954 0.51694
# Poissons Ratio (y) = 0.17115 0.45829
# Poissons Ratio (z) = 0.35353 0.18227
#
# Static dielectric constant tensor:
#      x y z
#    x 1.831290 0.000000 0.000000 
#    y 0.000000 1.854670 0.000000 
#    z 0.000000 0.000000 1.813000 
# 
# From -- ./inp_files/3788.got.cif
#   From: 2010.05.17/outbox.cif.g08.bks.cpg/sg18_2_cif.got.tgz:3788.got - 2010.06.03 22:40:56.
