data_PCOD9312617
_publ_section_title
;
Structure prediction by ZEFSAII (Michael W. Deem and Ramdas Pophale) SiO2 
 PCOD9312617
Probable space group: P 21 21 2
;
_chemical_formula_sum "Si O2"
_cell_formula_units_Z 32
_cell_length_a 8.890553
_cell_length_b 26.377536
_cell_length_c 7.190718
_cell_angle_alpha 90.000000
_cell_angle_beta 90.000000
_cell_angle_gamma 90.000000
_cell_volume 1686.301619
_symmetry_space_group_name_H-M "P 21 21 2"
_symmetry_group_IT_number 18
_symmetry_cell_setting 'orthorhombic'
loop_
_space_group_symop_operation_xyz
x,y,z
-x,-y,z
1/2+x,1/2-y,-z
1/2-x,1/2+y,-z
loop_
_atom_site_type_symbol
_atom_site_label
_atom_site_fract_x
_atom_site_fract_y
_atom_site_fract_z
Si Si1 0.958772 0.130655 0.637588
Si Si2 0.625286 0.542920 0.645678
Si Si3 0.215597 0.280907 0.360212
Si Si4 0.702361 0.871948 0.659087
Si Si5 0.455143 0.192606 0.360715
Si Si6 0.677499 0.991983 0.662088
Si Si7 0.538390 0.161546 0.946186
Si Si8 0.715445 0.574109 0.055733
O O1 0.939459 0.088867 0.477063
O O2 0.836358 0.174267 0.605450
O O3 0.129369 0.149158 0.642964
O O4 0.915292 0.103325 0.831712
O O5 0.500000 0.500000 0.669993
O O6 0.757834 0.517774 0.524234
O O7 0.677140 0.562875 0.844235
O O8 0.313627 0.230423 0.347214
O O9 0.091315 0.282145 0.522800
O O10 0.127461 0.295565 0.170880
O O11 0.601517 0.854969 0.483450
O O12 0.713289 0.932629 0.668446
O O13 0.615750 0.850226 0.837873
O O14 0.510137 0.176947 0.157438
O O15 0.500000 0.000000 0.671560
O O16 0.751926 0.022591 0.832219
O O17 0.640124 0.110965 0.933824
#
# Coordination Sequence:
#
# PCOD9312617 Si02
#       8
#     4   4   4   4   4   4   4   4
#     4  10  22  42  60  87 130 161 204 264 310 365
#     4  11  23  37  61  91 119 169 214 253 306 374
#     4  10  23  43  65  90 120 160 199 253 320 365
#     4  11  23  40  61  94 125 165 209 257 309 370
#     4  11  24  42  69  92 125 160 209 258 313 382
#     4  11  23  40  60  86 130 168 209 257 311 361
#     4  10  23  42  62  92 123 159 210 254 308 373
#     4  10  23  38  61  87 126 171 206 261 308 363
#
# _framework density 18.976438999999999
#
# number of rings (size 3 to 8) (size 9 to 14) (size 15 to 20)
#    0.000    1.500    2.500    1.500    5.250    5.500 
#    0.000    2.500    0.000    0.000    0.000    0.000 
#    0.000    0.000    0.000    0.000    0.000    0.000 
#
# Total GULP energy -178835.497163 kJ/mol
# GULP energy per Si atom -5588.609286 kJ/mol
# Density = 1.893325 g / cm^3
# Si number density = 18.976439 Si / 1000 Ang^3
#
#
#
# Elastic Constant Matrix: (Units=GPa)
#
#
# Indices 1 2 3 4 5 6 
#
# 1 71.0702 5.7749 32.6145 0.0000 0.0000 0.0000
# 2 5.7749 73.7978 30.0909 0.0000 0.0000 0.0000
# 3 32.6145 30.0909 138.8735 0.0000 0.0000 0.0000
# 4 0.0000 0.0000 0.0000 15.1520 0.0000 0.0000
# 5 0.0000 0.0000 0.0000 0.0000 9.4697 0.0000
# 6 0.0000 0.0000 0.0000 0.0000 0.0000 28.6531
#
#
#
# Elastic Compliance Matrix: (Units=1/GPa)
#
#
# Indices 1 2 3 4 5 6 
#
# 1 0.015776 0.000303 -0.003771 0.000000 0.000000 0.000000
# 2 0.000303 0.014870 -0.003293 0.000000 0.000000 0.000000
# 3 -0.003771 -0.003293 0.008800 0.000000 0.000000 0.000000
# 4 0.000000 0.000000 0.000000 0.065998 0.000000 0.000000
# 5 0.000000 0.000000 0.000000 0.000000 0.105600 0.000000
# 6 0.000000 0.000000 0.000000 0.000000 0.000000 0.034900
#
#
# Mechanical properties :
#
#
# Convention : Reuss Voigt Hill
#
# Bulk Modulus (GPa) = 38.57404 46.74466 42.65935
# Shear Modulus (GPa) = 18.64929 25.00571 21.82750
#
# Velocity S-wave (km/s) = 3.13830 3.63398 3.39520
# Velocity P-wave (km/s) = 5.78821 6.50340 6.15620
#
# Compressibility (1/GPa) = 0.02592417
#
# Stress axis : x y z
#
# Youngs Moduli (GPa) = 63.38583 67.25144 113.63778
#
# Poissons Ratio (x) = -0.02037 0.42850
# Poissons Ratio (y) = -0.01920 0.37422
# Poissons Ratio (z) = 0.23901 0.22146
#
# Static dielectric constant tensor:
#      x y z
#    x 1.650370 0.000000 0.000000 
#    y 0.000000 1.661090 0.000000 
#    z 0.000000 0.000000 1.616740 
# 
# From -- ./inp_files/789.got.cif
#   From: 2010.05.17/outbox.cif.g08.bks.cpg/sg18_1_cif.got.tgz:789.got - 2010.06.03 22:40:56.
