data_PCOD9312253
_publ_section_title
;
Structure prediction by ZEFSAII (Michael W. Deem and Ramdas Pophale) SiO2 
 PCOD9312253
Probable space group: P 21 21 2
;
_chemical_formula_sum "Si O2"
_cell_formula_units_Z 20
_cell_length_a 17.284207
_cell_length_b 7.873694
_cell_length_c 5.687433
_cell_angle_alpha 90.000000
_cell_angle_beta 90.000000
_cell_angle_gamma 90.000000
_cell_volume 774.005925
_symmetry_space_group_name_H-M "P 21 21 2"
_symmetry_group_IT_number 18
_symmetry_cell_setting 'orthorhombic'
loop_
_space_group_symop_operation_xyz
x,y,z
-x,-y,z
1/2+x,1/2-y,-z
1/2-x,1/2+y,-z
loop_
_atom_site_type_symbol
_atom_site_label
_atom_site_fract_x
_atom_site_fract_y
_atom_site_fract_z
Si Si1 0.747743 0.269954 0.129897
Si Si2 0.104558 0.288442 0.194732
Si Si3 0.114181 0.773600 0.787656
Si Si4 0.000000 0.500000 0.857366
Si Si5 0.000000 0.000000 0.041447
Si Si6 0.701154 0.985322 0.484192
O O1 0.734579 0.093049 0.269173
O O2 0.742003 0.433830 0.302460
O O3 0.682229 0.278290 0.930734
O O4 0.832492 0.268570 0.014893
O O5 0.133456 0.390869 0.420977
O O6 0.066444 0.423084 0.019650
O O7 0.039134 0.143618 0.204966
O O8 0.069339 0.940886 0.868989
O O9 0.170844 0.702875 0.585947
O O10 0.040650 0.653097 0.729528
#
# Coordination Sequence:
#
# PCOD9312253 Si02
#       6
#     4   4   4   2   2   4
#     4  12  26  46  78 112 152 204 262 318 368 464
#     4  11  25  49  74 108 154 203 253 321 373 459
#     4  11  25  49  74 108 154 203 253 321 373 459
#     4  10  20  50  68  98 154 204 236 320 376 432
#     4  10  28  48  78 110 164 194 248 336 380 428
#     4  12  26  45  84 109 152 210 260 300 400 445
#
# _framework density 25.839594000000002
#
# number of rings (size 3 to 8) (size 9 to 14) (size 15 to 20)
#    0.000    0.800    4.000    1.200   11.200    0.800 
#    0.000    2.000    0.000    0.000    0.000    0.000 
#    0.000    0.000    0.000    0.000    0.000    0.000 
#
# Total GULP energy -111740.588835 kJ/mol
# GULP energy per Si atom -5587.029442 kJ/mol
# Density = 2.578078 g / cm^3
# Si number density = 25.839594 Si / 1000 Ang^3
#
#
#
# Elastic Constant Matrix: (Units=GPa)
#
#
# Indices 1 2 3 4 5 6 
#
# 1 114.6667 34.6386 23.2154 0.0000 0.0000 0.0000
# 2 34.6386 105.0489 22.5081 0.0000 0.0000 0.0000
# 3 23.2154 22.5081 68.0087 0.0000 0.0000 0.0000
# 4 0.0000 0.0000 0.0000 42.3421 0.0000 0.0000
# 5 0.0000 0.0000 0.0000 0.0000 24.9140 0.0000
# 6 0.0000 0.0000 0.0000 0.0000 0.0000 56.4559
#
#
#
# Elastic Compliance Matrix: (Units=1/GPa)
#
#
# Indices 1 2 3 4 5 6 
#
# 1 0.010071 -0.002781 -0.002517 0.000000 0.000000 0.000000
# 2 -0.002781 0.011014 -0.002696 0.000000 0.000000 0.000000
# 3 -0.002517 -0.002696 0.016455 0.000000 0.000000 0.000000
# 4 0.000000 0.000000 0.000000 0.023617 0.000000 0.000000
# 5 0.000000 0.000000 0.000000 0.000000 0.040138 0.000000
# 6 0.000000 0.000000 0.000000 0.000000 0.000000 0.017713
#
#
# Mechanical properties :
#
#
# Convention : Reuss Voigt Hill
#
# Bulk Modulus (GPa) = 46.40023 49.82758 48.11391
# Shear Modulus (GPa) = 35.16642 38.56655 36.86648
#
# Velocity S-wave (km/s) = 3.69311 3.86753 3.78132
# Velocity P-wave (km/s) = 6.01510 6.26650 6.14208
#
# Compressibility (1/GPa) = 0.02155162
#
# Stress axis : x y z
#
# Youngs Moduli (GPa) = 99.29737 90.79273 60.77004
#
# Poissons Ratio (x) = 0.25253 0.15297
# Poissons Ratio (y) = 0.27618 0.16382
# Poissons Ratio (z) = 0.24995 0.24476
#
# Static dielectric constant tensor:
#      x y z
#    x 2.018880 0.000000 0.000000 
#    y 0.000000 2.044390 0.000000 
#    z 0.000000 0.000000 2.059310 
# 
# From -- ./inp_files/1720.got.cif
#   From: 2010.05.17/outbox.cif.g08.bks.cpg/sg18_1_cif.got.tgz:1720.got - 2010.06.03 22:40:56.
