data_PCOD9312740
_publ_section_title
;
Structure prediction by ZEFSAII (Michael W. Deem and Ramdas Pophale) SiO2 
 PCOD9312740
Probable space group: P 21 21 2
;
_chemical_formula_sum "Si O2"
_cell_formula_units_Z 22
_cell_length_a 8.991295
_cell_length_b 18.496112
_cell_length_c 5.116363
_cell_angle_alpha 90.000000
_cell_angle_beta 90.000000
_cell_angle_gamma 90.000000
_cell_volume 850.871629
_symmetry_space_group_name_H-M "P 21 21 2"
_symmetry_group_IT_number 18
_symmetry_cell_setting 'orthorhombic'
loop_
_space_group_symop_operation_xyz
x,y,z
-x,-y,z
1/2+x,1/2-y,-z
1/2-x,1/2+y,-z
loop_
_atom_site_type_symbol
_atom_site_label
_atom_site_fract_x
_atom_site_fract_y
_atom_site_fract_z
Si Si1 0.413552 0.653870 0.637107
Si Si2 0.100473 0.725464 0.534381
Si Si3 0.690714 0.507319 0.510395
Si Si4 0.000000 0.500000 0.235794
Si Si5 0.546827 0.154329 0.971542
Si Si6 0.371474 0.395636 0.023418
O O1 0.271077 0.705172 0.591108
O O2 0.551680 0.690911 0.484571
O O3 0.362766 0.574325 0.553031
O O4 0.477746 0.644428 0.931829
O O5 0.004735 0.687032 0.757415
O O6 0.042155 0.694045 0.259205
O O7 0.665476 0.552506 0.773646
O O8 0.860169 0.503286 0.424415
O O9 0.621578 0.550822 0.266882
O O10 0.000176 0.429111 0.058245
O O11 0.726112 0.155310 0.948608
#
# Coordination Sequence:
#
# PCOD9312740 Si02
#       6
#     4   4   4   2   4   4
#     4  12  29  53  76 119 164 218 269 333 404 492
#     4  12  29  48  79 113 165 219 265 328 401 497
#     4  11  26  46  82 119 157 204 267 338 409 466
#     4  10  22  46  82 114 154 198 268 336 394 470
#     4  11  25  48  77 118 151 211 267 333 399 481
#     4  11  27  48  81 114 157 202 268 338 404 471
#
# _framework density 25.855840000000001
#
# number of rings (size 3 to 8) (size 9 to 14) (size 15 to 20)
#    0.000    0.727    1.818    3.818    5.091   11.636 
#    0.000    0.000    0.000    0.000    0.000    0.000 
#    0.000    0.000    0.000    0.000    0.000    0.000 
#
# Total GULP energy -123483.477579 kJ/mol
# GULP energy per Si atom -5612.885344 kJ/mol
# Density = 2.579699 g / cm^3
# Si number density = 25.855840 Si / 1000 Ang^3
#
#
#
# Elastic Constant Matrix: (Units=GPa)
#
#
# Indices 1 2 3 4 5 6 
#
# 1 132.3682 62.5394 5.7675 0.0000 0.0000 0.0000
# 2 62.5394 139.7668 46.4244 0.0000 0.0000 0.0000
# 3 5.7675 46.4244 102.8084 0.0000 0.0000 0.0000
# 4 0.0000 0.0000 0.0000 29.6593 0.0000 0.0000
# 5 0.0000 0.0000 0.0000 0.0000 44.8422 0.0000
# 6 0.0000 0.0000 0.0000 0.0000 0.0000 41.0388
#
#
#
# Elastic Compliance Matrix: (Units=1/GPa)
#
#
# Indices 1 2 3 4 5 6 
#
# 1 0.009822 -0.004955 0.001687 0.000000 0.000000 0.000000
# 2 -0.004955 0.010917 -0.004652 0.000000 0.000000 0.000000
# 3 0.001687 -0.004652 0.011733 0.000000 0.000000 0.000000
# 4 0.000000 0.000000 0.000000 0.033716 0.000000 0.000000
# 5 0.000000 0.000000 0.000000 0.000000 0.022300 0.000000
# 6 0.000000 0.000000 0.000000 0.000000 0.000000 0.024367
#
#
# Mechanical properties :
#
#
# Convention : Reuss Voigt Hill
#
# Bulk Modulus (GPa) = 60.12735 67.15622 63.64178
# Shear Modulus (GPa) = 37.24646 40.45555 38.85101
#
# Velocity S-wave (km/s) = 3.79957 3.95987 3.88054
# Velocity P-wave (km/s) = 6.52336 6.85107 6.68922
#
# Compressibility (1/GPa) = 0.01663137
#
# Stress axis : x y z
#
# Youngs Moduli (GPa) = 101.80807 91.59885 85.23129
#
# Poissons Ratio (x) = 0.45390 -0.14375
# Poissons Ratio (y) = 0.50449 0.39648
# Poissons Ratio (z) = -0.17171 0.42610
#
# Static dielectric constant tensor:
#      x y z
#    x 2.049440 0.000000 0.000000 
#    y 0.000000 2.043380 0.000000 
#    z 0.000000 0.000000 2.002320 
# 
# From -- ./inp_files/596.got.cif
#   From: 2010.05.17/outbox.cif.g08.bks.cpg/sg18_1_cif.got.tgz:596.got - 2010.06.03 22:40:56.
