data_PCOD9312875
_publ_section_title
;
Structure prediction by ZEFSAII (Michael W. Deem and Ramdas Pophale) SiO2 
 PCOD9312875
Probable space group: P 21 21 2
;
_chemical_formula_sum "Si O2"
_cell_formula_units_Z 32
_cell_length_a 12.781230
_cell_length_b 14.372348
_cell_length_c 8.687782
_cell_angle_alpha 90.000000
_cell_angle_beta 90.000000
_cell_angle_gamma 90.000000
_cell_volume 1595.913282
_symmetry_space_group_name_H-M "P 21 21 2"
_symmetry_group_IT_number 18
_symmetry_cell_setting 'orthorhombic'
loop_
_space_group_symop_operation_xyz
x,y,z
-x,-y,z
1/2+x,1/2-y,-z
1/2-x,1/2+y,-z
loop_
_atom_site_type_symbol
_atom_site_label
_atom_site_fract_x
_atom_site_fract_y
_atom_site_fract_z
Si Si1 0.940758 0.590350 0.680240
Si Si2 0.391886 0.547812 0.387317
Si Si3 0.776643 0.809649 0.203759
Si Si4 0.451531 0.225674 0.118636
Si Si5 0.667457 0.321761 0.154323
Si Si6 0.629546 0.710450 0.785978
Si Si7 0.293703 0.477307 0.689353
Si Si8 0.056174 0.242097 0.439810
O O1 0.822473 0.561094 0.704433
O O2 0.944740 0.673597 0.558287
O O3 0.000000 0.500000 0.620315
O O4 0.996777 0.626432 0.836800
O O5 0.500000 0.500000 0.341802
O O6 0.325103 0.579018 0.239065
O O7 0.333355 0.484134 0.513014
O O8 0.418807 0.644700 0.475192
O O9 0.657346 0.773584 0.212557
O O10 0.854105 0.750031 0.309388
O O11 0.790130 0.917050 0.252799
O O12 0.807796 0.811467 0.025104
O O13 0.545387 0.294020 0.165733
O O14 0.419903 0.249027 0.943482
O O15 0.754705 0.254977 0.231604
O O16 0.636846 0.597882 0.782139
O O17 0.554397 0.737084 0.646249
#
# Coordination Sequence:
#
# PCOD9312875 Si02
#       8
#     4   4   4   4   4   4   4   4
#     4  12  25  44  69  98 131 176 229 274 336 396
#     4  11  23  39  65 101 135 171 218 270 333 400
#     4  10  24  42  67  97 133 176 224 273 334 390
#     4  11  22  43  69  92 129 180 223 275 325 401
#     4  11  23  42  63  99 131 174 222 277 325 397
#     4  11  23  41  69  92 135 178 221 269 342 389
#     4  11  23  42  65  98 133 173 216 279 331 402
#     4  11  23  42  67  95 136 174 215 275 335 393
#
# _framework density 20.051216
#
# number of rings (size 3 to 8) (size 9 to 14) (size 15 to 20)
#    0.000    1.000    6.250    0.000    1.750    3.000 
#    0.000    3.125    0.000    0.000    0.000    0.000 
#    0.000    0.000    0.000    0.000    0.000    0.000 
#
# Total GULP energy -178528.795344 kJ/mol
# GULP energy per Si atom -5579.024854 kJ/mol
# Density = 2.000558 g / cm^3
# Si number density = 20.051216 Si / 1000 Ang^3
#
#
#
# Elastic Constant Matrix: (Units=GPa)
#
#
# Indices 1 2 3 4 5 6 
#
# 1 88.9841 32.1318 32.2300 0.0000 0.0000 0.0000
# 2 32.1318 80.8096 29.8312 0.0000 0.0000 0.0000
# 3 32.2300 29.8312 76.8468 0.0000 0.0000 0.0000
# 4 0.0000 0.0000 0.0000 27.3844 0.0000 0.0000
# 5 0.0000 0.0000 0.0000 0.0000 7.8257 0.0000
# 6 0.0000 0.0000 0.0000 0.0000 0.0000 34.1477
#
#
#
# Elastic Compliance Matrix: (Units=1/GPa)
#
#
# Indices 1 2 3 4 5 6 
#
# 1 0.014305 -0.004054 -0.004426 0.000000 0.000000 0.000000
# 2 -0.004054 0.015594 -0.004353 0.000000 0.000000 0.000000
# 3 -0.004426 -0.004353 0.016559 0.000000 0.000000 0.000000
# 4 0.000000 0.000000 0.000000 0.036517 0.000000 0.000000
# 5 0.000000 0.000000 0.000000 0.000000 0.127785 0.000000
# 6 0.000000 0.000000 0.000000 0.000000 0.000000 0.029285
#
#
# Mechanical properties :
#
#
# Convention : Reuss Voigt Hill
#
# Bulk Modulus (GPa) = 48.09625 48.33630 48.21627
# Shear Modulus (GPa) = 18.33918 24.03471 21.18695
#
# Velocity S-wave (km/s) = 3.02754 3.46593 3.25413
# Velocity P-wave (km/s) = 6.02164 6.33843 6.18206
#
# Compressibility (1/GPa) = 0.02079164
#
# Stress axis : x y z
#
# Youngs Moduli (GPa) = 69.90599 64.12835 60.39056
#
# Poissons Ratio (x) = 0.25999 0.26727
# Poissons Ratio (y) = 0.28341 0.26288
# Poissons Ratio (z) = 0.30939 0.27915
#
# Static dielectric constant tensor:
#      x y z
#    x 1.718830 0.000000 0.000000 
#    y 0.000000 1.725970 0.000000 
#    z 0.000000 0.000000 1.733850 
# 
# From -- ./inp_files/3938.got.cif
#   From: 2010.05.17/outbox.cif.g08.bks.cpg/sg18_2_cif.got.tgz:3938.got - 2010.06.03 22:40:56.
