data_PCOD9312527
_publ_section_title
;
Structure prediction by ZEFSAII (Michael W. Deem and Ramdas Pophale) SiO2 
 PCOD9312527
Probable space group: P 21 21 2
;
_chemical_formula_sum "Si O2"
_cell_formula_units_Z 30
_cell_length_a 11.377175
_cell_length_b 5.592444
_cell_length_c 19.677517
_cell_angle_alpha 90.000000
_cell_angle_beta 90.000000
_cell_angle_gamma 90.000000
_cell_volume 1252.005909
_symmetry_space_group_name_H-M "P 21 21 2"
_symmetry_group_IT_number 18
_symmetry_cell_setting 'orthorhombic'
loop_
_space_group_symop_operation_xyz
x,y,z
-x,-y,z
1/2+x,1/2-y,-z
1/2-x,1/2+y,-z
loop_
_atom_site_type_symbol
_atom_site_label
_atom_site_fract_x
_atom_site_fract_y
_atom_site_fract_z
Si Si1 0.872283 0.601074 0.055175
Si Si2 0.500000 0.000000 0.727335
Si Si3 0.178589 0.185314 0.185270
Si Si4 0.620610 0.413120 0.459542
Si Si5 0.317451 0.336223 0.700986
Si Si6 0.620960 0.346294 0.081939
Si Si7 0.300954 0.092059 0.416347
Si Si8 0.369917 0.537735 0.229804
O O1 0.851270 0.825865 0.105869
O O2 0.750649 0.460515 0.068895
O O3 0.000000 0.500000 0.075597
O O4 0.881730 0.645819 0.975258
O O5 0.593162 0.127207 0.776617
O O6 0.431579 0.188879 0.681066
O O7 0.307146 0.296614 0.201546
O O8 0.157212 0.943284 0.224877
O O9 0.500000 0.500000 0.493641
O O10 0.619876 0.148611 0.426170
O O11 0.720975 0.401374 0.516361
O O12 0.644878 0.643621 0.411464
O O13 0.278848 0.537324 0.649008
O O14 0.210213 0.159179 0.714316
O O15 0.500000 0.500000 0.070203
O O16 0.619531 0.295417 0.162199
O O17 0.500000 0.500000 0.255600
#
# Coordination Sequence:
#
# PCOD9312527 Si02
#       8
#     4   2   4   4   4   4   4   4
#     4  11  22  39  64  91 125 170 226 287 349 420
#     4  10  22  42  60  94 132 162 216 286 338 414
#     4  10  22  40  61  92 128 168 222 279 349 407
#     4  10  22  46  70 101 146 183 229 285 343 403
#     4  11  24  41  68  98 131 180 223 280 344 414
#     4  10  22  39  59  88 125 166 220 277 348 416
#     4  10  24  43  70 107 140 182 237 281 340 423
#     4   9  22  43  59  89 134 174 220 283 336 417
#
# _framework density 23.961548000000001
#
# number of rings (size 3 to 8) (size 9 to 14) (size 15 to 20)
#    0.000    1.867    0.667    1.600    5.600    3.200 
#    7.200    0.000    0.000    0.000    0.000    0.000 
#    0.000    0.000    0.000    0.000    0.000    0.000 
#
# Total GULP energy -167480.636275 kJ/mol
# GULP energy per Si atom -5582.687876 kJ/mol
# Density = 2.390701 g / cm^3
# Si number density = 23.961548 Si / 1000 Ang^3
#
#
#
# Elastic Constant Matrix: (Units=GPa)
#
#
# Indices 1 2 3 4 5 6 
#
# 1 132.6937 37.7903 -3.3568 0.0000 0.0000 0.0000
# 2 37.7903 87.9314 24.4978 0.0000 0.0000 0.0000
# 3 -3.3568 24.4978 42.7813 0.0000 0.0000 0.0000
# 4 0.0000 0.0000 0.0000 32.1636 0.0000 0.0000
# 5 0.0000 0.0000 0.0000 0.0000 -89.3604 0.0000
# 6 0.0000 0.0000 0.0000 0.0000 0.0000 26.3691
#
#
#
# Elastic Compliance Matrix: (Units=1/GPa)
#
#
# Indices 1 2 3 4 5 6 
#
# 1 0.009002 -0.004837 0.003476 0.000000 0.000000 0.000000
# 2 -0.004837 0.016130 -0.009616 0.000000 0.000000 0.000000
# 3 0.003476 -0.009616 0.029154 0.000000 0.000000 0.000000
# 4 0.000000 0.000000 0.000000 0.031091 0.000000 0.000000
# 5 0.000000 0.000000 0.000000 0.000000 -0.011191 0.000000
# 6 0.000000 0.000000 0.000000 0.000000 0.000000 0.037923
#
#
# Mechanical properties :
#
#
# Convention : Reuss Voigt Hill
#
# Bulk Modulus (GPa) = 30.92942 42.36323 36.64633
# Shear Modulus (GPa) = 34.52046 7.46611 20.99329
#
# Velocity S-wave (km/s) = 3.79972 1.76710 2.96315
# Velocity P-wave (km/s) = 5.67331 4.67777 5.19943
#
# Compressibility (1/GPa) = 0.03233167
#
# Stress axis : x y z
#
# Youngs Moduli (GPa) = 111.09042 61.99441 34.30057
#
# Poissons Ratio (x) = 0.29988 -0.11924
# Poissons Ratio (y) = 0.53736 0.32985
# Poissons Ratio (z) = -0.38617 0.59616
#
# Static dielectric constant tensor:
#      x y z
#    x 1.969750 0.000000 0.000000 
#    y 0.000000 1.994700 0.000000 
#    z 0.000000 0.000000 1.881540 
# 
# From -- ./inp_files/7582.got.cif
#   From: 2010.05.17/outbox.cif.g08.bks.cpg/sg18_4_cif.got.tgz:7582.got - 2010.06.03 22:40:56.
