data_PCOD9312764
_publ_section_title
;
Structure prediction by ZEFSAII (Michael W. Deem and Ramdas Pophale) SiO2 
 PCOD9312764
Probable space group: P 21 21 2
;
_chemical_formula_sum "Si O2"
_cell_formula_units_Z 14
_cell_length_a 8.190851
_cell_length_b 10.603184
_cell_length_c 8.808737
_cell_angle_alpha 90.000000
_cell_angle_beta 90.000000
_cell_angle_gamma 90.000000
_cell_volume 765.030883
_symmetry_space_group_name_H-M "P 21 21 2"
_symmetry_group_IT_number 18
_symmetry_cell_setting 'orthorhombic'
loop_
_space_group_symop_operation_xyz
x,y,z
-x,-y,z
1/2+x,1/2-y,-z
1/2-x,1/2+y,-z
loop_
_atom_site_type_symbol
_atom_site_label
_atom_site_fract_x
_atom_site_fract_y
_atom_site_fract_z
Si Si1 0.623099 0.394292 0.575821
Si Si2 0.641085 0.797852 0.677749
Si Si3 0.326447 0.947998 0.206163
Si Si4 0.500000 0.000000 0.909942
O O1 0.500000 0.500000 0.512695
O O2 0.517947 0.271290 0.610835
O O3 0.764022 0.368504 0.455891
O O4 0.695664 0.452092 0.731156
O O5 0.761890 0.687512 0.739255
O O6 0.580994 0.892991 0.806933
O O7 0.500000 0.000000 0.270049
O O8 0.362251 0.947629 0.026443
#
# Coordination Sequence:
#
# PCOD9312764 Si02
#       4
#     4   4   4   2
#     4  10  23  40  67  92 122 165 211 264 306 372
#     4  11  23  42  65  94 125 167 211 258 317 372
#     4   9  22  43  61  93 123 164 207 263 308 374
#     4  10  26  36  68  90 130 164 202 260 326 376
#
# _framework density 18.299916
#
# number of rings (size 3 to 8) (size 9 to 14) (size 15 to 20)
#    0.857    1.143    0.000    1.714   14.000    0.000 
#    5.143    0.000    0.000    0.000    0.000    0.000 
#    0.000    0.000    0.000    0.000    0.000    0.000 
#
# Total GULP energy -78007.019559 kJ/mol
# GULP energy per Si atom -5571.929968 kJ/mol
# Density = 1.825826 g / cm^3
# Si number density = 18.299916 Si / 1000 Ang^3
#
#
#
# Elastic Constant Matrix: (Units=GPa)
#
#
# Indices 1 2 3 4 5 6 
#
# 1 96.2557 46.6004 48.5402 0.0000 0.0000 0.0000
# 2 46.6004 75.3258 51.1856 0.0000 0.0000 0.0000
# 3 48.5402 51.1856 111.3731 0.0000 0.0000 0.0000
# 4 0.0000 0.0000 0.0000 3.6448 0.0000 0.0000
# 5 0.0000 0.0000 0.0000 0.0000 25.2806 0.0000
# 6 0.0000 0.0000 0.0000 0.0000 0.0000 35.1858
#
#
#
# Elastic Compliance Matrix: (Units=1/GPa)
#
#
# Indices 1 2 3 4 5 6 
#
# 1 0.015696 -0.007361 -0.003458 0.000000 0.000000 0.000000
# 2 -0.007361 0.022756 -0.007250 0.000000 0.000000 0.000000
# 3 -0.003458 -0.007250 0.013818 0.000000 0.000000 0.000000
# 4 0.000000 0.000000 0.000000 0.274367 0.000000 0.000000
# 5 0.000000 0.000000 0.000000 0.000000 0.039556 0.000000
# 6 0.000000 0.000000 0.000000 0.000000 0.000000 0.028421
#
#
# Mechanical properties :
#
#
# Convention : Reuss Voigt Hill
#
# Bulk Modulus (GPa) = 61.98750 63.95634 62.97192
# Shear Modulus (GPa) = 11.46447 21.93081 16.69764
#
# Velocity S-wave (km/s) = 2.50567 3.46556 3.02394
# Velocity P-wave (km/s) = 6.50521 7.14411 6.83213
#
# Compressibility (1/GPa) = 0.01613229
#
# Stress axis : x y z
#
# Youngs Moduli (GPa) = 63.70875 43.94414 72.36843
#
# Poissons Ratio (x) = 0.32346 0.25026
# Poissons Ratio (y) = 0.46894 0.52470
# Poissons Ratio (z) = 0.22031 0.31861
#
# Static dielectric constant tensor:
#      x y z
#    x 1.644370 0.000000 0.000000 
#    y 0.000000 1.621660 0.000000 
#    z 0.000000 0.000000 1.606510 
# 
# From -- ./inp_files/823.got.cif
#   From: 2010.05.17/outbox.cif.g08.bks.cpg/sg18_1_cif.got.tgz:823.got - 2010.06.03 22:40:56.
