data_PCOD9312371
_publ_section_title
;
Structure prediction by ZEFSAII (Michael W. Deem and Ramdas Pophale) SiO2 
 PCOD9312371
Probable space group: P 21 21 2
;
_chemical_formula_sum "Si O2"
_cell_formula_units_Z 32
_cell_length_a 8.861481
_cell_length_b 24.922392
_cell_length_c 6.379735
_cell_angle_alpha 90.000000
_cell_angle_beta 90.000000
_cell_angle_gamma 90.000000
_cell_volume 1408.960029
_symmetry_space_group_name_H-M "P 21 21 2"
_symmetry_group_IT_number 18
_symmetry_cell_setting 'orthorhombic'
loop_
_space_group_symop_operation_xyz
x,y,z
-x,-y,z
1/2+x,1/2-y,-z
1/2-x,1/2+y,-z
loop_
_atom_site_type_symbol
_atom_site_label
_atom_site_fract_x
_atom_site_fract_y
_atom_site_fract_z
Si Si1 0.628077 0.602909 0.343365
Si Si2 0.326689 0.138832 0.202576
Si Si3 0.985172 0.255246 0.755680
Si Si4 0.628786 0.963089 0.971245
Si Si5 0.830913 0.009152 0.313227
Si Si6 0.782938 0.904669 0.585863
Si Si7 0.483302 0.350022 0.953720
Si Si8 0.289176 0.303498 0.577744
O O1 0.666390 0.553805 0.500569
O O2 0.452128 0.617227 0.393420
O O3 0.743103 0.649765 0.407281
O O4 0.605053 0.604411 0.090701
O O5 0.399661 0.194800 0.136868
O O6 0.418229 0.087305 0.118118
O O7 0.319046 0.136518 0.456509
O O8 0.152505 0.135361 0.121796
O O9 0.891447 0.237636 0.551156
O O10 0.147086 0.275512 0.680389
O O11 0.994523 0.204056 0.907328
O O12 0.500000 0.000000 0.871519
O O13 0.719353 0.005443 0.116651
O O14 0.722229 0.931152 0.796405
O O15 0.792875 0.954960 0.433788
O O16 0.000000 0.000000 0.231478
O O17 0.383292 0.334311 0.755419
#
# Coordination Sequence:
#
# PCOD9312371 Si02
#       8
#     4   4   4   4   4   4   4   4
#     4  10  21  40  67 102 128 176 224 278 345 405
#     4  11  23  44  71  96 143 185 224 297 356 415
#     4  11  26  42  69 100 135 182 230 286 353 425
#     4  11  25  43  68 101 138 184 232 288 351 425
#     4   9  22  41  69  97 132 174 224 285 341 407
#     4  10  21  42  67  96 132 183 222 275 351 412
#     4  11  22  42  72  99 133 180 233 280 354 426
#     4  11  24  42  66  98 136 172 230 286 341 420
#
# _framework density 22.711787999999999
#
# number of rings (size 3 to 8) (size 9 to 14) (size 15 to 20)
#    0.000    1.500    2.500    1.500    3.500    6.500 
#    0.000    0.000    0.000    0.000    0.000    0.000 
#    0.000    0.000    0.000    0.000    0.000    0.000 
#
# Total GULP energy -178471.627742 kJ/mol
# GULP energy per Si atom -5577.238367 kJ/mol
# Density = 2.266009 g / cm^3
# Si number density = 22.711788 Si / 1000 Ang^3
#
#
#
# Elastic Constant Matrix: (Units=GPa)
#
#
# Indices 1 2 3 4 5 6 
#
# 1 28.7405 19.1706 22.2553 0.0000 0.0000 0.0000
# 2 19.1706 112.1363 26.6751 0.0000 0.0000 0.0000
# 3 22.2553 26.6751 82.7761 0.0000 0.0000 0.0000
# 4 0.0000 0.0000 0.0000 36.0809 0.0000 0.0000
# 5 0.0000 0.0000 0.0000 0.0000 11.4591 0.0000
# 6 0.0000 0.0000 0.0000 0.0000 0.0000 29.6934
#
#
#
# Elastic Compliance Matrix: (Units=1/GPa)
#
#
# Indices 1 2 3 4 5 6 
#
# 1 0.046802 -0.005424 -0.010836 0.000000 0.000000 0.000000
# 2 -0.005424 0.010287 -0.001857 0.000000 0.000000 0.000000
# 3 -0.010836 -0.001857 0.015592 0.000000 0.000000 0.000000
# 4 0.000000 0.000000 0.000000 0.027716 0.000000 0.000000
# 5 0.000000 0.000000 0.000000 0.000000 0.087267 0.000000
# 6 0.000000 0.000000 0.000000 0.000000 0.000000 0.033678
#
#
# Mechanical properties :
#
#
# Convention : Reuss Voigt Hill
#
# Bulk Modulus (GPa) = 27.43519 39.98386 33.70953
# Shear Modulus (GPa) = 18.53754 25.81680 22.17717
#
# Velocity S-wave (km/s) = 2.86003 3.37518 3.12823
# Velocity P-wave (km/s) = 4.79712 5.72994 5.28415
#
# Compressibility (1/GPa) = 0.03644954
#
# Stress axis : x y z
#
# Youngs Moduli (GPa) = 21.36643 97.21372 64.13394
#
# Poissons Ratio (x) = 0.52726 0.69492
# Poissons Ratio (y) = 0.11588 0.11908
# Poissons Ratio (z) = 0.23152 0.18050
#
# Static dielectric constant tensor:
#      x y z
#    x 1.831380 0.000000 0.000000 
#    y 0.000000 1.847700 0.000000 
#    z 0.000000 0.000000 1.978760 
# 
# From -- ./inp_files/788.got.cif
#   From: 2010.05.17/outbox.cif.g08.bks.cpg/sg18_1_cif.got.tgz:788.got - 2010.06.03 22:40:56.
