data_PCOD9312610
_publ_section_title
;
Structure prediction by ZEFSAII (Michael W. Deem and Ramdas Pophale) SiO2 
 PCOD9312610
Probable space group: P 21 21 2
;
_chemical_formula_sum "Si O2"
_cell_formula_units_Z 26
_cell_length_a 15.125554
_cell_length_b 11.753190
_cell_length_c 6.897185
_cell_angle_alpha 90.000000
_cell_angle_beta 90.000000
_cell_angle_gamma 90.000000
_cell_volume 1226.136787
_symmetry_space_group_name_H-M "P 21 21 2"
_symmetry_group_IT_number 18
_symmetry_cell_setting 'orthorhombic'
loop_
_space_group_symop_operation_xyz
x,y,z
-x,-y,z
1/2+x,1/2-y,-z
1/2-x,1/2+y,-z
loop_
_atom_site_type_symbol
_atom_site_label
_atom_site_fract_x
_atom_site_fract_y
_atom_site_fract_z
Si Si1 0.500000 0.000000 0.892198
Si Si2 0.517224 0.750693 0.762496
Si Si3 0.618787 0.368004 0.039926
Si Si4 0.725441 0.794760 0.246149
Si Si5 0.376021 0.747586 0.444637
Si Si6 0.338919 0.381396 0.956124
Si Si7 0.151062 0.466290 0.792404
O O1 0.582920 0.024105 0.031462
O O2 0.479386 0.113441 0.773368
O O3 0.460433 0.717529 0.575854
O O4 0.460350 0.703965 0.945434
O O5 0.611243 0.692215 0.793109
O O6 0.628809 0.336378 0.263048
O O7 0.610183 0.501661 0.000047
O O8 0.707085 0.329765 0.926532
O O9 0.788481 0.760938 0.423123
O O10 0.669837 0.693088 0.151485
O O11 0.668842 0.907473 0.289214
O O12 0.383114 0.875409 0.362656
O O13 0.242661 0.416485 0.877421
#
# Coordination Sequence:
#
# PCOD9312610 Si02
#       7
#     2   4   4   4   4   4   4
#     4  12  22  46  72  94 142 190 224 284 362 412
#     4  11  24  45  69 100 137 185 230 287 353 417
#     4  10  22  44  67  98 140 181 229 286 349 418
#     4  10  22  41  68 100 140 180 230 290 348 414
#     4  11  23  44  69 103 141 176 235 294 344 413
#     4  11  22  45  71  98 140 189 226 286 358 414
#     4  11  23  44  69 101 141 178 237 287 345 423
#
# _framework density 21.204812
#
# number of rings (size 3 to 8) (size 9 to 14) (size 15 to 20)
#    0.000    1.231    4.615    1.385    2.154    0.615 
#    8.308    4.615    0.000    0.000    0.000    0.000 
#    0.000    0.000    0.000    0.000    0.000    0.000 
#
# Total GULP energy -145435.125584 kJ/mol
# GULP energy per Si atom -5593.658676 kJ/mol
# Density = 2.115655 g / cm^3
# Si number density = 21.204812 Si / 1000 Ang^3
#
#
#
# Elastic Constant Matrix: (Units=GPa)
#
#
# Indices 1 2 3 4 5 6 
#
# 1 71.4731 8.3417 7.5532 0.0000 0.0000 0.0000
# 2 8.3417 121.9761 11.6595 0.0000 0.0000 0.0000
# 3 7.5532 11.6595 89.5289 0.0000 0.0000 0.0000
# 4 0.0000 0.0000 0.0000 18.3974 0.0000 0.0000
# 5 0.0000 0.0000 0.0000 0.0000 5.5239 0.0000
# 6 0.0000 0.0000 0.0000 0.0000 0.0000 29.7479
#
#
#
# Elastic Compliance Matrix: (Units=1/GPa)
#
#
# Indices 1 2 3 4 5 6 
#
# 1 0.014207 -0.000868 -0.001086 0.000000 0.000000 0.000000
# 2 -0.000868 0.008355 -0.001015 0.000000 0.000000 0.000000
# 3 -0.001086 -0.001015 0.011393 0.000000 0.000000 0.000000
# 4 0.000000 0.000000 0.000000 0.054355 0.000000 0.000000
# 5 0.000000 0.000000 0.000000 0.000000 0.181030 0.000000
# 6 0.000000 0.000000 0.000000 0.000000 0.000000 0.033616
#
#
# Mechanical properties :
#
#
# Convention : Reuss Voigt Hill
#
# Bulk Modulus (GPa) = 35.69034 37.56521 36.62777
# Shear Modulus (GPa) = 15.71176 27.76210 21.73693
#
# Velocity S-wave (km/s) = 2.72500 3.62226 3.20518
# Velocity P-wave (km/s) = 5.17384 5.93702 5.56852
#
# Compressibility (1/GPa) = 0.02801879
#
# Stress axis : x y z
#
# Youngs Moduli (GPa) = 70.38636 119.69337 87.77069
#
# Poissons Ratio (x) = 0.10388 0.09528
# Poissons Ratio (y) = 0.06108 0.08907
# Poissons Ratio (z) = 0.07641 0.12147
#
# Static dielectric constant tensor:
#      x y z
#    x 1.803040 0.000000 0.000000 
#    y 0.000000 1.769290 0.000000 
#    z 0.000000 0.000000 1.725160 
# 
# From -- ./inp_files/1137.got.cif
#   From: 2010.05.17/outbox.cif.g08.bks.cpg/sg18_1_cif.got.tgz:1137.got - 2010.06.03 22:40:56.
