data_PCOD9312082
_publ_section_title
;
Structure prediction by ZEFSAII (Michael W. Deem and Ramdas Pophale) SiO2 
 PCOD9312082
Probable space group: P 21 21 2
;
_chemical_formula_sum "Si O2"
_cell_formula_units_Z 26
_cell_length_a 14.195326
_cell_length_b 5.150966
_cell_length_c 16.063965
_cell_angle_alpha 90.000000
_cell_angle_beta 90.000000
_cell_angle_gamma 90.000000
_cell_volume 1174.591363
_symmetry_space_group_name_H-M "P 21 21 2"
_symmetry_group_IT_number 18
_symmetry_cell_setting 'orthorhombic'
loop_
_space_group_symop_operation_xyz
x,y,z
-x,-y,z
1/2+x,1/2-y,-z
1/2-x,1/2+y,-z
loop_
_atom_site_type_symbol
_atom_site_label
_atom_site_fract_x
_atom_site_fract_y
_atom_site_fract_z
Si Si1 0.000000 0.500000 0.285587
Si Si2 0.155529 0.369430 0.158163
Si Si3 0.828147 0.771401 0.626880
Si Si4 0.000000 0.000000 0.388607
Si Si5 0.275932 0.866502 0.185190
Si Si6 0.687007 0.252946 0.013617
Si Si7 0.343794 0.371950 0.508363
Si Si8 0.500000 0.000000 0.446865
O O1 0.922160 0.631836 0.228145
O O2 0.034696 0.751042 0.336572
O O3 0.194404 0.661896 0.160699
O O4 0.236055 0.158284 0.180883
O O5 0.120563 0.295366 0.065705
O O6 0.805843 0.713888 0.722244
O O7 0.748919 0.649532 0.564365
O O8 0.935091 0.683919 0.610033
O O9 0.822148 0.060096 0.587811
O O10 0.089788 0.081756 0.444669
O O11 0.346091 0.816092 0.106841
O O12 0.729149 0.542678 0.005748
O O13 0.420247 0.145112 0.499927
#
# Coordination Sequence:
#
# PCOD9312082 Si02
#       8
#     2   4   4   2   4   4   4   2
#     4  12  23  36  59  94 126 162 204 271 320 383
#     4  10  20  38  59  95 127 162 206 262 327 384
#     4  12  25  42  66  93 126 175 224 266 330 388
#     4  12  26  42  62  92 134 168 218 270 326 380
#     4  10  22  38  64  91 123 166 218 261 308 394
#     4   8  16  34  59  85 120 157 200 260 323 379
#     4  12  25  42  65  89 127 180 217 274 332 388
#     4  12  25  46  63  92 128 172 224 277 328 385
#
# _framework density 22.135356000000002
#
# number of rings (size 3 to 8) (size 9 to 14) (size 15 to 20)
#    0.000    1.231    3.077    3.231    2.154    1.231 
#    0.000    0.769    0.000    0.000    8.000    0.000 
#    0.000    0.000    0.000    0.000    0.000    0.000 
#
# Total GULP energy -144843.853200 kJ/mol
# GULP energy per Si atom -5570.917431 kJ/mol
# Density = 2.208498 g / cm^3
# Si number density = 22.135356 Si / 1000 Ang^3
#
#
#
# Elastic Constant Matrix: (Units=GPa)
#
#
# Indices 1 2 3 4 5 6 
#
# 1 63.5289 13.9955 23.2321 0.0000 0.0000 0.0000
# 2 13.9955 96.2937 26.9180 0.0000 0.0000 0.0000
# 3 23.2321 26.9180 185.5623 0.0000 0.0000 0.0000
# 4 0.0000 0.0000 0.0000 29.2067 0.0000 0.0000
# 5 0.0000 0.0000 0.0000 0.0000 70.3647 0.0000
# 6 0.0000 0.0000 0.0000 0.0000 0.0000 30.4292
#
#
#
# Elastic Compliance Matrix: (Units=1/GPa)
#
#
# Indices 1 2 3 4 5 6 
#
# 1 0.016836 -0.001936 -0.001827 0.000000 0.000000 0.000000
# 2 -0.001936 0.011046 -0.001360 0.000000 0.000000 0.000000
# 3 -0.001827 -0.001360 0.005815 0.000000 0.000000 0.000000
# 4 0.000000 0.000000 0.000000 0.034239 0.000000 0.000000
# 5 0.000000 0.000000 0.000000 0.000000 0.014212 0.000000
# 6 0.000000 0.000000 0.000000 0.000000 0.000000 0.032863
#
#
# Mechanical properties :
#
#
# Convention : Reuss Voigt Hill
#
# Bulk Modulus (GPa) = 42.64251 52.63068 47.63660
# Shear Modulus (GPa) = 37.57314 44.74941 41.16128
#
# Velocity S-wave (km/s) = 4.12445 4.50113 4.31690
# Velocity P-wave (km/s) = 6.47979 7.13035 6.81284
#
# Compressibility (1/GPa) = 0.02345078
#
# Stress axis : x y z
#
# Youngs Moduli (GPa) = 59.39822 90.52647 171.96791
#
# Poissons Ratio (x) = 0.17528 0.31417
# Poissons Ratio (y) = 0.11501 0.23388
# Poissons Ratio (z) = 0.10852 0.12312
#
# Static dielectric constant tensor:
#      x y z
#    x 1.843160 0.000000 0.000000 
#    y 0.000000 1.915950 0.000000 
#    z 0.000000 0.000000 1.958860 
# 
# From -- ./inp_files/6990.got.cif
#   From: 2010.05.17/outbox.cif.g08.bks.cpg/sg18_4_cif.got.tgz:6990.got - 2010.06.03 22:40:56.
