data_PCOD9312776
_publ_section_title
;
Structure prediction by ZEFSAII (Michael W. Deem and Ramdas Pophale) SiO2 
 PCOD9312776
Probable space group: P 21 21 2
;
_chemical_formula_sum "Si O2"
_cell_formula_units_Z 10
_cell_length_a 8.648555
_cell_length_b 4.839155
_cell_length_c 11.193540
_cell_angle_alpha 90.000000
_cell_angle_beta 90.000000
_cell_angle_gamma 90.000000
_cell_volume 468.468658
_symmetry_space_group_name_H-M "P 21 21 2"
_symmetry_group_IT_number 18
_symmetry_cell_setting 'orthorhombic'
loop_
_space_group_symop_operation_xyz
x,y,z
-x,-y,z
1/2+x,1/2-y,-z
1/2-x,1/2+y,-z
loop_
_atom_site_type_symbol
_atom_site_label
_atom_site_fract_x
_atom_site_fract_y
_atom_site_fract_z
Si Si1 0.844321 0.858441 0.538207
Si Si2 0.500000 0.500000 0.230068
Si Si3 0.349516 0.138135 0.026463
O O1 0.796892 0.564409 0.487954
O O2 0.883686 0.847881 0.678923
O O3 0.000000 0.000000 0.485679
O O4 0.410756 0.285726 0.146022
O O5 0.500000 0.000000 0.966666
O O6 0.268162 0.385522 0.954897
#
# Coordination Sequence:
#
# PCOD9312776 Si02
#       3
#     4   2   4
#     4  10  23  41  72  99 134 177 223 277 336 408
#     4  10  26  42  80  88 154 178 220 286 366 376
#     4  12  24  44  73 100 137 186 235 284 344 412
#
# _framework density 21.346145
#
# number of rings (size 3 to 8) (size 9 to 14) (size 15 to 20)
#    1.200    0.000    4.000    1.200    5.600    0.000 
#    0.000    8.000    4.400    0.000    0.000    0.000 
#    0.000    0.000    0.000    0.000    0.000    0.000 
#
# Total GULP energy -55795.005025 kJ/mol
# GULP energy per Si atom -5579.500502 kJ/mol
# Density = 2.129756 g / cm^3
# Si number density = 21.346145 Si / 1000 Ang^3
#
#
#
# Elastic Constant Matrix: (Units=GPa)
#
#
# Indices 1 2 3 4 5 6 
#
# 1 101.8990 55.8870 50.8866 0.0000 0.0000 0.0000
# 2 55.8870 145.3045 44.0897 0.0000 0.0000 0.0000
# 3 50.8866 44.0897 78.2626 0.0000 0.0000 0.0000
# 4 0.0000 0.0000 0.0000 4.3086 0.0000 0.0000
# 5 0.0000 0.0000 0.0000 0.0000 49.3726 0.0000
# 6 0.0000 0.0000 0.0000 0.0000 0.0000 71.9064
#
#
#
# Elastic Compliance Matrix: (Units=1/GPa)
#
#
# Indices 1 2 3 4 5 6 
#
# 1 0.015959 -0.003606 -0.008345 0.000000 0.000000 0.000000
# 2 -0.003606 0.009116 -0.002791 0.000000 0.000000 0.000000
# 3 -0.008345 -0.002791 0.019776 0.000000 0.000000 0.000000
# 4 0.000000 0.000000 0.000000 0.232096 0.000000 0.000000
# 5 0.000000 0.000000 0.000000 0.000000 0.020254 0.000000
# 6 0.000000 0.000000 0.000000 0.000000 0.000000 0.013907
#
#
# Mechanical properties :
#
#
# Convention : Reuss Voigt Hill
#
# Bulk Modulus (GPa) = 65.07596 69.68809 67.38202
# Shear Modulus (GPa) = 14.46284 36.75769 25.61027
#
# Velocity S-wave (km/s) = 2.60578 4.15418 3.46751
# Velocity P-wave (km/s) = 6.29331 7.46506 6.90409
#
# Compressibility (1/GPa) = 0.01536666
#
# Stress axis : x y z
#
# Youngs Moduli (GPa) = 62.66196 109.69910 50.56709
#
# Poissons Ratio (x) = 0.39556 0.42198
# Poissons Ratio (y) = 0.22595 0.14113
# Poissons Ratio (z) = 0.52291 0.30616
#
# Static dielectric constant tensor:
#      x y z
#    x 1.835240 0.000000 0.000000 
#    y 0.000000 1.756730 0.000000 
#    z 0.000000 0.000000 1.728480 
# 
# From -- ./inp_files/2702.got.cif
#   From: 2010.05.17/outbox.cif.g08.bks.cpg/sg18_2_cif.got.tgz:2702.got - 2010.06.03 22:40:56.
