data_PCOD9312256
_publ_section_title
;
Structure prediction by ZEFSAII (Michael W. Deem and Ramdas Pophale) SiO2 
 PCOD9312256
Probable space group: P 21 21 2
;
_chemical_formula_sum "Si O2"
_cell_formula_units_Z 28
_cell_length_a 5.562777
_cell_length_b 20.271040
_cell_length_c 12.930542
_cell_angle_alpha 90.000000
_cell_angle_beta 90.000000
_cell_angle_gamma 90.000000
_cell_volume 1458.090264
_symmetry_space_group_name_H-M "P 21 21 2"
_symmetry_group_IT_number 18
_symmetry_cell_setting 'orthorhombic'
loop_
_space_group_symop_operation_xyz
x,y,z
-x,-y,z
1/2+x,1/2-y,-z
1/2-x,1/2+y,-z
loop_
_atom_site_type_symbol
_atom_site_label
_atom_site_fract_x
_atom_site_fract_y
_atom_site_fract_z
Si Si1 0.741400 0.537536 0.374903
Si Si2 0.772946 0.695865 0.859955
Si Si3 0.882656 0.335492 0.043032
Si Si4 0.169347 0.318263 0.420975
Si Si5 0.013932 0.928006 0.052616
Si Si6 0.332466 0.742767 0.360696
Si Si7 0.326451 0.937911 0.851494
O O1 0.500000 0.500000 0.410829
O O2 0.792306 0.604401 0.435477
O O3 0.685466 0.559446 0.255786
O O4 0.000000 0.500000 0.376655
O O5 0.691384 0.764524 0.913428
O O6 0.601048 0.632355 0.875358
O O7 0.817870 0.712325 0.741161
O O8 0.996002 0.676839 0.932239
O O9 0.045792 0.367822 0.132273
O O10 0.695622 0.393067 0.014268
O O11 0.408204 0.293415 0.360341
O O12 0.169087 0.283581 0.532676
O O13 0.911510 0.301697 0.367607
O O14 0.000000 0.000000 0.106853
O O15 0.196082 0.945070 0.960271
O O16 0.500000 0.000000 0.844147
#
# Coordination Sequence:
#
# PCOD9312256 Si02
#       7
#     4   4   4   4   4   4   4
#     4  11  23  36  61  93 127 159 204 258 323 384
#     4  11  24  37  60  92 120 165 209 264 305 371
#     4  11  22  36  56  88 122 160 207 259 302 366
#     4  10  22  43  65  95 120 164 207 272 321 379
#     4  11  22  38  57  80 127 163 206 244 306 371
#     4  10  23  41  69  90 124 161 216 263 322 370
#     4  10  21  34  55  85 119 165 203 247 317 380
#
# _framework density 19.203202000000001
#
# number of rings (size 3 to 8) (size 9 to 14) (size 15 to 20)
#    0.000    1.429    2.857    2.143    6.000    0.000 
#    0.000    0.714    3.143    0.000    0.000    0.000 
#    0.000    0.000    0.000    0.000    0.000    0.000 
#
# Total GULP energy -155886.380856 kJ/mol
# GULP energy per Si atom -5567.370745 kJ/mol
# Density = 1.915949 g / cm^3
# Si number density = 19.203202 Si / 1000 Ang^3
#
#
#
# Elastic Constant Matrix: (Units=GPa)
#
#
# Indices 1 2 3 4 5 6 
#
# 1 62.3383 31.4946 9.3836 0.0000 0.0000 0.0000
# 2 31.4946 126.2382 7.5631 0.0000 0.0000 0.0000
# 3 9.3836 7.5631 31.5742 0.0000 0.0000 0.0000
# 4 0.0000 0.0000 0.0000 16.8360 0.0000 0.0000
# 5 0.0000 0.0000 0.0000 0.0000 -20.1461 0.0000
# 6 0.0000 0.0000 0.0000 0.0000 0.0000 26.3780
#
#
#
# Elastic Compliance Matrix: (Units=1/GPa)
#
#
# Indices 1 2 3 4 5 6 
#
# 1 0.018984 -0.004462 -0.004573 0.000000 0.000000 0.000000
# 2 -0.004462 0.009086 -0.000850 0.000000 0.000000 0.000000
# 3 -0.004573 -0.000850 0.033234 0.000000 0.000000 0.000000
# 4 0.000000 0.000000 0.000000 0.059397 0.000000 0.000000
# 5 0.000000 0.000000 0.000000 0.000000 -0.049637 0.000000
# 6 0.000000 0.000000 0.000000 0.000000 0.000000 0.037910
#
#
# Mechanical properties :
#
#
# Convention : Reuss Voigt Hill
#
# Bulk Modulus (GPa) = 24.07724 35.22590 29.65157
# Shear Modulus (GPa) = 35.06576 16.06089 25.56333
#
# Velocity S-wave (km/s) = 4.27785 2.89514 3.65252
# Velocity P-wave (km/s) = 6.07992 5.43685 5.76735
#
# Compressibility (1/GPa) = 0.04153301
#
# Stress axis : x y z
#
# Youngs Moduli (GPa) = 52.67498 110.06242 30.08958
#
# Poissons Ratio (x) = 0.49114 0.13760
# Poissons Ratio (y) = 0.23505 0.02558
# Poissons Ratio (z) = 0.24089 0.09357
#
# Static dielectric constant tensor:
#      x y z
#    x 1.806500 0.000000 0.000000 
#    y 0.000000 1.582230 0.000000 
#    z 0.000000 0.000000 1.624450 
# 
# From -- ./inp_files/5220.got.cif
#   From: 2010.05.17/outbox.cif.g08.bks.cpg/sg18_3_cif.got.tgz:5220.got - 2010.06.03 22:40:56.
