data_PCOD9312600
_publ_section_title
;
Structure prediction by ZEFSAII (Michael W. Deem and Ramdas Pophale) SiO2 
 PCOD9312600
Probable space group: P 21 21 2
;
_chemical_formula_sum "Si O2"
_cell_formula_units_Z 30
_cell_length_a 8.666507
_cell_length_b 23.798288
_cell_length_c 5.402855
_cell_angle_alpha 90.000000
_cell_angle_beta 90.000000
_cell_angle_gamma 90.000000
_cell_volume 1114.328198
_symmetry_space_group_name_H-M "P 21 21 2"
_symmetry_group_IT_number 18
_symmetry_cell_setting 'orthorhombic'
loop_
_space_group_symop_operation_xyz
x,y,z
-x,-y,z
1/2+x,1/2-y,-z
1/2-x,1/2+y,-z
loop_
_atom_site_type_symbol
_atom_site_label
_atom_site_fract_x
_atom_site_fract_y
_atom_site_fract_z
Si Si1 0.496135 0.687271 0.629356
Si Si2 0.717097 0.403218 0.437583
Si Si3 0.236513 0.241961 0.043392
Si Si4 0.000000 0.000000 0.379613
Si Si5 0.610235 0.925416 0.048457
Si Si6 0.235794 0.449568 0.979078
Si Si7 0.520767 0.206046 0.329558
Si Si8 0.263481 0.856325 0.623973
O O1 0.376741 0.654177 0.458297
O O2 0.404013 0.700938 0.876002
O O3 0.534784 0.748251 0.526258
O O4 0.643646 0.648317 0.603392
O O5 0.600365 0.456943 0.452716
O O6 0.806989 0.410657 0.695890
O O7 0.820882 0.397385 0.195992
O O8 0.391292 0.207437 0.114952
O O9 0.251828 0.300663 0.202068
O O10 0.175134 0.266883 0.788093
O O11 0.119331 0.964773 0.200617
O O12 0.663105 0.988985 0.981990
O O13 0.072909 0.418709 0.909874
O O14 0.274649 0.411920 0.219727
O O15 0.572248 0.153400 0.494479
#
# Coordination Sequence:
#
# PCOD9312600 Si02
#       8
#     4   4   4   2   4   4   4   4
#     4  10  24  40  67  96 140 182 239 297 358 436
#     4  11  26  46  75 108 146 195 246 306 374 437
#     4  10  22  41  65  97 137 183 232 304 354 448
#     4  10  26  46  78 106 146 198 256 310 376 444
#     4  10  26  49  71 108 149 192 242 309 374 446
#     4  10  24  47  74 104 149 188 250 306 375 449
#     4  10  22  42  65  98 138 184 241 295 373 434
#     4  10  23  42  66  99 136 183 239 292 369 429
#
# _framework density 26.922051
#
# number of rings (size 3 to 8) (size 9 to 14) (size 15 to 20)
#    0.000    1.867    0.000    0.800    9.333    9.067 
#    2.400    0.000    0.000    0.000    0.000    0.000 
#    0.000    0.000    0.000    0.000    0.000    0.000 
#
# Total GULP energy -167520.594701 kJ/mol
# GULP energy per Si atom -5584.019823 kJ/mol
# Density = 2.686078 g / cm^3
# Si number density = 26.922051 Si / 1000 Ang^3
#
#
#
# Elastic Constant Matrix: (Units=GPa)
#
#
# Indices 1 2 3 4 5 6 
#
# 1 154.7270 43.2403 70.4710 0.0000 0.0000 0.0000
# 2 43.2403 104.2508 52.2771 0.0000 0.0000 0.0000
# 3 70.4710 52.2771 93.2212 0.0000 0.0000 0.0000
# 4 0.0000 0.0000 0.0000 61.4171 0.0000 0.0000
# 5 0.0000 0.0000 0.0000 0.0000 31.9076 0.0000
# 6 0.0000 0.0000 0.0000 0.0000 0.0000 45.4516
#
#
#
# Elastic Compliance Matrix: (Units=1/GPa)
#
#
# Indices 1 2 3 4 5 6 
#
# 1 0.009875 -0.000490 -0.007190 0.000000 0.000000 0.000000
# 2 -0.000490 0.013369 -0.007127 0.000000 0.000000 0.000000
# 3 -0.007190 -0.007127 0.020159 0.000000 0.000000 0.000000
# 4 0.000000 0.000000 0.000000 0.016282 0.000000 0.000000
# 5 0.000000 0.000000 0.000000 0.000000 0.031341 0.000000
# 6 0.000000 0.000000 0.000000 0.000000 0.000000 0.022001
#
#
# Mechanical properties :
#
#
# Convention : Reuss Voigt Hill
#
# Bulk Modulus (GPa) = 72.52034 76.01953 74.26993
# Shear Modulus (GPa) = 33.95889 40.16930 37.06410
#
# Velocity S-wave (km/s) = 3.55544 3.86691 3.71444
# Velocity P-wave (km/s) = 6.62197 6.94518 6.78550
#
# Compressibility (1/GPa) = 0.01378923
#
# Stress axis : x y z
#
# Youngs Moduli (GPa) = 101.26937 74.79808 49.60604
#
# Poissons Ratio (x) = 0.03668 0.35666
# Poissons Ratio (y) = 0.04966 0.35352
# Poissons Ratio (z) = 0.72811 0.53306
#
# Static dielectric constant tensor:
#      x y z
#    x 2.192130 0.000000 0.000000 
#    y 0.000000 2.155470 0.000000 
#    z 0.000000 0.000000 2.050160 
# 
# From -- ./inp_files/1279.got.cif
#   From: 2010.05.17/outbox.cif.g08.bks.cpg/sg18_1_cif.got.tgz:1279.got - 2010.06.03 22:40:56.
