data_PCOD9312759
_publ_section_title
;
Structure prediction by ZEFSAII (Michael W. Deem and Ramdas Pophale) SiO2 
 PCOD9312759
Probable space group: P 21 21 2
;
_chemical_formula_sum "Si O2"
_cell_formula_units_Z 30
_cell_length_a 12.615831
_cell_length_b 18.208184
_cell_length_c 5.500771
_cell_angle_alpha 90.000000
_cell_angle_beta 90.000000
_cell_angle_gamma 90.000000
_cell_volume 1263.589654
_symmetry_space_group_name_H-M "P 21 21 2"
_symmetry_group_IT_number 18
_symmetry_cell_setting 'orthorhombic'
loop_
_space_group_symop_operation_xyz
x,y,z
-x,-y,z
1/2+x,1/2-y,-z
1/2-x,1/2+y,-z
loop_
_atom_site_type_symbol
_atom_site_label
_atom_site_fract_x
_atom_site_fract_y
_atom_site_fract_z
Si Si1 0.000000 0.500000 0.081257
Si Si2 0.670483 0.768289 0.281640
Si Si3 0.374087 0.784168 0.874768
Si Si4 0.920969 0.215437 0.235238
Si Si5 0.524029 0.137627 0.268910
Si Si6 0.880209 0.968909 0.608465
Si Si7 0.818548 0.567960 0.341888
Si Si8 0.435292 0.576513 0.887023
O O1 0.106759 0.496154 0.237140
O O2 0.001983 0.425769 0.928754
O O3 0.794638 0.776265 0.227549
O O4 0.649291 0.717136 0.520342
O O5 0.594501 0.837025 0.337041
O O6 0.635119 0.738143 0.015644
O O7 0.482767 0.773649 0.727359
O O8 0.315340 0.861459 0.833420
O O9 0.417139 0.791182 0.148764
O O10 0.980358 0.139730 0.174082
O O11 0.610897 0.100274 0.440269
O O12 0.861696 0.930977 0.349277
O O13 0.796365 0.034703 0.623172
O O14 0.877896 0.918406 0.850800
O O15 0.000000 0.000000 0.596207
O O16 0.500000 0.500000 0.906622
#
# Coordination Sequence:
#
# PCOD9312759 Si02
#       8
#     2   4   4   4   4   4   4   4
#     4  10  24  44  72 100 140 190 238 300 350 434
#     4  11  25  42  74  99 140 188 240 298 355 426
#     4  10  25  41  69  99 135 186 238 293 355 422
#     4  11  24  45  65 101 139 182 235 295 352 433
#     4  10  23  47  69 105 139 189 248 294 360 437
#     4  10  24  40  64 102 137 173 223 290 355 426
#     4  11  23  44  72  99 140 188 241 286 365 426
#     4  10  23  40  62  97 138 174 221 282 359 424
#
# _framework density 23.741883999999999
#
# number of rings (size 3 to 8) (size 9 to 14) (size 15 to 20)
#    0.000    1.600    1.333    1.200   13.067    1.067 
#    2.400    0.000    0.000    0.000    0.000    0.000 
#    0.000    0.000    0.000    0.000    0.000    0.000 
#
# Total GULP energy -167328.052649 kJ/mol
# GULP energy per Si atom -5577.601755 kJ/mol
# Density = 2.368785 g / cm^3
# Si number density = 23.741884 Si / 1000 Ang^3
#
#
#
# Elastic Constant Matrix: (Units=GPa)
#
#
# Indices 1 2 3 4 5 6 
#
# 1 112.5814 17.6746 26.9818 0.0000 0.0000 0.0000
# 2 17.6746 60.4629 -5.8406 0.0000 0.0000 0.0000
# 3 26.9818 -5.8406 109.2430 0.0000 0.0000 0.0000
# 4 0.0000 0.0000 0.0000 25.7484 0.0000 0.0000
# 5 0.0000 0.0000 0.0000 0.0000 19.4136 0.0000
# 6 0.0000 0.0000 0.0000 0.0000 0.0000 37.5116
#
#
#
# Elastic Compliance Matrix: (Units=1/GPa)
#
#
# Indices 1 2 3 4 5 6 
#
# 1 0.010016 -0.003183 -0.002644 0.000000 0.000000 0.000000
# 2 -0.003183 0.017637 0.001729 0.000000 0.000000 0.000000
# 3 -0.002644 0.001729 0.009899 0.000000 0.000000 0.000000
# 4 0.000000 0.000000 0.000000 0.038837 0.000000 0.000000
# 5 0.000000 0.000000 0.000000 0.000000 0.051510 0.000000
# 6 0.000000 0.000000 0.000000 0.000000 0.000000 0.026658
#
#
# Mechanical properties :
#
#
# Convention : Reuss Voigt Hill
#
# Bulk Modulus (GPa) = 34.06490 39.99097 37.02793
# Shear Modulus (GPa) = 28.97886 32.76615 30.87250
#
# Velocity S-wave (km/s) = 3.49747 3.71900 3.60993
# Velocity P-wave (km/s) = 5.53976 5.94322 5.74503
#
# Compressibility (1/GPa) = 0.02935573
#
# Stress axis : x y z
#
# Youngs Moduli (GPa) = 99.84141 56.70012 101.01629
#
# Poissons Ratio (x) = 0.18049 0.26709
# Poissons Ratio (y) = 0.31782 -0.17467
# Poissons Ratio (z) = 0.26398 -0.09804
#
# Static dielectric constant tensor:
#      x y z
#    x 1.931800 0.000000 0.000000 
#    y 0.000000 1.933080 0.000000 
#    z 0.000000 0.000000 2.004420 
# 
# From -- ./inp_files/1263.got.cif
#   From: 2010.05.17/outbox.cif.g08.bks.cpg/sg18_1_cif.got.tgz:1263.got - 2010.06.03 22:40:56.
