data_PCOD9312128
_publ_section_title
;
Structure prediction by ZEFSAII (Michael W. Deem and Ramdas Pophale) SiO2 
 PCOD9312128
Probable space group: P 21 21 2
;
_chemical_formula_sum "Si O2"
_cell_formula_units_Z 32
_cell_length_a 13.879165
_cell_length_b 9.555066
_cell_length_c 11.366175
_cell_angle_alpha 90.000000
_cell_angle_beta 90.000000
_cell_angle_gamma 90.000000
_cell_volume 1507.340501
_symmetry_space_group_name_H-M "P 21 21 2"
_symmetry_group_IT_number 18
_symmetry_cell_setting 'orthorhombic'
loop_
_space_group_symop_operation_xyz
x,y,z
-x,-y,z
1/2+x,1/2-y,-z
1/2-x,1/2+y,-z
loop_
_atom_site_type_symbol
_atom_site_label
_atom_site_fract_x
_atom_site_fract_y
_atom_site_fract_z
Si Si1 0.102001 0.073736 0.708098
Si Si2 0.739510 0.509362 0.915799
Si Si3 0.459564 0.350374 0.903195
Si Si4 0.293633 0.465713 0.644993
Si Si5 0.913926 0.808254 0.452172
Si Si6 0.213762 0.441628 0.396158
Si Si7 0.594412 0.805775 0.674591
Si Si8 0.641236 0.269110 0.052780
O O1 0.088499 0.165758 0.590778
O O2 0.137151 0.167971 0.816120
O O3 0.185515 0.963564 0.671127
O O4 0.000000 0.000000 0.735718
O O5 0.645902 0.605523 0.946959
O O6 0.739699 0.489923 0.774331
O O7 0.828910 0.606983 0.949689
O O8 0.718176 0.364363 0.980916
O O9 0.500000 0.500000 0.857232
O O10 0.447033 0.238648 0.800469
O O11 0.536905 0.296701 0.995987
O O12 0.392792 0.544438 0.610995
O O13 0.227025 0.491402 0.531887
O O14 0.317492 0.301094 0.651303
O O15 0.826201 0.713529 0.405308
O O16 0.011382 0.731321 0.417316
O O17 0.134814 0.539661 0.335110
#
# Coordination Sequence:
#
# PCOD9312128 Si02
#       8
#     4   4   4   4   4   4   4   4
#     4  11  23  38  61  89 121 162 207 247 291 362
#     4  10  21  39  62  84 115 156 198 249 298 349
#     4   9  19  38  62  85 113 157 204 240 286 359
#     4  10  20  39  60  82 115 158 200 235 292 363
#     4  11  21  36  59  89 122 158 195 243 303 359
#     4  11  23  37  58  92 125 148 190 252 306 349
#     4  11  20  37  61  87 118 153 195 241 295 357
#     4  11  22  40  63  88 118 156 204 249 297 354
#
# _framework density 21.229444000000001
#
# number of rings (size 3 to 8) (size 9 to 14) (size 15 to 20)
#    0.000    1.500    0.000    9.375    0.000    2.000 
#    0.000    4.375    0.000    0.000    0.000    0.000 
#    0.000    0.000    0.000    0.000    0.000    0.000 
#
# Total GULP energy -178810.741657 kJ/mol
# GULP energy per Si atom -5587.835677 kJ/mol
# Density = 2.118113 g / cm^3
# Si number density = 21.229444 Si / 1000 Ang^3
#
#
#
# Elastic Constant Matrix: (Units=GPa)
#
#
# Indices 1 2 3 4 5 6 
#
# 1 57.5936 -0.7707 7.2871 0.0000 0.0000 0.0000
# 2 -0.7707 36.6389 5.7840 0.0000 0.0000 0.0000
# 3 7.2871 5.7840 76.6532 0.0000 0.0000 0.0000
# 4 0.0000 0.0000 0.0000 -4.0703 0.0000 0.0000
# 5 0.0000 0.0000 0.0000 0.0000 10.8669 0.0000
# 6 0.0000 0.0000 0.0000 0.0000 0.0000 28.0543
#
#
#
# Elastic Compliance Matrix: (Units=1/GPa)
#
#
# Indices 1 2 3 4 5 6 
#
# 1 0.017589 0.000642 -0.001721 0.000000 0.000000 0.000000
# 2 0.000642 0.027646 -0.002147 0.000000 0.000000 0.000000
# 3 -0.001721 -0.002147 0.013371 0.000000 0.000000 0.000000
# 4 0.000000 0.000000 0.000000 -0.245683 0.000000 0.000000
# 5 0.000000 0.000000 0.000000 0.000000 0.092022 0.000000
# 6 0.000000 0.000000 0.000000 0.000000 0.000000 0.035645
#
#
# Mechanical properties :
#
#
# Convention : Reuss Voigt Hill
#
# Bulk Modulus (GPa) = 19.17380 21.72072 20.44726
# Shear Modulus (GPa) = -140.56168 17.54253 -61.50958
#
# Velocity S-wave (km/s) = -8.14582 2.87771 -5.38856
# Velocity P-wave (km/s) = 8.91186 4.61468 5.39101
#
# Compressibility (1/GPa) = 0.05215450
#
# Stress axis : x y z
#
# Youngs Moduli (GPa) = 56.85267 36.17177 74.78675
#
# Poissons Ratio (x) = -0.02321 0.12867
# Poissons Ratio (y) = -0.03648 0.16057
# Poissons Ratio (z) = 0.09782 0.07766
#
# Static dielectric constant tensor:
#      x y z
#    x 1.788540 0.000000 0.000000 
#    y 0.000000 1.773240 0.000000 
#    z 0.000000 0.000000 1.753330 
# 
# From -- ./inp_files/6130.got.cif
#   From: 2010.05.17/outbox.cif.g08.bks.cpg/sg18_4_cif.got.tgz:6130.got - 2010.06.03 22:40:56.
