data_PCOD9312167
_publ_section_title
;
Structure prediction by ZEFSAII (Michael W. Deem and Ramdas Pophale) SiO2 
 PCOD9312167
Probable space group: P 21 21 2
;
_chemical_formula_sum "Si O2"
_cell_formula_units_Z 32
_cell_length_a 5.083701
_cell_length_b 29.575378
_cell_length_c 8.760286
_cell_angle_alpha 90.000000
_cell_angle_beta 90.000000
_cell_angle_gamma 90.000000
_cell_volume 1317.129838
_symmetry_space_group_name_H-M "P 21 21 2"
_symmetry_group_IT_number 18
_symmetry_cell_setting 'orthorhombic'
loop_
_space_group_symop_operation_xyz
x,y,z
-x,-y,z
1/2+x,1/2-y,-z
1/2-x,1/2+y,-z
loop_
_atom_site_type_symbol
_atom_site_label
_atom_site_fract_x
_atom_site_fract_y
_atom_site_fract_z
Si Si1 0.499558 0.773751 0.927335
Si Si2 0.993405 0.550012 0.215217
Si Si3 0.207141 0.864856 0.926996
Si Si4 0.663644 0.546008 0.509447
Si Si5 0.439255 0.390339 0.739891
Si Si6 0.855641 0.881537 0.678157
Si Si7 0.068647 0.648521 0.603553
Si Si8 0.859395 0.758614 0.404422
O O1 0.424964 0.826227 0.954018
O O2 0.462304 0.764794 0.747870
O O3 0.781376 0.756912 0.985613
O O4 0.818359 0.587532 0.134005
O O5 0.907810 0.544249 0.393879
O O6 0.000000 0.500000 0.148619
O O7 0.265463 0.576184 0.219253
O O8 0.012260 0.848999 0.790523
O O9 0.070851 0.876391 0.084972
O O10 0.500000 0.500000 0.491618
O O11 0.678717 0.560871 0.685968
O O12 0.528031 0.591605 0.444295
O O13 0.744767 0.386902 0.692127
O O14 0.227137 0.356218 0.660167
O O15 0.621990 0.859658 0.578049
O O16 0.209225 0.695480 0.639049
O O17 0.620071 0.733229 0.492374
#
# Coordination Sequence:
#
# PCOD9312167 Si02
#       8
#     4   4   4   4   4   4   4   4
#     4  12  27  48  72 102 146 198 238 298 373 450
#     4  11  22  41  69  97 134 179 229 290 356 427
#     4  11  27  42  68 102 141 184 242 296 365 431
#     4  10  20  40  62  95 126 173 227 279 340 422
#     4  11  24  43  65  96 129 182 221 285 343 420
#     4  10  22  39  68  91 133 175 229 279 351 411
#     4  11  23  43  67  94 134 177 230 282 350 420
#     4  12  25  41  68 103 137 174 239 300 351 412
#
# _framework density 24.295254
#
# number of rings (size 3 to 8) (size 9 to 14) (size 15 to 20)
#    0.000    1.000    2.500    3.750    5.250    0.000 
#    2.250    0.625    0.000    0.000    0.000    0.000 
#    0.000    0.000    0.000    0.000    0.000    0.000 
#
# Total GULP energy -178712.367176 kJ/mol
# GULP energy per Si atom -5584.761474 kJ/mol
# Density = 2.423996 g / cm^3
# Si number density = 24.295254 Si / 1000 Ang^3
#
#
#
# Elastic Constant Matrix: (Units=GPa)
#
#
# Indices 1 2 3 4 5 6 
#
# 1 59.9609 -5.6606 19.8246 0.0000 0.0000 0.0000
# 2 -5.6606 75.9324 22.5353 0.0000 0.0000 0.0000
# 3 19.8246 22.5353 90.5712 0.0000 0.0000 0.0000
# 4 0.0000 0.0000 0.0000 29.5295 0.0000 0.0000
# 5 0.0000 0.0000 0.0000 0.0000 -1.0626 0.0000
# 6 0.0000 0.0000 0.0000 0.0000 0.0000 38.7021
#
#
#
# Elastic Compliance Matrix: (Units=1/GPa)
#
#
# Indices 1 2 3 4 5 6 
#
# 1 0.018510 0.002788 -0.004745 0.000000 0.000000 0.000000
# 2 0.002788 0.014640 -0.004253 0.000000 0.000000 0.000000
# 3 -0.004745 -0.004253 0.013138 0.000000 0.000000 0.000000
# 4 0.000000 0.000000 0.000000 0.033864 0.000000 0.000000
# 5 0.000000 0.000000 0.000000 0.000000 -0.941102 0.000000
# 6 0.000000 0.000000 0.000000 0.000000 0.000000 0.025838
#
#
# Mechanical properties :
#
#
# Convention : Reuss Voigt Hill
#
# Bulk Modulus (GPa) = 29.52693 33.31810 31.42252
# Shear Modulus (GPa) = -6.16216 26.08481 9.96132
#
# Velocity S-wave (km/s) = -1.59432 3.28023 2.02707
# Velocity P-wave (km/s) = 2.96489 5.30001 4.29422
#
# Compressibility (1/GPa) = 0.03386738
#
# Stress axis : x y z
#
# Youngs Moduli (GPa) = 54.02595 68.30777 76.11601
#
# Poissons Ratio (x) = -0.19045 0.36118
# Poissons Ratio (y) = -0.15063 0.32371
# Poissons Ratio (z) = 0.25636 0.29050
#
# Static dielectric constant tensor:
#      x y z
#    x 1.992820 0.000000 0.000000 
#    y 0.000000 2.033550 0.000000 
#    z 0.000000 0.000000 2.139720 
# 
# From -- ./inp_files/2673.got.cif
#   From: 2010.05.17/outbox.cif.g08.bks.cpg/sg18_2_cif.got.tgz:2673.got - 2010.06.03 22:40:56.
