data_PCOD9312413
_publ_section_title
;
Structure prediction by ZEFSAII (Michael W. Deem and Ramdas Pophale) SiO2 
 PCOD9312413
Probable space group: P 21 21 2
;
_chemical_formula_sum "Si O2"
_cell_formula_units_Z 32
_cell_length_a 14.340932
_cell_length_b 16.518043
_cell_length_c 6.367297
_cell_angle_alpha 90.000000
_cell_angle_beta 90.000000
_cell_angle_gamma 90.000000
_cell_volume 1508.311619
_symmetry_space_group_name_H-M "P 21 21 2"
_symmetry_group_IT_number 18
_symmetry_cell_setting 'orthorhombic'
loop_
_space_group_symop_operation_xyz
x,y,z
-x,-y,z
1/2+x,1/2-y,-z
1/2-x,1/2+y,-z
loop_
_atom_site_type_symbol
_atom_site_label
_atom_site_fract_x
_atom_site_fract_y
_atom_site_fract_z
Si Si1 0.856296 0.901413 0.675386
Si Si2 0.400273 0.005874 0.183749
Si Si3 0.701604 0.846053 0.996529
Si Si4 0.766824 0.053128 0.486680
Si Si5 0.002147 0.908685 0.032334
Si Si6 0.681761 0.674881 0.847525
Si Si7 0.347648 0.876096 0.868021
Si Si8 0.131933 0.206865 0.294561
O O1 0.770807 0.893508 0.839137
O O2 0.860188 0.821105 0.533893
O O3 0.836808 0.979485 0.532217
O O4 0.949284 0.909173 0.810905
O O5 0.313884 0.979812 0.330769
O O6 0.500000 0.000000 0.296409
O O7 0.407139 0.942668 0.989856
O O8 0.373552 0.093524 0.093276
O O9 0.660580 0.769513 0.870474
O O10 0.769030 0.813341 0.182816
O O11 0.814128 0.131054 0.377390
O O12 0.717969 0.079809 0.700507
O O13 0.944685 0.849320 0.183338
O O14 0.106399 0.875869 0.020874
O O15 0.000000 0.000000 0.114767
O O16 0.782638 0.662792 0.951512
O O17 0.392646 0.800153 0.748198
#
# Coordination Sequence:
#
# PCOD9312413 Si02
#       8
#     4   4   4   4   4   4   4   4
#     4  11  21  39  66  89 127 167 208 256 316 375
#     4  11  24  40  66  92 124 166 212 265 316 373
#     4  10  21  42  63  88 123 169 203 258 320 376
#     4  11  21  41  69  92 124 172 211 256 320 386
#     4  11  24  38  62  95 125 160 209 261 313 380
#     4  10  23  40  64  92 127 166 211 258 323 382
#     4  10  22  42  65  88 125 167 210 260 319 379
#     4  10  22  40  63  90 123 163 209 255 313 378
#
# _framework density 21.215776000000002
#
# number of rings (size 3 to 8) (size 9 to 14) (size 15 to 20)
#    0.000    1.500    2.500    2.250    5.250    4.000 
#    0.000    0.000    0.000    0.000    0.000    0.000 
#    0.000    0.000    0.000    0.000    0.000    0.000 
#
# Total GULP energy -178810.008156 kJ/mol
# GULP energy per Si atom -5587.812755 kJ/mol
# Density = 2.116749 g / cm^3
# Si number density = 21.215776 Si / 1000 Ang^3
#
#
#
# Elastic Constant Matrix: (Units=GPa)
#
#
# Indices 1 2 3 4 5 6 
#
# 1 44.0105 -2.8480 -7.5102 0.0000 0.0000 0.0000
# 2 -2.8480 80.0760 -17.4730 0.0000 0.0000 0.0000
# 3 -7.5102 -17.4730 45.0750 0.0000 0.0000 0.0000
# 4 0.0000 0.0000 0.0000 23.5369 0.0000 0.0000
# 5 0.0000 0.0000 0.0000 0.0000 16.6155 0.0000
# 6 0.0000 0.0000 0.0000 0.0000 0.0000 11.0016
#
#
#
# Elastic Compliance Matrix: (Units=1/GPa)
#
#
# Indices 1 2 3 4 5 6 
#
# 1 0.023637 0.001857 0.004658 0.000000 0.000000 0.000000
# 2 0.001857 0.013788 0.005654 0.000000 0.000000 0.000000
# 3 0.004658 0.005654 0.025153 0.000000 0.000000 0.000000
# 4 0.000000 0.000000 0.000000 0.042487 0.000000 0.000000
# 5 0.000000 0.000000 0.000000 0.000000 0.060185 0.000000
# 6 0.000000 0.000000 0.000000 0.000000 0.000000 0.090896
#
#
# Mechanical properties :
#
#
# Convention : Reuss Voigt Hill
#
# Bulk Modulus (GPa) = 11.50521 12.61101 12.05811
# Shear Modulus (GPa) = 19.17338 23.36365 21.26851
#
# Velocity S-wave (km/s) = 3.00947 3.32209 3.16964
# Velocity P-wave (km/s) = 4.18457 4.54666 4.36937
#
# Compressibility (1/GPa) = 0.08691712
#
# Stress axis : x y z
#
# Youngs Moduli (GPa) = 42.30670 72.52701 39.75638
#
# Poissons Ratio (x) = -0.13469 -0.18519
# Poissons Ratio (y) = -0.07857 -0.22479
# Poissons Ratio (z) = -0.19707 -0.41008
#
# Static dielectric constant tensor:
#      x y z
#    x 1.774580 0.000000 0.000000 
#    y 0.000000 1.777690 0.000000 
#    z 0.000000 0.000000 1.759500 
# 
# From -- ./inp_files/1632.got.cif
#   From: 2010.05.17/outbox.cif.g08.bks.cpg/sg18_1_cif.got.tgz:1632.got - 2010.06.03 22:40:56.
