data_PCOD9312502
_publ_section_title
;
Structure prediction by ZEFSAII (Michael W. Deem and Ramdas Pophale) SiO2 
 PCOD9312502
Probable space group: P 21 21 2
;
_chemical_formula_sum "Si O2"
_cell_formula_units_Z 26
_cell_length_a 25.605609
_cell_length_b 9.387511
_cell_length_c 5.358357
_cell_angle_alpha 90.000000
_cell_angle_beta 90.000000
_cell_angle_gamma 90.000000
_cell_volume 1288.004005
_symmetry_space_group_name_H-M "P 21 21 2"
_symmetry_group_IT_number 18
_symmetry_cell_setting 'orthorhombic'
loop_
_space_group_symop_operation_xyz
x,y,z
-x,-y,z
1/2+x,1/2-y,-z
1/2-x,1/2+y,-z
loop_
_atom_site_type_symbol
_atom_site_label
_atom_site_fract_x
_atom_site_fract_y
_atom_site_fract_z
Si Si1 0.101496 0.580912 0.092845
Si Si2 0.839160 0.124071 0.106830
Si Si3 0.232199 0.008866 0.481046
Si Si4 0.658597 0.343050 0.162980
Si Si5 0.263059 0.774909 0.811043
Si Si6 0.000000 0.500000 0.851810
Si Si7 0.898961 0.590281 0.608540
O O1 0.126348 0.735868 0.125478
O O2 0.108495 0.485266 0.341596
O O3 0.039670 0.588035 0.026378
O O4 0.123033 0.507760 0.837556
O O5 0.819818 0.065518 0.372758
O O6 0.783914 0.165083 0.977054
O O7 0.863116 0.990000 0.954929
O O8 0.211655 0.109110 0.699928
O O9 0.253994 0.118473 0.281270
O O10 0.268684 0.887132 0.586199
O O11 0.623744 0.247770 0.344355
O O12 0.681640 0.247112 0.941086
O O13 0.960812 0.590264 0.678572
#
# Coordination Sequence:
#
# PCOD9312502 Si02
#       7
#     4   4   4   4   4   2   4
#     4  10  23  41  69  96 126 165 219 269 332 389
#     4  10  23  41  58  91 129 171 219 270 324 387
#     4  10  22  38  60  78 131 165 222 264 318 376
#     4  10  23  41  58  91 129 171 219 270 324 387
#     4  10  22  40  54  88 122 172 214 268 314 380
#     4   8  22  44  68  96 130 156 220 276 330 390
#     4  10  23  41  69  96 126 165 219 269 332 389
#
# _framework density 20.186274000000001
#
# number of rings (size 3 to 8) (size 9 to 14) (size 15 to 20)
#    0.923    1.231    0.000    1.385    8.615    6.154 
#    2.769    0.769    0.000    0.000    0.000    0.000 
#    0.000    0.000    0.000    0.000    0.000    0.000 
#
# Total GULP energy -144878.893644 kJ/mol
# GULP energy per Si atom -5572.265140 kJ/mol
# Density = 2.014033 g / cm^3
# Si number density = 20.186274 Si / 1000 Ang^3
#
#
#
# Elastic Constant Matrix: (Units=GPa)
#
#
# Indices 1 2 3 4 5 6 
#
# 1 40.6313 46.7185 16.0299 0.0000 0.0000 0.0000
# 2 46.7185 105.0358 29.2087 0.0000 0.0000 0.0000
# 3 16.0299 29.2087 89.3998 0.0000 0.0000 0.0000
# 4 0.0000 0.0000 0.0000 38.2425 0.0000 0.0000
# 5 0.0000 0.0000 0.0000 0.0000 11.3841 0.0000
# 6 0.0000 0.0000 0.0000 0.0000 0.0000 31.0784
#
#
#
# Elastic Compliance Matrix: (Units=1/GPa)
#
#
# Indices 1 2 3 4 5 6 
#
# 1 0.050664 -0.022008 -0.001894 0.000000 0.000000 0.000000
# 2 -0.022008 0.020032 -0.002599 0.000000 0.000000 0.000000
# 3 -0.001894 -0.002599 0.012374 0.000000 0.000000 0.000000
# 4 0.000000 0.000000 0.000000 0.026149 0.000000 0.000000
# 5 0.000000 0.000000 0.000000 0.000000 0.087842 0.000000
# 6 0.000000 0.000000 0.000000 0.000000 0.000000 0.032177
#
#
# Mechanical properties :
#
#
# Convention : Reuss Voigt Hill
#
# Bulk Modulus (GPa) = 33.25667 46.55345 39.90506
# Shear Modulus (GPa) = 17.10794 25.68164 21.39479
#
# Velocity S-wave (km/s) = 2.91435 3.57071 3.25909
# Velocity P-wave (km/s) = 5.27591 6.33340 5.82869
#
# Compressibility (1/GPa) = 0.03006916
#
# Stress axis : x y z
#
# Youngs Moduli (GPa) = 19.73796 49.91997 80.81234
#
# Poissons Ratio (x) = 1.09864 0.15305
# Poissons Ratio (y) = 0.43439 0.21001
# Poissons Ratio (z) = 0.03738 0.12973
#
# Static dielectric constant tensor:
#      x y z
#    x 1.707810 0.000000 0.000000 
#    y 0.000000 1.735280 0.000000 
#    z 0.000000 0.000000 1.785780 
# 
# From -- ./inp_files/2200.got.cif
#   From: 2010.05.17/outbox.cif.g08.bks.cpg/sg18_2_cif.got.tgz:2200.got - 2010.06.03 22:40:56.
