data_PCOD9312207
_publ_section_title
;
Structure prediction by ZEFSAII (Michael W. Deem and Ramdas Pophale) SiO2 
 PCOD9312207
Probable space group: P 21 21 2
;
_chemical_formula_sum "Si O2"
_cell_formula_units_Z 20
_cell_length_a 7.862440
_cell_length_b 9.889951
_cell_length_c 12.643824
_cell_angle_alpha 90.000000
_cell_angle_beta 90.000000
_cell_angle_gamma 90.000000
_cell_volume 983.172961
_symmetry_space_group_name_H-M "P 21 21 2"
_symmetry_group_IT_number 18
_symmetry_cell_setting 'orthorhombic'
loop_
_space_group_symop_operation_xyz
x,y,z
-x,-y,z
1/2+x,1/2-y,-z
1/2-x,1/2+y,-z
loop_
_atom_site_type_symbol
_atom_site_label
_atom_site_fract_x
_atom_site_fract_y
_atom_site_fract_z
Si Si1 0.081439 0.652307 0.454219
Si Si2 0.618340 0.867567 0.128835
Si Si3 0.628216 0.377260 0.066003
Si Si4 0.781039 0.771459 0.340091
Si Si5 0.799427 0.972427 0.718282
O O1 0.145861 0.702283 0.567155
O O2 0.235517 0.625995 0.372984
O O3 0.000000 0.500000 0.466853
O O4 0.961676 0.766961 0.401003
O O5 0.487601 0.744587 0.109038
O O6 0.722039 0.859079 0.239569
O O7 0.500000 0.000000 0.124027
O O8 0.755910 0.854770 0.035303
O O9 0.500000 0.500000 0.042620
O O10 0.743720 0.417539 0.166173
O O11 0.780513 0.618675 0.297113
O O12 0.000000 0.000000 0.713499
#
# Coordination Sequence:
#
# PCOD9312207 Si02
#       5
#     4   4   4   4   4
#     4  10  23  39  69  97 137 177 231 273 347 398
#     4  12  26  42  71 101 140 174 233 286 334 403
#     4  11  24  46  69  97 137 182 227 276 346 404
#     4  11  22  42  64 101 134 180 223 286 330 406
#     4  10  20  41  68  91 133 180 225 269 341 406
#
# _framework density 20.342300999999999
#
# number of rings (size 3 to 8) (size 9 to 14) (size 15 to 20)
#    0.000    1.200    4.000    3.000    2.800    0.800 
#    0.000    1.000    0.000    0.000    0.000    0.000 
#    0.000    0.000    0.000    0.000    0.000    0.000 
#
# Total GULP energy -111566.423492 kJ/mol
# GULP energy per Si atom -5578.321175 kJ/mol
# Density = 2.029600 g / cm^3
# Si number density = 20.342301 Si / 1000 Ang^3
#
#
#
# Elastic Constant Matrix: (Units=GPa)
#
#
# Indices 1 2 3 4 5 6 
#
# 1 57.7095 12.6145 53.1573 0.0000 0.0000 0.0000
# 2 12.6145 49.6882 13.7937 0.0000 0.0000 0.0000
# 3 53.1573 13.7937 186.7743 0.0000 0.0000 0.0000
# 4 0.0000 0.0000 0.0000 -59.6930 0.0000 0.0000
# 5 0.0000 0.0000 0.0000 0.0000 36.1281 0.0000
# 6 0.0000 0.0000 0.0000 0.0000 0.0000 27.9924
#
#
#
# Elastic Compliance Matrix: (Units=1/GPa)
#
#
# Indices 1 2 3 4 5 6 
#
# 1 0.024373 -0.004351 -0.006615 0.000000 0.000000 0.000000
# 2 -0.004351 0.021324 -0.000336 0.000000 0.000000 0.000000
# 3 -0.006615 -0.000336 0.007262 0.000000 0.000000 0.000000
# 4 0.000000 0.000000 0.000000 -0.016752 0.000000 0.000000
# 5 0.000000 0.000000 0.000000 0.000000 0.027679 0.000000
# 6 0.000000 0.000000 0.000000 0.000000 0.000000 0.035724
#
#
# Mechanical properties :
#
#
# Convention : Reuss Voigt Hill
#
# Bulk Modulus (GPa) = 32.94656 50.36700 41.65678
# Shear Modulus (GPa) = 37.78372 15.19259 26.48815
#
# Velocity S-wave (km/s) = 4.31443 2.73582 3.61241
# Velocity P-wave (km/s) = 6.40705 5.89856 6.15806
#
# Compressibility (1/GPa) = 0.03035219
#
# Stress axis : x y z
#
# Youngs Moduli (GPa) = 41.02939 46.89649 137.70931
#
# Poissons Ratio (x) = 0.20405 0.91099
# Poissons Ratio (y) = 0.17853 0.04633
# Poissons Ratio (z) = 0.27142 0.01578
#
# Static dielectric constant tensor:
#      x y z
#    x 2.157930 0.000000 0.000000 
#    y 0.000000 1.735680 0.000000 
#    z 0.000000 0.000000 1.730660 
# 
# From -- ./inp_files/5412.got.cif
#   From: 2010.05.17/outbox.cif.g08.bks.cpg/sg18_3_cif.got.tgz:5412.got - 2010.06.03 22:40:56.
