data_PCOD9312670
_publ_section_title
;
Structure prediction by ZEFSAII (Michael W. Deem and Ramdas Pophale) SiO2 
 PCOD9312670
Probable space group: P 21 21 2
;
_chemical_formula_sum "Si O2"
_cell_formula_units_Z 24
_cell_length_a 10.553776
_cell_length_b 9.572475
_cell_length_c 11.681473
_cell_angle_alpha 90.000000
_cell_angle_beta 90.000000
_cell_angle_gamma 90.000000
_cell_volume 1180.129652
_symmetry_space_group_name_H-M "P 21 21 2"
_symmetry_group_IT_number 18
_symmetry_cell_setting 'orthorhombic'
loop_
_space_group_symop_operation_xyz
x,y,z
-x,-y,z
1/2+x,1/2-y,-z
1/2-x,1/2+y,-z
loop_
_atom_site_type_symbol
_atom_site_label
_atom_site_fract_x
_atom_site_fract_y
_atom_site_fract_z
Si Si1 0.500000 0.500000 0.840542
Si Si2 0.663604 0.367986 0.041854
Si Si3 0.787178 0.147658 0.615163
Si Si4 0.019872 0.288016 0.264947
Si Si5 0.380079 0.085226 0.522114
Si Si6 0.612325 0.072107 0.965342
Si Si7 0.500000 0.500000 0.230118
O O1 0.470356 0.367273 0.761403
O O2 0.607033 0.440505 0.927005
O O3 0.788001 0.455177 0.068954
O O4 0.566032 0.390187 0.144783
O O5 0.681719 0.204138 0.021610
O O6 0.660540 0.204911 0.678850
O O7 0.846219 0.277162 0.547522
O O8 0.892482 0.077992 0.696663
O O9 0.734929 0.022922 0.534919
O O10 0.041011 0.362161 0.143706
O O11 0.925284 0.366180 0.351008
O O12 0.500000 0.000000 0.472791
O O13 0.500000 0.000000 0.037874
#
# Coordination Sequence:
#
# PCOD9312670 Si02
#       7
#     2   4   4   4   4   4   2
#     4   9  22  37  68  96 126 169 210 265 304 380
#     4  10  24  41  62  98 131 161 218 255 313 374
#     4  11  24  42  68  91 127 167 211 267 320 370
#     4  10  22  43  66  95 126 170 215 252 327 379
#     4  10  25  43  64  96 123 163 217 263 316 381
#     4  11  23  41  68  91 131 172 206 261 310 381
#     4  11  24  41  64  92 130 173 202 263 322 370
#
# _framework density 20.336749000000001
#
# number of rings (size 3 to 8) (size 9 to 14) (size 15 to 20)
#    0.000    1.667    1.667    1.500   14.000    0.000 
#    0.000    4.167    0.000    0.000    0.000    0.000 
#    0.000    0.000    0.000    0.000    0.000    0.000 
#
# Total GULP energy -133993.359645 kJ/mol
# GULP energy per Si atom -5583.056652 kJ/mol
# Density = 2.029046 g / cm^3
# Si number density = 20.336749 Si / 1000 Ang^3
#
#
#
# Elastic Constant Matrix: (Units=GPa)
#
#
# Indices 1 2 3 4 5 6 
#
# 1 65.3057 41.8779 11.3212 0.0000 0.0000 0.0000
# 2 41.8779 163.5062 41.5691 0.0000 0.0000 0.0000
# 3 11.3212 41.5691 44.2924 0.0000 0.0000 0.0000
# 4 0.0000 0.0000 0.0000 21.9824 0.0000 0.0000
# 5 0.0000 0.0000 0.0000 0.0000 10.3228 0.0000
# 6 0.0000 0.0000 0.0000 0.0000 0.0000 39.1313
#
#
#
# Elastic Compliance Matrix: (Units=1/GPa)
#
#
# Indices 1 2 3 4 5 6 
#
# 1 0.018326 -0.004601 -0.000366 0.000000 0.000000 0.000000
# 2 -0.004601 0.009188 -0.007447 0.000000 0.000000 0.000000
# 3 -0.000366 -0.007447 0.029660 0.000000 0.000000 0.000000
# 4 0.000000 0.000000 0.000000 0.045491 0.000000 0.000000
# 5 0.000000 0.000000 0.000000 0.000000 0.096873 0.000000
# 6 0.000000 0.000000 0.000000 0.000000 0.000000 0.025555
#
#
# Mechanical properties :
#
#
# Convention : Reuss Voigt Hill
#
# Bulk Modulus (GPa) = 30.91575 51.40452 41.16014
# Shear Modulus (GPa) = 19.17898 26.17637 22.67767
#
# Velocity S-wave (km/s) = 3.07428 3.59157 3.34295
# Velocity P-wave (km/s) = 5.27603 6.52156 5.93158
#
# Compressibility (1/GPa) = 0.03234598
#
# Stress axis : x y z
#
# Youngs Moduli (GPa) = 54.56625 108.84311 33.71575
#
# Poissons Ratio (x) = 0.50075 0.01236
# Poissons Ratio (y) = 0.25104 0.25107
# Poissons Ratio (z) = 0.02000 0.81052
#
# Static dielectric constant tensor:
#      x y z
#    x 1.742150 0.000000 0.000000 
#    y 0.000000 1.762530 0.000000 
#    z 0.000000 0.000000 1.720610 
# 
# From -- ./inp_files/5875.got.cif
#   From: 2010.05.17/outbox.cif.g08.bks.cpg/sg18_3_cif.got.tgz:5875.got - 2010.06.03 22:40:56.
