data_PCOD9312213
_publ_section_title
;
Structure prediction by ZEFSAII (Michael W. Deem and Ramdas Pophale) SiO2 
 PCOD9312213
Probable space group: P 21 21 2
;
_chemical_formula_sum "Si O2"
_cell_formula_units_Z 30
_cell_length_a 12.700695
_cell_length_b 7.681270
_cell_length_c 14.797747
_cell_angle_alpha 90.000000
_cell_angle_beta 90.000000
_cell_angle_gamma 90.000000
_cell_volume 1443.630722
_symmetry_space_group_name_H-M "P 21 21 2"
_symmetry_group_IT_number 18
_symmetry_cell_setting 'orthorhombic'
loop_
_space_group_symop_operation_xyz
x,y,z
-x,-y,z
1/2+x,1/2-y,-z
1/2-x,1/2+y,-z
loop_
_atom_site_type_symbol
_atom_site_label
_atom_site_fract_x
_atom_site_fract_y
_atom_site_fract_z
Si Si1 0.305151 0.260889 0.075965
Si Si2 0.500000 0.000000 0.654535
Si Si3 0.509131 0.200645 0.166287
Si Si4 0.428347 0.327996 0.544183
Si Si5 0.414112 0.348415 0.341882
Si Si6 0.300040 0.871325 0.752496
Si Si7 0.739477 0.144168 0.122529
Si Si8 0.872946 0.022316 0.281742
O O1 0.425410 0.303346 0.104458
O O2 0.227591 0.371128 0.141225
O O3 0.285403 0.059831 0.102953
O O4 0.282230 0.283658 0.971408
O O5 0.488726 0.168364 0.590819
O O6 0.601463 0.020378 0.717859
O O7 0.463347 0.217954 0.267736
O O8 0.632075 0.240087 0.153622
O O9 0.500000 0.000000 0.138976
O O10 0.500000 0.500000 0.534394
O O11 0.393939 0.279998 0.443178
O O12 0.347079 0.390688 0.621392
O O13 0.500000 0.500000 0.345285
O O14 0.305309 0.418206 0.301396
O O15 0.324861 0.669950 0.726477
O O16 0.824693 0.138738 0.202256
O O17 0.000000 0.000000 0.273023
#
# Coordination Sequence:
#
# PCOD9312213 Si02
#       8
#     4   2   4   4   4   4   4   4
#     4   9  21  39  59  92 127 159 216 267 313 384
#     4  12  22  40  68  98 124 178 220 256 340 388
#     4   9  20  41  60  87 124 165 214 261 317 392
#     4  10  22  42  62  96 132 166 221 272 318 388
#     4  10  23  42  64  91 133 166 213 279 320 384
#     4  10  22  42  63  94 128 170 218 267 325 398
#     4  10  21  37  63  89 120 172 209 257 330 376
#     4  10  20  42  61  86 136 165 207 275 320 377
#
# _framework density 20.780937000000002
#
# number of rings (size 3 to 8) (size 9 to 14) (size 15 to 20)
#    0.000    2.133    2.667    0.800    0.933    7.467 
#    6.000    0.667    0.000    0.000    0.000    0.000 
#    0.000    0.000    0.000    0.000    0.000    0.000 
#
# Total GULP energy -167350.524792 kJ/mol
# GULP energy per Si atom -5578.350826 kJ/mol
# Density = 2.073364 g / cm^3
# Si number density = 20.780937 Si / 1000 Ang^3
#
#
#
# Elastic Constant Matrix: (Units=GPa)
#
#
# Indices 1 2 3 4 5 6 
#
# 1 131.2339 20.1438 75.6911 0.0000 0.0000 0.0000
# 2 20.1438 50.9103 5.4656 0.0000 0.0000 0.0000
# 3 75.6911 5.4656 167.0654 0.0000 0.0000 0.0000
# 4 0.0000 0.0000 0.0000 106.4196 0.0000 0.0000
# 5 0.0000 0.0000 0.0000 0.0000 23.6160 0.0000
# 6 0.0000 0.0000 0.0000 0.0000 0.0000 22.3925
#
#
#
# Elastic Compliance Matrix: (Units=1/GPa)
#
#
# Indices 1 2 3 4 5 6 
#
# 1 0.011015 -0.003836 -0.004865 0.000000 0.000000 0.000000
# 2 -0.003836 0.021047 0.001049 0.000000 0.000000 0.000000
# 3 -0.004865 0.001049 0.008155 0.000000 0.000000 0.000000
# 4 0.000000 0.000000 0.000000 0.009397 0.000000 0.000000
# 5 0.000000 0.000000 0.000000 0.000000 0.042344 0.000000
# 6 0.000000 0.000000 0.000000 0.000000 0.000000 0.044658
#
#
# Mechanical properties :
#
#
# Convention : Reuss Voigt Hill
#
# Bulk Modulus (GPa) = 40.13689 61.31229 50.72459
# Shear Modulus (GPa) = 31.20632 47.01291 39.10961
#
# Velocity S-wave (km/s) = 3.87936 4.76153 4.34290
# Velocity P-wave (km/s) = 6.27870 7.73290 7.04343
#
# Compressibility (1/GPa) = 0.02491474
#
# Stress axis : x y z
#
# Youngs Moduli (GPa) = 90.78814 47.51161 122.61768
#
# Poissons Ratio (x) = 0.18225 0.59652
# Poissons Ratio (y) = 0.34826 -0.12867
# Poissons Ratio (z) = 0.44167 -0.04986
#
# Static dielectric constant tensor:
#      x y z
#    x 1.702950 0.000000 0.000000 
#    y 0.000000 1.781360 0.000000 
#    z 0.000000 0.000000 1.761030 
# 
# From -- ./inp_files/6895.got.cif
#   From: 2010.05.17/outbox.cif.g08.bks.cpg/sg18_4_cif.got.tgz:6895.got - 2010.06.03 22:40:56.
