data_PCOD9312965
_publ_section_title
;
Structure prediction by ZEFSAII (Michael W. Deem and Ramdas Pophale) SiO2 
 PCOD9312965
Probable space group: P 21 21 2
;
_chemical_formula_sum "Si O2"
_cell_formula_units_Z 20
_cell_length_a 17.642240
_cell_length_b 8.789761
_cell_length_c 4.935739
_cell_angle_alpha 90.000000
_cell_angle_beta 90.000000
_cell_angle_gamma 90.000000
_cell_volume 765.390343
_symmetry_space_group_name_H-M "P 21 21 2"
_symmetry_group_IT_number 18
_symmetry_cell_setting 'orthorhombic'
loop_
_space_group_symop_operation_xyz
x,y,z
-x,-y,z
1/2+x,1/2-y,-z
1/2-x,1/2+y,-z
loop_
_atom_site_type_symbol
_atom_site_label
_atom_site_fract_x
_atom_site_fract_y
_atom_site_fract_z
Si Si1 0.925155 0.280766 0.417222
Si Si2 0.796041 0.255260 0.826465
Si Si3 0.000000 0.000000 0.512311
Si Si4 0.935385 0.706740 0.740314
Si Si5 0.264930 0.905805 0.324435
Si Si6 0.000000 0.500000 0.210954
O O1 0.878671 0.267449 0.691474
O O2 0.907647 0.425944 0.245629
O O3 0.026293 0.360610 0.001062
O O4 0.946597 0.110740 0.338449
O O5 0.757065 0.128659 0.633268
O O6 0.758583 0.419007 0.764399
O O7 0.789232 0.198119 0.132967
O O8 0.949605 0.885953 0.692701
O O9 0.849641 0.656681 0.718500
O O10 0.989895 0.643280 0.495098
#
# Coordination Sequence:
#
# PCOD9312965 Si02
#       6
#     4   4   2   4   4   2
#     4  10  25  46  72 106 140 189 245 301 362 434
#     4  12  29  48  75 107 154 195 246 302 370 437
#     4   8  24  44  70  96 150 170 242 302 356 420
#     4  10  25  46  72 106 140 189 245 301 362 434
#     4  12  29  48  75 107 154 195 246 302 370 437
#     4  12  22  42  82  94 140 186 260 296 366 426
#
# _framework density 26.130455000000001
#
# number of rings (size 3 to 8) (size 9 to 14) (size 15 to 20)
#    1.200    0.000    0.000    4.200   16.800    0.800 
#    0.000    0.000    0.000    0.000    0.000    0.000 
#    0.000    0.000    0.000    0.000    0.000    0.000 
#
# Total GULP energy -111584.893022 kJ/mol
# GULP energy per Si atom -5579.244651 kJ/mol
# Density = 2.607098 g / cm^3
# Si number density = 26.130455 Si / 1000 Ang^3
#
#
#
# Elastic Constant Matrix: (Units=GPa)
#
#
# Indices 1 2 3 4 5 6 
#
# 1 69.5998 -7.8607 -0.0379 0.0000 0.0000 0.0000
# 2 -7.8607 189.1485 5.6308 0.0000 0.0000 0.0000
# 3 -0.0379 5.6308 95.0452 0.0000 0.0000 0.0000
# 4 0.0000 0.0000 0.0000 46.3746 0.0000 0.0000
# 5 0.0000 0.0000 0.0000 0.0000 26.1428 0.0000
# 6 0.0000 0.0000 0.0000 0.0000 0.0000 42.5656
#
#
#
# Elastic Compliance Matrix: (Units=1/GPa)
#
#
# Indices 1 2 3 4 5 6 
#
# 1 0.014436 0.000601 -0.000030 0.000000 0.000000 0.000000
# 2 0.000601 0.005321 -0.000315 0.000000 0.000000 0.000000
# 3 -0.000030 -0.000315 0.010540 0.000000 0.000000 0.000000
# 4 0.000000 0.000000 0.000000 0.021564 0.000000 0.000000
# 5 0.000000 0.000000 0.000000 0.000000 0.038251 0.000000
# 6 0.000000 0.000000 0.000000 0.000000 0.000000 0.023493
#
#
# Mechanical properties :
#
#
# Convention : Reuss Voigt Hill
#
# Bulk Modulus (GPa) = 32.45829 38.80645 35.63237
# Shear Modulus (GPa) = 40.53091 46.75402 43.64246
#
# Velocity S-wave (km/s) = 3.94267 4.23455 4.09121
# Velocity P-wave (km/s) = 5.75976 6.22831 5.99861
#
# Compressibility (1/GPa) = 0.03080877
#
# Stress axis : x y z
#
# Youngs Moduli (GPa) = 69.27275 187.92764 94.87706
#
# Poissons Ratio (x) = -0.11291 0.00283
# Poissons Ratio (y) = -0.04162 0.02989
# Poissons Ratio (z) = 0.00207 0.05920
#
# Static dielectric constant tensor:
#      x y z
#    x 2.317100 0.000000 0.000000 
#    y 0.000000 2.425440 0.000000 
#    z 0.000000 0.000000 2.054920 
# 
# From -- ./inp_files/565.got.cif
#   From: 2010.05.17/outbox.cif.g08.bks.cpg/sg18_1_cif.got.tgz:565.got - 2010.06.03 22:40:56.
