data_PCOD9312531
_publ_section_title
;
Structure prediction by ZEFSAII (Michael W. Deem and Ramdas Pophale) SiO2 
 PCOD9312531
Probable space group: P 21 21 2
;
_chemical_formula_sum "Si O2"
_cell_formula_units_Z 18
_cell_length_a 6.830582
_cell_length_b 19.448137
_cell_length_c 6.079282
_cell_angle_alpha 90.000000
_cell_angle_beta 90.000000
_cell_angle_gamma 90.000000
_cell_volume 807.584554
_symmetry_space_group_name_H-M "P 21 21 2"
_symmetry_group_IT_number 18
_symmetry_cell_setting 'orthorhombic'
loop_
_space_group_symop_operation_xyz
x,y,z
-x,-y,z
1/2+x,1/2-y,-z
1/2-x,1/2+y,-z
loop_
_atom_site_type_symbol
_atom_site_label
_atom_site_fract_x
_atom_site_fract_y
_atom_site_fract_z
Si Si1 0.664089 0.154836 0.461940
Si Si2 0.494550 0.382860 0.868710
Si Si3 0.764629 0.405819 0.485470
Si Si4 0.000000 0.000000 0.782386
Si Si5 0.497717 0.709842 0.247356
O O1 0.824003 0.118607 0.309398
O O2 0.494211 0.104270 0.538269
O O3 0.558996 0.214010 0.318029
O O4 0.789703 0.190248 0.655234
O O5 0.690595 0.402950 0.737591
O O6 0.447185 0.437115 0.058657
O O7 0.510951 0.309486 0.990798
O O8 0.674425 0.472546 0.369730
O O9 0.658652 0.340799 0.366684
#
# Coordination Sequence:
#
# PCOD9312531 Si02
#       5
#     4   4   4   2   4
#     4  11  22  39  64 101 128 168 211 262 330 386
#     4  10  24  40  66  96 123 172 216 265 316 383
#     4  10  22  43  66  90 131 174 210 265 321 381
#     4  10  22  48  64  86 134 172 220 268 316 378
#     4  10  22  39  61  97 138 162 204 265 326 388
#
# _framework density 22.288688
#
# number of rings (size 3 to 8) (size 9 to 14) (size 15 to 20)
#    0.000    1.778    2.222    0.667    3.111    3.556 
#    0.000   26.667    0.000    0.000    0.000    0.000 
#    0.000    0.000    0.000    0.000    0.000    0.000 
#
# Total GULP energy -100697.455968 kJ/mol
# GULP energy per Si atom -5594.303109 kJ/mol
# Density = 2.223796 g / cm^3
# Si number density = 22.288688 Si / 1000 Ang^3
#
#
#
# Elastic Constant Matrix: (Units=GPa)
#
#
# Indices 1 2 3 4 5 6 
#
# 1 104.6596 5.9906 20.5572 0.0000 0.0000 0.0000
# 2 5.9906 49.6151 2.5007 0.0000 0.0000 0.0000
# 3 20.5572 2.5007 57.3000 0.0000 0.0000 0.0000
# 4 0.0000 0.0000 0.0000 39.4638 0.0000 0.0000
# 5 0.0000 0.0000 0.0000 0.0000 6.9671 0.0000
# 6 0.0000 0.0000 0.0000 0.0000 0.0000 35.2098
#
#
#
# Elastic Compliance Matrix: (Units=1/GPa)
#
#
# Indices 1 2 3 4 5 6 
#
# 1 0.010335 -0.001063 -0.003661 0.000000 0.000000 0.000000
# 2 -0.001063 0.020309 -0.000505 0.000000 0.000000 0.000000
# 3 -0.003661 -0.000505 0.018788 0.000000 0.000000 0.000000
# 4 0.000000 0.000000 0.000000 0.025340 0.000000 0.000000
# 5 0.000000 0.000000 0.000000 0.000000 0.143532 0.000000
# 6 0.000000 0.000000 0.000000 0.000000 0.000000 0.028401
#
#
# Mechanical properties :
#
#
# Convention : Reuss Voigt Hill
#
# Bulk Modulus (GPa) = 25.65919 29.96351 27.81135
# Shear Modulus (GPa) = 18.50799 28.49655 23.50227
#
# Velocity S-wave (km/s) = 2.88475 3.57952 3.25075
# Velocity P-wave (km/s) = 4.75741 5.52779 5.15701
#
# Compressibility (1/GPa) = 0.03897240
#
# Stress axis : x y z
#
# Youngs Moduli (GPa) = 96.76038 49.23928 53.22656
#
# Poissons Ratio (x) = 0.05236 0.19488
# Poissons Ratio (y) = 0.10289 0.02687
# Poissons Ratio (z) = 0.35427 0.02486
#
# Static dielectric constant tensor:
#      x y z
#    x 1.788780 0.000000 0.000000 
#    y 0.000000 1.867320 0.000000 
#    z 0.000000 0.000000 1.834890 
# 
# From -- ./inp_files/180.got.cif
#   From: 2010.05.17/outbox.cif.g08.bks.cpg/sg18_1_cif.got.tgz:180.got - 2010.06.03 22:40:56.
