data_PCOD9312395
_publ_section_title
;
Structure prediction by ZEFSAII (Michael W. Deem and Ramdas Pophale) SiO2 
 PCOD9312395
Probable space group: P 21 21 2
;
_chemical_formula_sum "Si O2"
_cell_formula_units_Z 26
_cell_length_a 23.025237
_cell_length_b 8.425788
_cell_length_c 5.849531
_cell_angle_alpha 90.000000
_cell_angle_beta 90.000000
_cell_angle_gamma 90.000000
_cell_volume 1134.842740
_symmetry_space_group_name_H-M "P 21 21 2"
_symmetry_group_IT_number 18
_symmetry_cell_setting 'orthorhombic'
loop_
_space_group_symop_operation_xyz
x,y,z
-x,-y,z
1/2+x,1/2-y,-z
1/2-x,1/2+y,-z
loop_
_atom_site_type_symbol
_atom_site_label
_atom_site_fract_x
_atom_site_fract_y
_atom_site_fract_z
Si Si1 0.693423 0.760003 0.366319
Si Si2 0.000000 0.500000 0.524369
Si Si3 0.170243 0.473914 0.977104
Si Si4 0.596704 0.237038 0.323417
Si Si5 0.185898 0.206052 0.310335
Si Si6 0.905964 0.314167 0.254992
Si Si7 0.131889 0.978078 0.956233
O O1 0.757200 0.792455 0.470435
O O2 0.644492 0.803120 0.551830
O O3 0.668913 0.599364 0.251247
O O4 0.697564 0.876278 0.146009
O O5 0.955438 0.612444 0.661142
O O6 0.964086 0.371291 0.376708
O O7 0.151061 0.356407 0.780667
O O8 0.199365 0.366472 0.167491
O O9 0.112394 0.542225 0.092453
O O10 0.623151 0.284067 0.568270
O O11 0.590433 0.390182 0.161278
O O12 0.175757 0.061856 0.134444
O O13 0.902598 0.156571 0.099114
#
# Coordination Sequence:
#
# PCOD9312395 Si02
#       7
#     4   2   4   4   4   4   4
#     4  11  22  41  68 104 146 184 234 293 359 427
#     4  12  24  50  78  96 146 194 252 292 348 438
#     4  10  21  41  66 100 128 186 236 280 354 424
#     4  11  24  45  71 100 138 185 239 295 355 415
#     4  11  22  41  68 104 146 184 234 293 359 427
#     4  11  24  45  71 100 138 185 239 295 355 415
#     4  10  25  44  67 106 148 181 239 292 370 418
#
# _framework density 22.910663
#
# number of rings (size 3 to 8) (size 9 to 14) (size 15 to 20)
#    0.000    1.231    3.077    1.846    0.000   10.462 
#    0.000    4.615    0.000    0.000    0.000    0.000 
#    0.000    0.000    0.000    0.000    0.000    0.000 
#
# Total GULP energy -145014.037113 kJ/mol
# GULP energy per Si atom -5577.462966 kJ/mol
# Density = 2.285852 g / cm^3
# Si number density = 22.910663 Si / 1000 Ang^3
#
#
#
# Elastic Constant Matrix: (Units=GPa)
#
#
# Indices 1 2 3 4 5 6 
#
# 1 100.4541 27.6387 31.4128 0.0000 0.0000 0.0000
# 2 27.6387 99.6717 16.1816 0.0000 0.0000 0.0000
# 3 31.4128 16.1816 55.9425 0.0000 0.0000 0.0000
# 4 0.0000 0.0000 0.0000 46.6090 0.0000 0.0000
# 5 0.0000 0.0000 0.0000 0.0000 4.7879 0.0000
# 6 0.0000 0.0000 0.0000 0.0000 0.0000 20.7873
#
#
#
# Elastic Compliance Matrix: (Units=1/GPa)
#
#
# Indices 1 2 3 4 5 6 
#
# 1 0.012628 -0.002466 -0.006377 0.000000 0.000000 0.000000
# 2 -0.002466 0.011009 -0.001800 0.000000 0.000000 0.000000
# 3 -0.006377 -0.001800 0.021977 0.000000 0.000000 0.000000
# 4 0.000000 0.000000 0.000000 0.021455 0.000000 0.000000
# 5 0.000000 0.000000 0.000000 0.000000 0.208858 0.000000
# 6 0.000000 0.000000 0.000000 0.000000 0.000000 0.048106
#
#
# Mechanical properties :
#
#
# Convention : Reuss Voigt Hill
#
# Bulk Modulus (GPa) = 41.10588 45.17051 43.13819
# Shear Modulus (GPa) = 14.14714 26.49253 20.31984
#
# Velocity S-wave (km/s) = 2.48763 3.40419 2.98134
# Velocity P-wave (km/s) = 5.12170 5.93381 5.54265
#
# Compressibility (1/GPa) = 0.02432742
#
# Stress axis : x y z
#
# Youngs Moduli (GPa) = 79.19184 90.83498 45.50217
#
# Poissons Ratio (x) = 0.22402 0.29018
# Poissons Ratio (y) = 0.19531 0.08188
# Poissons Ratio (z) = 0.50503 0.16346
#
# Static dielectric constant tensor:
#      x y z
#    x 1.906460 0.000000 0.000000 
#    y 0.000000 1.903010 0.000000 
#    z 0.000000 0.000000 1.912440 
# 
# From -- ./inp_files/2101.got.cif
#   From: 2010.05.17/outbox.cif.g08.bks.cpg/sg18_2_cif.got.tgz:2101.got - 2010.06.03 22:40:56.
