data_PCOD9312300
_publ_section_title
;
Structure prediction by ZEFSAII (Michael W. Deem and Ramdas Pophale) SiO2 
 PCOD9312300
Probable space group: P 21 21 2
;
_chemical_formula_sum "Si O2"
_cell_formula_units_Z 32
_cell_length_a 11.407337
_cell_length_b 14.077015
_cell_length_c 9.921324
_cell_angle_alpha 90.000000
_cell_angle_beta 90.000000
_cell_angle_gamma 90.000000
_cell_volume 1593.178650
_symmetry_space_group_name_H-M "P 21 21 2"
_symmetry_group_IT_number 18
_symmetry_cell_setting 'orthorhombic'
loop_
_space_group_symop_operation_xyz
x,y,z
-x,-y,z
1/2+x,1/2-y,-z
1/2-x,1/2+y,-z
loop_
_atom_site_type_symbol
_atom_site_label
_atom_site_fract_x
_atom_site_fract_y
_atom_site_fract_z
Si Si1 0.262018 0.463541 0.544774
Si Si2 0.832315 0.826957 0.407816
Si Si3 0.253734 0.855306 0.177100
Si Si4 0.166216 0.560204 0.301539
Si Si5 0.343007 0.896659 0.896295
Si Si6 0.526044 0.761349 0.784380
Si Si7 0.884358 0.817599 0.711032
Si Si8 0.844398 0.179948 0.680411
O O1 0.331141 0.559697 0.581251
O O2 0.231637 0.414175 0.685216
O O3 0.161720 0.503063 0.442243
O O4 0.329262 0.388215 0.450071
O O5 0.932149 0.791198 0.308366
O O6 0.859957 0.787254 0.556271
O O7 0.707800 0.782638 0.362029
O O8 0.333584 0.761764 0.191214
O O9 0.121851 0.813706 0.164602
O O10 0.294323 0.910604 0.045196
O O11 0.126706 0.493601 0.180340
O O12 0.302690 0.589053 0.275481
O O13 0.095982 0.658502 0.301270
O O14 0.450878 0.822496 0.891090
O O15 0.241167 0.854332 0.799594
O O16 0.022307 0.826532 0.725948
#
# Coordination Sequence:
#
# PCOD9312300 Si02
#       8
#     4   4   4   4   4   4   4   4
#     4  10  21  40  64  99 126 157 211 269 312 372
#     4  10  21  38  66  97 123 167 208 260 326 379
#     4  11  23  41  61  96 129 159 215 270 311 362
#     4   9  21  42  66  89 123 173 212 248 321 392
#     4  10  23  41  63  90 123 177 216 252 311 390
#     4  10  22  42  68  86 131 174 207 255 325 385
#     4  10  21  37  66  90 128 164 206 267 315 373
#     4  10  21  41  61  91 131 167 212 252 321 387
#
# _framework density 20.085632
#
# number of rings (size 3 to 8) (size 9 to 14) (size 15 to 20)
#    0.000    2.000    1.250    1.125    5.250    7.000 
#    9.000    4.375    0.000    0.000    0.000    0.000 
#    0.000    0.000    0.000    0.000    0.000    0.000 
#
# Total GULP energy -178558.976336 kJ/mol
# GULP energy per Si atom -5579.968011 kJ/mol
# Density = 2.003992 g / cm^3
# Si number density = 20.085632 Si / 1000 Ang^3
#
#
#
# Elastic Constant Matrix: (Units=GPa)
#
#
# Indices 1 2 3 4 5 6 
#
# 1 112.8381 26.5174 29.8844 0.0000 0.0000 0.0000
# 2 26.5174 73.0474 32.6823 0.0000 0.0000 0.0000
# 3 29.8844 32.6823 100.9189 0.0000 0.0000 0.0000
# 4 0.0000 0.0000 0.0000 11.9149 0.0000 0.0000
# 5 0.0000 0.0000 0.0000 0.0000 9.3543 0.0000
# 6 0.0000 0.0000 0.0000 0.0000 0.0000 16.3360
#
#
#
# Elastic Compliance Matrix: (Units=1/GPa)
#
#
# Indices 1 2 3 4 5 6 
#
# 1 0.010055 -0.002711 -0.002100 0.000000 0.000000 0.000000
# 2 -0.002711 0.016740 -0.004619 0.000000 0.000000 0.000000
# 3 -0.002100 -0.004619 0.012026 0.000000 0.000000 0.000000
# 4 0.000000 0.000000 0.000000 0.083929 0.000000 0.000000
# 5 0.000000 0.000000 0.000000 0.000000 0.106902 0.000000
# 6 0.000000 0.000000 0.000000 0.000000 0.000000 0.061215
#
#
# Mechanical properties :
#
#
# Convention : Reuss Voigt Hill
#
# Bulk Modulus (GPa) = 50.09057 51.66363 50.87710
# Shear Modulus (GPa) = 15.80376 20.70240 18.25308
#
# Velocity S-wave (km/s) = 2.80807 3.21395 3.01784
# Velocity P-wave (km/s) = 5.95872 6.28889 6.12603
#
# Compressibility (1/GPa) = 0.01996384
#
# Stress axis : x y z
#
# Youngs Moduli (GPa) = 99.44893 59.73644 83.15027
#
# Poissons Ratio (x) = 0.16194 0.17459
# Poissons Ratio (y) = 0.26959 0.38403
# Poissons Ratio (z) = 0.20882 0.27589
#
# Static dielectric constant tensor:
#      x y z
#    x 1.737500 0.000000 0.000000 
#    y 0.000000 1.730910 0.000000 
#    z 0.000000 0.000000 1.689590 
# 
# From -- ./inp_files/3927.got.cif
#   From: 2010.05.17/outbox.cif.g08.bks.cpg/sg18_2_cif.got.tgz:3927.got - 2010.06.03 22:40:56.
