data_PCOD9312499
_publ_section_title
;
Structure prediction by ZEFSAII (Michael W. Deem and Ramdas Pophale) SiO2 
 PCOD9312499
Probable space group: P 21 21 2
;
_chemical_formula_sum "Si O2"
_cell_formula_units_Z 26
_cell_length_a 17.808650
_cell_length_b 7.169772
_cell_length_c 7.099785
_cell_angle_alpha 90.000000
_cell_angle_beta 90.000000
_cell_angle_gamma 90.000000
_cell_volume 906.528665
_symmetry_space_group_name_H-M "P 21 21 2"
_symmetry_group_IT_number 18
_symmetry_cell_setting 'orthorhombic'
loop_
_space_group_symop_operation_xyz
x,y,z
-x,-y,z
1/2+x,1/2-y,-z
1/2-x,1/2+y,-z
loop_
_atom_site_type_symbol
_atom_site_label
_atom_site_fract_x
_atom_site_fract_y
_atom_site_fract_z
Si Si1 0.161707 0.920566 0.286517
Si Si2 0.559126 0.140628 0.707997
Si Si3 0.977263 0.710692 0.725829
Si Si4 0.784747 0.663310 0.259258
Si Si5 0.183082 0.363122 0.822824
Si Si6 0.365205 0.303419 0.149700
Si Si7 0.500000 0.500000 0.712470
O O1 0.244918 0.825220 0.311325
O O2 0.187853 0.133733 0.323742
O O3 0.143604 0.866890 0.066861
O O4 0.077940 0.910257 0.374710
O O5 0.535447 0.197724 0.498513
O O6 0.640856 0.046116 0.691345
O O7 0.540891 0.329949 0.819879
O O8 0.500000 0.000000 0.789070
O O9 0.892995 0.749256 0.792294
O O10 0.000000 0.500000 0.783924
O O11 0.049603 0.826896 0.785565
O O12 0.699156 0.605608 0.284429
O O13 0.790555 0.677570 0.033048
O O14 0.159129 0.583115 0.824134
#
# Coordination Sequence:
#
# PCOD9312499 Si02
#       7
#     4   4   4   4   4   4   2
#     4   9  19  34  53  83 117 144 185 245 296 336
#     4  10  22  39  59  82 118 154 197 236 290 350
#     4   9  19  36  57  83 110 152 194 239 288 352
#     4   9  19  35  56  85 114 148 192 242 291 352
#     4   9  18  34  58  82 110 146 196 239 290 349
#     4   9  18  34  59  83 117 146 189 245 294 344
#     4  10  22  38  56  86 118 152 188 246 288 348
#
# _framework density 28.680834999999998
#
# number of rings (size 3 to 8) (size 9 to 14) (size 15 to 20)
#    0.000    2.769    0.000    0.000    6.462    0.615 
#    5.538    0.000    0.000    0.000    0.000    0.000 
#    0.000    0.000    0.000    0.000    0.000    0.000 
#
# Total GULP energy -145066.659811 kJ/mol
# GULP energy per Si atom -5579.486916 kJ/mol
# Density = 2.861556 g / cm^3
# Si number density = 28.680835 Si / 1000 Ang^3
#
#
#
# Elastic Constant Matrix: (Units=GPa)
#
#
# Indices 1 2 3 4 5 6 
#
# 1 345.2128 58.1327 31.2061 0.0000 0.0000 0.0000
# 2 58.1327 77.2343 7.7582 0.0000 0.0000 0.0000
# 3 31.2061 7.7582 82.7508 0.0000 0.0000 0.0000
# 4 0.0000 0.0000 0.0000 17.6403 0.0000 0.0000
# 5 0.0000 0.0000 0.0000 0.0000 28.9639 0.0000
# 6 0.0000 0.0000 0.0000 0.0000 0.0000 51.0892
#
#
#
# Elastic Compliance Matrix: (Units=1/GPa)
#
#
# Indices 1 2 3 4 5 6 
#
# 1 0.003406 -0.002458 -0.001054 0.000000 0.000000 0.000000
# 2 -0.002458 0.014844 -0.000465 0.000000 0.000000 0.000000
# 3 -0.001054 -0.000465 0.012526 0.000000 0.000000 0.000000
# 4 0.000000 0.000000 0.000000 0.056688 0.000000 0.000000
# 5 0.000000 0.000000 0.000000 0.000000 0.034526 0.000000
# 6 0.000000 0.000000 0.000000 0.000000 0.000000 0.019574
#
#
# Mechanical properties :
#
#
# Convention : Reuss Voigt Hill
#
# Bulk Modulus (GPa) = 43.81641 77.71023 60.76332
# Shear Modulus (GPa) = 31.82205 46.74542 39.28373
#
# Velocity S-wave (km/s) = 3.33456 4.04152 3.70494
# Velocity P-wave (km/s) = 5.48964 6.99515 6.28762
#
# Compressibility (1/GPa) = 0.02282250
#
# Stress axis : x y z
#
# Youngs Moduli (GPa) = 293.60762 67.36656 79.83701
#
# Poissons Ratio (x) = 0.16557 0.08415
# Poissons Ratio (y) = 0.72159 0.03711
# Poissons Ratio (z) = 0.30946 0.03132
#
# Static dielectric constant tensor:
#      x y z
#    x 2.432340 0.000000 0.000000 
#    y 0.000000 2.415360 0.000000 
#    z 0.000000 0.000000 2.228410 
# 
# From -- ./inp_files/3384.got.cif
#   From: 2010.05.17/outbox.cif.g08.bks.cpg/sg18_2_cif.got.tgz:3384.got - 2010.06.03 22:40:56.
