data_PCOD9312649
_publ_section_title
;
Structure prediction by ZEFSAII (Michael W. Deem and Ramdas Pophale) SiO2 
 PCOD9312649
Probable space group: P 21 21 2
;
_chemical_formula_sum "Si O2"
_cell_formula_units_Z 24
_cell_length_a 9.982567
_cell_length_b 17.971221
_cell_length_c 5.397606
_cell_angle_alpha 90.000000
_cell_angle_beta 90.000000
_cell_angle_gamma 90.000000
_cell_volume 968.324675
_symmetry_space_group_name_H-M "P 21 21 2"
_symmetry_group_IT_number 18
_symmetry_cell_setting 'orthorhombic'
loop_
_space_group_symop_operation_xyz
x,y,z
-x,-y,z
1/2+x,1/2-y,-z
1/2-x,1/2+y,-z
loop_
_atom_site_type_symbol
_atom_site_label
_atom_site_fract_x
_atom_site_fract_y
_atom_site_fract_z
Si Si1 0.486361 0.866825 0.653585
Si Si2 0.456399 0.284528 0.439044
Si Si3 0.500000 0.500000 0.802751
Si Si4 0.230291 0.423582 0.722336
Si Si5 0.000000 0.500000 0.053034
Si Si6 0.734147 0.207641 0.910605
Si Si7 0.904514 0.843319 0.057332
O O1 0.550062 0.803992 0.484477
O O2 0.562122 0.934043 0.779671
O O3 0.417888 0.818365 0.869204
O O4 0.368186 0.906994 0.502908
O O5 0.308779 0.306293 0.348690
O O6 0.532787 0.320586 0.672781
O O7 0.531643 0.308607 0.189681
O O8 0.432220 0.568529 0.953499
O O9 0.369125 0.466344 0.663547
O O10 0.275954 0.348714 0.873442
O O11 0.126757 0.468871 0.899877
O O12 0.735312 0.296350 0.952803
#
# Coordination Sequence:
#
# PCOD9312649 Si02
#       7
#     4   4   2   4   2   4   4
#     4  10  22  43  67  99 138 189 243 304 356 442
#     4  11  23  45  72  98 138 188 247 289 356 440
#     4  12  26  46  70 114 150 192 232 322 382 434
#     4  11  22  45  70  98 150 184 246 298 376 436
#     4  10  24  42  68 104 136 196 242 314 364 436
#     4  10  22  42  69  99 134 189 240 296 355 441
#     4  11  25  44  69 104 141 189 238 297 366 430
#
# _framework density 24.785073000000001
#
# number of rings (size 3 to 8) (size 9 to 14) (size 15 to 20)
#    0.000    1.333    3.333    1.500    0.000    3.333 
#   12.000    0.000    0.000    0.000    0.000    0.000 
#    0.000    0.000    0.000    0.000    0.000    0.000 
#
# Total GULP energy -133694.716639 kJ/mol
# GULP energy per Si atom -5570.613193 kJ/mol
# Density = 2.472866 g / cm^3
# Si number density = 24.785073 Si / 1000 Ang^3
#
#
#
# Elastic Constant Matrix: (Units=GPa)
#
#
# Indices 1 2 3 4 5 6 
#
# 1 56.4115 3.1582 17.7731 0.0000 0.0000 0.0000
# 2 3.1582 89.1424 50.5798 0.0000 0.0000 0.0000
# 3 17.7731 50.5798 95.7988 0.0000 0.0000 0.0000
# 4 0.0000 0.0000 0.0000 2.8519 0.0000 0.0000
# 5 0.0000 0.0000 0.0000 0.0000 19.2225 0.0000
# 6 0.0000 0.0000 0.0000 0.0000 0.0000 46.2866
#
#
#
# Elastic Compliance Matrix: (Units=1/GPa)
#
#
# Indices 1 2 3 4 5 6 
#
# 1 0.019050 0.001899 -0.004537 0.000000 0.000000 0.000000
# 2 0.001899 0.016205 -0.008909 0.000000 0.000000 0.000000
# 3 -0.004537 -0.008909 0.015984 0.000000 0.000000 0.000000
# 4 0.000000 0.000000 0.000000 0.350648 0.000000 0.000000
# 5 0.000000 0.000000 0.000000 0.000000 0.052022 0.000000
# 6 0.000000 0.000000 0.000000 0.000000 0.000000 0.021605
#
#
# Mechanical properties :
#
#
# Convention : Reuss Voigt Hill
#
# Bulk Modulus (GPa) = 35.52793 42.70832 39.11813
# Shear Modulus (GPa) = 9.84273 24.99498 17.41885
#
# Velocity S-wave (km/s) = 1.99496 3.17909 2.65391
# Velocity P-wave (km/s) = 4.43531 5.54476 5.02077
#
# Compressibility (1/GPa) = 0.02814687
#
# Stress axis : x y z
#
# Youngs Moduli (GPa) = 52.49340 61.70764 62.56328
#
# Poissons Ratio (x) = -0.11721 0.28386
# Poissons Ratio (y) = -0.09971 0.55735
# Poissons Ratio (z) = 0.23817 0.54972
#
# Static dielectric constant tensor:
#      x y z
#    x 2.227260 0.000000 0.000000 
#    y 0.000000 2.120020 0.000000 
#    z 0.000000 0.000000 1.977510 
# 
# From -- ./inp_files/1135.got.cif
#   From: 2010.05.17/outbox.cif.g08.bks.cpg/sg18_1_cif.got.tgz:1135.got - 2010.06.03 22:40:56.
