data_PCOD9312276
_publ_section_title
;
Structure prediction by ZEFSAII (Michael W. Deem and Ramdas Pophale) SiO2 
 PCOD9312276
Probable space group: P 21 21 2
;
_chemical_formula_sum "Si O2"
_cell_formula_units_Z 22
_cell_length_a 5.460187
_cell_length_b 14.457143
_cell_length_c 11.361249
_cell_angle_alpha 90.000000
_cell_angle_beta 90.000000
_cell_angle_gamma 90.000000
_cell_volume 896.842275
_symmetry_space_group_name_H-M "P 21 21 2"
_symmetry_group_IT_number 18
_symmetry_cell_setting 'orthorhombic'
loop_
_space_group_symop_operation_xyz
x,y,z
-x,-y,z
1/2+x,1/2-y,-z
1/2-x,1/2+y,-z
loop_
_atom_site_type_symbol
_atom_site_label
_atom_site_fract_x
_atom_site_fract_y
_atom_site_fract_z
Si Si1 0.396683 0.212849 0.934952
Si Si2 0.000000 0.000000 0.118986
Si Si3 0.305074 0.122072 0.516682
Si Si4 0.838147 0.151052 0.268435
Si Si5 0.000000 0.500000 0.668013
Si Si6 0.500000 0.000000 0.975511
Si Si7 0.183324 0.827401 0.549982
O O1 0.341953 0.257381 0.807429
O O2 0.647677 0.259584 0.990386
O O3 0.446642 0.102917 0.922510
O O4 0.759181 0.015603 0.042445
O O5 0.960849 0.913424 0.206034
O O6 0.301435 0.038261 0.425830
O O7 0.065292 0.128382 0.595647
O O8 0.317570 0.216922 0.437884
O O9 0.563289 0.126004 0.584032
O O10 0.600125 0.084923 0.258144
O O11 0.844169 0.163678 0.407824
#
# Coordination Sequence:
#
# PCOD9312276 Si02
#       7
#     4   2   4   4   2   2   4
#     4  12  25  42  63  87 127 173 211 272 335 378
#     4  12  22  36  64  84 126 152 216 272 316 366
#     4   9  18  35  53  83 121 156 185 249 318 360
#     4  11  22  37  62  97 123 166 218 272 313 383
#     4  10  21  36  63  98 128 154 220 275 312 375
#     4  12  23  44  57  90 118 168 210 265 326 393
#     4   9  19  34  55  80 120 157 194 240 308 377
#
# _framework density 24.530512000000002
#
# number of rings (size 3 to 8) (size 9 to 14) (size 15 to 20)
#    0.000    1.455    3.636    1.636    0.000    6.545 
#    0.000    0.909    0.000    0.000    0.000    7.636 
#    0.000    0.000    0.000    0.000    0.000    0.000 
#
# Total GULP energy -122692.868097 kJ/mol
# GULP energy per Si atom -5576.948550 kJ/mol
# Density = 2.447468 g / cm^3
# Si number density = 24.530512 Si / 1000 Ang^3
#
#
#
# Elastic Constant Matrix: (Units=GPa)
#
#
# Indices 1 2 3 4 5 6 
#
# 1 208.3381 32.9058 15.0452 0.0000 0.0000 0.0000
# 2 32.9058 172.2852 52.1415 0.0000 0.0000 0.0000
# 3 15.0452 52.1415 49.2163 0.0000 0.0000 0.0000
# 4 0.0000 0.0000 0.0000 27.7426 0.0000 0.0000
# 5 0.0000 0.0000 0.0000 0.0000 18.1211 0.0000
# 6 0.0000 0.0000 0.0000 0.0000 0.0000 47.1982
#
#
#
# Elastic Compliance Matrix: (Units=1/GPa)
#
#
# Indices 1 2 3 4 5 6 
#
# 1 0.004968 -0.000720 -0.000756 0.000000 0.000000 0.000000
# 2 -0.000720 0.008648 -0.008942 0.000000 0.000000 0.000000
# 3 -0.000756 -0.008942 0.030023 0.000000 0.000000 0.000000
# 4 0.000000 0.000000 0.000000 0.036046 0.000000 0.000000
# 5 0.000000 0.000000 0.000000 0.000000 0.055184 0.000000
# 6 0.000000 0.000000 0.000000 0.000000 0.000000 0.021187
#
#
# Mechanical properties :
#
#
# Convention : Reuss Voigt Hill
#
# Bulk Modulus (GPa) = 43.85306 70.00274 56.92790
# Shear Modulus (GPa) = 27.10121 40.59553 33.84837
#
# Velocity S-wave (km/s) = 3.32745 4.07246 3.71866
# Velocity P-wave (km/s) = 5.71650 7.12125 6.45719
#
# Compressibility (1/GPa) = 0.02280343
#
# Stress axis : x y z
#
# Youngs Moduli (GPa) = 201.27945 115.63185 33.30783
#
# Poissons Ratio (x) = 0.08327 0.02517
# Poissons Ratio (y) = 0.14496 0.29784
# Poissons Ratio (z) = 0.15212 1.03398
#
# Static dielectric constant tensor:
#      x y z
#    x 2.156640 0.000000 0.000000 
#    y 0.000000 2.041270 0.000000 
#    z 0.000000 0.000000 1.947900 
# 
# From -- ./inp_files/6472.got.cif
#   From: 2010.05.17/outbox.cif.g08.bks.cpg/sg18_4_cif.got.tgz:6472.got - 2010.06.03 22:40:56.
