data_PCOD9312454
_publ_section_title
;
Structure prediction by ZEFSAII (Michael W. Deem and Ramdas Pophale) SiO2 
 PCOD9312454
Probable space group: P 21 21 2
;
_chemical_formula_sum "Si O2"
_cell_formula_units_Z 32
_cell_length_a 16.521698
_cell_length_b 11.775042
_cell_length_c 6.924984
_cell_angle_alpha 90.000000
_cell_angle_beta 90.000000
_cell_angle_gamma 90.000000
_cell_volume 1347.211926
_symmetry_space_group_name_H-M "P 21 21 2"
_symmetry_group_IT_number 18
_symmetry_cell_setting 'orthorhombic'
loop_
_space_group_symop_operation_xyz
x,y,z
-x,-y,z
1/2+x,1/2-y,-z
1/2-x,1/2+y,-z
loop_
_atom_site_type_symbol
_atom_site_label
_atom_site_fract_x
_atom_site_fract_y
_atom_site_fract_z
Si Si1 0.505781 0.788012 0.515497
Si Si2 0.361369 0.627985 0.650852
Si Si3 0.014376 0.627961 0.896291
Si Si4 0.643065 0.252194 0.006544
Si Si5 0.635359 0.846283 0.812279
Si Si6 0.266482 0.769989 0.396135
Si Si7 0.740158 0.071212 0.749584
Si Si8 0.418968 0.442588 0.359357
O O1 0.424005 0.730894 0.597025
O O2 0.556142 0.852133 0.678649
O O3 0.556149 0.681983 0.427407
O O4 0.497294 0.867279 0.330543
O O5 0.351084 0.633606 0.880030
O O6 0.278534 0.666115 0.546613
O O7 0.397100 0.518356 0.548161
O O8 0.103034 0.663483 0.970139
O O9 0.000000 0.500000 0.964290
O O10 0.948747 0.710637 0.989818
O O11 0.700610 0.162626 0.895027
O O12 0.668527 0.252844 0.228687
O O13 0.684513 0.740757 0.725004
O O14 0.692650 0.954934 0.787573
O O15 0.272551 0.880423 0.530340
O O16 0.837172 0.059089 0.765346
O O17 0.500000 0.500000 0.270358
#
# Coordination Sequence:
#
# PCOD9312454 Si02
#       8
#     4   4   4   4   4   4   4   4
#     4  11  24  43  70  95 135 179 230 287 342 418
#     4  10  21  43  71  91 132 179 226 284 348 412
#     4  12  26  42  66 106 138 182 234 286 352 413
#     4  11  24  43  66  99 138 176 228 289 344 418
#     4  12  25  42  68  99 142 179 232 288 347 419
#     4  11  24  43  67  99 133 182 228 283 349 410
#     4  11  24  43  67  98 141 179 226 291 347 419
#     4  10  22  44  70  96 130 183 233 276 348 414
#
# _framework density 23.752759000000001
#
# number of rings (size 3 to 8) (size 9 to 14) (size 15 to 20)
#    0.000    1.000    6.250    0.000    3.500    0.500 
#    2.250    1.250    0.000    0.000    0.000    0.000 
#    0.000    0.000    0.000    0.000    0.000    0.000 
#
# Total GULP energy -178867.583978 kJ/mol
# GULP energy per Si atom -5589.611999 kJ/mol
# Density = 2.369870 g / cm^3
# Si number density = 23.752759 Si / 1000 Ang^3
#
#
#
# Elastic Constant Matrix: (Units=GPa)
#
#
# Indices 1 2 3 4 5 6 
#
# 1 85.5495 3.6426 2.3658 0.0000 0.0000 0.0000
# 2 3.6426 54.9298 1.6250 0.0000 0.0000 0.0000
# 3 2.3658 1.6250 88.5729 0.0000 0.0000 0.0000
# 4 0.0000 0.0000 0.0000 27.8797 0.0000 0.0000
# 5 0.0000 0.0000 0.0000 0.0000 32.8354 0.0000
# 6 0.0000 0.0000 0.0000 0.0000 0.0000 31.6873
#
#
#
# Elastic Compliance Matrix: (Units=1/GPa)
#
#
# Indices 1 2 3 4 5 6 
#
# 1 0.011730 -0.000769 -0.000299 0.000000 0.000000 0.000000
# 2 -0.000769 0.018265 -0.000315 0.000000 0.000000 0.000000
# 3 -0.000299 -0.000315 0.011304 0.000000 0.000000 0.000000
# 4 0.000000 0.000000 0.000000 0.035868 0.000000 0.000000
# 5 0.000000 0.000000 0.000000 0.000000 0.030455 0.000000
# 6 0.000000 0.000000 0.000000 0.000000 0.000000 0.031558
#
#
# Mechanical properties :
#
#
# Convention : Reuss Voigt Hill
#
# Bulk Modulus (GPa) = 25.95123 27.14658 26.54890
# Shear Modulus (GPa) = 32.30157 33.24175 32.77166
#
# Velocity S-wave (km/s) = 3.69169 3.74503 3.71846
# Velocity P-wave (km/s) = 5.39636 5.49127 5.44402
#
# Compressibility (1/GPa) = 0.03853381
#
# Stress axis : x y z
#
# Youngs Moduli (GPa) = 85.25039 54.74842 88.46511
#
# Poissons Ratio (x) = 0.04210 0.02647
# Poissons Ratio (y) = 0.06556 0.02783
# Poissons Ratio (z) = 0.02551 0.01722
#
# Static dielectric constant tensor:
#      x y z
#    x 1.963470 0.000000 0.000000 
#    y 0.000000 1.878250 0.000000 
#    z 0.000000 0.000000 1.907760 
# 
# From -- ./inp_files/1878.got.cif
#   From: 2010.05.17/outbox.cif.g08.bks.cpg/sg18_1_cif.got.tgz:1878.got - 2010.06.03 22:40:56.
