data_PCOD9312629
_publ_section_title
;
Structure prediction by ZEFSAII (Michael W. Deem and Ramdas Pophale) SiO2 
 PCOD9312629
Probable space group: P 21 21 2
;
_chemical_formula_sum "Si O2"
_cell_formula_units_Z 24
_cell_length_a 8.732715
_cell_length_b 21.141877
_cell_length_c 5.080687
_cell_angle_alpha 90.000000
_cell_angle_beta 90.000000
_cell_angle_gamma 90.000000
_cell_volume 938.026849
_symmetry_space_group_name_H-M "P 21 21 2"
_symmetry_group_IT_number 18
_symmetry_cell_setting 'orthorhombic'
loop_
_space_group_symop_operation_xyz
x,y,z
-x,-y,z
1/2+x,1/2-y,-z
1/2-x,1/2+y,-z
loop_
_atom_site_type_symbol
_atom_site_label
_atom_site_fract_x
_atom_site_fract_y
_atom_site_fract_z
Si Si1 0.745681 0.686445 0.746259
Si Si2 0.500000 0.500000 0.678357
Si Si3 0.501470 0.616324 0.422001
Si Si4 0.000000 0.500000 0.843615
Si Si5 0.941165 0.367695 0.564834
Si Si6 0.770174 0.065131 0.926455
Si Si7 0.256511 0.169653 0.928306
O O1 0.585828 0.670017 0.593802
O O2 0.764753 0.635986 0.980971
O O3 0.741837 0.756489 0.857967
O O4 0.901270 0.672982 0.582277
O O5 0.405573 0.558329 0.545446
O O6 0.393183 0.460984 0.872533
O O7 0.408335 0.643351 0.173553
O O8 0.647809 0.572314 0.348032
O O9 0.023166 0.561772 0.664635
O O10 0.135338 0.482643 0.040347
O O11 0.876177 0.363062 0.271710
O O12 0.814193 0.340785 0.773890
#
# Coordination Sequence:
#
# PCOD9312629 Si02
#       7
#     4   2   4   2   4   4   4
#     4  10  26  46  69 101 149 189 246 300 373 443
#     4  10  22  42  66 104 140 178 246 300 364 432
#     4  11  25  43  73 103 143 194 240 308 368 435
#     4  10  24  48  70 102 152 186 250 294 372 448
#     4  11  28  48  74 112 143 202 242 311 370 441
#     4  10  23  43  69 101 141 191 235 306 364 432
#     4  12  28  45  76 107 147 190 253 298 373 444
#
# _framework density 25.585622999999998
#
# number of rings (size 3 to 8) (size 9 to 14) (size 15 to 20)
#    0.000    1.333    0.000    2.500   18.667    0.667 
#    0.000    0.000    0.000    0.000    0.000    0.000 
#    0.000    0.000    0.000    0.000    0.000    0.000 
#
# Total GULP energy -134301.603571 kJ/mol
# GULP energy per Si atom -5595.900149 kJ/mol
# Density = 2.552739 g / cm^3
# Si number density = 25.585623 Si / 1000 Ang^3
#
#
#
# Elastic Constant Matrix: (Units=GPa)
#
#
# Indices 1 2 3 4 5 6 
#
# 1 52.2891 12.6779 -0.7339 0.0000 0.0000 0.0000
# 2 12.6779 130.1160 -1.3585 0.0000 0.0000 0.0000
# 3 -0.7339 -1.3585 62.4791 0.0000 0.0000 0.0000
# 4 0.0000 0.0000 0.0000 27.7092 0.0000 0.0000
# 5 0.0000 0.0000 0.0000 0.0000 40.3621 0.0000
# 6 0.0000 0.0000 0.0000 0.0000 0.0000 26.4324
#
#
#
# Elastic Compliance Matrix: (Units=1/GPa)
#
#
# Indices 1 2 3 4 5 6 
#
# 1 0.019589 -0.001907 0.000189 0.000000 0.000000 0.000000
# 2 -0.001907 0.007873 0.000149 0.000000 0.000000 0.000000
# 3 0.000189 0.000149 0.016011 0.000000 0.000000 0.000000
# 4 0.000000 0.000000 0.000000 0.036089 0.000000 0.000000
# 5 0.000000 0.000000 0.000000 0.000000 0.024776 0.000000
# 6 0.000000 0.000000 0.000000 0.000000 0.000000 0.037832
#
#
# Mechanical properties :
#
#
# Convention : Reuss Voigt Hill
#
# Bulk Modulus (GPa) = 24.79273 29.56168 27.17720
# Shear Modulus (GPa) = 31.49537 34.52066 33.00802
#
# Velocity S-wave (km/s) = 3.51234 3.67716 3.59569
# Velocity P-wave (km/s) = 5.11467 5.44130 5.28051
#
# Compressibility (1/GPa) = 0.04033440
#
# Stress axis : x y z
#
# Youngs Moduli (GPa) = 51.04808 127.01981 62.45780
#
# Poissons Ratio (x) = 0.24219 -0.01178
# Poissons Ratio (y) = 0.09733 -0.00929
# Poissons Ratio (z) = -0.00963 -0.01890
#
# Static dielectric constant tensor:
#      x y z
#    x 2.161260 0.000000 0.000000 
#    y 0.000000 2.057530 0.000000 
#    z 0.000000 0.000000 2.076290 
# 
# From -- ./inp_files/650.got.cif
#   From: 2010.05.17/outbox.cif.g08.bks.cpg/sg18_1_cif.got.tgz:650.got - 2010.06.03 22:40:56.
