data_PCOD9312279
_publ_section_title
;
Structure prediction by ZEFSAII (Michael W. Deem and Ramdas Pophale) SiO2 
 PCOD9312279
Probable space group: P 21 21 2
;
_chemical_formula_sum "Si O2"
_cell_formula_units_Z 16
_cell_length_a 13.124229
_cell_length_b 5.058856
_cell_length_c 9.959177
_cell_angle_alpha 90.000000
_cell_angle_beta 90.000000
_cell_angle_gamma 90.000000
_cell_volume 661.225461
_symmetry_space_group_name_H-M "P 21 21 2"
_symmetry_group_IT_number 18
_symmetry_cell_setting 'orthorhombic'
loop_
_space_group_symop_operation_xyz
x,y,z
-x,-y,z
1/2+x,1/2-y,-z
1/2-x,1/2+y,-z
loop_
_atom_site_type_symbol
_atom_site_label
_atom_site_fract_x
_atom_site_fract_y
_atom_site_fract_z
Si Si1 0.210370 0.238324 0.427276
Si Si2 0.816310 0.339392 0.851386
Si Si3 0.000000 0.000000 0.342280
Si Si4 0.629372 0.331431 0.045892
Si Si5 0.500000 0.000000 0.833331
O O1 0.222048 0.520595 0.496216
O O2 0.254419 0.258074 0.276536
O O3 0.095520 0.125730 0.419686
O O4 0.862488 0.628798 0.830785
O O5 0.897458 0.121980 0.900430
O O6 0.737336 0.388209 0.972868
O O7 0.957679 0.255155 0.256629
O O8 0.571444 0.169401 0.931371
#
# Coordination Sequence:
#
# PCOD9312279 Si02
#       5
#     4   4   2   4   2
#     4  12  26  46  72 103 141 195 243 295 349 413
#     4  10  21  40  61  99 133 175 217 279 353 415
#     4  12  26  44  72 106 138 184 258 292 338 436
#     4  10  21  36  66  99 136 164 214 288 358 408
#     4  12  22  40  70 110 138 172 234 298 352 434
#
# _framework density 24.197493000000001
#
# number of rings (size 3 to 8) (size 9 to 14) (size 15 to 20)
#    0.000    1.000    2.500    4.500    7.000    0.000 
#    0.000    5.000    0.000    0.000    0.000    0.000 
#    0.000    0.000    0.000    0.000    0.000    0.000 
#
# Total GULP energy -89339.130937 kJ/mol
# GULP energy per Si atom -5583.695684 kJ/mol
# Density = 2.414242 g / cm^3
# Si number density = 24.197493 Si / 1000 Ang^3
#
#
#
# Elastic Constant Matrix: (Units=GPa)
#
#
# Indices 1 2 3 4 5 6 
#
# 1 66.8673 -1.1615 5.3676 0.0000 0.0000 0.0000
# 2 -1.1615 141.9310 14.7431 0.0000 0.0000 0.0000
# 3 5.3676 14.7431 48.5417 0.0000 0.0000 0.0000
# 4 0.0000 0.0000 0.0000 49.0889 0.0000 0.0000
# 5 0.0000 0.0000 0.0000 0.0000 10.7209 0.0000
# 6 0.0000 0.0000 0.0000 0.0000 0.0000 41.2434
#
#
#
# Elastic Compliance Matrix: (Units=1/GPa)
#
#
# Indices 1 2 3 4 5 6 
#
# 1 0.015102 0.000307 -0.001763 0.000000 0.000000 0.000000
# 2 0.000307 0.007281 -0.002245 0.000000 0.000000 0.000000
# 3 -0.001763 -0.002245 0.021478 0.000000 0.000000 0.000000
# 4 0.000000 0.000000 0.000000 0.020371 0.000000 0.000000
# 5 0.000000 0.000000 0.000000 0.000000 0.093276 0.000000
# 6 0.000000 0.000000 0.000000 0.000000 0.000000 0.024246
#
#
# Mechanical properties :
#
#
# Convention : Reuss Voigt Hill
#
# Bulk Modulus (GPa) = 27.42920 32.80425 30.11672
# Shear Modulus (GPa) = 24.83724 36.10334 30.47029
#
# Velocity S-wave (km/s) = 3.20728 3.86687 3.55242
# Velocity P-wave (km/s) = 5.00757 5.78992 5.41290
#
# Compressibility (1/GPa) = 0.03645750
#
# Stress axis : x y z
#
# Youngs Moduli (GPa) = 66.21703 137.33560 46.55979
#
# Poissons Ratio (x) = -0.04212 0.08209
# Poissons Ratio (y) = -0.02031 0.10455
# Poissons Ratio (z) = 0.11675 0.30838
#
# Static dielectric constant tensor:
#      x y z
#    x 2.048250 0.000000 0.000000 
#    y 0.000000 2.005540 0.000000 
#    z 0.000000 0.000000 1.924940 
# 
# From -- ./inp_files/4080.got.cif
#   From: 2010.05.17/outbox.cif.g08.bks.cpg/sg18_3_cif.got.tgz:4080.got - 2010.06.03 22:40:56.
