data_PCOD9312541
_publ_section_title
;
Structure prediction by ZEFSAII (Michael W. Deem and Ramdas Pophale) SiO2 
 PCOD9312541
Probable space group: P 21 21 2
;
_chemical_formula_sum "Si O2"
_cell_formula_units_Z 30
_cell_length_a 15.419161
_cell_length_b 11.384534
_cell_length_c 9.046603
_cell_angle_alpha 90.000000
_cell_angle_beta 90.000000
_cell_angle_gamma 90.000000
_cell_volume 1588.040353
_symmetry_space_group_name_H-M "P 21 21 2"
_symmetry_group_IT_number 18
_symmetry_cell_setting 'orthorhombic'
loop_
_space_group_symop_operation_xyz
x,y,z
-x,-y,z
1/2+x,1/2-y,-z
1/2-x,1/2+y,-z
loop_
_atom_site_type_symbol
_atom_site_label
_atom_site_fract_x
_atom_site_fract_y
_atom_site_fract_z
Si Si1 0.225695 0.772499 0.093056
Si Si2 0.206024 0.352556 0.217616
Si Si3 0.417411 0.290977 0.690291
Si Si4 0.605403 0.327164 0.582857
Si Si5 0.364416 0.854466 0.325612
Si Si6 0.296873 0.435432 0.497385
Si Si7 0.109088 0.573466 0.132967
Si Si8 0.000000 0.500000 0.866158
O O1 0.139878 0.832458 0.167525
O O2 0.305501 0.792160 0.202016
O O3 0.199815 0.635968 0.093738
O O4 0.248175 0.818242 0.933350
O O5 0.167865 0.240100 0.302365
O O6 0.271489 0.417784 0.328229
O O7 0.127488 0.441409 0.180320
O O8 0.511210 0.342419 0.656852
O O9 0.353485 0.324748 0.556263
O O10 0.426564 0.153080 0.732311
O O11 0.598271 0.239560 0.442106
O O12 0.648780 0.448590 0.533090
O O13 0.294960 0.933731 0.415769
O O14 0.436154 0.927602 0.238709
O O15 0.053197 0.579207 0.983870
#
# Coordination Sequence:
#
# PCOD9312541 Si02
#       8
#     4   4   4   4   4   4   4   2
#     4   9  21  39  62  90 129 162 208 256 320 380
#     4  11  22  38  67  94 119 174 210 256 330 368
#     4   9  22  41  64  92 130 161 209 268 315 377
#     4  11  23  40  65  92 130 169 213 260 321 382
#     4  10  23  41  59  98 126 166 213 262 315 382
#     4  10  23  41  65  88 131 168 211 256 320 390
#     4  10  22  39  64  91 131 155 211 271 307 380
#     4  12  22  38  66  96 132 162 216 274 318 364
#
# _framework density 18.891207000000001
#
# number of rings (size 3 to 8) (size 9 to 14) (size 15 to 20)
#    0.800    1.067    1.333    2.000    3.733    3.200 
#    0.000    0.000    2.933    0.000    0.000    0.000 
#    0.000    0.000    0.000    0.000    0.000    0.000 
#
# Total GULP energy -167169.290046 kJ/mol
# GULP energy per Si atom -5572.309668 kJ/mol
# Density = 1.884821 g / cm^3
# Si number density = 18.891207 Si / 1000 Ang^3
#
#
#
# Elastic Constant Matrix: (Units=GPa)
#
#
# Indices 1 2 3 4 5 6 
#
# 1 94.9297 28.1585 47.5137 0.0000 0.0000 0.0000
# 2 28.1585 46.3249 25.3863 0.0000 0.0000 0.0000
# 3 47.5137 25.3863 113.5696 0.0000 0.0000 0.0000
# 4 0.0000 0.0000 0.0000 26.9420 0.0000 0.0000
# 5 0.0000 0.0000 0.0000 0.0000 25.2294 0.0000
# 6 0.0000 0.0000 0.0000 0.0000 0.0000 34.7502
#
#
#
# Elastic Compliance Matrix: (Units=1/GPa)
#
#
# Indices 1 2 3 4 5 6 
#
# 1 0.014818 -0.006393 -0.004770 0.000000 0.000000 0.000000
# 2 -0.006393 0.027358 -0.003441 0.000000 0.000000 0.000000
# 3 -0.004770 -0.003441 0.011570 0.000000 0.000000 0.000000
# 4 0.000000 0.000000 0.000000 0.037117 0.000000 0.000000
# 5 0.000000 0.000000 0.000000 0.000000 0.039636 0.000000
# 6 0.000000 0.000000 0.000000 0.000000 0.000000 0.028777
#
#
# Mechanical properties :
#
#
# Convention : Reuss Voigt Hill
#
# Bulk Modulus (GPa) = 40.75297 50.77125 45.76211
# Shear Modulus (GPa) = 25.42410 27.63536 26.52973
#
# Velocity S-wave (km/s) = 3.67252 3.82890 3.75152
# Velocity P-wave (km/s) = 6.29305 6.81771 6.56063
#
# Compressibility (1/GPa) = 0.02453809
#
# Stress axis : x y z
#
# Youngs Moduli (GPa) = 67.48530 36.55212 86.43003
#
# Poissons Ratio (x) = 0.23368 0.41230
# Poissons Ratio (y) = 0.43143 0.29739
# Poissons Ratio (z) = 0.32193 0.12577
#
# Static dielectric constant tensor:
#      x y z
#    x 1.669060 0.000000 0.000000 
#    y 0.000000 1.688040 0.000000 
#    z 0.000000 0.000000 1.633140 
# 
# From -- ./inp_files/4291.got.cif
#   From: 2010.05.17/outbox.cif.g08.bks.cpg/sg18_3_cif.got.tgz:4291.got - 2010.06.03 22:40:56.
