data_PCOD9312150
_publ_section_title
;
Structure prediction by ZEFSAII (Michael W. Deem and Ramdas Pophale) SiO2 
 PCOD9312150
Probable space group: P 21 21 2
;
_chemical_formula_sum "Si O2"
_cell_formula_units_Z 26
_cell_length_a 14.624625
_cell_length_b 5.838121
_cell_length_c 13.744461
_cell_angle_alpha 90.000000
_cell_angle_beta 90.000000
_cell_angle_gamma 90.000000
_cell_volume 1173.506620
_symmetry_space_group_name_H-M "P 21 21 2"
_symmetry_group_IT_number 18
_symmetry_cell_setting 'orthorhombic'
loop_
_space_group_symop_operation_xyz
x,y,z
-x,-y,z
1/2+x,1/2-y,-z
1/2-x,1/2+y,-z
loop_
_atom_site_type_symbol
_atom_site_label
_atom_site_fract_x
_atom_site_fract_y
_atom_site_fract_z
Si Si1 0.800991 0.197627 0.486867
Si Si2 0.737288 0.401862 0.160060
Si Si3 0.923593 0.678366 0.172516
Si Si4 0.362534 0.305866 0.311120
Si Si5 0.185784 0.984545 0.280216
Si Si6 0.500000 0.000000 0.193792
Si Si7 0.422775 0.675341 0.044670
O O1 0.759941 0.460297 0.494634
O O2 0.874696 0.167904 0.573424
O O3 0.830974 0.169284 0.375165
O O4 0.824596 0.563686 0.158071
O O5 0.668127 0.474034 0.248077
O O6 0.678422 0.419662 0.062249
O O7 0.780592 0.160479 0.188131
O O8 0.902967 0.875348 0.249423
O O9 0.000000 0.500000 0.204978
O O10 0.947807 0.764188 0.064893
O O11 0.271373 0.148813 0.304027
O O12 0.446867 0.180601 0.260396
O O13 0.571506 0.112693 0.118840
O O14 0.500000 0.500000 0.079041
#
# Coordination Sequence:
#
# PCOD9312150 Si02
#       7
#     4   4   4   4   4   2   4
#     4  10  20  39  72 107 140 187 245 300 369 440
#     4  11  23  42  67  99 132 179 236 289 356 433
#     4  11  28  43  66  98 139 188 246 295 356 432
#     4  10  21  39  66 108 137 177 232 293 363 441
#     4  10  22  41  70  98 136 189 235 295 358 431
#     4  12  22  40  66 102 150 176 228 298 366 434
#     4  12  26  41  66  99 142 183 229 294 366 432
#
# _framework density 22.155821
#
# number of rings (size 3 to 8) (size 9 to 14) (size 15 to 20)
#    0.000    1.231    5.385    0.000    4.308    0.000 
#    0.000    0.000    1.692    9.231    0.000    0.000 
#    0.000    0.000    0.000    0.000    0.000    0.000 
#
# Total GULP energy -145080.763532 kJ/mol
# GULP energy per Si atom -5580.029367 kJ/mol
# Density = 2.210539 g / cm^3
# Si number density = 22.155821 Si / 1000 Ang^3
#
#
#
# Elastic Constant Matrix: (Units=GPa)
#
#
# Indices 1 2 3 4 5 6 
#
# 1 79.9865 25.5558 12.6613 0.0000 0.0000 0.0000
# 2 25.5558 56.7076 3.7474 0.0000 0.0000 0.0000
# 3 12.6613 3.7474 66.4746 0.0000 0.0000 0.0000
# 4 0.0000 0.0000 0.0000 22.2534 0.0000 0.0000
# 5 0.0000 0.0000 0.0000 0.0000 23.5687 0.0000
# 6 0.0000 0.0000 0.0000 0.0000 0.0000 37.5425
#
#
#
# Elastic Compliance Matrix: (Units=1/GPa)
#
#
# Indices 1 2 3 4 5 6 
#
# 1 0.015003 -0.006597 -0.002486 0.000000 0.000000 0.000000
# 2 -0.006597 0.020601 0.000095 0.000000 0.000000 0.000000
# 3 -0.002486 0.000095 0.015511 0.000000 0.000000 0.000000
# 4 0.000000 0.000000 0.000000 0.044937 0.000000 0.000000
# 5 0.000000 0.000000 0.000000 0.000000 0.042429 0.000000
# 6 0.000000 0.000000 0.000000 0.000000 0.000000 0.026636
#
#
# Mechanical properties :
#
#
# Convention : Reuss Voigt Hill
#
# Bulk Modulus (GPa) = 30.17458 31.89974 31.03716
# Shear Modulus (GPa) = 25.75453 27.41988 26.58721
#
# Velocity S-wave (km/s) = 3.41314 3.52176 3.46787
# Velocity P-wave (km/s) = 5.40199 5.56473 5.48396
#
# Compressibility (1/GPa) = 0.03314048
#
# Stress axis : x y z
#
# Youngs Moduli (GPa) = 66.65170 48.54117 64.46864
#
# Poissons Ratio (x) = 0.32023 0.16025
# Poissons Ratio (y) = 0.43971 -0.00614
# Poissons Ratio (z) = 0.16568 -0.00462
#
# Static dielectric constant tensor:
#      x y z
#    x 2.120680 0.000000 0.000000 
#    y 0.000000 1.920860 0.000000 
#    z 0.000000 0.000000 1.836490 
# 
# From -- ./inp_files/6985.got.cif
#   From: 2010.05.17/outbox.cif.g08.bks.cpg/sg18_4_cif.got.tgz:6985.got - 2010.06.03 22:40:56.
