data_PCOD9312282
_publ_section_title
;
Structure prediction by ZEFSAII (Michael W. Deem and Ramdas Pophale) SiO2 
 PCOD9312282
Probable space group: P 21 21 2
;
_chemical_formula_sum "Si O2"
_cell_formula_units_Z 32
_cell_length_a 29.170997
_cell_length_b 8.324808
_cell_length_c 6.979214
_cell_angle_alpha 90.000000
_cell_angle_beta 90.000000
_cell_angle_gamma 90.000000
_cell_volume 1694.852911
_symmetry_space_group_name_H-M "P 21 21 2"
_symmetry_group_IT_number 18
_symmetry_cell_setting 'orthorhombic'
loop_
_space_group_symop_operation_xyz
x,y,z
-x,-y,z
1/2+x,1/2-y,-z
1/2-x,1/2+y,-z
loop_
_atom_site_type_symbol
_atom_site_label
_atom_site_fract_x
_atom_site_fract_y
_atom_site_fract_z
Si Si1 0.755713 0.300839 0.141703
Si Si2 0.234853 0.837715 0.733348
Si Si3 0.017792 0.320245 0.349958
Si Si4 0.590221 0.318501 0.379594
Si Si5 0.833259 0.296138 0.448898
Si Si6 0.311972 0.843692 0.420459
Si Si7 0.048335 0.084385 0.019551
Si Si8 0.425129 0.370706 0.637861
O O1 0.740124 0.480296 0.195346
O O2 0.802205 0.273461 0.260417
O O3 0.717403 0.180671 0.227387
O O4 0.763147 0.273808 0.918695
O O5 0.188672 0.817929 0.611088
O O6 0.276732 0.793588 0.589963
O O7 0.055364 0.306359 0.517899
O O8 0.038212 0.234752 0.160497
O O9 0.000000 0.500000 0.318029
O O10 0.974073 0.209829 0.400053
O O11 0.641942 0.258584 0.405478
O O12 0.582831 0.483019 0.494230
O O13 0.576196 0.353738 0.161859
O O14 0.825797 0.474514 0.530674
O O15 0.884833 0.255210 0.395603
O O16 0.073756 0.951085 0.150933
O O17 0.000000 0.000000 0.962646
#
# Coordination Sequence:
#
# PCOD9312282 Si02
#       8
#     4   4   4   4   4   4   4   4
#     4  10  21  37  58  81 110 148 184 230 282 329
#     4  10  21  38  58  81 112 147 187 232 280 334
#     4  10  21  38  59  84 114 147 183 230 280 326
#     4  11  21  37  60  84 112 150 188 228 278 332
#     4  10  21  38  56  82 113 145 186 230 276 332
#     4  10  22  37  56  83 113 144 187 233 277 331
#     4   9  20  38  57  81 112 145 185 225 270 330
#     4  10  21  37  58  82 112 146 184 228 275 328
#
# _framework density 18.880693999999998
#
# number of rings (size 3 to 8) (size 9 to 14) (size 15 to 20)
#    0.000    2.000    0.000    4.125    0.000    7.500 
#    0.000    3.750    0.000    0.000    0.000    0.000 
#    0.000    0.000    0.000    0.000    0.000    0.000 
#
# Total GULP energy -178707.685184 kJ/mol
# GULP energy per Si atom -5584.615162 kJ/mol
# Density = 1.883772 g / cm^3
# Si number density = 18.880694 Si / 1000 Ang^3
#
#
#
# Elastic Constant Matrix: (Units=GPa)
#
#
# Indices 1 2 3 4 5 6 
#
# 1 84.1259 11.2422 29.5008 0.0000 0.0000 0.0000
# 2 11.2422 38.4577 7.1865 0.0000 0.0000 0.0000
# 3 29.5008 7.1865 79.4292 0.0000 0.0000 0.0000
# 4 0.0000 0.0000 0.0000 20.2403 0.0000 0.0000
# 5 0.0000 0.0000 0.0000 0.0000 10.3099 0.0000
# 6 0.0000 0.0000 0.0000 0.0000 0.0000 35.1768
#
#
#
# Elastic Compliance Matrix: (Units=1/GPa)
#
#
# Indices 1 2 3 4 5 6 
#
# 1 0.014040 -0.003184 -0.004927 0.000000 0.000000 0.000000
# 2 -0.003184 0.027172 -0.001276 0.000000 0.000000 0.000000
# 3 -0.004927 -0.001276 0.014535 0.000000 0.000000 0.000000
# 4 0.000000 0.000000 0.000000 0.049407 0.000000 0.000000
# 5 0.000000 0.000000 0.000000 0.000000 0.096994 0.000000
# 6 0.000000 0.000000 0.000000 0.000000 0.000000 0.028428
#
#
# Mechanical properties :
#
#
# Convention : Reuss Voigt Hill
#
# Bulk Modulus (GPa) = 27.04576 33.09689 30.07132
# Shear Modulus (GPa) = 19.10788 23.41761 21.26275
#
# Velocity S-wave (km/s) = 3.18470 3.52560 3.35948
# Velocity P-wave (km/s) = 5.28003 5.84300 5.56864
#
# Compressibility (1/GPa) = 0.03697438
#
# Stress axis : x y z
#
# Youngs Moduli (GPa) = 71.22496 36.80302 68.79922
#
# Poissons Ratio (x) = 0.11717 0.33894
# Poissons Ratio (y) = 0.22676 0.08779
# Poissons Ratio (z) = 0.35089 0.04696
#
# Static dielectric constant tensor:
#      x y z
#    x 1.638110 0.000000 0.000000 
#    y 0.000000 1.663160 0.000000 
#    z 0.000000 0.000000 1.630720 
# 
# From -- ./inp_files/2314.got.cif
#   From: 2010.05.17/outbox.cif.g08.bks.cpg/sg18_2_cif.got.tgz:2314.got - 2010.06.03 22:40:56.
