data_PCOD9312169
_publ_section_title
;
Structure prediction by ZEFSAII (Michael W. Deem and Ramdas Pophale) SiO2 
 PCOD9312169
Probable space group: P 21 21 2
;
_chemical_formula_sum "Si O2"
_cell_formula_units_Z 18
_cell_length_a 5.506013
_cell_length_b 7.453733
_cell_length_c 18.429419
_cell_angle_alpha 90.000000
_cell_angle_beta 90.000000
_cell_angle_gamma 90.000000
_cell_volume 756.349821
_symmetry_space_group_name_H-M "P 21 21 2"
_symmetry_group_IT_number 18
_symmetry_cell_setting 'orthorhombic'
loop_
_space_group_symop_operation_xyz
x,y,z
-x,-y,z
1/2+x,1/2-y,-z
1/2-x,1/2+y,-z
loop_
_atom_site_type_symbol
_atom_site_label
_atom_site_fract_x
_atom_site_fract_y
_atom_site_fract_z
Si Si1 0.933929 0.793568 0.540707
Si Si2 0.470477 0.793565 0.293900
Si Si3 0.000000 0.500000 0.955503
Si Si4 0.469769 0.717526 0.769789
Si Si5 0.417436 0.301827 0.926285
O O1 0.167629 0.718827 0.496255
O O2 0.926690 0.707453 0.620070
O O3 0.000000 0.000000 0.550987
O O4 0.229510 0.711386 0.257715
O O5 0.734777 0.716028 0.273588
O O6 0.500000 0.000000 0.270172
O O7 0.091428 0.652304 0.012721
O O8 0.151237 0.368332 0.903638
O O9 0.500000 0.500000 0.762659
O O10 0.438311 0.754561 0.855544
O O11 0.500000 0.500000 0.954269
#
# Coordination Sequence:
#
# PCOD9312169 Si02
#       5
#     4   4   2   4   4
#     4  12  25  43  69 102 137 176 222 277 331 397
#     4  10  20  40  63  94 128 175 219 267 331 396
#     4  12  24  42  66  98 130 174 228 288 344 410
#     4   9  21  37  64  89 129 176 220 266 331 407
#     4  11  24  41  65  96 132 176 227 281 347 405
#
# _framework density 23.798513
#
# number of rings (size 3 to 8) (size 9 to 14) (size 15 to 20)
#    0.000    1.333    2.222    3.333    7.778    1.778 
#    4.000    0.000    0.000    0.000    0.000    0.000 
#    0.000    0.000    0.000    0.000    0.000    0.000 
#
# Total GULP energy -100352.427663 kJ/mol
# GULP energy per Si atom -5575.134870 kJ/mol
# Density = 2.374435 g / cm^3
# Si number density = 23.798513 Si / 1000 Ang^3
#
#
#
# Elastic Constant Matrix: (Units=GPa)
#
#
# Indices 1 2 3 4 5 6 
#
# 1 139.4277 -0.5709 45.5623 0.0000 0.0000 0.0000
# 2 -0.5709 66.9373 -1.5502 0.0000 0.0000 0.0000
# 3 45.5623 -1.5502 80.4178 0.0000 0.0000 0.0000
# 4 0.0000 0.0000 0.0000 35.6756 0.0000 0.0000
# 5 0.0000 0.0000 0.0000 0.0000 60.6639 0.0000
# 6 0.0000 0.0000 0.0000 0.0000 0.0000 17.9519
#
#
#
# Elastic Compliance Matrix: (Units=1/GPa)
#
#
# Indices 1 2 3 4 5 6 
#
# 1 0.008802 -0.000040 -0.004988 0.000000 0.000000 0.000000
# 2 -0.000040 0.014946 0.000311 0.000000 0.000000 0.000000
# 3 -0.004988 0.000311 0.015267 0.000000 0.000000 0.000000
# 4 0.000000 0.000000 0.000000 0.028030 0.000000 0.000000
# 5 0.000000 0.000000 0.000000 0.000000 0.016484 0.000000
# 6 0.000000 0.000000 0.000000 0.000000 0.000000 0.055704
#
#
# Mechanical properties :
#
#
# Convention : Reuss Voigt Hill
#
# Bulk Modulus (GPa) = 33.80561 41.51834 37.66197
# Shear Modulus (GPa) = 31.54008 39.08106 35.31057
#
# Velocity S-wave (km/s) = 3.64441 4.05676 3.85610
# Velocity P-wave (km/s) = 5.65197 6.27907 5.97375
#
# Compressibility (1/GPa) = 0.02958089
#
# Stress axis : x y z
#
# Youngs Moduli (GPa) = 113.61203 66.90655 65.50108
#
# Poissons Ratio (x) = 0.00271 0.32670
# Poissons Ratio (y) = 0.00459 -0.02037
# Poissons Ratio (z) = 0.56666 -0.02081
#
# Static dielectric constant tensor:
#      x y z
#    x 2.115610 0.000000 0.000000 
#    y 0.000000 1.477060 0.000000 
#    z 0.000000 0.000000 1.758940 
# 
# From -- ./inp_files/7084.got.cif
#   From: 2010.05.17/outbox.cif.g08.bks.cpg/sg18_4_cif.got.tgz:7084.got - 2010.06.03 22:40:56.
