data_PCOD9312179
_publ_section_title
;
Structure prediction by ZEFSAII (Michael W. Deem and Ramdas Pophale) SiO2 
 PCOD9312179
Probable space group: P 21 21 2
;
_chemical_formula_sum "Si O2"
_cell_formula_units_Z 30
_cell_length_a 20.697790
_cell_length_b 12.665656
_cell_length_c 5.326659
_cell_angle_alpha 90.000000
_cell_angle_beta 90.000000
_cell_angle_gamma 90.000000
_cell_volume 1396.389453
_symmetry_space_group_name_H-M "P 21 21 2"
_symmetry_group_IT_number 18
_symmetry_cell_setting 'orthorhombic'
loop_
_space_group_symop_operation_xyz
x,y,z
-x,-y,z
1/2+x,1/2-y,-z
1/2-x,1/2+y,-z
loop_
_atom_site_type_symbol
_atom_site_label
_atom_site_fract_x
_atom_site_fract_y
_atom_site_fract_z
Si Si1 0.500000 0.000000 0.907335
Si Si2 0.164104 0.190770 0.048483
Si Si3 0.333083 0.044317 0.347976
Si Si4 0.136670 0.830041 0.491162
Si Si5 0.461271 0.172355 0.526743
Si Si6 0.812541 0.935723 0.541307
Si Si7 0.806886 0.270408 0.990647
Si Si8 0.587405 0.132436 0.199877
O O1 0.514474 0.892892 0.762876
O O2 0.436352 0.971838 0.056746
O O3 0.170629 0.106711 0.819165
O O4 0.109474 0.273349 0.975204
O O5 0.159834 0.141079 0.323919
O O6 0.231745 0.252470 0.042727
O O7 0.396249 0.106369 0.452824
O O8 0.265357 0.058227 0.498358
O O9 0.317342 0.106145 0.085038
O O10 0.352728 0.920291 0.348754
O O11 0.063125 0.791656 0.447808
O O12 0.155973 0.790933 0.769563
O O13 0.155599 0.951435 0.486261
O O14 0.172814 0.769030 0.263991
O O15 0.522804 0.164802 0.346140
#
# Coordination Sequence:
#
# PCOD9312179 Si02
#       8
#     2   4   4   4   4   4   4   4
#     4  12  22  40  68  98 132 172 222 270 354 384
#     4  11  25  43  65  96 139 170 233 267 335 397
#     4  10  20  40  65  97 139 160 222 272 347 394
#     4  11  23  41  70  93 137 173 229 267 333 390
#     4  11  23  40  63  99 132 172 219 276 333 410
#     4  11  25  45  67  98 131 185 218 284 324 394
#     4  10  21  40  65 102 127 174 209 281 333 394
#     4  12  24  41  64 101 132 178 213 282 338 407
#
# _framework density 21.483978
#
# number of rings (size 3 to 8) (size 9 to 14) (size 15 to 20)
#    0.000    1.067    2.667    4.800    3.733    3.200 
#    0.000    0.667    0.000    0.000    0.000    0.000 
#    0.000    0.000    0.000    0.000    0.000    0.000 
#
# Total GULP energy -167351.195585 kJ/mol
# GULP energy per Si atom -5578.373186 kJ/mol
# Density = 2.143508 g / cm^3
# Si number density = 21.483978 Si / 1000 Ang^3
#
#
#
# Elastic Constant Matrix: (Units=GPa)
#
#
# Indices 1 2 3 4 5 6 
#
# 1 64.0307 23.3819 -4.5397 0.0000 0.0000 0.0000
# 2 23.3819 44.5371 -10.7495 0.0000 0.0000 0.0000
# 3 -4.5397 -10.7495 38.9062 0.0000 0.0000 0.0000
# 4 0.0000 0.0000 0.0000 30.4908 0.0000 0.0000
# 5 0.0000 0.0000 0.0000 0.0000 -60.0199 0.0000
# 6 0.0000 0.0000 0.0000 0.0000 0.0000 38.5046
#
#
#
# Elastic Compliance Matrix: (Units=1/GPa)
#
#
# Indices 1 2 3 4 5 6 
#
# 1 0.019334 -0.010292 -0.000588 0.000000 0.000000 0.000000
# 2 -0.010292 0.029536 0.006960 0.000000 0.000000 0.000000
# 3 -0.000588 0.006960 0.027557 0.000000 0.000000 0.000000
# 4 0.000000 0.000000 0.000000 0.032797 0.000000 0.000000
# 5 0.000000 0.000000 0.000000 0.000000 -0.016661 0.000000
# 6 0.000000 0.000000 0.000000 0.000000 0.000000 0.025971
#
#
# Mechanical properties :
#
#
# Convention : Reuss Voigt Hill
#
# Bulk Modulus (GPa) = 14.57992 18.18436 16.38214
# Shear Modulus (GPa) = 33.50368 11.08719 22.29543
#
# Velocity S-wave (km/s) = 3.95330 2.27418 3.22494
# Velocity P-wave (km/s) = 5.25730 3.92153 4.63776
#
# Compressibility (1/GPa) = 0.06858750
#
# Stress axis : x y z
#
# Youngs Moduli (GPa) = 51.72172 33.85651 36.28811
#
# Poissons Ratio (x) = 0.34846 0.02133
# Poissons Ratio (y) = 0.53233 -0.25256
# Poissons Ratio (z) = 0.03040 -0.23563
#
# Static dielectric constant tensor:
#      x y z
#    x 1.820810 0.000000 0.000000 
#    y 0.000000 1.842010 0.000000 
#    z 0.000000 0.000000 1.868400 
# 
# From -- ./inp_files/2006.got.cif
#   From: 2010.05.17/outbox.cif.g08.bks.cpg/sg18_2_cif.got.tgz:2006.got - 2010.06.03 22:40:56.
