data_PCOD9312939
_publ_section_title
;
Structure prediction by ZEFSAII (Michael W. Deem and Ramdas Pophale) SiO2 
 PCOD9312939
Probable space group: P 21 21 2
;
_chemical_formula_sum "Si O2"
_cell_formula_units_Z 20
_cell_length_a 7.747709
_cell_length_b 7.747756
_cell_length_c 12.332373
_cell_angle_alpha 90.000000
_cell_angle_beta 90.000000
_cell_angle_gamma 90.000000
_cell_volume 740.279780
_symmetry_space_group_name_H-M "P 21 21 2"
_symmetry_group_IT_number 18
_symmetry_cell_setting 'orthorhombic'
loop_
_space_group_symop_operation_xyz
x,y,z
-x,-y,z
1/2+x,1/2-y,-z
1/2-x,1/2+y,-z
loop_
_atom_site_type_symbol
_atom_site_label
_atom_site_fract_x
_atom_site_fract_y
_atom_site_fract_z
Si Si1 0.655127 0.373403 0.940753
Si Si2 0.500000 0.000000 0.670786
Si Si3 0.000000 0.500000 0.829212
Si Si4 0.126597 0.155128 0.440753
Si Si5 0.978336 0.241138 0.662706
Si Si6 0.258862 0.478334 0.162705
O O1 0.500000 0.500000 0.902645
O O2 0.654831 0.175316 0.901160
O O3 0.841769 0.432698 0.898594
O O4 0.660172 0.401018 0.070534
O O5 0.432699 0.841769 0.601405
O O6 0.363353 0.077706 0.755376
O O7 0.922291 0.636646 0.744623
O O8 0.324684 0.154833 0.401159
O O9 0.098982 0.160171 0.570534
O O10 0.000000 0.000000 0.402645
O O11 0.878713 0.121289 0.750001
#
# Coordination Sequence:
#
# PCOD9312939 Si02
#       6
#     4   2   2   4   4   4
#     4  11  26  47  75 112 149 200 253 313 386 458
#     4  10  24  48  74 104 154 200 246 324 368 464
#     4  10  24  48  74 104 154 200 246 324 368 464
#     4  11  26  47  75 112 149 200 253 313 386 458
#     4  10  25  47  72 112 147 198 256 307 392 448
#     4  10  25  47  72 112 147 198 256 307 392 448
#
# _framework density 27.016808999999999
#
# number of rings (size 3 to 8) (size 9 to 14) (size 15 to 20)
#    0.000    1.600    0.000    1.200   16.800    8.000 
#    0.000    0.000    0.000    0.000    0.000    0.000 
#    0.000    0.000    0.000    0.000    0.000    0.000 
#
# Total GULP energy -111916.609494 kJ/mol
# GULP energy per Si atom -5595.830475 kJ/mol
# Density = 2.695532 g / cm^3
# Si number density = 27.016809 Si / 1000 Ang^3
#
#
#
# Elastic Constant Matrix: (Units=GPa)
#
#
# Indices 1 2 3 4 5 6 
#
# 1 80.4678 30.9869 50.4918 0.0000 0.0000 0.0000
# 2 30.9869 80.4661 50.4914 0.0000 0.0000 0.0000
# 3 50.4918 50.4914 194.1875 0.0000 0.0000 0.0000
# 4 0.0000 0.0000 0.0000 20.9996 0.0000 0.0000
# 5 0.0000 0.0000 0.0000 0.0000 21.0009 0.0000
# 6 0.0000 0.0000 0.0000 0.0000 0.0000 28.0824
#
#
#
# Elastic Compliance Matrix: (Units=1/GPa)
#
#
# Indices 1 2 3 4 5 6 
#
# 1 0.015974 -0.004236 -0.003052 0.000000 0.000000 0.000000
# 2 -0.004236 0.015974 -0.003052 0.000000 0.000000 0.000000
# 3 -0.003052 -0.003052 0.006737 0.000000 0.000000 0.000000
# 4 0.000000 0.000000 0.000000 0.047620 0.000000 0.000000
# 5 0.000000 0.000000 0.000000 0.000000 0.047617 0.000000
# 6 0.000000 0.000000 0.000000 0.000000 0.000000 0.035609
#
#
# Mechanical properties :
#
#
# Convention : Reuss Voigt Hill
#
# Bulk Modulus (GPa) = 55.54288 68.78463 62.16375
# Shear Modulus (GPa) = 25.48257 28.89334 27.18795
#
# Velocity S-wave (km/s) = 3.07451 3.27380 3.17572
# Velocity P-wave (km/s) = 5.76253 6.30917 6.04203
#
# Compressibility (1/GPa) = 0.01800411
#
# Stress axis : x y z
#
# Youngs Moduli (GPa) = 62.60296 62.60163 148.43930
#
# Poissons Ratio (x) = 0.26520 0.45302
# Poissons Ratio (y) = 0.26521 0.45303
# Poissons Ratio (z) = 0.19106 0.19106
#
# Static dielectric constant tensor:
#      x y z
#    x 2.204560 0.000000 0.000000 
#    y 0.000000 2.204560 0.000000 
#    z 0.000000 0.000000 2.043650 
# 
# From -- ./inp_files/5446.got.cif
#   From: 2010.05.17/outbox.cif.g08.bks.cpg/sg18_3_cif.got.tgz:5446.got - 2010.06.03 22:40:56.
