data_PCOD9312018
_publ_section_title
;
Structure prediction by ZEFSAII (Michael W. Deem and Ramdas Pophale) SiO2 
 PCOD9312018
Probable space group: P 21 21 2
;
_chemical_formula_sum "Si O2"
_cell_formula_units_Z 32
_cell_length_a 8.952893
_cell_length_b 29.564571
_cell_length_c 6.176781
_cell_angle_alpha 90.000000
_cell_angle_beta 90.000000
_cell_angle_gamma 90.000000
_cell_volume 1634.922532
_symmetry_space_group_name_H-M "P 21 21 2"
_symmetry_group_IT_number 18
_symmetry_cell_setting 'orthorhombic'
loop_
_space_group_symop_operation_xyz
x,y,z
-x,-y,z
1/2+x,1/2-y,-z
1/2-x,1/2+y,-z
loop_
_atom_site_type_symbol
_atom_site_label
_atom_site_fract_x
_atom_site_fract_y
_atom_site_fract_z
Si Si1 0.537804 0.218277 0.003046
Si Si2 0.798297 0.670080 0.379825
Si Si3 0.672379 0.071652 0.593086
Si Si4 0.833057 0.989194 0.823663
Si Si5 0.294566 0.252507 0.679317
Si Si6 0.381421 0.171246 0.381350
Si Si7 0.163971 0.576603 0.440941
Si Si8 0.160254 0.494514 0.777720
O O1 0.651596 0.189451 0.852864
O O2 0.436675 0.247934 0.839682
O O3 0.643923 0.243837 0.175788
O O4 0.419002 0.187613 0.138273
O O5 0.742456 0.618650 0.372866
O O6 0.698361 0.704541 0.518128
O O7 0.953198 0.668068 0.514514
O O8 0.500970 0.080005 0.661846
O O9 0.736080 0.030119 0.726167
O O10 0.672421 0.053441 0.345035
O O11 0.780841 0.940557 0.736185
O O12 0.800025 0.994201 0.075564
O O13 0.000000 0.000000 0.761424
O O14 0.296365 0.209322 0.519895
O O15 0.308387 0.122521 0.426654
O O16 0.153263 0.534065 0.601022
O O17 0.000000 0.500000 0.896803
#
# Coordination Sequence:
#
# PCOD9312018 Si02
#       8
#     4   4   4   4   4   4   4   4
#     4  10  20  36  59  84 115 153 188 234 295 343
#     4   9  19  35  58  84 111 143 190 242 284 336
#     4   9  19  37  59  80 102 138 189 237 271 317
#     4  11  22  35  52  79 115 147 174 219 284 344
#     4  10  20  36  56  85 118 149 189 237 286 346
#     4   9  19  35  57  84 111 144 192 241 283 334
#     4   9  19  37  59  80 102 138 190 237 271 315
#     4   9  18  33  56  80 103 138 183 227 272 327
#
# _framework density 19.572794999999999
#
# number of rings (size 3 to 8) (size 9 to 14) (size 15 to 20)
#    0.000    2.500    0.000    2.625    0.000    9.000 
#    0.000    7.500    0.000    3.000    0.000    0.000 
#    0.000    0.000    0.000    0.000    0.000    0.000 
#
# Total GULP energy -178223.013706 kJ/mol
# GULP energy per Si atom -5569.469178 kJ/mol
# Density = 1.952825 g / cm^3
# Si number density = 19.572795 Si / 1000 Ang^3
#
#
#
# Elastic Constant Matrix: (Units=GPa)
#
#
# Indices 1 2 3 4 5 6 
#
# 1 -6.6329 -5.3336 21.2542 0.0000 0.0000 0.0000
# 2 -5.3336 100.5738 28.2324 0.0000 0.0000 0.0000
# 3 21.2542 28.2324 58.3423 0.0000 0.0000 0.0000
# 4 0.0000 0.0000 0.0000 10.9095 0.0000 0.0000
# 5 0.0000 0.0000 0.0000 0.0000 18.4659 0.0000
# 6 0.0000 0.0000 0.0000 0.0000 0.0000 22.5695
#
#
#
# Elastic Compliance Matrix: (Units=1/GPa)
#
#
# Indices 1 2 3 4 5 6 
#
# 1 -0.058198 -0.010459 0.026263 0.000000 0.000000 0.000000
# 2 -0.010459 0.009626 -0.000848 0.000000 0.000000 0.000000
# 3 0.026263 -0.000848 0.007983 0.000000 0.000000 0.000000
# 4 0.000000 0.000000 0.000000 0.091663 0.000000 0.000000
# 5 0.000000 0.000000 0.000000 0.000000 0.054154 0.000000
# 6 0.000000 0.000000 0.000000 0.000000 0.000000 0.044308
#
#
# Mechanical properties :
#
#
# Convention : Reuss Voigt Hill
#
# Bulk Modulus (GPa) = -93.66017 26.73213 -33.46402
# Shear Modulus (GPa) = 43.07922 17.59766 30.33844
#
# Velocity S-wave (km/s) = 4.69654 3.00173 3.94131
# Velocity P-wave (km/s) = 4.30652 5.06965 1.89146
#
# Compressibility (1/GPa) = -0.01067690
#
# Stress axis : x y z
#
# Youngs Moduli (GPa) = -17.18265 103.88101 125.26505
#
# Poissons Ratio (x) = 1.08646 -3.28981
# Poissons Ratio (y) = -0.17971 0.10625
# Poissons Ratio (z) = 0.45126 0.08811
#
# Static dielectric constant tensor:
#      x y z
#    x 1.732680 0.000000 0.000000 
#    y 0.000000 1.713900 0.000000 
#    z 0.000000 0.000000 1.745260 
# 
# From -- ./inp_files/773.got.cif
#   From: 2010.05.17/outbox.cif.g08.bks.cpg/sg18_1_cif.got.tgz:773.got - 2010.06.03 22:40:56.
