data_PCOD9312456
_publ_section_title
;
Structure prediction by ZEFSAII (Michael W. Deem and Ramdas Pophale) SiO2 
 PCOD9312456
Probable space group: P 21 21 2
;
_chemical_formula_sum "Si O2"
_cell_formula_units_Z 32
_cell_length_a 5.205329
_cell_length_b 27.846826
_cell_length_c 9.260532
_cell_angle_alpha 90.000000
_cell_angle_beta 90.000000
_cell_angle_gamma 90.000000
_cell_volume 1342.331624
_symmetry_space_group_name_H-M "P 21 21 2"
_symmetry_group_IT_number 18
_symmetry_cell_setting 'orthorhombic'
loop_
_space_group_symop_operation_xyz
x,y,z
-x,-y,z
1/2+x,1/2-y,-z
1/2-x,1/2+y,-z
loop_
_atom_site_type_symbol
_atom_site_label
_atom_site_fract_x
_atom_site_fract_y
_atom_site_fract_z
Si Si1 0.884764 0.678529 0.431364
Si Si2 0.278895 0.562230 0.532811
Si Si3 0.977143 0.145929 0.295899
Si Si4 0.626912 0.768927 0.327427
Si Si5 0.529865 0.898776 0.802080
Si Si6 0.189199 0.237256 0.919810
Si Si7 0.783412 0.546818 0.430525
Si Si8 0.484127 0.368776 0.036668
O O1 0.705479 0.660621 0.566850
O O2 0.727614 0.714781 0.330948
O O3 0.035089 0.640657 0.329865
O O4 0.080827 0.714189 0.509964
O O5 0.394496 0.594973 0.657245
O O6 0.503994 0.570717 0.412266
O O7 0.255214 0.504560 0.507291
O O8 0.978297 0.574361 0.536466
O O9 0.184040 0.189020 0.275830
O O10 0.901020 0.135228 0.131043
O O11 0.376005 0.765578 0.226502
O O12 0.446643 0.947266 0.715924
O O13 0.777718 0.901717 0.905001
O O14 0.277115 0.883224 0.886600
O O15 0.483760 0.239946 0.967353
O O16 0.098412 0.182620 0.916653
#
# Coordination Sequence:
#
# PCOD9312456 Si02
#       8
#     4   4   4   4   4   4   4   4
#     4  12  26  40  67 100 138 187 248 304 337 411
#     4  10  22  41  76 108 129 177 228 293 356 431
#     4  12  26  46  66 105 142 189 238 299 358 422
#     4  12  26  38  66  94 140 186 247 299 340 400
#     4  12  26  46  70 105 140 189 237 299 364 431
#     4  12  25  45  64  92 144 205 241 285 357 426
#     4  10  21  43  74 107 135 167 234 291 361 428
#     4  12  28  43  70 101 150 192 239 291 365 439
#
# _framework density 23.839115
#
# number of rings (size 3 to 8) (size 9 to 14) (size 15 to 20)
#    0.000    0.500    5.000    3.000    5.250    0.000 
#    0.000    0.000    0.000   18.000    0.000    0.000 
#    0.000    0.000    0.000    0.000    0.000    0.000 
#
# Total GULP energy -178160.889748 kJ/mol
# GULP energy per Si atom -5567.527805 kJ/mol
# Density = 2.378486 g / cm^3
# Si number density = 23.839115 Si / 1000 Ang^3
#
#
#
# Elastic Constant Matrix: (Units=GPa)
#
#
# Indices 1 2 3 4 5 6 
#
# 1 85.0925 5.8089 10.1498 0.0000 0.0000 0.0000
# 2 5.8089 96.2965 39.1590 0.0000 0.0000 0.0000
# 3 10.1498 39.1590 97.0559 0.0000 0.0000 0.0000
# 4 0.0000 0.0000 0.0000 24.3379 0.0000 0.0000
# 5 0.0000 0.0000 0.0000 0.0000 47.3285 0.0000
# 6 0.0000 0.0000 0.0000 0.0000 0.0000 28.9094
#
#
#
# Elastic Compliance Matrix: (Units=1/GPa)
#
#
# Indices 1 2 3 4 5 6 
#
# 1 0.011906 -0.000253 -0.001143 0.000000 0.000000 0.000000
# 2 -0.000253 0.012428 -0.004988 0.000000 0.000000 0.000000
# 3 -0.001143 -0.004988 0.012435 0.000000 0.000000 0.000000
# 4 0.000000 0.000000 0.000000 0.041088 0.000000 0.000000
# 5 0.000000 0.000000 0.000000 0.000000 0.021129 0.000000
# 6 0.000000 0.000000 0.000000 0.000000 0.000000 0.034591
#
#
# Mechanical properties :
#
#
# Convention : Reuss Voigt Hill
#
# Bulk Modulus (GPa) = 41.66530 43.18669 42.42600
# Shear Modulus (GPa) = 32.39487 35.00364 33.69925
#
# Velocity S-wave (km/s) = 3.69032 3.83603 3.76388
# Velocity P-wave (km/s) = 5.97274 6.14617 6.06008
#
# Compressibility (1/GPa) = 0.02400079
#
# Stress axis : x y z
#
# Youngs Moduli (GPa) = 83.99457 80.46211 80.41625
#
# Poissons Ratio (x) = 0.02040 0.09190
# Poissons Ratio (y) = 0.02129 0.40111
# Poissons Ratio (z) = 0.09599 0.40134
#
# Static dielectric constant tensor:
#      x y z
#    x 2.068510 0.000000 0.000000 
#    y 0.000000 2.064960 0.000000 
#    z 0.000000 0.000000 1.981780 
# 
# From -- ./inp_files/2689.got.cif
#   From: 2010.05.17/outbox.cif.g08.bks.cpg/sg18_2_cif.got.tgz:2689.got - 2010.06.03 22:40:56.
