data_PCOD9312275
_publ_section_title
;
Structure prediction by ZEFSAII (Michael W. Deem and Ramdas Pophale) SiO2 
 PCOD9312275
Probable space group: P 21 21 2
;
_chemical_formula_sum "Si O2"
_cell_formula_units_Z 30
_cell_length_a 12.585091
_cell_length_b 14.889810
_cell_length_c 8.023998
_cell_angle_alpha 90.000000
_cell_angle_beta 90.000000
_cell_angle_gamma 90.000000
_cell_volume 1503.613887
_symmetry_space_group_name_H-M "P 21 21 2"
_symmetry_group_IT_number 18
_symmetry_cell_setting 'orthorhombic'
loop_
_space_group_symop_operation_xyz
x,y,z
-x,-y,z
1/2+x,1/2-y,-z
1/2-x,1/2+y,-z
loop_
_atom_site_type_symbol
_atom_site_label
_atom_site_fract_x
_atom_site_fract_y
_atom_site_fract_z
Si Si1 0.622486 0.502786 0.036169
Si Si2 0.301699 0.089415 0.530323
Si Si3 0.500000 0.000000 0.378653
Si Si4 0.210266 0.639951 0.086353
Si Si5 0.611990 0.535081 0.438476
Si Si6 0.498080 0.157283 0.124580
Si Si7 0.271193 0.829907 0.982586
Si Si8 0.651312 0.727016 0.337350
O O1 0.500000 0.500000 0.975541
O O2 0.688182 0.411236 0.008787
O O3 0.615099 0.518879 0.236986
O O4 0.700663 0.582493 0.974743
O O5 0.402526 0.029813 0.488424
O O6 0.300634 0.107197 0.726281
O O7 0.312490 0.183315 0.432305
O O8 0.201151 0.028554 0.484452
O O9 0.527147 0.083909 0.262144
O O10 0.103708 0.623375 0.980440
O O11 0.230071 0.745732 0.087887
O O12 0.500000 0.500000 0.501165
O O13 0.626988 0.642045 0.454323
O O14 0.451721 0.244683 0.223599
O O15 0.602974 0.165785 0.013279
O O16 0.241584 0.804485 0.792375
#
# Coordination Sequence:
#
# PCOD9312275 Si02
#       8
#     4   4   2   4   4   4   4   4
#     4   9  19  35  60  87 121 160 202 243 308 368
#     4  10  22  40  61  93 123 159 201 254 317 370
#     4  10  22  40  62  82 122 162 198 260 314 362
#     4  10  22  36  61  92 124 156 208 258 298 377
#     4   9  19  37  61  85 118 162 200 245 307 371
#     4  10  21  38  62  86 123 160 212 250 308 365
#     4  10  21  36  63  90 118 167 201 255 305 362
#     4   9  21  40  59  92 125 160 204 255 310 373
#
# _framework density 19.951930999999998
#
# number of rings (size 3 to 8) (size 9 to 14) (size 15 to 20)
#    0.000    2.400    0.000    0.800    9.333    4.800 
#    4.800    0.000    0.000    6.400    0.000    0.000 
#    0.000    0.000    0.000    0.000    0.000    0.000 
#
# Total GULP energy -167362.286419 kJ/mol
# GULP energy per Si atom -5578.742881 kJ/mol
# Density = 1.990652 g / cm^3
# Si number density = 19.951931 Si / 1000 Ang^3
#
#
#
# Elastic Constant Matrix: (Units=GPa)
#
#
# Indices 1 2 3 4 5 6 
#
# 1 169.0519 73.3386 35.8480 0.0000 0.0000 0.0000
# 2 73.3386 96.1912 9.4327 0.0000 0.0000 0.0000
# 3 35.8480 9.4327 28.5228 0.0000 0.0000 0.0000
# 4 0.0000 0.0000 0.0000 11.2216 0.0000 0.0000
# 5 0.0000 0.0000 0.0000 0.0000 14.6689 0.0000
# 6 0.0000 0.0000 0.0000 0.0000 0.0000 20.6927
#
#
#
# Elastic Compliance Matrix: (Units=1/GPa)
#
#
# Indices 1 2 3 4 5 6 
#
# 1 0.011993 -0.007923 -0.012453 0.000000 0.000000 0.000000
# 2 -0.007923 0.015978 0.004673 0.000000 0.000000 0.000000
# 3 -0.012453 0.004673 0.049165 0.000000 0.000000 0.000000
# 4 0.000000 0.000000 0.000000 0.089114 0.000000 0.000000
# 5 0.000000 0.000000 0.000000 0.000000 0.068172 0.000000
# 6 0.000000 0.000000 0.000000 0.000000 0.000000 0.048326
#
#
# Mechanical properties :
#
#
# Convention : Reuss Voigt Hill
#
# Bulk Modulus (GPa) = 21.86668 59.00049 40.43358
# Shear Modulus (GPa) = 15.17927 20.99309 18.08618
#
# Velocity S-wave (km/s) = 2.76124 3.24726 3.01406
# Velocity P-wave (km/s) = 4.59885 6.61023 5.69405
#
# Compressibility (1/GPa) = 0.04573167
#
# Stress axis : x y z
#
# Youngs Moduli (GPa) = 83.38157 62.58562 20.33954
#
# Poissons Ratio (x) = 0.49584 0.25329
# Poissons Ratio (y) = 0.66060 -0.09505
# Poissons Ratio (z) = 1.03835 -0.29248
#
# Static dielectric constant tensor:
#      x y z
#    x 1.619950 0.000000 0.000000 
#    y 0.000000 1.717400 0.000000 
#    z 0.000000 0.000000 1.719600 
# 
# From -- ./inp_files/3918.got.cif
#   From: 2010.05.17/outbox.cif.g08.bks.cpg/sg18_2_cif.got.tgz:3918.got - 2010.06.03 22:40:56.
