data_PCOD9312394
_publ_section_title
;
Structure prediction by ZEFSAII (Michael W. Deem and Ramdas Pophale) SiO2 
 PCOD9312394
Probable space group: P 21 21 2
;
_chemical_formula_sum "Si O2"
_cell_formula_units_Z 26
_cell_length_a 9.469091
_cell_length_b 23.626757
_cell_length_c 5.438783
_cell_angle_alpha 90.000000
_cell_angle_beta 90.000000
_cell_angle_gamma 90.000000
_cell_volume 1216.785810
_symmetry_space_group_name_H-M "P 21 21 2"
_symmetry_group_IT_number 18
_symmetry_cell_setting 'orthorhombic'
loop_
_space_group_symop_operation_xyz
x,y,z
-x,-y,z
1/2+x,1/2-y,-z
1/2-x,1/2+y,-z
loop_
_atom_site_type_symbol
_atom_site_label
_atom_site_fract_x
_atom_site_fract_y
_atom_site_fract_z
Si Si1 0.285887 0.131274 0.043863
Si Si2 0.000000 0.500000 0.662597
Si Si3 0.985916 0.595263 0.283060
Si Si4 0.469767 0.818038 0.334377
Si Si5 0.493748 0.369233 0.763074
Si Si6 0.285599 0.920083 0.099898
Si Si7 0.942474 0.812145 0.745572
O O1 0.404079 0.089752 0.938939
O O2 0.208697 0.159950 0.810316
O O3 0.377865 0.174481 0.205085
O O4 0.153895 0.108604 0.198662
O O5 0.962069 0.447084 0.489810
O O6 0.865473 0.524812 0.802231
O O7 0.982793 0.658462 0.389372
O O8 0.829344 0.581353 0.186499
O O9 0.360745 0.862842 0.209874
O O10 0.425330 0.753785 0.308257
O O11 0.374791 0.415170 0.819232
O O12 0.487632 0.341338 0.493459
O O13 0.478517 0.324655 0.993380
#
# Coordination Sequence:
#
# PCOD9312394 Si02
#       7
#     4   2   4   4   4   4   4
#     4   9  22  39  61  91 131 170 213 264 318 384
#     4  10  22  40  70  90 124 156 226 274 338 378
#     4  10  21  41  65  92 124 168 215 276 323 389
#     4  10  22  37  63  91 133 175 221 257 317 383
#     4  10  24  40  62  95 134 171 210 266 317 390
#     4  10  23  40  64  97 123 172 218 277 324 385
#     4  10  24  38  62  94 137 174 213 254 320 383
#
# _framework density 21.36777
#
# number of rings (size 3 to 8) (size 9 to 14) (size 15 to 20)
#    0.923    1.231    0.000    1.385   10.769    1.231 
#    0.000    0.000    0.000   37.846    0.000    0.000 
#    0.000    0.000    0.000    0.000    0.000    0.000 
#
# Total GULP energy -144821.197422 kJ/mol
# GULP energy per Si atom -5570.046055 kJ/mol
# Density = 2.131914 g / cm^3
# Si number density = 21.367770 Si / 1000 Ang^3
#
#
#
# Elastic Constant Matrix: (Units=GPa)
#
#
# Indices 1 2 3 4 5 6 
#
# 1 74.1385 -8.6637 3.9322 0.0000 0.0000 0.0000
# 2 -8.6637 17.1220 -3.5052 0.0000 0.0000 0.0000
# 3 3.9322 -3.5052 93.3183 0.0000 0.0000 0.0000
# 4 0.0000 0.0000 0.0000 21.6639 0.0000 0.0000
# 5 0.0000 0.0000 0.0000 0.0000 19.0320 0.0000
# 6 0.0000 0.0000 0.0000 0.0000 0.0000 19.0057
#
#
#
# Elastic Compliance Matrix: (Units=1/GPa)
#
#
# Indices 1 2 3 4 5 6 
#
# 1 0.014346 0.007191 -0.000334 0.000000 0.000000 0.000000
# 2 0.007191 0.062461 0.002043 0.000000 0.000000 0.000000
# 3 -0.000334 0.002043 0.010807 0.000000 0.000000 0.000000
# 4 0.000000 0.000000 0.000000 0.046160 0.000000 0.000000
# 5 0.000000 0.000000 0.000000 0.000000 0.052543 0.000000
# 6 0.000000 0.000000 0.000000 0.000000 0.000000 0.052616
#
#
# Mechanical properties :
#
#
# Convention : Reuss Voigt Hill
#
# Bulk Modulus (GPa) = 9.48645 18.67836 14.08241
# Shear Modulus (GPa) = 19.51054 24.79469 22.15261
#
# Velocity S-wave (km/s) = 3.02500 3.41013 3.22332
# Velocity P-wave (km/s) = 4.08045 4.92602 4.52304
#
# Compressibility (1/GPa) = 0.10541349
#
# Stress axis : x y z
#
# Youngs Moduli (GPa) = 69.70435 16.00992 92.53389
#
# Poissons Ratio (x) = -0.11512 0.03094
# Poissons Ratio (y) = -0.50123 -0.18906
# Poissons Ratio (z) = 0.02331 -0.03271
#
# Static dielectric constant tensor:
#      x y z
#    x 1.792250 0.000000 0.000000 
#    y 0.000000 1.753950 0.000000 
#    z 0.000000 0.000000 1.868190 
# 
# From -- ./inp_files/1200.got.cif
#   From: 2010.05.17/outbox.cif.g08.bks.cpg/sg18_1_cif.got.tgz:1200.got - 2010.06.03 22:40:56.
