data_PCOD9312519
_publ_section_title
;
Structure prediction by ZEFSAII (Michael W. Deem and Ramdas Pophale) SiO2 
 PCOD9312519
Probable space group: P 21 21 2
;
_chemical_formula_sum "Si O2"
_cell_formula_units_Z 20
_cell_length_a 13.920390
_cell_length_b 5.263436
_cell_length_c 13.299482
_cell_angle_alpha 90.000000
_cell_angle_beta 90.000000
_cell_angle_gamma 90.000000
_cell_volume 974.440835
_symmetry_space_group_name_H-M "P 21 21 2"
_symmetry_group_IT_number 18
_symmetry_cell_setting 'orthorhombic'
loop_
_space_group_symop_operation_xyz
x,y,z
-x,-y,z
1/2+x,1/2-y,-z
1/2-x,1/2+y,-z
loop_
_atom_site_type_symbol
_atom_site_label
_atom_site_fract_x
_atom_site_fract_y
_atom_site_fract_z
Si Si1 0.105836 0.938609 0.811961
Si Si2 0.241762 0.846329 0.252711
Si Si3 0.763181 0.382944 0.935350
Si Si4 0.933794 0.252653 0.391187
Si Si5 0.896774 0.361081 0.615702
O O1 0.139071 0.706040 0.881397
O O2 0.097733 0.863222 0.695622
O O3 0.188746 0.150740 0.806681
O O4 0.000000 0.000000 0.847996
O O5 0.149885 0.737974 0.308948
O O6 0.205006 0.037372 0.165148
O O7 0.309691 0.973056 0.338284
O O8 0.770707 0.629465 0.006426
O O9 0.885721 0.267679 0.502137
O O10 0.000000 0.500000 0.381529
O O11 0.000000 0.000000 0.384832
O O12 0.000000 0.500000 0.620970
#
# Coordination Sequence:
#
# PCOD9312519 Si02
#       5
#     4   4   4   4   4
#     4  11  22  41  74 106 140 174 232 294 356 407
#     4  11  25  43  76 100 144 185 235 290 351 409
#     4  11  24  46  73  97 137 177 230 293 359 411
#     4  11  28  45  67 100 150 196 238 273 335 423
#     4  10  22  38  67 107 146 179 230 285 343 412
#
# _framework density 20.52459
#
# number of rings (size 3 to 8) (size 9 to 14) (size 15 to 20)
#    0.000    1.200    4.000    0.600   11.200    0.000 
#    0.000    1.000    8.800    0.000    0.000    0.000 
#    0.000    0.000    0.000    0.000    0.000    0.000 
#
# Total GULP energy -111516.128096 kJ/mol
# GULP energy per Si atom -5575.806405 kJ/mol
# Density = 2.047788 g / cm^3
# Si number density = 20.524590 Si / 1000 Ang^3
#
#
#
# Elastic Constant Matrix: (Units=GPa)
#
#
# Indices 1 2 3 4 5 6 
#
# 1 72.8506 44.4915 68.1867 0.0000 0.0000 0.0000
# 2 44.4915 122.3794 60.8109 0.0000 0.0000 0.0000
# 3 68.1867 60.8109 135.4571 0.0000 0.0000 0.0000
# 4 0.0000 0.0000 0.0000 40.3016 0.0000 0.0000
# 5 0.0000 0.0000 0.0000 0.0000 -7.1982 0.0000
# 6 0.0000 0.0000 0.0000 0.0000 0.0000 26.2305
#
#
#
# Elastic Compliance Matrix: (Units=1/GPa)
#
#
# Indices 1 2 3 4 5 6 
#
# 1 0.027397 -0.004000 -0.011996 0.000000 0.000000 0.000000
# 2 -0.004000 0.011101 -0.002970 0.000000 0.000000 0.000000
# 3 -0.011996 -0.002970 0.014754 0.000000 0.000000 0.000000
# 4 0.000000 0.000000 0.000000 0.024813 0.000000 0.000000
# 5 0.000000 0.000000 0.000000 0.000000 -0.138923 0.000000
# 6 0.000000 0.000000 0.000000 0.000000 0.000000 0.038124
#
#
# Mechanical properties :
#
#
# Convention : Reuss Voigt Hill
#
# Bulk Modulus (GPa) = 65.26812 75.29616 70.28214
# Shear Modulus (GPa) = 246.24592 22.34664 134.29628
#
# Velocity S-wave (km/s) = 10.96524 3.30324 8.09777
# Velocity P-wave (km/s) = 13.86306 7.16338 11.03400
#
# Compressibility (1/GPa) = 0.01532142
#
# Stress axis : x y z
#
# Youngs Moduli (GPa) = 36.50024 90.07870 67.77669
#
# Poissons Ratio (x) = 0.36028 0.81303
# Poissons Ratio (y) = 0.14599 0.20133
# Poissons Ratio (z) = 0.43784 0.26757
#
# Static dielectric constant tensor:
#      x y z
#    x 1.767870 0.000000 0.000000 
#    y 0.000000 1.833790 0.000000 
#    z 0.000000 0.000000 1.741620 
# 
# From -- ./inp_files/6005.got.cif
#   From: 2010.05.17/outbox.cif.g08.bks.cpg/sg18_4_cif.got.tgz:6005.got - 2010.06.03 22:40:56.
