data_PCOD9312318
_publ_section_title
;
Structure prediction by ZEFSAII (Michael W. Deem and Ramdas Pophale) SiO2 
 PCOD9312318
Probable space group: P 21 21 2
;
_chemical_formula_sum "Si O2"
_cell_formula_units_Z 16
_cell_length_a 4.965349
_cell_length_b 16.333710
_cell_length_c 8.932113
_cell_angle_alpha 90.000000
_cell_angle_beta 90.000000
_cell_angle_gamma 90.000000
_cell_volume 724.417325
_symmetry_space_group_name_H-M "P 21 21 2"
_symmetry_group_IT_number 18
_symmetry_cell_setting 'orthorhombic'
loop_
_space_group_symop_operation_xyz
x,y,z
-x,-y,z
1/2+x,1/2-y,-z
1/2-x,1/2+y,-z
loop_
_atom_site_type_symbol
_atom_site_label
_atom_site_fract_x
_atom_site_fract_y
_atom_site_fract_z
Si Si1 0.475542 0.832451 0.139396
Si Si2 0.523077 0.357859 0.040693
Si Si3 0.976025 0.695442 0.524626
Si Si4 0.264846 0.447026 0.320554
O O1 0.487826 0.735327 0.102315
O O2 0.542254 0.841443 0.312969
O O3 0.682221 0.873932 0.023955
O O4 0.178741 0.861864 0.099266
O O5 0.411775 0.413203 0.172814
O O6 0.746089 0.765143 0.543117
O O7 0.843514 0.628524 0.417507
O O8 0.500000 0.500000 0.400082
O O9 0.000000 0.500000 0.286969
#
# Coordination Sequence:
#
# PCOD9312318 Si02
#       4
#     4   4   4   4
#     4  10  21  38  68  99 129 166 230 289 327 389
#     4  10  21  40  64  98 132 170 223 280 339 405
#     4  12  24  42  71 106 137 180 235 294 341 410
#     4  12  26  44  67 102 144 187 226 285 363 424
#
# _framework density 22.086715999999999
#
# number of rings (size 3 to 8) (size 9 to 14) (size 15 to 20)
#    0.000    1.000    2.500    4.500    7.000    0.000 
#    0.000    5.000    0.000    0.000    0.000    0.000 
#    0.000    0.000    0.000    0.000    0.000    0.000 
#
# Total GULP energy -89533.986371 kJ/mol
# GULP energy per Si atom -5595.874148 kJ/mol
# Density = 2.203645 g / cm^3
# Si number density = 22.086716 Si / 1000 Ang^3
#
#
#
# Elastic Constant Matrix: (Units=GPa)
#
#
# Indices 1 2 3 4 5 6 
#
# 1 100.0293 16.6009 -2.3880 0.0000 0.0000 0.0000
# 2 16.6009 44.1789 16.6166 0.0000 0.0000 0.0000
# 3 -2.3880 16.6166 93.5543 0.0000 0.0000 0.0000
# 4 0.0000 0.0000 0.0000 8.4409 0.0000 0.0000
# 5 0.0000 0.0000 0.0000 0.0000 36.3858 0.0000
# 6 0.0000 0.0000 0.0000 0.0000 0.0000 41.7305
#
#
#
# Elastic Compliance Matrix: (Units=1/GPa)
#
#
# Indices 1 2 3 4 5 6 
#
# 1 0.010760 -0.004443 0.001064 0.000000 0.000000 0.000000
# 2 -0.004443 0.026091 -0.004747 0.000000 0.000000 0.000000
# 3 0.001064 -0.004747 0.011559 0.000000 0.000000 0.000000
# 4 0.000000 0.000000 0.000000 0.118470 0.000000 0.000000
# 5 0.000000 0.000000 0.000000 0.000000 0.027483 0.000000
# 6 0.000000 0.000000 0.000000 0.000000 0.000000 0.023963
#
#
# Mechanical properties :
#
#
# Convention : Reuss Voigt Hill
#
# Bulk Modulus (GPa) = 31.09853 33.26906 32.18379
# Shear Modulus (GPa) = 20.38327 31.10698 25.74512
#
# Velocity S-wave (km/s) = 3.04118 3.75694 3.41785
# Velocity P-wave (km/s) = 5.14222 5.82367 5.49352
#
# Compressibility (1/GPa) = 0.03215586
#
# Stress axis : x y z
#
# Youngs Moduli (GPa) = 92.93780 38.32807 86.51000
#
# Poissons Ratio (x) = 0.17030 -0.09203
# Poissons Ratio (y) = 0.41295 0.41070
# Poissons Ratio (z) = -0.09887 0.18196
#
# Static dielectric constant tensor:
#      x y z
#    x 1.777300 0.000000 0.000000 
#    y 0.000000 1.840180 0.000000 
#    z 0.000000 0.000000 1.765860 
# 
# From -- ./inp_files/2417.got.cif
#   From: 2010.05.17/outbox.cif.g08.bks.cpg/sg18_2_cif.got.tgz:2417.got - 2010.06.03 22:40:56.
