data_PCOD9312597
_publ_section_title
;
Structure prediction by ZEFSAII (Michael W. Deem and Ramdas Pophale) SiO2 
 PCOD9312597
Probable space group: P 21 21 2
;
_chemical_formula_sum "Si O2"
_cell_formula_units_Z 16
_cell_length_a 11.747036
_cell_length_b 8.904382
_cell_length_c 7.204474
_cell_angle_alpha 90.000000
_cell_angle_beta 90.000000
_cell_angle_gamma 90.000000
_cell_volume 753.588671
_symmetry_space_group_name_H-M "P 21 21 2"
_symmetry_group_IT_number 18
_symmetry_cell_setting 'orthorhombic'
loop_
_space_group_symop_operation_xyz
x,y,z
-x,-y,z
1/2+x,1/2-y,-z
1/2-x,1/2+y,-z
loop_
_atom_site_type_symbol
_atom_site_label
_atom_site_fract_x
_atom_site_fract_y
_atom_site_fract_z
Si Si1 0.135393 0.833278 0.383316
Si Si2 0.289554 0.671557 0.655738
Si Si3 0.480263 0.822773 0.894771
Si Si4 0.035763 0.664983 0.703057
O O1 0.248491 0.751864 0.464807
O O2 0.086855 0.766531 0.193454
O O3 0.041213 0.784324 0.537759
O O4 0.156516 0.008921 0.373989
O O5 0.370860 0.773134 0.778910
O O6 0.168615 0.648901 0.759340
O O7 0.500000 0.000000 0.875321
O O8 0.468300 0.791175 0.113588
O O9 0.000000 0.500000 0.633415
#
# Coordination Sequence:
#
# PCOD9312597 Si02
#       4
#     4   4   4   4
#     4  10  22  41  65 100 133 175 228 278 342 404
#     4  10  23  42  68  99 132 183 220 282 344 402
#     4  11  22  42  65  94 138 171 231 285 335 407
#     4   9  23  41  68  97 133 182 223 277 340 402
#
# _framework density 21.231742000000001
#
# number of rings (size 3 to 8) (size 9 to 14) (size 15 to 20)
#    1.500    0.500    0.000    3.000    3.500    4.000 
#    0.000    2.500    0.000    0.000    0.000    0.000 
#    0.000    0.000    0.000    0.000    0.000    0.000 
#
# Total GULP energy -89295.316168 kJ/mol
# GULP energy per Si atom -5580.957261 kJ/mol
# Density = 2.118342 g / cm^3
# Si number density = 21.231742 Si / 1000 Ang^3
#
#
#
# Elastic Constant Matrix: (Units=GPa)
#
#
# Indices 1 2 3 4 5 6 
#
# 1 48.3988 6.0984 -4.1285 0.0000 0.0000 0.0000
# 2 6.0984 83.6714 11.5432 0.0000 0.0000 0.0000
# 3 -4.1285 11.5432 51.2049 0.0000 0.0000 0.0000
# 4 0.0000 0.0000 0.0000 21.3985 0.0000 0.0000
# 5 0.0000 0.0000 0.0000 0.0000 45.3149 0.0000
# 6 0.0000 0.0000 0.0000 0.0000 0.0000 48.1760
#
#
#
# Elastic Compliance Matrix: (Units=1/GPa)
#
#
# Indices 1 2 3 4 5 6 
#
# 1 0.021072 -0.001827 0.002111 0.000000 0.000000 0.000000
# 2 -0.001827 0.012494 -0.002964 0.000000 0.000000 0.000000
# 3 0.002111 -0.002964 0.020368 0.000000 0.000000 0.000000
# 4 0.000000 0.000000 0.000000 0.046732 0.000000 0.000000
# 5 0.000000 0.000000 0.000000 0.000000 0.022068 0.000000
# 6 0.000000 0.000000 0.000000 0.000000 0.000000 0.020757
#
#
# Mechanical properties :
#
#
# Convention : Reuss Voigt Hill
#
# Bulk Modulus (GPa) = 20.58744 23.36680 21.97712
# Shear Modulus (GPa) = 30.29543 34.29536 32.29540
#
# Velocity S-wave (km/s) = 3.78152 4.02342 3.90435
# Velocity P-wave (km/s) = 5.36508 5.71081 5.54065
#
# Compressibility (1/GPa) = 0.04857331
#
# Stress axis : x y z
#
# Youngs Moduli (GPa) = 47.45650 80.04127 49.09735
#
# Poissons Ratio (x) = 0.14624 -0.10364
# Poissons Ratio (y) = 0.08670 0.14551
# Poissons Ratio (z) = -0.10017 0.23722
#
# Static dielectric constant tensor:
#      x y z
#    x 1.841550 0.000000 0.000000 
#    y 0.000000 1.700820 0.000000 
#    z 0.000000 0.000000 1.753120 
# 
# From -- ./inp_files/3578.got.cif
#   From: 2010.05.17/outbox.cif.g08.bks.cpg/sg18_2_cif.got.tgz:3578.got - 2010.06.03 22:40:56.
