data_PCOD9312006
_publ_section_title
;
Structure prediction by ZEFSAII (Michael W. Deem and Ramdas Pophale) SiO2 
 PCOD9312006
Probable space group: P 21 21 2
;
_chemical_formula_sum "Si O2"
_cell_formula_units_Z 30
_cell_length_a 12.401095
_cell_length_b 11.710419
_cell_length_c 9.384830
_cell_angle_alpha 90.000000
_cell_angle_beta 90.000000
_cell_angle_gamma 90.000000
_cell_volume 1362.883956
_symmetry_space_group_name_H-M "P 21 21 2"
_symmetry_group_IT_number 18
_symmetry_cell_setting 'orthorhombic'
loop_
_space_group_symop_operation_xyz
x,y,z
-x,-y,z
1/2+x,1/2-y,-z
1/2-x,1/2+y,-z
loop_
_atom_site_type_symbol
_atom_site_label
_atom_site_fract_x
_atom_site_fract_y
_atom_site_fract_z
Si Si1 0.711108 0.330039 0.732354
Si Si2 0.000000 0.000000 0.672310
Si Si3 0.675349 0.629825 0.131942
Si Si4 0.569328 0.098542 0.454203
Si Si5 0.882993 0.060795 0.182935
Si Si6 0.341667 0.029738 0.735675
Si Si7 0.829095 0.818912 0.592291
Si Si8 0.022479 0.727353 0.297203
O O1 0.798621 0.258022 0.818276
O O2 0.700151 0.462512 0.772052
O O3 0.725064 0.315813 0.563177
O O4 0.592680 0.272945 0.756725
O O5 0.917442 0.072600 0.770286
O O6 0.070874 0.091225 0.584205
O O7 0.785172 0.558560 0.160433
O O8 0.643099 0.614843 0.969394
O O9 0.638113 0.189836 0.367974
O O10 0.490724 0.183391 0.541926
O O11 0.500000 0.000000 0.380410
O O12 0.632353 0.036492 0.586158
O O13 0.897525 0.166487 0.289039
O O14 0.000000 0.000000 0.174493
O O15 0.250826 0.123588 0.701890
O O16 0.439891 0.111481 0.781363
#
# Coordination Sequence:
#
# PCOD9312006 Si02
#       8
#     4   2   4   4   4   4   4   4
#     4  10  22  37  59  90 115 151 210 245 296 351
#     4  10  24  38  60  84 122 166 192 244 318 358
#     4  11  21  40  56  86 122 155 198 244 304 361
#     4   9  18  36  54  84 115 150 194 243 289 352
#     4  10  22  38  59  85 118 157 200 252 291 361
#     4  10  20  35  59  84 118 149 197 240 308 352
#     4  10  21  36  58  87 118 158 198 248 294 369
#     4   9  19  36  58  84 110 151 195 248 292 342
#
# _framework density 22.012146000000001
#
# number of rings (size 3 to 8) (size 9 to 14) (size 15 to 20)
#    0.000    2.133    3.333    0.000    6.533    4.267 
#    0.000    0.000    0.000    0.000    0.000    0.000 
#    0.000    0.000    0.000    0.000    0.000    0.000 
#
# Total GULP energy -167425.173388 kJ/mol
# GULP energy per Si atom -5580.839113 kJ/mol
# Density = 2.196205 g / cm^3
# Si number density = 22.012146 Si / 1000 Ang^3
#
#
#
# Elastic Constant Matrix: (Units=GPa)
#
#
# Indices 1 2 3 4 5 6 
#
# 1 43.4360 29.4485 -4.8626 0.0000 0.0000 0.0000
# 2 29.4485 156.7765 14.6806 0.0000 0.0000 0.0000
# 3 -4.8626 14.6806 10.2034 0.0000 0.0000 0.0000
# 4 0.0000 0.0000 0.0000 20.9338 0.0000 0.0000
# 5 0.0000 0.0000 0.0000 0.0000 15.5611 0.0000
# 6 0.0000 0.0000 0.0000 0.0000 0.0000 45.4411
#
#
#
# Elastic Compliance Matrix: (Units=1/GPa)
#
#
# Indices 1 2 3 4 5 6 
#
# 1 0.031921 -0.008576 0.027551 0.000000 0.000000 0.000000
# 2 -0.008576 0.009676 -0.018008 0.000000 0.000000 0.000000
# 3 0.027551 -0.018008 0.137047 0.000000 0.000000 0.000000
# 4 0.000000 0.000000 0.000000 0.047770 0.000000 0.000000
# 5 0.000000 0.000000 0.000000 0.000000 0.064263 0.000000
# 6 0.000000 0.000000 0.000000 0.000000 0.000000 0.022006
#
#
# Mechanical properties :
#
#
# Convention : Reuss Voigt Hill
#
# Bulk Modulus (GPa) = 5.53778 32.10544 18.82161
# Shear Modulus (GPa) = 13.47926 27.79717 20.63822
#
# Velocity S-wave (km/s) = 2.47727 3.55746 3.06532
# Velocity P-wave (km/s) = 3.27165 5.61169 4.59319
#
# Compressibility (1/GPa) = 0.18057763
#
# Stress axis : x y z
#
# Youngs Moduli (GPa) = 31.32738 103.35188 7.29679
#
# Poissons Ratio (x) = 0.88633 -0.20104
# Poissons Ratio (y) = 0.26866 0.13140
# Poissons Ratio (z) = -0.86311 1.86119
#
# Static dielectric constant tensor:
#      x y z
#    x 1.945940 0.000000 0.000000 
#    y 0.000000 1.848300 0.000000 
#    z 0.000000 0.000000 1.753330 
# 
# From -- ./inp_files/4275.got.cif
#   From: 2010.05.17/outbox.cif.g08.bks.cpg/sg18_3_cif.got.tgz:4275.got - 2010.06.03 22:40:56.
