data_PCOD9312726
_publ_section_title
;
Structure prediction by ZEFSAII (Michael W. Deem and Ramdas Pophale) SiO2 
 PCOD9312726
Probable space group: P 21 21 2
;
_chemical_formula_sum "Si O2"
_cell_formula_units_Z 24
_cell_length_a 7.913143
_cell_length_b 12.069746
_cell_length_c 11.152456
_cell_angle_alpha 90.000000
_cell_angle_beta 90.000000
_cell_angle_gamma 90.000000
_cell_volume 1065.166902
_symmetry_space_group_name_H-M "P 21 21 2"
_symmetry_group_IT_number 18
_symmetry_cell_setting 'orthorhombic'
loop_
_space_group_symop_operation_xyz
x,y,z
-x,-y,z
1/2+x,1/2-y,-z
1/2-x,1/2+y,-z
loop_
_atom_site_type_symbol
_atom_site_label
_atom_site_fract_x
_atom_site_fract_y
_atom_site_fract_z
Si Si1 0.766246 0.440936 0.900324
Si Si2 0.116823 0.894559 0.404002
Si Si3 0.789989 0.377755 0.170986
Si Si4 0.331167 0.435142 0.315356
Si Si5 0.902134 0.753436 0.237623
Si Si6 0.122508 0.352480 0.791660
O O1 0.631884 0.363795 0.836183
O O2 0.757302 0.570761 0.873408
O O3 0.938740 0.392037 0.836645
O O4 0.756959 0.428794 0.041933
O O5 0.145038 0.907355 0.545247
O O6 0.299745 0.886442 0.338512
O O7 0.005109 0.790163 0.357673
O O8 0.000000 0.000000 0.370921
O O9 0.797392 0.467799 0.276999
O O10 0.659436 0.277146 0.195125
O O11 0.971745 0.321478 0.162504
O O12 0.500000 0.500000 0.271859
O O13 0.263130 0.320610 0.260844
#
# Coordination Sequence:
#
# PCOD9312726 Si02
#       6
#     4   4   4   4   4   4
#     4  11  23  41  71 100 138 181 236 289 344 431
#     4  10  22  46  66  98 133 178 236 286 347 417
#     4  11  25  43  68 104 142 183 226 289 358 420
#     4  11  26  45  69 101 143 179 233 293 350 418
#     4  11  24  43  71 102 136 189 233 288 362 410
#     4  10  23  43  67  99 137 181 233 285 357 410
#
# _framework density 22.531680000000001
#
# number of rings (size 3 to 8) (size 9 to 14) (size 15 to 20)
#    0.000    1.333    1.667    2.500    7.000    6.667 
#    9.000    0.000    0.000    0.000    0.000    0.000 
#    0.000    0.000    0.000    0.000    0.000    0.000 
#
# Total GULP energy -133841.100108 kJ/mol
# GULP energy per Si atom -5576.712504 kJ/mol
# Density = 2.248040 g / cm^3
# Si number density = 22.531680 Si / 1000 Ang^3
#
#
#
# Elastic Constant Matrix: (Units=GPa)
#
#
# Indices 1 2 3 4 5 6 
#
# 1 65.5163 -13.2795 8.3734 0.0000 0.0000 0.0000
# 2 -13.2795 98.9948 37.2107 0.0000 0.0000 0.0000
# 3 8.3734 37.2107 55.8055 0.0000 0.0000 0.0000
# 4 0.0000 0.0000 0.0000 1.2251 0.0000 0.0000
# 5 0.0000 0.0000 0.0000 0.0000 18.8467 0.0000
# 6 0.0000 0.0000 0.0000 0.0000 0.0000 36.0987
#
#
#
# Elastic Compliance Matrix: (Units=1/GPa)
#
#
# Indices 1 2 3 4 5 6 
#
# 1 0.016817 0.004276 -0.005375 0.000000 0.000000 0.000000
# 2 0.004276 0.014568 -0.010355 0.000000 0.000000 0.000000
# 3 -0.005375 -0.010355 0.025631 0.000000 0.000000 0.000000
# 4 0.000000 0.000000 0.000000 0.816265 0.000000 0.000000
# 5 0.000000 0.000000 0.000000 0.000000 0.053060 0.000000
# 6 0.000000 0.000000 0.000000 0.000000 0.000000 0.027702
#
#
# Mechanical properties :
#
#
# Convention : Reuss Voigt Hill
#
# Bulk Modulus (GPa) = 29.31876 31.65841 30.48859
# Shear Modulus (GPa) = 5.05910 23.76823 14.41366
#
# Velocity S-wave (km/s) = 1.50007 3.25142 2.53199
# Velocity P-wave (km/s) = 4.00509 5.30818 4.70199
#
# Compressibility (1/GPa) = 0.03410785
#
# Stress axis : x y z
#
# Youngs Moduli (GPa) = 59.46361 68.64590 39.01593
#
# Poissons Ratio (x) = -0.29354 0.20970
# Poissons Ratio (y) = -0.25427 0.40402
# Poissons Ratio (z) = 0.31959 0.71084
#
# Static dielectric constant tensor:
#      x y z
#    x 2.011670 0.000000 0.000000 
#    y 0.000000 1.841800 0.000000 
#    z 0.000000 0.000000 1.787710 
# 
# From -- ./inp_files/5507.got.cif
#   From: 2010.05.17/outbox.cif.g08.bks.cpg/sg18_3_cif.got.tgz:5507.got - 2010.06.03 22:40:56.
