data_PCOD9312608
_publ_section_title
;
Structure prediction by ZEFSAII (Michael W. Deem and Ramdas Pophale) SiO2 
 PCOD9312608
Probable space group: P 21 21 2
;
_chemical_formula_sum "Si O2"
_cell_formula_units_Z 32
_cell_length_a 25.305105
_cell_length_b 5.880433
_cell_length_c 9.582251
_cell_angle_alpha 90.000000
_cell_angle_beta 90.000000
_cell_angle_gamma 90.000000
_cell_volume 1425.886616
_symmetry_space_group_name_H-M "P 21 21 2"
_symmetry_group_IT_number 18
_symmetry_cell_setting 'orthorhombic'
loop_
_space_group_symop_operation_xyz
x,y,z
-x,-y,z
1/2+x,1/2-y,-z
1/2-x,1/2+y,-z
loop_
_atom_site_type_symbol
_atom_site_label
_atom_site_fract_x
_atom_site_fract_y
_atom_site_fract_z
Si Si1 0.189591 0.796011 0.995444
Si Si2 0.805820 0.527133 0.505313
Si Si3 0.443002 0.611854 0.407344
Si Si4 0.641823 0.704649 0.280457
Si Si5 0.058502 0.452081 0.823344
Si Si6 0.625879 0.380018 0.653195
Si Si7 0.635163 0.206527 0.952469
Si Si8 0.220786 0.796149 0.281678
O O1 0.164062 0.542708 0.031365
O O2 0.164133 0.050093 0.019508
O O3 0.234017 0.798795 0.117681
O O4 0.191008 0.802926 0.827080
O O5 0.841550 0.338442 0.580777
O O6 0.839379 0.741638 0.459263
O O7 0.761900 0.573999 0.621026
O O8 0.781246 0.443121 0.360136
O O9 0.500000 0.500000 0.377949
O O10 0.391520 0.509983 0.328722
O O11 0.446434 0.855018 0.333589
O O12 0.428184 0.581621 0.569433
O O13 0.596963 0.835719 0.193011
O O14 0.000000 0.500000 0.874225
O O15 0.087825 0.296410 0.936070
O O16 0.617933 0.230197 0.791473
O O17 0.662391 0.593092 0.698658
#
# Coordination Sequence:
#
# PCOD9312608 Si02
#       8
#     4   4   4   4   4   4   4   4
#     4  10  22  42  67  94 134 172 219 274 330 395
#     4  12  22  40  65  98 131 177 225 275 342 410
#     4  12  23  40  64  99 130 169 226 280 344 405
#     4  11  23  40  64  96 132 172 219 278 343 399
#     4  11  22  40  64  95 127 172 222 277 335 410
#     4  11  23  41  64  95 137 174 218 282 344 395
#     4  10  22  41  67  95 129 177 218 269 336 399
#     4  11  23  40  65  98 132 176 226 276 335 411
#
# _framework density 22.442176
#
# number of rings (size 3 to 8) (size 9 to 14) (size 15 to 20)
#    0.000    1.000    7.500    0.000    0.000    0.000 
#    0.000   15.000    0.000    0.000    0.000    0.000 
#    0.000    0.000    0.000    0.000    0.000    0.000 
#
# Total GULP energy -178186.155366 kJ/mol
# GULP energy per Si atom -5568.317355 kJ/mol
# Density = 2.239110 g / cm^3
# Si number density = 22.442176 Si / 1000 Ang^3
#
#
#
# Elastic Constant Matrix: (Units=GPa)
#
#
# Indices 1 2 3 4 5 6 
#
# 1 51.1918 17.5118 28.1040 0.0000 0.0000 0.0000
# 2 17.5118 74.6849 27.9501 0.0000 0.0000 0.0000
# 3 28.1040 27.9501 132.3480 0.0000 0.0000 0.0000
# 4 0.0000 0.0000 0.0000 39.5314 0.0000 0.0000
# 5 0.0000 0.0000 0.0000 0.0000 31.7988 0.0000
# 6 0.0000 0.0000 0.0000 0.0000 0.0000 21.9347
#
#
#
# Elastic Compliance Matrix: (Units=1/GPa)
#
#
# Indices 1 2 3 4 5 6 
#
# 1 0.023108 -0.003889 -0.004086 0.000000 0.000000 0.000000
# 2 -0.003889 0.015193 -0.002383 0.000000 0.000000 0.000000
# 3 -0.004086 -0.002383 0.008927 0.000000 0.000000 0.000000
# 4 0.000000 0.000000 0.000000 0.025296 0.000000 0.000000
# 5 0.000000 0.000000 0.000000 0.000000 0.031448 0.000000
# 6 0.000000 0.000000 0.000000 0.000000 0.000000 0.045590
#
#
# Mechanical properties :
#
#
# Convention : Reuss Voigt Hill
#
# Bulk Modulus (GPa) = 37.71797 45.03961 41.37879
# Shear Modulus (GPa) = 27.91515 30.96355 29.43935
#
# Velocity S-wave (km/s) = 3.53068 3.71847 3.62579
# Velocity P-wave (km/s) = 5.78482 6.20876 6.00054
#
# Compressibility (1/GPa) = 0.02651256
#
# Stress axis : x y z
#
# Youngs Moduli (GPa) = 43.27545 65.81874 112.02466
#
# Poissons Ratio (x) = 0.25599 0.45768
# Poissons Ratio (y) = 0.16831 0.26692
# Poissons Ratio (z) = 0.17680 0.15683
#
# Static dielectric constant tensor:
#      x y z
#    x 1.872370 0.000000 0.000000 
#    y 0.000000 1.902770 0.000000 
#    z 0.000000 0.000000 1.874790 
# 
# From -- ./inp_files/4868.got.cif
#   From: 2010.05.17/outbox.cif.g08.bks.cpg/sg18_3_cif.got.tgz:4868.got - 2010.06.03 22:40:56.
