data_PCOD9312676
_publ_section_title
;
Structure prediction by ZEFSAII (Michael W. Deem and Ramdas Pophale) SiO2 
 PCOD9312676
Probable space group: P 21 21 2
;
_chemical_formula_sum "Si O2"
_cell_formula_units_Z 18
_cell_length_a 8.206628
_cell_length_b 4.937890
_cell_length_c 18.824564
_cell_angle_alpha 90.000000
_cell_angle_beta 90.000000
_cell_angle_gamma 90.000000
_cell_volume 762.835833
_symmetry_space_group_name_H-M "P 21 21 2"
_symmetry_group_IT_number 18
_symmetry_cell_setting 'orthorhombic'
loop_
_space_group_symop_operation_xyz
x,y,z
-x,-y,z
1/2+x,1/2-y,-z
1/2-x,1/2+y,-z
loop_
_atom_site_type_symbol
_atom_site_label
_atom_site_fract_x
_atom_site_fract_y
_atom_site_fract_z
Si Si1 0.643536 0.149508 0.988497
Si Si2 0.500000 0.500000 0.865219
Si Si3 0.817677 0.571771 0.768253
Si Si4 0.179531 0.931936 0.670887
Si Si5 0.672622 0.896629 0.528808
O O1 0.556616 0.262941 0.918353
O O2 0.500000 0.000000 0.031622
O O3 0.722812 0.415420 0.023344
O O4 0.662012 0.543382 0.818804
O O5 0.801598 0.370922 0.699983
O O6 0.000000 0.500000 0.796495
O O7 0.811456 0.876069 0.739436
O O8 0.303718 0.019326 0.610454
O O9 0.000000 0.000000 0.640667
O O10 0.700744 0.581771 0.515275
O O11 0.500000 0.000000 0.502316
#
# Coordination Sequence:
#
# PCOD9312676 Si02
#       5
#     4   2   4   4   4
#     4  12  26  50  75 110 150 196 247 308 374 443
#     4  12  28  46  84 106 152 196 254 300 372 464
#     4  10  25  44  69 106 143 187 241 305 370 438
#     4  10  22  43  67  96 140 184 237 307 369 433
#     4  12  25  41  67 100 140 192 246 305 367 438
#
# _framework density 23.596166
#
# number of rings (size 3 to 8) (size 9 to 14) (size 15 to 20)
#    0.000    0.889    2.222    3.333    6.222    2.667 
#    4.000    0.000    0.000    0.000    0.000    0.000 
#    0.000    0.000    0.000    0.000    0.000    0.000 
#
# Total GULP energy -100633.873207 kJ/mol
# GULP energy per Si atom -5590.770734 kJ/mol
# Density = 2.354246 g / cm^3
# Si number density = 23.596166 Si / 1000 Ang^3
#
#
#
# Elastic Constant Matrix: (Units=GPa)
#
#
# Indices 1 2 3 4 5 6 
#
# 1 138.3637 24.9725 45.2517 0.0000 0.0000 0.0000
# 2 24.9725 111.2592 5.9849 0.0000 0.0000 0.0000
# 3 45.2517 5.9849 67.9521 0.0000 0.0000 0.0000
# 4 0.0000 0.0000 0.0000 18.0555 0.0000 0.0000
# 5 0.0000 0.0000 0.0000 0.0000 25.8746 0.0000
# 6 0.0000 0.0000 0.0000 0.0000 0.0000 47.3177
#
#
#
# Elastic Compliance Matrix: (Units=1/GPa)
#
#
# Indices 1 2 3 4 5 6 
#
# 1 0.009592 -0.001818 -0.006228 0.000000 0.000000 0.000000
# 2 -0.001818 0.009375 0.000385 0.000000 0.000000 0.000000
# 3 -0.006228 0.000385 0.018830 0.000000 0.000000 0.000000
# 4 0.000000 0.000000 0.000000 0.055385 0.000000 0.000000
# 5 0.000000 0.000000 0.000000 0.000000 0.038648 0.000000
# 6 0.000000 0.000000 0.000000 0.000000 0.000000 0.021134
#
#
# Mechanical properties :
#
#
# Convention : Reuss Voigt Hill
#
# Bulk Modulus (GPa) = 44.49254 52.22145 48.35700
# Shear Modulus (GPa) = 28.44512 34.34061 31.39286
#
# Velocity S-wave (km/s) = 3.47579 3.81904 3.65145
# Velocity P-wave (km/s) = 5.91650 6.45183 6.18996
#
# Compressibility (1/GPa) = 0.02247568
#
# Stress axis : x y z
#
# Youngs Moduli (GPa) = 104.25133 106.66244 53.10793
#
# Poissons Ratio (x) = 0.19391 0.33074
# Poissons Ratio (y) = 0.18953 -0.02044
# Poissons Ratio (z) = 0.64924 -0.04106
#
# Static dielectric constant tensor:
#      x y z
#    x 1.961880 0.000000 0.000000 
#    y 0.000000 1.851670 0.000000 
#    z 0.000000 0.000000 1.872370 
# 
# From -- ./inp_files/7258.got.cif
#   From: 2010.05.17/outbox.cif.g08.bks.cpg/sg18_4_cif.got.tgz:7258.got - 2010.06.03 22:40:56.
