data_PCOD9312716
_publ_section_title
;
Structure prediction by ZEFSAII (Michael W. Deem and Ramdas Pophale) SiO2 
 PCOD9312716
Probable space group: P 21 21 2
;
_chemical_formula_sum "Si O2"
_cell_formula_units_Z 20
_cell_length_a 8.963833
_cell_length_b 17.194458
_cell_length_c 5.114877
_cell_angle_alpha 90.000000
_cell_angle_beta 90.000000
_cell_angle_gamma 90.000000
_cell_volume 788.347041
_symmetry_space_group_name_H-M "P 21 21 2"
_symmetry_group_IT_number 18
_symmetry_cell_setting 'orthorhombic'
loop_
_space_group_symop_operation_xyz
x,y,z
-x,-y,z
1/2+x,1/2-y,-z
1/2-x,1/2+y,-z
loop_
_atom_site_type_symbol
_atom_site_label
_atom_site_fract_x
_atom_site_fract_y
_atom_site_fract_z
Si Si1 0.516353 0.144828 0.695231
Si Si2 0.500000 0.000000 0.014147
Si Si3 0.000000 0.000000 0.402084
Si Si4 0.321297 0.353819 0.558407
Si Si5 0.115425 0.760095 0.933385
Si Si6 0.733105 0.890847 0.296306
O O1 0.645926 0.160140 0.490141
O O2 0.509119 0.210681 0.914187
O O3 0.352456 0.132051 0.566727
O O4 0.567061 0.065865 0.832325
O O5 0.621747 0.955268 0.180572
O O6 0.873353 0.058589 0.511522
O O7 0.107061 0.068125 0.288507
O O8 0.344971 0.326068 0.855330
O O9 0.408770 0.300010 0.347469
O O10 0.228146 0.688499 0.868568
#
# Coordination Sequence:
#
# PCOD9312716 Si02
#       6
#     4   2   2   4   4   4
#     4  11  25  49  79 111 154 212 271 327 403 493
#     4  10  22  44  76 106 146 198 266 314 402 468
#     4  12  30  50  78 122 174 202 276 342 428 464
#     4  12  29  50  80 119 158 213 264 342 404 491
#     4  11  28  49  82 114 156 208 275 327 404 483
#     4  11  25  50  76 114 156 210 263 337 396 497
#
# _framework density 25.369536
#
# number of rings (size 3 to 8) (size 9 to 14) (size 15 to 20)
#    0.000    0.800    2.000    3.000   11.200    2.400 
#    3.600    0.000    0.000    0.000    0.000    0.000 
#    0.000    0.000    0.000    0.000    0.000    0.000 
#
# Total GULP energy -111682.534980 kJ/mol
# GULP energy per Si atom -5584.126749 kJ/mol
# Density = 2.531179 g / cm^3
# Si number density = 25.369536 Si / 1000 Ang^3
#
#
#
# Elastic Constant Matrix: (Units=GPa)
#
#
# Indices 1 2 3 4 5 6 
#
# 1 109.4912 40.8723 21.5064 0.0000 0.0000 0.0000
# 2 40.8723 124.8423 31.3189 0.0000 0.0000 0.0000
# 3 21.5064 31.3189 109.0094 0.0000 0.0000 0.0000
# 4 0.0000 0.0000 0.0000 43.6308 0.0000 0.0000
# 5 0.0000 0.0000 0.0000 0.0000 16.8380 0.0000
# 6 0.0000 0.0000 0.0000 0.0000 0.0000 63.9614
#
#
#
# Elastic Compliance Matrix: (Units=1/GPa)
#
#
# Indices 1 2 3 4 5 6 
#
# 1 0.010542 -0.003157 -0.001173 0.000000 0.000000 0.000000
# 2 -0.003157 0.009578 -0.002129 0.000000 0.000000 0.000000
# 3 -0.001173 -0.002129 0.010017 0.000000 0.000000 0.000000
# 4 0.000000 0.000000 0.000000 0.022920 0.000000 0.000000
# 5 0.000000 0.000000 0.000000 0.000000 0.059390 0.000000
# 6 0.000000 0.000000 0.000000 0.000000 0.000000 0.015634
#
#
# Mechanical properties :
#
#
# Convention : Reuss Voigt Hill
#
# Bulk Modulus (GPa) = 58.07613 58.97090 58.52351
# Shear Modulus (GPa) = 34.07450 41.52905 37.80177
#
# Velocity S-wave (km/s) = 3.66885 4.05033 3.86430
# Velocity P-wave (km/s) = 6.39445 6.72077 6.55964
#
# Compressibility (1/GPa) = 0.01721878
#
# Stress axis : x y z
#
# Youngs Moduli (GPa) = 94.85807 104.40804 99.83499
#
# Poissons Ratio (x) = 0.32963 0.11708
# Poissons Ratio (y) = 0.29948 0.21254
# Poissons Ratio (z) = 0.11125 0.22227
#
# Static dielectric constant tensor:
#      x y z
#    x 2.138290 0.000000 0.000000 
#    y 0.000000 1.983670 0.000000 
#    z 0.000000 0.000000 2.008520 
# 
# From -- ./inp_files/559.got.cif
#   From: 2010.05.17/outbox.cif.g08.bks.cpg/sg18_1_cif.got.tgz:559.got - 2010.06.03 22:40:56.
