data_PCOD9312956
_publ_section_title
;
Structure prediction by ZEFSAII (Michael W. Deem and Ramdas Pophale) SiO2 
 PCOD9312956
Probable space group: P 21 21 2
;
_chemical_formula_sum "Si O2"
_cell_formula_units_Z 26
_cell_length_a 11.455815
_cell_length_b 12.204215
_cell_length_c 8.558604
_cell_angle_alpha 90.000000
_cell_angle_beta 90.000000
_cell_angle_gamma 90.000000
_cell_volume 1196.571829
_symmetry_space_group_name_H-M "P 21 21 2"
_symmetry_group_IT_number 18
_symmetry_cell_setting 'orthorhombic'
loop_
_space_group_symop_operation_xyz
x,y,z
-x,-y,z
1/2+x,1/2-y,-z
1/2-x,1/2+y,-z
loop_
_atom_site_type_symbol
_atom_site_label
_atom_site_fract_x
_atom_site_fract_y
_atom_site_fract_z
Si Si1 0.130291 0.000242 0.572238
Si Si2 0.617620 0.675523 0.691487
Si Si3 0.644207 0.182830 0.110984
Si Si4 0.310628 0.151614 0.445851
Si Si5 0.500000 0.000000 0.291015
Si Si6 0.269187 0.333616 0.195533
Si Si7 0.000493 0.869032 0.001298
O O1 0.116615 0.934149 0.410811
O O2 0.215586 0.932381 0.683819
O O3 0.193519 0.112440 0.532646
O O4 0.000000 0.000000 0.641955
O O5 0.739556 0.678677 0.785190
O O6 0.616325 0.772685 0.565230
O O7 0.517194 0.673300 0.821387
O O8 0.551248 0.100894 0.189101
O O9 0.670954 0.146606 0.933234
O O10 0.604055 0.308536 0.087376
O O11 0.393058 0.051852 0.390228
O O12 0.269645 0.223687 0.298103
O O13 0.386704 0.330615 0.093781
O O14 0.000000 0.000000 0.006526
#
# Coordination Sequence:
#
# PCOD9312956 Si02
#       7
#     4   4   4   4   2   4   4
#     4  11  24  43  70 101 136 183 235 286 343 414
#     4  10  25  43  66 104 133 181 237 278 357 412
#     4  11  25  45  71  98 146 180 231 291 350 416
#     4  11  25  45  71  98 146 180 231 291 350 416
#     4  12  24  48  74 104 144 180 226 300 352 416
#     4  10  25  43  66 104 133 181 237 278 357 412
#     4  11  24  43  70 101 136 183 235 286 343 414
#
# _framework density 21.728743000000001
#
# number of rings (size 3 to 8) (size 9 to 14) (size 15 to 20)
#    0.000    1.231    3.077    0.923    8.615    2.462 
#    0.000    0.000    0.000    0.000    0.000    0.000 
#    0.000    0.000    0.000    0.000    0.000    0.000 
#
# Total GULP energy -145312.542187 kJ/mol
# GULP energy per Si atom -5588.943930 kJ/mol
# Density = 2.167929 g / cm^3
# Si number density = 21.728743 Si / 1000 Ang^3
#
#
#
# Elastic Constant Matrix: (Units=GPa)
#
#
# Indices 1 2 3 4 5 6 
#
# 1 54.5832 20.5655 11.7062 0.0000 0.0000 0.0000
# 2 20.5655 84.2078 23.5877 0.0000 0.0000 0.0000
# 3 11.7062 23.5877 101.7655 0.0000 0.0000 0.0000
# 4 0.0000 0.0000 0.0000 10.6862 0.0000 0.0000
# 5 0.0000 0.0000 0.0000 0.0000 -463.0775 0.0000
# 6 0.0000 0.0000 0.0000 0.0000 0.0000 34.1810
#
#
#
# Elastic Compliance Matrix: (Units=1/GPa)
#
#
# Indices 1 2 3 4 5 6 
#
# 1 0.020330 -0.004609 -0.001270 0.000000 0.000000 0.000000
# 2 -0.004609 0.013745 -0.002656 0.000000 0.000000 0.000000
# 3 -0.001270 -0.002656 0.010588 0.000000 0.000000 0.000000
# 4 0.000000 0.000000 0.000000 0.093578 0.000000 0.000000
# 5 0.000000 0.000000 0.000000 0.000000 -0.002159 0.000000
# 6 0.000000 0.000000 0.000000 0.000000 0.000000 0.029256
#
#
# Mechanical properties :
#
#
# Convention : Reuss Voigt Hill
#
# Bulk Modulus (GPa) = 36.24149 39.14170 37.69159
# Shear Modulus (GPa) = 26.09530 -71.32890 -22.61680
#
# Velocity S-wave (km/s) = 3.46924 -5.73570 -3.22975
# Velocity P-wave (km/s) = 5.72388 5.08050 1.86432
#
# Compressibility (1/GPa) = 0.02759269
#
# Stress axis : x y z
#
# Youngs Moduli (GPa) = 49.18912 72.75403 94.44506
#
# Poissons Ratio (x) = 0.33534 0.11996
# Poissons Ratio (y) = 0.22672 0.25081
# Poissons Ratio (z) = 0.06248 0.19321
#
# Static dielectric constant tensor:
#      x y z
#    x 1.820150 0.000000 0.000000 
#    y 0.000000 1.998190 0.000000 
#    z 0.000000 0.000000 1.785930 
# 
# From -- ./inp_files/3783.got.cif
#   From: 2010.05.17/outbox.cif.g08.bks.cpg/sg18_2_cif.got.tgz:3783.got - 2010.06.03 22:40:56.
