data_PCOD9312321
_publ_section_title
;
Structure prediction by ZEFSAII (Michael W. Deem and Ramdas Pophale) SiO2 
 PCOD9312321
Probable space group: P 21 21 2
;
_chemical_formula_sum "Si O2"
_cell_formula_units_Z 30
_cell_length_a 11.054029
_cell_length_b 8.812012
_cell_length_c 13.484721
_cell_angle_alpha 90.000000
_cell_angle_beta 90.000000
_cell_angle_gamma 90.000000
_cell_volume 1313.522888
_symmetry_space_group_name_H-M "P 21 21 2"
_symmetry_group_IT_number 18
_symmetry_cell_setting 'orthorhombic'
loop_
_space_group_symop_operation_xyz
x,y,z
-x,-y,z
1/2+x,1/2-y,-z
1/2-x,1/2+y,-z
loop_
_atom_site_type_symbol
_atom_site_label
_atom_site_fract_x
_atom_site_fract_y
_atom_site_fract_z
Si Si1 0.137628 0.043468 0.194440
Si Si2 0.891949 0.126354 0.922665
Si Si3 0.500000 0.000000 0.670890
Si Si4 0.204601 0.359951 0.469243
Si Si5 0.867729 0.047691 0.696654
Si Si6 0.781840 0.394845 0.995388
Si Si7 0.134791 0.062966 0.411071
Si Si8 0.306429 0.198593 0.778427
O O1 0.193781 0.879588 0.222912
O O2 0.200045 0.128220 0.103436
O O3 0.143356 0.128236 0.299427
O O4 0.000000 0.000000 0.168424
O O5 0.873731 0.126319 0.804624
O O6 0.903654 0.300739 0.961282
O O7 0.000000 0.000000 0.940262
O O8 0.770482 0.065714 0.979690
O O9 0.601251 0.058603 0.594641
O O10 0.434501 0.125726 0.741242
O O11 0.313854 0.351379 0.390367
O O12 0.155459 0.194456 0.490151
O O13 0.261329 0.443161 0.562781
O O14 0.789588 0.895596 0.714757
O O15 0.000000 0.000000 0.668085
O O16 0.773377 0.338267 0.108073
O O17 0.000000 0.000000 0.417539
#
# Coordination Sequence:
#
# PCOD9312321 Si02
#       8
#     4   4   2   4   4   4   4   4
#     4  11  23  42  68  97 142 175 233 283 337 402
#     4  10  21  39  59  88 127 171 218 265 335 396
#     4  10  22  44  70  98 136 180 236 282 348 410
#     4  11  24  43  71 103 132 178 227 287 345 408
#     4   9  20  41  66  88 132 174 220 272 341 406
#     4  11  21  38  62  96 129 175 217 274 339 398
#     4  11  26  43  71 103 139 181 232 283 348 407
#     4  10  22  39  66 101 130 181 226 286 335 415
#
# _framework density 22.839343
#
# number of rings (size 3 to 8) (size 9 to 14) (size 15 to 20)
#    0.000    1.600    1.333    3.200    5.600    2.667 
#    0.000    0.000    0.000    2.400    0.000    0.000 
#    0.000    0.000    0.000    0.000    0.000    0.000 
#
# Total GULP energy -167013.306007 kJ/mol
# GULP energy per Si atom -5567.110200 kJ/mol
# Density = 2.278736 g / cm^3
# Si number density = 22.839343 Si / 1000 Ang^3
#
#
#
# Elastic Constant Matrix: (Units=GPa)
#
#
# Indices 1 2 3 4 5 6 
#
# 1 95.0383 28.1692 40.0955 0.0000 0.0000 0.0000
# 2 28.1692 42.6972 23.9104 0.0000 0.0000 0.0000
# 3 40.0955 23.9104 146.3425 0.0000 0.0000 0.0000
# 4 0.0000 0.0000 0.0000 40.9725 0.0000 0.0000
# 5 0.0000 0.0000 0.0000 0.0000 12.2716 0.0000
# 6 0.0000 0.0000 0.0000 0.0000 0.0000 30.1700
#
#
#
# Elastic Compliance Matrix: (Units=1/GPa)
#
#
# Indices 1 2 3 4 5 6 
#
# 1 0.013888 -0.007740 -0.002541 0.000000 0.000000 0.000000
# 2 -0.007740 0.030093 -0.002796 0.000000 0.000000 0.000000
# 3 -0.002541 -0.002796 0.007986 0.000000 0.000000 0.000000
# 4 0.000000 0.000000 0.000000 0.024407 0.000000 0.000000
# 5 0.000000 0.000000 0.000000 0.000000 0.081489 0.000000
# 6 0.000000 0.000000 0.000000 0.000000 0.000000 0.033146
#
#
# Mechanical properties :
#
#
# Convention : Reuss Voigt Hill
#
# Bulk Modulus (GPa) = 38.73856 52.04755 45.39306
# Shear Modulus (GPa) = 22.14687 29.47636 25.81162
#
# Velocity S-wave (km/s) = 3.11735 3.59638 3.36540
# Velocity P-wave (km/s) = 5.47314 6.33114 5.91771
#
# Compressibility (1/GPa) = 0.02581408
#
# Stress axis : x y z
#
# Youngs Moduli (GPa) = 72.00490 33.23043 125.21596
#
# Poissons Ratio (x) = 0.25720 0.31811
# Poissons Ratio (y) = 0.55730 0.35013
# Poissons Ratio (z) = 0.18293 0.09292
#
# Static dielectric constant tensor:
#      x y z
#    x 1.928300 0.000000 0.000000 
#    y 0.000000 1.945250 0.000000 
#    z 0.000000 0.000000 1.822610 
# 
# From -- ./inp_files/6885.got.cif
#   From: 2010.05.17/outbox.cif.g08.bks.cpg/sg18_4_cif.got.tgz:6885.got - 2010.06.03 22:40:56.
