data_PCOD9312583
_publ_section_title
;
Structure prediction by ZEFSAII (Michael W. Deem and Ramdas Pophale) SiO2 
 PCOD9312583
Probable space group: P 21 21 2
;
_chemical_formula_sum "Si O2"
_cell_formula_units_Z 18
_cell_length_a 13.562323
_cell_length_b 9.461017
_cell_length_c 6.240241
_cell_angle_alpha 90.000000
_cell_angle_beta 90.000000
_cell_angle_gamma 90.000000
_cell_volume 800.706343
_symmetry_space_group_name_H-M "P 21 21 2"
_symmetry_group_IT_number 18
_symmetry_cell_setting 'orthorhombic'
loop_
_space_group_symop_operation_xyz
x,y,z
-x,-y,z
1/2+x,1/2-y,-z
1/2-x,1/2+y,-z
loop_
_atom_site_type_symbol
_atom_site_label
_atom_site_fract_x
_atom_site_fract_y
_atom_site_fract_z
Si Si1 0.096874 0.210442 0.872769
Si Si2 0.962256 0.260395 0.486390
Si Si3 0.000000 0.000000 0.208025
Si Si4 0.243952 0.588400 0.456570
Si Si5 0.168163 0.311330 0.271522
O O1 0.179253 0.152551 0.713414
O O2 0.000286 0.248020 0.731755
O O3 0.149483 0.329919 0.018660
O O4 0.063316 0.094235 0.045131
O O5 0.867013 0.353098 0.445650
O O6 0.059449 0.321484 0.371906
O O7 0.947013 0.108707 0.370692
O O8 0.235132 0.424459 0.395247
O O9 0.284923 0.657630 0.675313
#
# Coordination Sequence:
#
# PCOD9312583 Si02
#       5
#     4   4   2   4   4
#     4  10  24  41  69 105 138 184 236 276 364 418
#     4  10  23  43  67  97 144 182 228 294 349 412
#     4  10  22  40  70 100 140 182 228 290 352 426
#     4  11  25  42  72 100 144 182 232 296 340 417
#     4  10  25  43  65 105 137 184 232 280 355 416
#
# _framework density 22.480150999999999
#
# number of rings (size 3 to 8) (size 9 to 14) (size 15 to 20)
#    0.000    1.778    0.000    1.333   15.556    3.556 
#    0.000    8.889    0.000    0.000    0.000    0.000 
#    0.000    0.000    0.000    0.000    0.000    0.000 
#
# Total GULP energy -100401.828834 kJ/mol
# GULP energy per Si atom -5577.879380 kJ/mol
# Density = 2.242899 g / cm^3
# Si number density = 22.480151 Si / 1000 Ang^3
#
#
#
# Elastic Constant Matrix: (Units=GPa)
#
#
# Indices 1 2 3 4 5 6 
#
# 1 72.6700 1.3652 4.6417 0.0000 0.0000 0.0000
# 2 1.3652 64.6747 21.4140 0.0000 0.0000 0.0000
# 3 4.6417 21.4140 81.7254 0.0000 0.0000 0.0000
# 4 0.0000 0.0000 0.0000 12.9558 0.0000 0.0000
# 5 0.0000 0.0000 0.0000 0.0000 24.5968 0.0000
# 6 0.0000 0.0000 0.0000 0.0000 0.0000 28.7191
#
#
#
# Elastic Compliance Matrix: (Units=1/GPa)
#
#
# Indices 1 2 3 4 5 6 
#
# 1 0.013811 -0.000035 -0.000775 0.000000 0.000000 0.000000
# 2 -0.000035 0.016931 -0.004434 0.000000 0.000000 0.000000
# 3 -0.000775 -0.004434 0.013442 0.000000 0.000000 0.000000
# 4 0.000000 0.000000 0.000000 0.077185 0.000000 0.000000
# 5 0.000000 0.000000 0.000000 0.000000 0.040656 0.000000
# 6 0.000000 0.000000 0.000000 0.000000 0.000000 0.034820
#
#
# Mechanical properties :
#
#
# Convention : Reuss Voigt Hill
#
# Bulk Modulus (GPa) = 29.67791 30.43465 30.05628
# Shear Modulus (GPa) = 22.87642 26.03098 24.45370
#
# Velocity S-wave (km/s) = 3.19349 3.40656 3.30175
# Velocity P-wave (km/s) = 5.17961 5.38895 5.28531
#
# Compressibility (1/GPa) = 0.03369509
#
# Stress axis : x y z
#
# Youngs Moduli (GPa) = 72.40603 59.06343 74.39354
#
# Poissons Ratio (x) = 0.00206 0.05768
# Poissons Ratio (y) = 0.00252 0.32989
# Poissons Ratio (z) = 0.05614 0.26191
#
# Static dielectric constant tensor:
#      x y z
#    x 1.827800 0.000000 0.000000 
#    y 0.000000 1.929470 0.000000 
#    z 0.000000 0.000000 1.872810 
# 
# From -- ./inp_files/924.got.cif
#   From: 2010.05.17/outbox.cif.g08.bks.cpg/sg18_1_cif.got.tgz:924.got - 2010.06.03 22:40:56.
