data_PCOD9312528
_publ_section_title
;
Structure prediction by ZEFSAII (Michael W. Deem and Ramdas Pophale) SiO2 
 PCOD9312528
Probable space group: P 21 21 2
;
_chemical_formula_sum "Si O2"
_cell_formula_units_Z 18
_cell_length_a 9.626915
_cell_length_b 11.748475
_cell_length_c 6.972398
_cell_angle_alpha 90.000000
_cell_angle_beta 90.000000
_cell_angle_gamma 90.000000
_cell_volume 788.589162
_symmetry_space_group_name_H-M "P 21 21 2"
_symmetry_group_IT_number 18
_symmetry_cell_setting 'orthorhombic'
loop_
_space_group_symop_operation_xyz
x,y,z
-x,-y,z
1/2+x,1/2-y,-z
1/2-x,1/2+y,-z
loop_
_atom_site_type_symbol
_atom_site_label
_atom_site_fract_x
_atom_site_fract_y
_atom_site_fract_z
Si Si1 0.944887 0.879609 0.066266
Si Si2 0.676226 0.789812 0.866297
Si Si3 0.016453 0.623076 0.460511
Si Si4 0.290891 0.320254 0.472175
Si Si5 0.000000 0.000000 0.444304
O O1 0.058622 0.782781 0.028398
O O2 0.798755 0.840208 0.988323
O O3 0.000000 0.000000 0.985534
O O4 0.938311 0.907022 0.295239
O O5 0.603728 0.886208 0.736384
O O6 0.730439 0.701412 0.702222
O O7 0.107533 0.714926 0.578482
O O8 0.000000 0.500000 0.553858
O O9 0.864797 0.668608 0.400640
O O10 0.379296 0.435171 0.444820
#
# Coordination Sequence:
#
# PCOD9312528 Si02
#       5
#     4   4   4   4   2
#     4   9  18  40  61  85 119 153 193 245 298 346
#     4   9  21  39  56  91 114 153 201 237 293 351
#     4  10  22  39  60  86 124 151 203 242 295 350
#     4   9  21  41  56  90 115 159 199 243 291 356
#     4   8  18  38  66  78 122 152 196 240 304 340
#
# _framework density 22.825572000000001
#
# number of rings (size 3 to 8) (size 9 to 14) (size 15 to 20)
#    2.000    0.889    0.000    0.000    3.111    1.778 
#   12.000    0.000    0.000    0.000    0.000    0.000 
#    0.000    0.000    0.000    0.000    0.000    0.000 
#
# Total GULP energy -100319.098611 kJ/mol
# GULP energy per Si atom -5573.283256 kJ/mol
# Density = 2.277362 g / cm^3
# Si number density = 22.825572 Si / 1000 Ang^3
#
#
#
# Elastic Constant Matrix: (Units=GPa)
#
#
# Indices 1 2 3 4 5 6 
#
# 1 143.8063 60.9077 15.2360 0.0000 0.0000 0.0000
# 2 60.9077 112.3158 2.9117 0.0000 0.0000 0.0000
# 3 15.2360 2.9117 33.9791 0.0000 0.0000 0.0000
# 4 0.0000 0.0000 0.0000 4.4829 0.0000 0.0000
# 5 0.0000 0.0000 0.0000 0.0000 24.8719 0.0000
# 6 0.0000 0.0000 0.0000 0.0000 0.0000 43.8399
#
#
#
# Elastic Compliance Matrix: (Units=1/GPa)
#
#
# Indices 1 2 3 4 5 6 
#
# 1 0.009499 -0.005052 -0.003826 0.000000 0.000000 0.000000
# 2 -0.005052 0.011610 0.001270 0.000000 0.000000 0.000000
# 3 -0.003826 0.001270 0.031037 0.000000 0.000000 0.000000
# 4 0.000000 0.000000 0.000000 0.223071 0.000000 0.000000
# 5 0.000000 0.000000 0.000000 0.000000 0.040206 0.000000
# 6 0.000000 0.000000 0.000000 0.000000 0.000000 0.022810
#
#
# Mechanical properties :
#
#
# Convention : Reuss Voigt Hill
#
# Bulk Modulus (GPa) = 27.07834 49.80133 38.43983
# Shear Modulus (GPa) = 13.67023 28.70865 21.18944
#
# Velocity S-wave (km/s) = 2.44990 3.55031 3.05014
# Velocity P-wave (km/s) = 4.46000 6.21867 5.41126
#
# Compressibility (1/GPa) = 0.03692989
#
# Stress axis : x y z
#
# Youngs Moduli (GPa) = 105.27539 86.13147 32.21997
#
# Poissons Ratio (x) = 0.43513 0.12328
# Poissons Ratio (y) = 0.53185 -0.04093
# Poissons Ratio (z) = 0.40282 -0.10942
#
# Static dielectric constant tensor:
#      x y z
#    x 1.891810 0.000000 0.000000 
#    y 0.000000 1.904290 0.000000 
#    z 0.000000 0.000000 1.906720 
# 
# From -- ./inp_files/2889.got.cif
#   From: 2010.05.17/outbox.cif.g08.bks.cpg/sg18_2_cif.got.tgz:2889.got - 2010.06.03 22:40:56.
