data_PCOD9312552
_publ_section_title
;
Structure prediction by ZEFSAII (Michael W. Deem and Ramdas Pophale) SiO2 
 PCOD9312552
Probable space group: P 21 21 2
;
_chemical_formula_sum "Si O2"
_cell_formula_units_Z 32
_cell_length_a 14.682847
_cell_length_b 9.922714
_cell_length_c 11.368903
_cell_angle_alpha 90.000000
_cell_angle_beta 90.000000
_cell_angle_gamma 90.000000
_cell_volume 1656.377446
_symmetry_space_group_name_H-M "P 21 21 2"
_symmetry_group_IT_number 18
_symmetry_cell_setting 'orthorhombic'
loop_
_space_group_symop_operation_xyz
x,y,z
-x,-y,z
1/2+x,1/2-y,-z
1/2-x,1/2+y,-z
loop_
_atom_site_type_symbol
_atom_site_label
_atom_site_fract_x
_atom_site_fract_y
_atom_site_fract_z
Si Si1 0.396602 0.026367 0.517410
Si Si2 0.588830 0.905403 0.768609
Si Si3 0.392043 0.517722 0.285033
Si Si4 0.357989 0.731905 0.482037
Si Si5 0.250529 0.999528 0.925109
Si Si6 0.030750 0.155005 0.287997
Si Si7 0.712646 0.305705 0.865092
Si Si8 0.678278 0.763437 0.366790
O O1 0.357943 0.052452 0.648109
O O2 0.398082 0.145064 0.424065
O O3 0.500000 0.000000 0.549011
O O4 0.357300 0.891685 0.462050
O O5 0.660925 0.926017 0.871407
O O6 0.550462 0.755997 0.747009
O O7 0.500000 0.000000 0.790207
O O8 0.500000 0.500000 0.263457
O O9 0.375007 0.647692 0.365615
O O10 0.333271 0.519563 0.165767
O O11 0.354161 0.389476 0.358346
O O12 0.432695 0.693583 0.581767
O O13 0.261631 0.706062 0.544937
O O14 0.274853 0.840176 0.927449
O O15 0.225638 0.070957 0.046613
O O16 0.115099 0.184219 0.200088
O O17 0.000000 0.000000 0.284583
O O18 0.787626 0.306663 0.761370
#
# Coordination Sequence:
#
# PCOD9312552 Si02
#       8
#     4   4   4   4   4   4   4   4
#     4  11  20  35  61  89 123 159 201 243 309 388
#     4  11  20  41  66  91 124 166 207 267 325 378
#     4  11  24  41  61  92 134 169 205 263 329 380
#     4  11  20  37  60  95 125 160 202 255 312 385
#     4  11  24  45  65  90 125 172 219 269 324 387
#     4  11  23  38  64  97 125 157 212 268 320 382
#     4  10  24  44  63  89 126 163 221 269 318 385
#     4  10  22  40  60  86 126 165 202 260 315 375
#
# _framework density 19.319268000000001
#
# number of rings (size 3 to 8) (size 9 to 14) (size 15 to 20)
#    0.000    1.250    3.750    4.125    3.500    1.500 
#    4.500    0.625    0.000    0.000    0.000    0.000 
#    0.000    0.000    0.000    0.000    0.000    0.000 
#
# Total GULP energy -178683.772659 kJ/mol
# GULP energy per Si atom -5583.867896 kJ/mol
# Density = 1.927530 g / cm^3
# Si number density = 19.319268 Si / 1000 Ang^3
#
#
#
# Elastic Constant Matrix: (Units=GPa)
#
#
# Indices 1 2 3 4 5 6 
#
# 1 64.9681 1.2135 6.5184 0.0000 0.0000 0.0000
# 2 1.2135 74.4298 11.8923 0.0000 0.0000 0.0000
# 3 6.5184 11.8923 32.2212 0.0000 0.0000 0.0000
# 4 0.0000 0.0000 0.0000 24.8866 0.0000 0.0000
# 5 0.0000 0.0000 0.0000 0.0000 5.9957 0.0000
# 6 0.0000 0.0000 0.0000 0.0000 0.0000 27.9558
#
#
#
# Elastic Compliance Matrix: (Units=1/GPa)
#
#
# Indices 1 2 3 4 5 6 
#
# 1 0.015716 0.000268 -0.003278 0.000000 0.000000 0.000000
# 2 0.000268 0.014282 -0.005325 0.000000 0.000000 0.000000
# 3 -0.003278 -0.005325 0.033664 0.000000 0.000000 0.000000
# 4 0.000000 0.000000 0.000000 0.040182 0.000000 0.000000
# 5 0.000000 0.000000 0.000000 0.000000 0.166787 0.000000
# 6 0.000000 0.000000 0.000000 0.000000 0.000000 0.035771
#
#
# Mechanical properties :
#
#
# Convention : Reuss Voigt Hill
#
# Bulk Modulus (GPa) = 21.28099 23.42972 22.35536
# Shear Modulus (GPa) = 14.76068 21.90061 18.33064
#
# Velocity S-wave (km/s) = 2.76712 3.37057 3.08365
# Velocity P-wave (km/s) = 4.60962 5.22510 4.92698
#
# Compressibility (1/GPa) = 0.04699029
#
# Stress axis : x y z
#
# Youngs Moduli (GPa) = 63.62912 70.01823 29.70522
#
# Poissons Ratio (x) = -0.01873 0.09738
# Poissons Ratio (y) = -0.01702 0.15819
# Poissons Ratio (z) = 0.20858 0.37287
#
# Static dielectric constant tensor:
#      x y z
#    x 2.123320 0.000000 0.000000 
#    y 0.000000 1.875800 0.000000 
#    z 0.000000 0.000000 1.644440 
# 
# From -- ./inp_files/5689.got.cif
#   From: 2010.05.17/outbox.cif.g08.bks.cpg/sg18_3_cif.got.tgz:5689.got - 2010.06.03 22:40:56.
