data_PCOD9312532
_publ_section_title
;
Structure prediction by ZEFSAII (Michael W. Deem and Ramdas Pophale) SiO2 
 PCOD9312532
Probable space group: P 21 21 2
;
_chemical_formula_sum "Si O2"
_cell_formula_units_Z 18
_cell_length_a 12.407891
_cell_length_b 5.301750
_cell_length_c 12.193506
_cell_angle_alpha 90.000000
_cell_angle_beta 90.000000
_cell_angle_gamma 90.000000
_cell_volume 802.131942
_symmetry_space_group_name_H-M "P 21 21 2"
_symmetry_group_IT_number 18
_symmetry_cell_setting 'orthorhombic'
loop_
_space_group_symop_operation_xyz
x,y,z
-x,-y,z
1/2+x,1/2-y,-z
1/2-x,1/2+y,-z
loop_
_atom_site_type_symbol
_atom_site_label
_atom_site_fract_x
_atom_site_fract_y
_atom_site_fract_z
Si Si1 0.812349 0.676254 0.651204
Si Si2 0.891022 0.393730 0.443453
Si Si3 0.000000 0.000000 0.608616
Si Si4 0.876117 0.414700 0.077047
Si Si5 0.755644 0.907824 0.144264
O O1 0.838667 0.592757 0.526921
O O2 0.698199 0.811859 0.641132
O O3 0.797388 0.456023 0.737921
O O4 0.915294 0.844398 0.680187
O O5 0.000000 0.500000 0.390752
O O6 0.930883 0.175743 0.526519
O O7 0.841131 0.136523 0.120238
O O8 0.000000 0.500000 0.083657
O O9 0.809737 0.635628 0.137417
O O10 0.833430 0.424280 0.951457
#
# Coordination Sequence:
#
# PCOD9312532 Si02
#       5
#     4   4   2   4   4
#     4  11  22  41  65  95 132 170 223 271 326 406
#     4  10  22  39  62  90 131 170 215 267 326 384
#     4  10  22  40  60  92 122 176 208 270 320 386
#     4  10  22  46  65  97 132 172 217 283 333 401
#     4  10  24  41  70  98 130 171 225 272 337 391
#
# _framework density 22.440197999999999
#
# number of rings (size 3 to 8) (size 9 to 14) (size 15 to 20)
#    0.000    1.778    2.222    0.667    3.111    3.556 
#   12.000    0.000    0.000    0.000    0.000    0.000 
#    0.000    0.000    0.000    0.000    0.000    0.000 
#
# Total GULP energy -100638.253436 kJ/mol
# GULP energy per Si atom -5591.014080 kJ/mol
# Density = 2.238912 g / cm^3
# Si number density = 22.440198 Si / 1000 Ang^3
#
#
#
# Elastic Constant Matrix: (Units=GPa)
#
#
# Indices 1 2 3 4 5 6 
#
# 1 104.3028 12.2734 26.2379 0.0000 0.0000 0.0000
# 2 12.2734 67.1754 -1.3638 0.0000 0.0000 0.0000
# 3 26.2379 -1.3638 60.7043 0.0000 0.0000 0.0000
# 4 0.0000 0.0000 0.0000 86.0024 0.0000 0.0000
# 5 0.0000 0.0000 0.0000 0.0000 -2.0163 0.0000
# 6 0.0000 0.0000 0.0000 0.0000 0.0000 27.3555
#
#
#
# Elastic Compliance Matrix: (Units=1/GPa)
#
#
# Indices 1 2 3 4 5 6 
#
# 1 0.011050 -0.002117 -0.004824 0.000000 0.000000 0.000000
# 2 -0.002117 0.015299 0.001259 0.000000 0.000000 0.000000
# 3 -0.004824 0.001259 0.018586 0.000000 0.000000 0.000000
# 4 0.000000 0.000000 0.000000 0.011628 0.000000 0.000000
# 5 0.000000 0.000000 0.000000 0.000000 -0.495956 0.000000
# 6 0.000000 0.000000 0.000000 0.000000 0.000000 0.036556
#
#
# Mechanical properties :
#
#
# Convention : Reuss Voigt Hill
#
# Bulk Modulus (GPa) = 29.78713 34.05305 31.92009
# Shear Modulus (GPa) = -13.14810 35.27066 11.06128
#
# Velocity S-wave (km/s) = -2.42320 3.96885 2.22259
# Velocity P-wave (km/s) = 2.33958 6.01750 4.56530
#
# Compressibility (1/GPa) = 0.03357154
#
# Stress axis : x y z
#
# Youngs Moduli (GPa) = 90.49794 65.36491 53.80262
#
# Poissons Ratio (x) = 0.13837 0.25952
# Poissons Ratio (y) = 0.19157 -0.06772
# Poissons Ratio (z) = 0.43653 -0.08227
#
# Static dielectric constant tensor:
#      x y z
#    x 1.541960 0.000000 0.000000 
#    y 0.000000 1.888570 0.000000 
#    z 0.000000 0.000000 1.772190 
# 
# From -- ./inp_files/4982.got.cif
#   From: 2010.05.17/outbox.cif.g08.bks.cpg/sg18_3_cif.got.tgz:4982.got - 2010.06.03 22:40:56.
