data_PCOD9312270
_publ_section_title
;
Structure prediction by ZEFSAII (Michael W. Deem and Ramdas Pophale) SiO2 
 PCOD9312270
Probable space group: P 21 21 2
;
_chemical_formula_sum "Si O2"
_cell_formula_units_Z 24
_cell_length_a 8.057376
_cell_length_b 14.852766
_cell_length_c 8.795119
_cell_angle_alpha 90.000000
_cell_angle_beta 90.000000
_cell_angle_gamma 90.000000
_cell_volume 1052.549888
_symmetry_space_group_name_H-M "P 21 21 2"
_symmetry_group_IT_number 18
_symmetry_cell_setting 'orthorhombic'
loop_
_space_group_symop_operation_xyz
x,y,z
-x,-y,z
1/2+x,1/2-y,-z
1/2-x,1/2+y,-z
loop_
_atom_site_type_symbol
_atom_site_label
_atom_site_fract_x
_atom_site_fract_y
_atom_site_fract_z
Si Si1 0.494651 0.287768 0.380104
Si Si2 0.315559 0.962436 0.937653
Si Si3 0.813380 0.041108 0.594936
Si Si4 0.298200 0.126022 0.450464
Si Si5 0.870675 0.211093 0.966884
Si Si6 0.176582 0.124585 0.106524
O O1 0.350598 0.355242 0.443300
O O2 0.460592 0.187853 0.442038
O O3 0.670276 0.327254 0.431649
O O4 0.461130 0.292910 0.198763
O O5 0.258300 0.970340 0.763461
O O6 0.500000 0.000000 0.959316
O O7 0.285240 0.857455 0.971792
O O8 0.196930 0.025224 0.040035
O O9 0.698142 0.978954 0.491341
O O10 0.000000 0.000000 0.590722
O O11 0.222403 0.130235 0.282146
O O12 0.804423 0.311287 0.985412
O O13 0.999564 0.170312 0.084147
#
# Coordination Sequence:
#
# PCOD9312270 Si02
#       6
#     4   4   4   4   4   4
#     4   9  20  37  54  79 111 145 184 223 275 340
#     4  11  22  38  59  83 113 153 192 227 278 344
#     4   9  19  38  58  78 108 148 187 225 276 343
#     4  10  21  36  58  84 110 141 185 235 279 324
#     4  10  22  39  58  81 115 152 187 228 279 344
#     4  11  22  38  59  87 115 147 189 236 283 327
#
# _framework density 22.801770000000001
#
# number of rings (size 3 to 8) (size 9 to 14) (size 15 to 20)
#    0.000    2.000    0.000    4.500    0.000   10.667 
#    0.000    4.167    0.000    0.000    0.000    0.000 
#    0.000    0.000    0.000    0.000    0.000    0.000 
#
# Total GULP energy -134080.207713 kJ/mol
# GULP energy per Si atom -5586.675321 kJ/mol
# Density = 2.274987 g / cm^3
# Si number density = 22.801770 Si / 1000 Ang^3
#
#
#
# Elastic Constant Matrix: (Units=GPa)
#
#
# Indices 1 2 3 4 5 6 
#
# 1 53.5636 -15.5948 -0.0172 0.0000 0.0000 0.0000
# 2 -15.5948 73.7569 3.6512 0.0000 0.0000 0.0000
# 3 -0.0172 3.6512 11.5268 0.0000 0.0000 0.0000
# 4 0.0000 0.0000 0.0000 17.8591 0.0000 0.0000
# 5 0.0000 0.0000 0.0000 0.0000 52.2829 0.0000
# 6 0.0000 0.0000 0.0000 0.0000 0.0000 29.5236
#
#
#
# Elastic Compliance Matrix: (Units=1/GPa)
#
#
# Indices 1 2 3 4 5 6 
#
# 1 0.019914 0.004276 -0.001325 0.000000 0.000000 0.000000
# 2 0.004276 0.014692 -0.004648 0.000000 0.000000 0.000000
# 3 -0.001325 -0.004648 0.088225 0.000000 0.000000 0.000000
# 4 0.000000 0.000000 0.000000 0.055994 0.000000 0.000000
# 5 0.000000 0.000000 0.000000 0.000000 0.019127 0.000000
# 6 0.000000 0.000000 0.000000 0.000000 0.000000 0.033871
#
#
# Mechanical properties :
#
#
# Convention : Reuss Voigt Hill
#
# Bulk Modulus (GPa) = 8.37251 12.76952 10.57101
# Shear Modulus (GPa) = 18.17997 29.98699 24.08348
#
# Velocity S-wave (km/s) = 2.82672 3.63039 3.25347
# Velocity P-wave (km/s) = 3.78598 4.81512 4.33122
#
# Compressibility (1/GPa) = 0.11943851
#
# Stress axis : x y z
#
# Youngs Moduli (GPa) = 50.21606 68.06313 11.33468
#
# Poissons Ratio (x) = -0.29104 0.01502
# Poissons Ratio (y) = -0.21473 0.05268
# Poissons Ratio (z) = 0.06653 0.31633
#
# Static dielectric constant tensor:
#      x y z
#    x 1.857920 0.000000 0.000000 
#    y 0.000000 1.866670 0.000000 
#    z 0.000000 0.000000 1.788530 
# 
# From -- ./inp_files/3135.got.cif
#   From: 2010.05.17/outbox.cif.g08.bks.cpg/sg18_2_cif.got.tgz:3135.got - 2010.06.03 22:40:56.
