data_PCOD9312595
_publ_section_title
;
Structure prediction by ZEFSAII (Michael W. Deem and Ramdas Pophale) SiO2 
 PCOD9312595
Probable space group: P 21 21 2
;
_chemical_formula_sum "Si O2"
_cell_formula_units_Z 26
_cell_length_a 22.479194
_cell_length_b 7.831181
_cell_length_c 5.544684
_cell_angle_alpha 90.000000
_cell_angle_beta 90.000000
_cell_angle_gamma 90.000000
_cell_volume 976.078614
_symmetry_space_group_name_H-M "P 21 21 2"
_symmetry_group_IT_number 18
_symmetry_cell_setting 'orthorhombic'
loop_
_space_group_symop_operation_xyz
x,y,z
-x,-y,z
1/2+x,1/2-y,-z
1/2-x,1/2+y,-z
loop_
_atom_site_type_symbol
_atom_site_label
_atom_site_fract_x
_atom_site_fract_y
_atom_site_fract_z
Si Si1 0.150598 0.940461 0.151162
Si Si2 0.736566 0.008110 0.838237
Si Si3 0.311060 0.718032 0.468785
Si Si4 0.425759 0.629036 0.229650
Si Si5 0.500000 0.000000 0.775451
Si Si6 0.882880 0.407655 0.982846
Si Si7 0.044308 0.772011 0.599229
O O1 0.124407 0.750994 0.174139
O O2 0.178335 0.049140 0.366411
O O3 0.203530 0.921898 0.955560
O O4 0.100284 0.051789 0.015361
O O5 0.709900 0.131304 0.637223
O O6 0.759778 0.833476 0.717899
O O7 0.682508 0.985784 0.022666
O O8 0.374434 0.747011 0.340548
O O9 0.490475 0.708201 0.206404
O O10 0.434132 0.468105 0.417463
O O11 0.437956 0.981683 0.920197
O O12 0.487722 0.165429 0.608563
O O13 0.903545 0.331522 0.728953
#
# Coordination Sequence:
#
# PCOD9312595 Si02
#       7
#     4   4   4   4   2   4   4
#     4  10  22  41  66  92 125 165 209 264 318 374
#     4  11  24  40  64  95 127 168 212 262 321 375
#     4  11  22  40  65  93 126 164 215 264 314 380
#     4   9  21  41  64  90 120 168 215 257 315 376
#     4  12  24  38  62  92 126 166 202 256 318 370
#     4  11  24  42  61  93 129 162 209 257 315 378
#     4  10  22  41  63  90 128 164 210 263 312 377
#
# _framework density 26.637195999999999
#
# number of rings (size 3 to 8) (size 9 to 14) (size 15 to 20)
#    0.000    1.538    0.000    4.154    0.000    8.615 
#    0.000    4.615    0.000    0.000    0.000    0.000 
#    0.000    0.000    0.000    0.000    0.000    0.000 
#
# Total GULP energy -145750.787226 kJ/mol
# GULP energy per Si atom -5605.799509 kJ/mol
# Density = 2.657657 g / cm^3
# Si number density = 26.637196 Si / 1000 Ang^3
#
#
#
# Elastic Constant Matrix: (Units=GPa)
#
#
# Indices 1 2 3 4 5 6 
#
# 1 181.8131 23.1139 16.3077 0.0000 0.0000 0.0000
# 2 23.1139 61.3314 -2.3971 0.0000 0.0000 0.0000
# 3 16.3077 -2.3971 38.6887 0.0000 0.0000 0.0000
# 4 0.0000 0.0000 0.0000 45.7856 0.0000 0.0000
# 5 0.0000 0.0000 0.0000 0.0000 48.7958 0.0000
# 6 0.0000 0.0000 0.0000 0.0000 0.0000 52.1262
#
#
#
# Elastic Compliance Matrix: (Units=1/GPa)
#
#
# Indices 1 2 3 4 5 6 
#
# 1 0.006045 -0.002384 -0.002696 0.000000 0.000000 0.000000
# 2 -0.002384 0.017284 0.002076 0.000000 0.000000 0.000000
# 3 -0.002696 0.002076 0.027112 0.000000 0.000000 0.000000
# 4 0.000000 0.000000 0.000000 0.021841 0.000000 0.000000
# 5 0.000000 0.000000 0.000000 0.000000 0.020494 0.000000
# 6 0.000000 0.000000 0.000000 0.000000 0.000000 0.019184
#
#
# Mechanical properties :
#
#
# Convention : Reuss Voigt Hill
#
# Bulk Modulus (GPa) = 22.50523 39.54247 31.02385
# Shear Modulus (GPa) = 37.65665 45.66211 41.65938
#
# Velocity S-wave (km/s) = 3.76398 4.14481 3.95898
# Velocity P-wave (km/s) = 5.23041 6.14679 5.70702
#
# Compressibility (1/GPa) = 0.04443412
#
# Stress axis : x y z
#
# Youngs Moduli (GPa) = 165.42712 57.85615 36.88381
#
# Poissons Ratio (x) = 0.13790 0.09943
# Poissons Ratio (y) = 0.39430 -0.07655
# Poissons Ratio (z) = 0.44594 -0.12008
#
# Static dielectric constant tensor:
#      x y z
#    x 1.990460 0.000000 0.000000 
#    y 0.000000 2.118330 0.000000 
#    z 0.000000 0.000000 2.104150 
# 
# From -- ./inp_files/2097.got.cif
#   From: 2010.05.17/outbox.cif.g08.bks.cpg/sg18_2_cif.got.tgz:2097.got - 2010.06.03 22:40:56.
