data_PCOD9312267
_publ_section_title
;
Structure prediction by ZEFSAII (Michael W. Deem and Ramdas Pophale) SiO2 
 PCOD9312267
Probable space group: P 21 21 2
;
_chemical_formula_sum "Si O2"
_cell_formula_units_Z 32
_cell_length_a 16.734286
_cell_length_b 5.261449
_cell_length_c 18.368396
_cell_angle_alpha 90.000000
_cell_angle_beta 90.000000
_cell_angle_gamma 90.000000
_cell_volume 1617.274675
_symmetry_space_group_name_H-M "P 21 21 2"
_symmetry_group_IT_number 18
_symmetry_cell_setting 'orthorhombic'
loop_
_space_group_symop_operation_xyz
x,y,z
-x,-y,z
1/2+x,1/2-y,-z
1/2-x,1/2+y,-z
loop_
_atom_site_type_symbol
_atom_site_label
_atom_site_fract_x
_atom_site_fract_y
_atom_site_fract_z
Si Si1 0.183915 0.207706 0.361162
Si Si2 0.293039 0.245657 0.840981
Si Si3 0.949245 0.747966 0.476999
Si Si4 0.580380 0.367676 0.773815
Si Si5 0.291805 0.679934 0.022151
Si Si6 0.269082 0.682835 0.314343
Si Si7 0.449619 0.753668 0.348725
Si Si8 0.420667 0.892027 0.921852
O O1 0.133541 0.226158 0.434591
O O2 0.120714 0.265536 0.295378
O O3 0.249668 0.429005 0.359431
O O4 0.221246 0.929227 0.345357
O O5 0.346080 0.474871 0.809543
O O6 0.260143 0.122313 0.767634
O O7 0.355551 0.090515 0.890751
O O8 0.218474 0.281531 0.895408
O O9 0.937093 0.731657 0.563768
O O10 0.000000 0.500000 0.454145
O O11 0.000000 0.000000 0.461253
O O12 0.500000 0.500000 0.744863
O O13 0.549765 0.228992 0.846123
O O14 0.374021 0.715385 0.978697
O O15 0.267149 0.383994 0.018030
O O16 0.362296 0.744127 0.314245
O O17 0.500000 0.500000 0.333329
O O18 0.500000 0.000000 0.326438
O O19 0.500000 0.000000 0.958090
#
# Coordination Sequence:
#
# PCOD9312267 Si02
#       8
#     4   4   4   4   4   4   4   4
#     4  11  23  36  56  90 123 156 194 239 296 354
#     4  10  21  37  54  81 117 152 189 236 293 342
#     4  10  21  38  59  84 122 164 199 238 292 349
#     4  11  20  33  52  82 118 154 188 230 285 354
#     4  10  21  36  57  78 108 149 190 231 278 336
#     4  11  23  38  61  88 119 152 198 248 296 357
#     4  10  22  42  64  85 111 155 204 249 300 349
#     4  11  20  34  56  82 113 148 193 228 287 345
#
# _framework density 19.786372
#
# number of rings (size 3 to 8) (size 9 to 14) (size 15 to 20)
#    0.000    1.500    3.750    1.875    0.000    2.500 
#    0.000    0.625    0.000    3.750    0.000    0.000 
#    0.000    0.000    0.000    0.000    0.000    0.000 
#
# Total GULP energy -178325.874126 kJ/mol
# GULP energy per Si atom -5572.683566 kJ/mol
# Density = 1.974134 g / cm^3
# Si number density = 19.786372 Si / 1000 Ang^3
#
#
#
# Elastic Constant Matrix: (Units=GPa)
#
#
# Indices 1 2 3 4 5 6 
#
# 1 83.1114 12.1405 14.8418 0.0000 0.0000 0.0000
# 2 12.1405 69.9739 10.7370 0.0000 0.0000 0.0000
# 3 14.8418 10.7370 15.3389 0.0000 0.0000 0.0000
# 4 0.0000 0.0000 0.0000 34.5606 0.0000 0.0000
# 5 0.0000 0.0000 0.0000 0.0000 27.4177 0.0000
# 6 0.0000 0.0000 0.0000 0.0000 0.0000 28.7206
#
#
#
# Elastic Compliance Matrix: (Units=1/GPa)
#
#
# Indices 1 2 3 4 5 6 
#
# 1 0.014556 -0.000408 -0.013798 0.000000 0.000000 0.000000
# 2 -0.000408 0.016022 -0.010820 0.000000 0.000000 0.000000
# 3 -0.013798 -0.010820 0.086119 0.000000 0.000000 0.000000
# 4 0.000000 0.000000 0.000000 0.028935 0.000000 0.000000
# 5 0.000000 0.000000 0.000000 0.000000 0.036473 0.000000
# 6 0.000000 0.000000 0.000000 0.000000 0.000000 0.034818
#
#
# Mechanical properties :
#
#
# Convention : Reuss Voigt Hill
#
# Bulk Modulus (GPa) = 15.00532 27.09587 21.05060
# Shear Modulus (GPa) = 17.28965 26.85344 22.07155
#
# Velocity S-wave (km/s) = 2.95925 3.68797 3.34352
# Velocity P-wave (km/s) = 4.39048 5.64436 5.05644
#
# Compressibility (1/GPa) = 0.06664301
#
# Stress axis : x y z
#
# Youngs Moduli (GPa) = 68.70142 62.41353 11.61188
#
# Poissons Ratio (x) = 0.02547 0.16022
# Poissons Ratio (y) = 0.02804 0.12564
# Poissons Ratio (z) = 0.94796 0.67534
#
# Static dielectric constant tensor:
#      x y z
#    x 1.486960 0.000000 0.000000 
#    y 0.000000 1.777140 0.000000 
#    z 0.000000 0.000000 1.707840 
# 
# From -- ./inp_files/7414.got.cif
#   From: 2010.05.17/outbox.cif.g08.bks.cpg/sg18_4_cif.got.tgz:7414.got - 2010.06.03 22:40:56.
