data_PCOD9312479
_publ_section_title
;
Structure prediction by ZEFSAII (Michael W. Deem and Ramdas Pophale) SiO2 
 PCOD9312479
Probable space group: P 21 21 2
;
_chemical_formula_sum "Si O2"
_cell_formula_units_Z 20
_cell_length_a 18.411686
_cell_length_b 5.083103
_cell_length_c 9.153965
_cell_angle_alpha 90.000000
_cell_angle_beta 90.000000
_cell_angle_gamma 90.000000
_cell_volume 856.705820
_symmetry_space_group_name_H-M "P 21 21 2"
_symmetry_group_IT_number 18
_symmetry_cell_setting 'orthorhombic'
loop_
_space_group_symop_operation_xyz
x,y,z
-x,-y,z
1/2+x,1/2-y,-z
1/2-x,1/2+y,-z
loop_
_atom_site_type_symbol
_atom_site_label
_atom_site_fract_x
_atom_site_fract_y
_atom_site_fract_z
Si Si1 0.794689 0.567423 0.826457
Si Si2 0.500000 0.500000 0.490127
Si Si3 0.439814 0.193639 0.716904
Si Si4 0.205501 0.433551 0.177380
Si Si5 0.000000 0.000000 0.010815
Si Si6 0.057897 0.696039 0.778774
O O1 0.769768 0.859781 0.787517
O O2 0.867434 0.454256 0.756377
O O3 0.730125 0.362205 0.790203
O O4 0.806376 0.552448 0.001981
O O5 0.435663 0.444413 0.608475
O O6 0.520472 0.719492 0.370745
O O7 0.366024 0.040535 0.745061
O O8 0.474554 0.285427 0.870118
O O9 0.500000 0.000000 0.649534
O O10 0.936115 0.053378 0.889426
O O11 0.000000 0.500000 0.853876
#
# Coordination Sequence:
#
# PCOD9312479 Si02
#       6
#     4   2   4   4   2   4
#     4  10  23  39  64  99 137 172 215 279 347 406
#     4  10  26  42  64  92 132 174 232 272 330 388
#     4  11  23  41  67  96 134 174 227 281 331 396
#     4  10  23  39  64  99 137 172 215 279 347 406
#     4  10  22  34  68 100 120 166 228 276 338 392
#     4  11  23  41  67  96 134 174 227 281 331 396
#
# _framework density 23.345237000000001
#
# number of rings (size 3 to 8) (size 9 to 14) (size 15 to 20)
#    0.000    1.600    2.000    1.200   11.200    0.000 
#    0.000    2.000    0.000    0.000    0.000    0.000 
#    0.000    0.000    0.000    0.000    0.000    0.000 
#
# Total GULP energy -111363.348006 kJ/mol
# GULP energy per Si atom -5568.167400 kJ/mol
# Density = 2.329210 g / cm^3
# Si number density = 23.345237 Si / 1000 Ang^3
#
#
#
# Elastic Constant Matrix: (Units=GPa)
#
#
# Indices 1 2 3 4 5 6 
#
# 1 72.1915 4.8203 5.2127 0.0000 0.0000 0.0000
# 2 4.8203 42.1489 24.8538 0.0000 0.0000 0.0000
# 3 5.2127 24.8538 111.3517 0.0000 0.0000 0.0000
# 4 0.0000 0.0000 0.0000 20.5655 0.0000 0.0000
# 5 0.0000 0.0000 0.0000 0.0000 17.4763 0.0000
# 6 0.0000 0.0000 0.0000 0.0000 0.0000 35.3504
#
#
#
# Elastic Compliance Matrix: (Units=1/GPa)
#
#
# Indices 1 2 3 4 5 6 
#
# 1 0.013970 -0.001396 -0.000342 0.000000 0.000000 0.000000
# 2 -0.001396 0.027461 -0.006064 0.000000 0.000000 0.000000
# 3 -0.000342 -0.006064 0.010350 0.000000 0.000000 0.000000
# 4 0.000000 0.000000 0.000000 0.048625 0.000000 0.000000
# 5 0.000000 0.000000 0.000000 0.000000 0.057220 0.000000
# 6 0.000000 0.000000 0.000000 0.000000 0.000000 0.028288
#
#
# Mechanical properties :
#
#
# Convention : Reuss Voigt Hill
#
# Bulk Modulus (GPa) = 27.64220 32.82951 30.23586
# Shear Modulus (GPa) = 23.41072 27.39880 25.40476
#
# Velocity S-wave (km/s) = 3.17015 3.42955 3.30240
# Velocity P-wave (km/s) = 5.02654 5.45670 5.24603
#
# Compressibility (1/GPa) = 0.03617657
#
# Stress axis : x y z
#
# Youngs Moduli (GPa) = 71.58212 36.41571 96.61787
#
# Poissons Ratio (x) = 0.05083 0.03309
# Poissons Ratio (y) = 0.09991 0.58588
# Poissons Ratio (z) = 0.02451 0.22082
#
# Static dielectric constant tensor:
#      x y z
#    x 1.878360 0.000000 0.000000 
#    y 0.000000 1.988370 0.000000 
#    z 0.000000 0.000000 1.864930 
# 
# From -- ./inp_files/4432.got.cif
#   From: 2010.05.17/outbox.cif.g08.bks.cpg/sg18_3_cif.got.tgz:4432.got - 2010.06.03 22:40:56.
