data_PCOD9312688
_publ_section_title
;
Structure prediction by ZEFSAII (Michael W. Deem and Ramdas Pophale) SiO2 
 PCOD9312688
Probable space group: P 21 21 2
;
_chemical_formula_sum "Si O2"
_cell_formula_units_Z 22
_cell_length_a 12.265387
_cell_length_b 5.089316
_cell_length_c 16.521492
_cell_angle_alpha 90.000000
_cell_angle_beta 90.000000
_cell_angle_gamma 90.000000
_cell_volume 1031.311683
_symmetry_space_group_name_H-M "P 21 21 2"
_symmetry_group_IT_number 18
_symmetry_cell_setting 'orthorhombic'
loop_
_space_group_symop_operation_xyz
x,y,z
-x,-y,z
1/2+x,1/2-y,-z
1/2-x,1/2+y,-z
loop_
_atom_site_type_symbol
_atom_site_label
_atom_site_fract_x
_atom_site_fract_y
_atom_site_fract_z
Si Si1 0.258433 0.925354 0.777524
Si Si2 0.703875 0.091147 0.319043
Si Si3 0.500000 0.500000 0.945049
Si Si4 0.316165 0.255998 0.528818
Si Si5 0.791512 0.171871 0.963629
Si Si6 0.500000 0.000000 0.827330
Si Si7 0.000000 0.500000 0.567199
O O1 0.221560 0.696693 0.716933
O O2 0.201547 0.195429 0.751583
O O3 0.227315 0.841240 0.868324
O O4 0.388404 0.976094 0.777179
O O5 0.804907 0.160651 0.378229
O O6 0.595500 0.107499 0.374380
O O7 0.498804 0.252615 0.885304
O O8 0.398674 0.469331 0.003816
O O9 0.252851 0.486720 0.481237
O O10 0.434310 0.201361 0.490659
O O11 0.705325 0.970954 0.005090
#
# Coordination Sequence:
#
# PCOD9312688 Si02
#       7
#     4   4   2   4   4   2   2
#     4  12  25  44  67 103 144 176 229 297 352 401
#     4  11  25  43  68 104 142 177 226 289 350 411
#     4  12  22  42  70  96 124 184 240 282 344 400
#     4  10  22  43  71 102 130 181 234 268 332 426
#     4  12  23  42  68 100 132 183 241 287 335 422
#     4  12  24  43  69  90 132 186 226 286 350 397
#     4  10  24  47  75  96 144 188 222 280 352 421
#
# _framework density 21.332056999999999
#
# number of rings (size 3 to 8) (size 9 to 14) (size 15 to 20)
#    0.000    0.727    3.636    4.364    0.000    8.727 
#    0.000    7.273    0.000    0.000    0.000    0.000 
#    0.000    0.000    0.000    0.000    0.000    0.000 
#
# Total GULP energy -122946.759789 kJ/mol
# GULP energy per Si atom -5588.489081 kJ/mol
# Density = 2.128350 g / cm^3
# Si number density = 21.332057 Si / 1000 Ang^3
#
#
#
# Elastic Constant Matrix: (Units=GPa)
#
#
# Indices 1 2 3 4 5 6 
#
# 1 103.1027 36.7289 23.2822 0.0000 0.0000 0.0000
# 2 36.7289 105.1173 3.7387 0.0000 0.0000 0.0000
# 3 23.2822 3.7387 73.6367 0.0000 0.0000 0.0000
# 4 0.0000 0.0000 0.0000 28.2952 0.0000 0.0000
# 5 0.0000 0.0000 0.0000 0.0000 79.0955 0.0000
# 6 0.0000 0.0000 0.0000 0.0000 0.0000 23.5282
#
#
#
# Elastic Compliance Matrix: (Units=1/GPa)
#
#
# Indices 1 2 3 4 5 6 
#
# 1 0.011948 -0.004048 -0.003572 0.000000 0.000000 0.000000
# 2 -0.004048 0.010902 0.000726 0.000000 0.000000 0.000000
# 3 -0.003572 0.000726 0.014673 0.000000 0.000000 0.000000
# 4 0.000000 0.000000 0.000000 0.035342 0.000000 0.000000
# 5 0.000000 0.000000 0.000000 0.000000 0.012643 0.000000
# 6 0.000000 0.000000 0.000000 0.000000 0.000000 0.042502
#
#
# Mechanical properties :
#
#
# Convention : Reuss Voigt Hill
#
# Bulk Modulus (GPa) = 42.13152 45.48403 43.80778
# Shear Modulus (GPa) = 33.39854 40.72424 37.06139
#
# Velocity S-wave (km/s) = 3.96112 4.37402 4.17268
# Velocity P-wave (km/s) = 6.38074 6.84672 6.61784
#
# Compressibility (1/GPa) = 0.02373520
#
# Stress axis : x y z
#
# Youngs Moduli (GPa) = 83.69906 91.72969 68.15374
#
# Poissons Ratio (x) = 0.37128 0.24345
# Poissons Ratio (y) = 0.33878 -0.04950
# Poissons Ratio (z) = 0.29898 -0.06662
#
# Static dielectric constant tensor:
#      x y z
#    x 1.803810 0.000000 0.000000 
#    y 0.000000 1.729650 0.000000 
#    z 0.000000 0.000000 1.748290 
# 
# From -- ./inp_files/6869.got.cif
#   From: 2010.05.17/outbox.cif.g08.bks.cpg/sg18_4_cif.got.tgz:6869.got - 2010.06.03 22:40:56.
