data_PCOD9312927
_publ_section_title
;
Structure prediction by ZEFSAII (Michael W. Deem and Ramdas Pophale) SiO2 
 PCOD9312927
Probable space group: P 21 21 2
;
_chemical_formula_sum "Si O2"
_cell_formula_units_Z 16
_cell_length_a 7.539510
_cell_length_b 15.941398
_cell_length_c 4.698916
_cell_angle_alpha 90.000000
_cell_angle_beta 90.000000
_cell_angle_gamma 90.000000
_cell_volume 564.764263
_symmetry_space_group_name_H-M "P 21 21 2"
_symmetry_group_IT_number 18
_symmetry_cell_setting 'orthorhombic'
loop_
_space_group_symop_operation_xyz
x,y,z
-x,-y,z
1/2+x,1/2-y,-z
1/2-x,1/2+y,-z
loop_
_atom_site_type_symbol
_atom_site_label
_atom_site_fract_x
_atom_site_fract_y
_atom_site_fract_z
Si Si1 0.868660 0.665954 0.252102
Si Si2 0.529143 0.273534 0.231554
Si Si3 0.000000 0.500000 0.573628
Si Si4 0.000000 0.000000 0.529793
Si Si5 0.683861 0.426408 0.953410
O O1 0.656082 0.676502 0.224495
O O2 0.927101 0.742008 0.456768
O O3 0.940734 0.580438 0.387063
O O4 0.955082 0.688716 0.951793
O O5 0.527502 0.427661 0.708651
O O6 0.674754 0.335432 0.095580
O O7 0.157851 0.532525 0.778027
O O8 0.150148 0.016642 0.766601
#
# Coordination Sequence:
#
# PCOD9312927 Si02
#       5
#     4   4   2   2   4
#     4  12  29  54  86 122 169 223 287 353 428 512
#     4  12  27  54  86 122 168 227 285 350 429 515
#     4  12  30  54  86 128 172 222 286 358 428 510
#     4  10  24  46  76 116 162 216 272 342 416 492
#     4  11  25  50  81 119 166 216 277 341 423 505
#
# _framework density 28.330407000000001
#
# number of rings (size 3 to 8) (size 9 to 14) (size 15 to 20)
#    0.000    0.500    0.000    6.000    0.000   14.000 
#    0.000   10.000    0.000    0.000    0.000    0.000 
#    0.000    0.000    0.000    0.000    0.000    0.000 
#
# Total GULP energy -89644.908402 kJ/mol
# GULP energy per Si atom -5602.806775 kJ/mol
# Density = 2.826593 g / cm^3
# Si number density = 28.330407 Si / 1000 Ang^3
#
#
#
# Elastic Constant Matrix: (Units=GPa)
#
#
# Indices 1 2 3 4 5 6 
#
# 1 99.5624 25.5776 4.0544 0.0000 0.0000 0.0000
# 2 25.5776 164.5043 24.9331 0.0000 0.0000 0.0000
# 3 4.0544 24.9331 164.5870 0.0000 0.0000 0.0000
# 4 0.0000 0.0000 0.0000 73.6020 0.0000 0.0000
# 5 0.0000 0.0000 0.0000 0.0000 53.4237 0.0000
# 6 0.0000 0.0000 0.0000 0.0000 0.0000 41.6759
#
#
#
# Elastic Compliance Matrix: (Units=1/GPa)
#
#
# Indices 1 2 3 4 5 6 
#
# 1 0.010462 -0.001625 -0.000012 0.000000 0.000000 0.000000
# 2 -0.001625 0.006474 -0.000941 0.000000 0.000000 0.000000
# 3 -0.000012 -0.000941 0.006219 0.000000 0.000000 0.000000
# 4 0.000000 0.000000 0.000000 0.013587 0.000000 0.000000
# 5 0.000000 0.000000 0.000000 0.000000 0.018718 0.000000
# 6 0.000000 0.000000 0.000000 0.000000 0.000000 0.023995
#
#
# Mechanical properties :
#
#
# Convention : Reuss Voigt Hill
#
# Bulk Modulus (GPa) = 55.55492 59.75377 57.65434
# Shear Modulus (GPa) = 55.18243 58.67955 56.93099
#
# Velocity S-wave (km/s) = 4.41820 4.55604 4.48765
# Velocity P-wave (km/s) = 6.75866 6.98672 6.87364
#
# Compressibility (1/GPa) = 0.01800021
#
# Stress axis : x y z
#
# Youngs Moduli (GPa) = 95.58530 154.46180 160.80767
#
# Poissons Ratio (x) = 0.25098 0.00186
# Poissons Ratio (y) = 0.15532 0.15128
# Poissons Ratio (z) = 0.00111 0.14531
#
# Static dielectric constant tensor:
#      x y z
#    x 2.481100 0.000000 0.000000 
#    y 0.000000 2.268390 0.000000 
#    z 0.000000 0.000000 2.061990 
# 
# From -- ./inp_files/425.got.cif
#   From: 2010.05.17/outbox.cif.g08.bks.cpg/sg18_1_cif.got.tgz:425.got - 2010.06.03 22:40:56.
