data_PCOD9312011
_publ_section_title
;
Structure prediction by ZEFSAII (Michael W. Deem and Ramdas Pophale) SiO2 
 PCOD9312011
Probable space group: P 21 21 2
;
_chemical_formula_sum "Si O2"
_cell_formula_units_Z 32
_cell_length_a 8.521123
_cell_length_b 14.618514
_cell_length_c 12.629907
_cell_angle_alpha 90.000000
_cell_angle_beta 90.000000
_cell_angle_gamma 90.000000
_cell_volume 1573.258964
_symmetry_space_group_name_H-M "P 21 21 2"
_symmetry_group_IT_number 18
_symmetry_cell_setting 'orthorhombic'
loop_
_space_group_symop_operation_xyz
x,y,z
-x,-y,z
1/2+x,1/2-y,-z
1/2-x,1/2+y,-z
loop_
_atom_site_type_symbol
_atom_site_label
_atom_site_fract_x
_atom_site_fract_y
_atom_site_fract_z
Si Si1 0.604885 0.123651 0.262789
Si Si2 0.649535 0.031243 0.051166
Si Si3 0.947276 0.104770 0.960154
Si Si4 0.951506 0.099422 0.343684
Si Si5 0.019899 0.605325 0.521300
Si Si6 0.831405 0.854403 0.141803
Si Si7 0.081523 0.785877 0.759445
Si Si8 0.694296 0.716543 0.479521
O O1 0.574778 0.084772 0.148732
O O2 0.777571 0.093853 0.294643
O O3 0.479528 0.094999 0.351099
O O4 0.581221 0.231868 0.258064
O O5 0.500000 0.000000 0.982737
O O6 0.745485 0.946181 0.100275
O O7 0.767023 0.100288 0.995248
O O8 0.955959 0.133193 0.838883
O O9 0.000000 0.000000 0.970225
O O10 0.049076 0.164535 0.043535
O O11 0.929075 0.168494 0.440578
O O12 0.066864 0.126846 0.247985
O O13 0.000000 0.000000 0.383665
O O14 0.862008 0.666236 0.499547
O O15 0.000000 0.500000 0.479650
O O16 0.166319 0.673986 0.498568
O O17 0.704260 0.778758 0.175618
O O18 0.151065 0.802115 0.642997
#
# Coordination Sequence:
#
# PCOD9312011 Si02
#       8
#     4   4   4   4   4   4   4   4
#     4  10  20  35  61  91 119 151 200 254 319 360
#     4  11  19  36  60  92 115 144 197 257 312 364
#     4  10  24  42  57  86 124 158 205 252 306 368
#     4  11  20  37  64  94 128 158 204 270 321 364
#     4  10  22  40  63  91 129 164 207 269 314 365
#     4  11  21  34  64  90 117 150 200 268 311 351
#     4  11  24  39  60  86 125 166 201 250 302 386
#     4  10  24  40  60  94 126 168 213 249 315 403
#
# _framework density 20.339946000000001
#
# number of rings (size 3 to 8) (size 9 to 14) (size 15 to 20)
#    0.000    1.500    3.750    1.500    3.500    2.500 
#    0.000    4.375    0.000    0.000    0.000    0.000 
#    0.000    0.000    0.000    0.000    0.000    0.000 
#
# Total GULP energy -178255.032042 kJ/mol
# GULP energy per Si atom -5570.469751 kJ/mol
# Density = 2.029365 g / cm^3
# Si number density = 20.339946 Si / 1000 Ang^3
#
#
#
# Elastic Constant Matrix: (Units=GPa)
#
#
# Indices 1 2 3 4 5 6 
#
# 1 67.5387 28.2350 8.6135 0.0000 0.0000 0.0000
# 2 28.2350 77.5423 18.0152 0.0000 0.0000 0.0000
# 3 8.6135 18.0152 75.0619 0.0000 0.0000 0.0000
# 4 0.0000 0.0000 0.0000 27.5226 0.0000 0.0000
# 5 0.0000 0.0000 0.0000 0.0000 -2.0721 0.0000
# 6 0.0000 0.0000 0.0000 0.0000 0.0000 25.0087
#
#
#
# Elastic Compliance Matrix: (Units=1/GPa)
#
#
# Indices 1 2 3 4 5 6 
#
# 1 0.017483 -0.006248 -0.000507 0.000000 0.000000 0.000000
# 2 -0.006248 0.015891 -0.003097 0.000000 0.000000 0.000000
# 3 -0.000507 -0.003097 0.014124 0.000000 0.000000 0.000000
# 4 0.000000 0.000000 0.000000 0.036334 0.000000 0.000000
# 5 0.000000 0.000000 0.000000 0.000000 -0.482597 0.000000
# 6 0.000000 0.000000 0.000000 0.000000 0.000000 0.039986
#
#
# Mechanical properties :
#
#
# Convention : Reuss Voigt Hill
#
# Bulk Modulus (GPa) = 35.97886 36.65226 36.31556
# Shear Modulus (GPa) = -15.16020 21.11044 2.97512
#
# Velocity S-wave (km/s) = -2.73306 3.22511 1.21073
# Velocity P-wave (km/s) = 2.78706 5.65043 4.45506
#
# Compressibility (1/GPa) = 0.02779410
#
# Stress axis : x y z
#
# Youngs Moduli (GPa) = 57.19813 62.92934 70.80281
#
# Poissons Ratio (x) = 0.39320 0.03587
# Poissons Ratio (y) = 0.35739 0.21927
# Poissons Ratio (z) = 0.02898 0.19488
#
# Static dielectric constant tensor:
#      x y z
#    x 1.862180 0.000000 0.000000 
#    y 0.000000 1.787950 0.000000 
#    z 0.000000 0.000000 1.721700 
# 
# From -- ./inp_files/5697.got.cif
#   From: 2010.05.17/outbox.cif.g08.bks.cpg/sg18_3_cif.got.tgz:5697.got - 2010.06.03 22:40:56.
