data_PCOD9312698
_publ_section_title
;
Structure prediction by ZEFSAII (Michael W. Deem and Ramdas Pophale) SiO2 
 PCOD9312698
Probable space group: P 21 21 2
;
_chemical_formula_sum "Si O2"
_cell_formula_units_Z 20
_cell_length_a 11.215621
_cell_length_b 13.458426
_cell_length_c 5.131744
_cell_angle_alpha 90.000000
_cell_angle_beta 90.000000
_cell_angle_gamma 90.000000
_cell_volume 774.609072
_symmetry_space_group_name_H-M "P 21 21 2"
_symmetry_group_IT_number 18
_symmetry_cell_setting 'orthorhombic'
loop_
_space_group_symop_operation_xyz
x,y,z
-x,-y,z
1/2+x,1/2-y,-z
1/2-x,1/2+y,-z
loop_
_atom_site_type_symbol
_atom_site_label
_atom_site_fract_x
_atom_site_fract_y
_atom_site_fract_z
Si Si1 0.500000 0.500000 0.506266
Si Si2 0.500000 0.000000 0.088903
Si Si3 0.206916 0.771959 0.103604
Si Si4 0.939147 0.226318 0.608756
Si Si5 0.744311 0.025336 0.347834
Si Si6 0.383107 0.836624 0.744109
O O1 0.465502 0.392188 0.389360
O O2 0.370588 0.529217 0.630874
O O3 0.469025 0.908394 0.904156
O O4 0.380716 0.022313 0.257332
O O5 0.105578 0.750007 0.894817
O O6 0.327204 0.753305 0.938173
O O7 0.162291 0.742502 0.390939
O O8 0.224300 0.889852 0.139185
O O9 0.052891 0.284102 0.499204
O O10 0.709394 0.086568 0.607925
#
# Coordination Sequence:
#
# PCOD9312698 Si02
#       6
#     2   2   4   4   4   4
#     4  10  22  48  70 106 140 192 242 304 360 436
#     4  10  24  42  74 102 154 188 242 302 372 434
#     4  10  22  44  65 102 141 182 237 298 348 433
#     4  11  25  41  72  97 145 185 239 295 366 425
#     4  10  22  46  72 104 147 189 246 299 367 432
#     4  11  23  46  69 106 147 193 243 304 363 445
#
# _framework density 25.819476999999999
#
# number of rings (size 3 to 8) (size 9 to 14) (size 15 to 20)
#    0.000    1.600    4.000    0.600    5.600    4.800 
#    3.600    0.000    0.000    0.000    0.000    0.000 
#    0.000    0.000    0.000    0.000    0.000    0.000 
#
# Total GULP energy -111505.026940 kJ/mol
# GULP energy per Si atom -5575.251347 kJ/mol
# Density = 2.576071 g / cm^3
# Si number density = 25.819477 Si / 1000 Ang^3
#
#
#
# Elastic Constant Matrix: (Units=GPa)
#
#
# Indices 1 2 3 4 5 6 
#
# 1 189.5595 39.8885 39.8506 0.0000 0.0000 0.0000
# 2 39.8885 70.6904 20.3582 0.0000 0.0000 0.0000
# 3 39.8506 20.3582 142.4743 0.0000 0.0000 0.0000
# 4 0.0000 0.0000 0.0000 -64.5809 0.0000 0.0000
# 5 0.0000 0.0000 0.0000 0.0000 43.5067 0.0000
# 6 0.0000 0.0000 0.0000 0.0000 0.0000 38.9220
#
#
#
# Elastic Compliance Matrix: (Units=1/GPa)
#
#
# Indices 1 2 3 4 5 6 
#
# 1 0.006205 -0.003130 -0.001288 0.000000 0.000000 0.000000
# 2 -0.003130 0.016332 -0.001458 0.000000 0.000000 0.000000
# 3 -0.001288 -0.001458 0.007588 0.000000 0.000000 0.000000
# 4 0.000000 0.000000 0.000000 -0.015484 0.000000 0.000000
# 5 0.000000 0.000000 0.000000 0.000000 0.022985 0.000000
# 6 0.000000 0.000000 0.000000 0.000000 0.000000 0.025692
#
#
# Mechanical properties :
#
#
# Convention : Reuss Voigt Hill
#
# Bulk Modulus (GPa) = 54.43228 66.99098 60.71163
# Shear Modulus (GPa) = 61.58016 23.74469 42.66242
#
# Velocity S-wave (km/s) = 4.88897 3.03585 4.06930
# Velocity P-wave (km/s) = 7.27991 6.18795 6.75603
#
# Compressibility (1/GPa) = 0.01837145
#
# Stress axis : x y z
#
# Youngs Moduli (GPa) = 161.16288 61.22779 131.79568
#
# Poissons Ratio (x) = 0.19166 0.16979
# Poissons Ratio (y) = 0.50448 0.19219
# Poissons Ratio (z) = 0.20762 0.08928
#
# Static dielectric constant tensor:
#      x y z
#    x 2.348430 0.000000 0.000000 
#    y 0.000000 2.031570 0.000000 
#    z 0.000000 0.000000 2.090790 
# 
# From -- ./inp_files/948.got.cif
#   From: 2010.05.17/outbox.cif.g08.bks.cpg/sg18_1_cif.got.tgz:948.got - 2010.06.03 22:40:56.
