data_PCOD9312772
_publ_section_title
;
Structure prediction by ZEFSAII (Michael W. Deem and Ramdas Pophale) SiO2 
 PCOD9312772
Probable space group: P 21 21 2
;
_chemical_formula_sum "Si O2"
_cell_formula_units_Z 32
_cell_length_a 31.095539
_cell_length_b 5.329431
_cell_length_c 8.283258
_cell_angle_alpha 90.000000
_cell_angle_beta 90.000000
_cell_angle_gamma 90.000000
_cell_volume 1372.714185
_symmetry_space_group_name_H-M "P 21 21 2"
_symmetry_group_IT_number 18
_symmetry_cell_setting 'orthorhombic'
loop_
_space_group_symop_operation_xyz
x,y,z
-x,-y,z
1/2+x,1/2-y,-z
1/2-x,1/2+y,-z
loop_
_atom_site_type_symbol
_atom_site_label
_atom_site_fract_x
_atom_site_fract_y
_atom_site_fract_z
Si Si1 0.334621 0.782251 0.260196
Si Si2 0.023916 0.755883 0.521645
Si Si3 0.524772 0.752571 0.871475
Si Si4 0.166042 0.061322 0.051835
Si Si5 0.883617 0.390470 0.538482
Si Si6 0.119110 0.570942 0.166704
Si Si7 0.704574 0.582304 0.468025
Si Si8 0.752592 0.421552 0.773602
O O1 0.377627 0.915398 0.315814
O O2 0.298368 0.959562 0.180353
O O3 0.313757 0.690106 0.427462
O O4 0.340665 0.551125 0.140317
O O5 0.022592 0.760105 0.325136
O O6 0.073742 0.766146 0.569556
O O7 0.000000 0.500000 0.571493
O O8 0.000000 0.000000 0.583339
O O9 0.500000 0.500000 0.928367
O O10 0.574775 0.815607 0.906146
O O11 0.500000 0.000000 0.926305
O O12 0.138854 0.311115 0.099727
O O13 0.216374 0.101903 0.092216
O O14 0.150836 0.807822 0.139448
O O15 0.889313 0.490375 0.355908
O O16 0.838015 0.250121 0.531536
O O17 0.729674 0.586375 0.634216
O O18 0.735513 0.669258 0.323216
#
# Coordination Sequence:
#
# PCOD9312772 Si02
#       8
#     4   4   4   4   4   4   4   4
#     4  11  27  42  65  92 132 181 222 280 330 400
#     4   9  19  34  61 100 131 160 205 271 332 387
#     4   9  17  34  62  95 129 159 208 270 327 386
#     4  12  28  42  64  95 137 174 222 275 337 396
#     4  10  23  41  68  97 132 174 222 274 336 395
#     4  11  24  42  67 100 131 174 218 274 338 400
#     4  11  22  41  64  93 122 172 223 276 327 393
#     4  11  24  40  65  90 128 170 228 274 333 393
#
# _framework density 23.311481000000001
#
# number of rings (size 3 to 8) (size 9 to 14) (size 15 to 20)
#    0.000    1.500    2.500    1.500   10.500    2.000 
#    0.000    0.000    0.000    3.000    0.000    0.000 
#    0.000    0.000    0.000    0.000    0.000    0.000 
#
# Total GULP energy -178648.641146 kJ/mol
# GULP energy per Si atom -5582.770036 kJ/mol
# Density = 2.325842 g / cm^3
# Si number density = 23.311481 Si / 1000 Ang^3
#
#
#
# Elastic Constant Matrix: (Units=GPa)
#
#
# Indices 1 2 3 4 5 6 
#
# 1 68.4023 15.2570 -7.7151 0.0000 0.0000 0.0000
# 2 15.2570 100.3876 -2.6696 0.0000 0.0000 0.0000
# 3 -7.7151 -2.6696 44.9815 0.0000 0.0000 0.0000
# 4 0.0000 0.0000 0.0000 70.8921 0.0000 0.0000
# 5 0.0000 0.0000 0.0000 0.0000 10.0540 0.0000
# 6 0.0000 0.0000 0.0000 0.0000 0.0000 29.3109
#
#
#
# Elastic Compliance Matrix: (Units=1/GPa)
#
#
# Indices 1 2 3 4 5 6 
#
# 1 0.015410 -0.002275 0.002508 0.000000 0.000000 0.000000
# 2 -0.002275 0.010313 0.000222 0.000000 0.000000 0.000000
# 3 0.002508 0.000222 0.022675 0.000000 0.000000 0.000000
# 4 0.000000 0.000000 0.000000 0.014106 0.000000 0.000000
# 5 0.000000 0.000000 0.000000 0.000000 0.099463 0.000000
# 6 0.000000 0.000000 0.000000 0.000000 0.000000 0.034117
#
#
# Mechanical properties :
#
#
# Convention : Reuss Voigt Hill
#
# Bulk Modulus (GPa) = 20.28126 24.83510 22.55818
# Shear Modulus (GPa) = 23.62842 35.97801 29.80321
#
# Velocity S-wave (km/s) = 3.18716 3.93282 3.57946
# Velocity P-wave (km/s) = 4.71836 5.59460 5.17506
#
# Compressibility (1/GPa) = 0.04930661
#
# Stress axis : x y z
#
# Youngs Moduli (GPa) = 64.89389 96.96413 44.10204
#
# Poissons Ratio (x) = 0.22062 -0.11061
# Poissons Ratio (y) = 0.14765 -0.00978
# Poissons Ratio (z) = -0.16275 -0.02151
#
# Static dielectric constant tensor:
#      x y z
#    x 1.850210 0.000000 0.000000 
#    y 0.000000 1.949470 0.000000 
#    z 0.000000 0.000000 1.887130 
# 
# From -- ./inp_files/4863.got.cif
#   From: 2010.05.17/outbox.cif.g08.bks.cpg/sg18_3_cif.got.tgz:4863.got - 2010.06.03 22:40:56.
