data_PCOD9312017
_publ_section_title
;
Structure prediction by ZEFSAII (Michael W. Deem and Ramdas Pophale) SiO2 
 PCOD9312017
Probable space group: P 21 21 2
;
_chemical_formula_sum "Si O2"
_cell_formula_units_Z 30
_cell_length_a 13.316875
_cell_length_b 14.749470
_cell_length_c 5.570814
_cell_angle_alpha 90.000000
_cell_angle_beta 90.000000
_cell_angle_gamma 90.000000
_cell_volume 1094.201728
_symmetry_space_group_name_H-M "P 21 21 2"
_symmetry_group_IT_number 18
_symmetry_cell_setting 'orthorhombic'
loop_
_space_group_symop_operation_xyz
x,y,z
-x,-y,z
1/2+x,1/2-y,-z
1/2-x,1/2+y,-z
loop_
_atom_site_type_symbol
_atom_site_label
_atom_site_fract_x
_atom_site_fract_y
_atom_site_fract_z
Si Si1 0.982555 0.264858 0.377735
Si Si2 0.185015 0.289987 0.880316
Si Si3 0.000000 0.000000 0.942796
Si Si4 0.461906 0.285982 0.121042
Si Si5 0.119644 0.502286 0.883276
Si Si6 0.206365 0.321327 0.380091
Si Si7 0.079825 0.068258 0.404639
Si Si8 0.716925 0.970510 0.618097
O O1 0.927514 0.263470 0.123287
O O2 0.082556 0.327900 0.379222
O O3 0.030630 0.164392 0.377107
O O4 0.927789 0.261940 0.632454
O O5 0.081152 0.236829 0.879645
O O6 0.159267 0.397933 0.882645
O O7 0.235960 0.273226 0.134492
O O8 0.236208 0.274948 0.626718
O O9 0.959138 0.104423 0.881780
O O10 0.090352 0.027217 0.138459
O O11 0.166141 0.546553 0.125063
O O12 0.000000 0.500000 0.906190
O O13 0.149561 0.541425 0.621532
O O14 0.245577 0.422792 0.380805
O O15 0.177673 0.075647 0.562521
O O16 0.000000 0.000000 0.534106
#
# Coordination Sequence:
#
# PCOD9312017 Si02
#       8
#     4   4   2   4   4   4   4   4
#     4   9  17  30  49  73 101 145 179 225 269 322
#     4   8  15  28  49  76  97 132 175 225 279 324
#     4   8  18  30  50  76 104 150 182 212 260 334
#     4   9  16  28  47  73 100 137 186 216 265 327
#     4  10  20  36  60  83 107 144 192 241 295 329
#     4   8  15  29  51  71  99 138 183 221 278 317
#     4   9  20  36  53  84 116 155 184 226 278 342
#     4  10  20  36  56  84 111 148 188 239 275 345
#
# _framework density 27.417247
#
# number of rings (size 3 to 8) (size 9 to 14) (size 15 to 20)
#    0.400    2.667    0.000    0.400    0.933    2.133 
#    0.000    0.000    2.933    4.800    0.000    0.000 
#    0.000    0.000    0.000    0.000    0.000    0.000 
#
# Total GULP energy -167668.283734 kJ/mol
# GULP energy per Si atom -5588.942791 kJ/mol
# Density = 2.735484 g / cm^3
# Si number density = 27.417247 Si / 1000 Ang^3
#
#
#
# Elastic Constant Matrix: (Units=GPa)
#
#
# Indices 1 2 3 4 5 6 
#
# 1 102.9423 9.3876 47.9902 0.0000 0.0000 0.0000
# 2 9.3876 118.5862 3.4574 0.0000 0.0000 0.0000
# 3 47.9902 3.4574 211.0143 0.0000 0.0000 0.0000
# 4 0.0000 0.0000 0.0000 -2.4585 0.0000 0.0000
# 5 0.0000 0.0000 0.0000 0.0000 80.4238 0.0000
# 6 0.0000 0.0000 0.0000 0.0000 0.0000 -4.3121
#
#
#
# Elastic Compliance Matrix: (Units=1/GPa)
#
#
# Indices 1 2 3 4 5 6 
#
# 1 0.010940 -0.000794 -0.002475 0.000000 0.000000 0.000000
# 2 -0.000794 0.008494 0.000041 0.000000 0.000000 0.000000
# 3 -0.002475 0.000041 0.005301 0.000000 0.000000 0.000000
# 4 0.000000 0.000000 0.000000 -0.406748 0.000000 0.000000
# 5 0.000000 0.000000 0.000000 0.000000 0.012434 0.000000
# 6 0.000000 0.000000 0.000000 0.000000 0.000000 -0.231908
#
#
# Mechanical properties :
#
#
# Convention : Reuss Voigt Hill
#
# Bulk Modulus (GPa) = 54.70255 61.57925 58.14090
# Shear Modulus (GPa) = -8.48987 39.51114 15.51064
#
# Velocity S-wave (km/s) = -1.76161 3.80031 2.38108
# Velocity P-wave (km/s) = 3.98215 6.46260 5.36762
#
# Compressibility (1/GPa) = 0.01828068
#
# Stress axis : x y z
#
# Youngs Moduli (GPa) = 91.40385 117.72563 188.63470
#
# Poissons Ratio (x) = 0.09346 0.46690
# Poissons Ratio (y) = 0.07257 -0.00781
# Poissons Ratio (z) = 0.22624 -0.00487
#
# Static dielectric constant tensor:
#      x y z
#    x 2.199370 0.000000 0.000000 
#    y 0.000000 2.042310 0.000000 
#    z 0.000000 0.000000 2.503620 
# 
# From -- ./inp_files/1622.got.cif
#   From: 2010.05.17/outbox.cif.g08.bks.cpg/sg18_1_cif.got.tgz:1622.got - 2010.06.03 22:40:56.
