data_PCOD9312115
_publ_section_title
;
Structure prediction by ZEFSAII (Michael W. Deem and Ramdas Pophale) SiO2 
 PCOD9312115
Probable space group: P 21 21 2
;
_chemical_formula_sum "Si O2"
_cell_formula_units_Z 28
_cell_length_a 7.740574
_cell_length_b 26.922315
_cell_length_c 5.471214
_cell_angle_alpha 90.000000
_cell_angle_beta 90.000000
_cell_angle_gamma 90.000000
_cell_volume 1140.169109
_symmetry_space_group_name_H-M "P 21 21 2"
_symmetry_group_IT_number 18
_symmetry_cell_setting 'orthorhombic'
loop_
_space_group_symop_operation_xyz
x,y,z
-x,-y,z
1/2+x,1/2-y,-z
1/2-x,1/2+y,-z
loop_
_atom_site_type_symbol
_atom_site_label
_atom_site_fract_x
_atom_site_fract_y
_atom_site_fract_z
Si Si1 0.404067 0.203172 0.955794
Si Si2 0.000000 0.500000 0.200979
Si Si3 0.500000 0.500000 0.924117
Si Si4 0.896546 0.200156 0.756297
Si Si5 0.562531 0.899364 0.047823
Si Si6 0.708085 0.281503 0.561854
Si Si7 0.248746 0.549667 0.565949
Si Si8 0.049608 0.097949 0.812658
O O1 0.462003 0.257999 0.047932
O O2 0.520591 0.153628 0.980926
O O3 0.280347 0.192356 0.196103
O O4 0.316447 0.207599 0.689010
O O5 0.163525 0.514430 0.366213
O O6 0.973004 0.551097 0.054500
O O7 0.334017 0.514448 0.765572
O O8 0.466982 0.451208 0.079755
O O9 0.019855 0.204375 0.520729
O O10 0.930935 0.145467 0.848648
O O11 0.720661 0.223641 0.648907
O O12 0.601901 0.914177 0.326880
O O13 0.756563 0.895988 0.926035
O O14 0.401829 0.584390 0.465314
#
# Coordination Sequence:
#
# PCOD9312115 Si02
#       8
#     4   2   2   4   4   4   4   4
#     4  10  23  38  69  94 131 170 226 263 326 403
#     4  10  22  36  68  96 124 168 228 274 334 404
#     4  10  22  38  70  98 126 174 224 272 334 404
#     4  10  23  39  72  94 134 172 227 269 336 393
#     4  10  20  38  66  93 122 176 223 267 332 404
#     4  10  23  39  68  97 129 172 220 272 325 393
#     4  10  21  39  69  91 130 168 225 274 332 402
#     4  10  20  40  69  93 129 176 223 269 328 409
#
# _framework density 24.557762
#
# number of rings (size 3 to 8) (size 9 to 14) (size 15 to 20)
#    0.857    1.143    1.429    1.714    4.000    2.286 
#    0.000    0.000   59.714    0.000    0.000    0.000 
#    0.000    0.000    0.000    0.000    0.000    0.000 
#
# Total GULP energy -156136.264070 kJ/mol
# GULP energy per Si atom -5576.295145 kJ/mol
# Density = 2.450187 g / cm^3
# Si number density = 24.557762 Si / 1000 Ang^3
#
#
#
# Elastic Constant Matrix: (Units=GPa)
#
#
# Indices 1 2 3 4 5 6 
#
# 1 31.7663 9.0732 2.0256 0.0000 0.0000 0.0000
# 2 9.0732 207.5707 51.7515 0.0000 0.0000 0.0000
# 3 2.0256 51.7515 95.9090 0.0000 0.0000 0.0000
# 4 0.0000 0.0000 0.0000 21.0098 0.0000 0.0000
# 5 0.0000 0.0000 0.0000 0.0000 34.2860 0.0000
# 6 0.0000 0.0000 0.0000 0.0000 0.0000 28.2442
#
#
#
# Elastic Compliance Matrix: (Units=1/GPa)
#
#
# Indices 1 2 3 4 5 6 
#
# 1 0.031879 -0.001416 0.000091 0.000000 0.000000 0.000000
# 2 -0.001416 0.005629 -0.003008 0.000000 0.000000 0.000000
# 3 0.000091 -0.003008 0.012048 0.000000 0.000000 0.000000
# 4 0.000000 0.000000 0.000000 0.047597 0.000000 0.000000
# 5 0.000000 0.000000 0.000000 0.000000 0.029166 0.000000
# 6 0.000000 0.000000 0.000000 0.000000 0.000000 0.035406
#
#
# Mechanical properties :
#
#
# Convention : Reuss Voigt Hill
#
# Bulk Modulus (GPa) = 24.45602 51.21628 37.83615
# Shear Modulus (GPa) = 27.17093 34.86769 31.01931
#
# Velocity S-wave (km/s) = 3.32988 3.77214 3.55789
# Velocity P-wave (km/s) = 4.97638 6.31449 5.68494
#
# Compressibility (1/GPa) = 0.04088973
#
# Stress axis : x y z
#
# Youngs Moduli (GPa) = 31.36897 177.63864 83.00450
#
# Poissons Ratio (x) = 0.25156 -0.00754
# Poissons Ratio (y) = 0.04442 0.24965
# Poissons Ratio (z) = -0.00285 0.53428
#
# Static dielectric constant tensor:
#      x y z
#    x 2.088700 0.000000 0.000000 
#    y 0.000000 2.046780 0.000000 
#    z 0.000000 0.000000 2.023330 
# 
# From -- ./inp_files/1304.got.cif
#   From: 2010.05.17/outbox.cif.g08.bks.cpg/sg18_1_cif.got.tgz:1304.got - 2010.06.03 22:40:56.
