data_PCOD9312794
_publ_section_title
;
Structure prediction by ZEFSAII (Michael W. Deem and Ramdas Pophale) SiO2 
 PCOD9312794
Probable space group: P 21 21 2
;
_chemical_formula_sum "Si O2"
_cell_formula_units_Z 32
_cell_length_a 7.541308
_cell_length_b 12.169211
_cell_length_c 15.200033
_cell_angle_alpha 90.000000
_cell_angle_beta 90.000000
_cell_angle_gamma 90.000000
_cell_volume 1394.933906
_symmetry_space_group_name_H-M "P 21 21 2"
_symmetry_group_IT_number 18
_symmetry_cell_setting 'orthorhombic'
loop_
_space_group_symop_operation_xyz
x,y,z
-x,-y,z
1/2+x,1/2-y,-z
1/2-x,1/2+y,-z
loop_
_atom_site_type_symbol
_atom_site_label
_atom_site_fract_x
_atom_site_fract_y
_atom_site_fract_z
Si Si1 0.337098 0.442353 0.522313
Si Si2 0.750750 0.094675 0.182667
Si Si3 0.098672 0.693608 0.903258
Si Si4 0.038021 0.115452 0.028199
Si Si5 0.734977 0.706306 0.273662
Si Si6 0.362697 0.251122 0.658489
Si Si7 0.197071 0.505088 0.352161
Si Si8 0.174942 0.569263 0.674687
O O1 0.500000 0.500000 0.471677
O O2 0.358717 0.326075 0.570362
O O3 0.186677 0.448535 0.448808
O O4 0.306044 0.531093 0.599278
O O5 0.564293 0.123523 0.136528
O O6 0.909540 0.109962 0.113784
O O7 0.774500 0.179246 0.263290
O O8 0.749665 0.976348 0.232258
O O9 0.254811 0.623847 0.948111
O O10 0.194755 0.764218 0.826702
O O11 0.015888 0.778985 0.972278
O O12 0.000000 0.000000 0.980285
O O13 0.689634 0.581757 0.296672
O O14 0.633405 0.802788 0.325801
O O15 0.936522 0.730972 0.306222
O O16 0.267390 0.134425 0.643897
O O17 0.000000 0.500000 0.311397
O O18 0.000000 0.500000 0.658970
#
# Coordination Sequence:
#
# PCOD9312794 Si02
#       8
#     4   4   4   4   4   4   4   4
#     4  11  23  39  65  96 135 178 237 299 349 408
#     4  11  24  42  73 104 138 185 236 294 357 427
#     4  12  25  48  70 108 143 185 235 289 362 438
#     4  12  27  45  74 106 144 181 234 302 356 425
#     4  11  22  43  68  96 142 182 231 291 355 427
#     4  10  23  43  67  99 139 187 241 290 355 426
#     4  10  25  43  64  97 141 191 229 291 357 425
#     4  11  22  39  68 102 128 176 234 290 351 416
#
# _framework density 22.940155000000001
#
# number of rings (size 3 to 8) (size 9 to 14) (size 15 to 20)
#    0.000    1.000    5.000    1.125    1.750    2.000 
#    0.000    0.000    0.000    0.000    0.000    0.000 
#    0.000    0.000    0.000    0.000    0.000    0.000 
#
# Total GULP energy -178823.310126 kJ/mol
# GULP energy per Si atom -5588.228441 kJ/mol
# Density = 2.288794 g / cm^3
# Si number density = 22.940155 Si / 1000 Ang^3
#
#
#
# Elastic Constant Matrix: (Units=GPa)
#
#
# Indices 1 2 3 4 5 6 
#
# 1 94.7312 19.3682 8.7150 0.0000 0.0000 0.0000
# 2 19.3682 151.7488 17.4346 0.0000 0.0000 0.0000
# 3 8.7150 17.4346 53.3062 0.0000 0.0000 0.0000
# 4 0.0000 0.0000 0.0000 28.5194 0.0000 0.0000
# 5 0.0000 0.0000 0.0000 0.0000 33.8714 0.0000
# 6 0.0000 0.0000 0.0000 0.0000 0.0000 32.5484
#
#
#
# Elastic Compliance Matrix: (Units=1/GPa)
#
#
# Indices 1 2 3 4 5 6 
#
# 1 0.010936 -0.001237 -0.001383 0.000000 0.000000 0.000000
# 2 -0.001237 0.006987 -0.002083 0.000000 0.000000 0.000000
# 3 -0.001383 -0.002083 0.019667 0.000000 0.000000 0.000000
# 4 0.000000 0.000000 0.000000 0.035064 0.000000 0.000000
# 5 0.000000 0.000000 0.000000 0.000000 0.029523 0.000000
# 6 0.000000 0.000000 0.000000 0.000000 0.000000 0.030723
#
#
# Mechanical properties :
#
#
# Convention : Reuss Voigt Hill
#
# Bulk Modulus (GPa) = 35.48148 43.42466 39.45307
# Shear Modulus (GPa) = 32.95931 35.93909 34.44920
#
# Velocity S-wave (km/s) = 3.79456 3.96238 3.87938
# Velocity P-wave (km/s) = 5.89057 6.31701 6.10751
#
# Compressibility (1/GPa) = 0.02818372
#
# Stress axis : x y z
#
# Youngs Moduli (GPa) = 91.43821 143.12244 50.84662
#
# Poissons Ratio (x) = 0.17703 0.07034
# Poissons Ratio (y) = 0.11310 0.10591
# Poissons Ratio (z) = 0.12650 0.29812
#
# Static dielectric constant tensor:
#      x y z
#    x 1.984360 0.000000 0.000000 
#    y 0.000000 1.891470 0.000000 
#    z 0.000000 0.000000 1.842110 
# 
# From -- ./inp_files/6788.got.cif
#   From: 2010.05.17/outbox.cif.g08.bks.cpg/sg18_4_cif.got.tgz:6788.got - 2010.06.03 22:40:56.
