data_PCOD9312154
_publ_section_title
;
Structure prediction by ZEFSAII (Michael W. Deem and Ramdas Pophale) SiO2 
 PCOD9312154
Probable space group: P 21 21 2
;
_chemical_formula_sum "Si O2"
_cell_formula_units_Z 26
_cell_length_a 11.049845
_cell_length_b 9.125847
_cell_length_c 11.798429
_cell_angle_alpha 90.000000
_cell_angle_beta 90.000000
_cell_angle_gamma 90.000000
_cell_volume 1189.744081
_symmetry_space_group_name_H-M "P 21 21 2"
_symmetry_group_IT_number 18
_symmetry_cell_setting 'orthorhombic'
loop_
_space_group_symop_operation_xyz
x,y,z
-x,-y,z
1/2+x,1/2-y,-z
1/2-x,1/2+y,-z
loop_
_atom_site_type_symbol
_atom_site_label
_atom_site_fract_x
_atom_site_fract_y
_atom_site_fract_z
Si Si1 0.512899 0.757074 0.521628
Si Si2 0.693898 0.007321 0.513445
Si Si3 0.368909 0.358919 0.316967
Si Si4 0.878304 0.081724 0.943377
Si Si5 0.129068 0.567547 0.973409
Si Si6 0.000000 0.000000 0.296173
Si Si7 0.758974 0.446389 0.739382
O O1 0.406488 0.871738 0.538434
O O2 0.519008 0.700446 0.391723
O O3 0.504049 0.636241 0.617550
O O4 0.637046 0.848179 0.533079
O O5 0.805146 0.032333 0.595475
O O6 0.721674 0.023920 0.380693
O O7 0.391628 0.417734 0.193083
O O8 0.278636 0.223300 0.291627
O O9 0.872921 0.254185 0.980900
O O10 0.000000 0.000000 0.986156
O O11 0.750512 0.000377 0.970026
O O12 0.148558 0.524271 0.840658
O O13 0.000000 0.500000 0.012469
O O14 0.877253 0.984734 0.225647
#
# Coordination Sequence:
#
# PCOD9312154 Si02
#       7
#     4   4   4   4   4   2   4
#     4  10  22  35  61  91 138 177 218 271 328 416
#     4  10  20  40  58  96 134 179 221 267 345 407
#     4  10  21  41  63  98 137 175 226 280 336 422
#     4  11  26  49  76 106 137 184 243 305 364 430
#     4  11  26  52  73 100 138 185 241 303 366 426
#     4  12  20  38  56  98 132 176 220 278 338 410
#     4  10  23  37  66  94 132 177 228 283 344 419
#
# _framework density 21.853439999999999
#
# number of rings (size 3 to 8) (size 9 to 14) (size 15 to 20)
#    0.000    1.538    3.077    0.923    8.615    0.000 
#    8.308    0.000    0.000    0.000    0.000    0.000 
#    0.000    0.000    0.000    0.000    0.000    0.000 
#
# Total GULP energy -145182.125849 kJ/mol
# GULP energy per Si atom -5583.927917 kJ/mol
# Density = 2.180370 g / cm^3
# Si number density = 21.853440 Si / 1000 Ang^3
#
#
#
# Elastic Constant Matrix: (Units=GPa)
#
#
# Indices 1 2 3 4 5 6 
#
# 1 120.5061 73.0522 3.7435 0.0000 0.0000 0.0000
# 2 73.0522 104.9754 42.0649 0.0000 0.0000 0.0000
# 3 3.7435 42.0649 47.5316 0.0000 0.0000 0.0000
# 4 0.0000 0.0000 0.0000 23.1907 0.0000 0.0000
# 5 0.0000 0.0000 0.0000 0.0000 20.3190 0.0000
# 6 0.0000 0.0000 0.0000 0.0000 0.0000 35.5135
#
#
#
# Elastic Compliance Matrix: (Units=1/GPa)
#
#
# Indices 1 2 3 4 5 6 
#
# 1 0.020652 -0.021258 0.017187 0.000000 0.000000 0.000000
# 2 -0.021258 0.036644 -0.030755 0.000000 0.000000 0.000000
# 3 0.017187 -0.030755 0.046903 0.000000 0.000000 0.000000
# 4 0.000000 0.000000 0.000000 0.043121 0.000000 0.000000
# 5 0.000000 0.000000 0.000000 0.000000 0.049215 0.000000
# 6 0.000000 0.000000 0.000000 0.000000 0.000000 0.028158
#
#
# Mechanical properties :
#
#
# Convention : Reuss Voigt Hill
#
# Bulk Modulus (GPa) = 28.94757 56.74827 42.84792
# Shear Modulus (GPa) = 16.34736 26.08147 21.21441
#
# Velocity S-wave (km/s) = 2.73801 3.45841 3.11908
# Velocity P-wave (km/s) = 4.82396 6.47854 5.71148
#
# Compressibility (1/GPa) = 0.03454522
#
# Stress axis : x y z
#
# Youngs Moduli (GPa) = 48.42253 27.28986 21.32070
#
# Poissons Ratio (x) = 0.58014 -0.36644
# Poissons Ratio (y) = 1.02939 0.65572
# Poissons Ratio (z) = -0.83224 0.83930
#
# Static dielectric constant tensor:
#      x y z
#    x 1.852570 0.000000 0.000000 
#    y 0.000000 1.816920 0.000000 
#    z 0.000000 0.000000 1.804230 
# 
# From -- ./inp_files/5855.got.cif
#   From: 2010.05.17/outbox.cif.g08.bks.cpg/sg18_3_cif.got.tgz:5855.got - 2010.06.03 22:40:56.
