data_PCOD9312226
_publ_section_title
;
Structure prediction by ZEFSAII (Michael W. Deem and Ramdas Pophale) SiO2 
 PCOD9312226
Probable space group: P 21 21 2
;
_chemical_formula_sum "Si O2"
_cell_formula_units_Z 24
_cell_length_a 11.776773
_cell_length_b 11.784279
_cell_length_c 7.593207
_cell_angle_alpha 90.000000
_cell_angle_beta 90.000000
_cell_angle_gamma 90.000000
_cell_volume 1053.791181
_symmetry_space_group_name_H-M "P 21 21 2"
_symmetry_group_IT_number 18
_symmetry_cell_setting 'orthorhombic'
loop_
_space_group_symop_operation_xyz
x,y,z
-x,-y,z
1/2+x,1/2-y,-z
1/2-x,1/2+y,-z
loop_
_atom_site_type_symbol
_atom_site_label
_atom_site_fract_x
_atom_site_fract_y
_atom_site_fract_z
Si Si1 0.424126 0.699452 0.706815
Si Si2 0.951776 0.381548 0.845025
Si Si3 0.589546 0.899770 0.745240
Si Si4 0.186226 0.806506 0.719120
Si Si5 0.476456 0.652619 0.080463
Si Si6 0.662401 0.455599 0.392741
O O1 0.533188 0.780516 0.688865
O O2 0.318563 0.785884 0.735255
O O3 0.209268 0.577571 0.344660
O O4 0.440473 0.628409 0.884500
O O5 0.000000 0.500000 0.782030
O O6 0.897294 0.398608 0.039709
O O7 0.868896 0.319013 0.707590
O O8 0.048362 0.286265 0.878620
O O9 0.390521 0.616840 0.549819
O O10 0.500000 0.000000 0.706504
O O11 0.112938 0.848150 0.889284
O O12 0.161016 0.907887 0.583623
O O13 0.411204 0.581181 0.223714
#
# Coordination Sequence:
#
# PCOD9312226 Si02
#       6
#     4   4   4   4   4   4
#     4  11  24  45  68 109 143 195 250 300 369 445
#     4   8  18  39  71 103 135 187 243 289 359 441
#     4  10  20  42  72 102 142 194 247 307 368 444
#     4  10  22  44  70 103 150 185 243 310 361 434
#     4   9  23  44  70 100 144 190 238 306 365 434
#     4  12  24  42  72 103 147 192 242 308 375 430
#
# _framework density 22.774912
#
# number of rings (size 3 to 8) (size 9 to 14) (size 15 to 20)
#    1.000    1.000    1.667    1.500    2.333    0.000 
#    3.000    6.667    0.000    1.000    0.000    0.000 
#    0.000    0.000    0.000    0.000    0.000    0.000 
#
# Total GULP energy -133883.615489 kJ/mol
# GULP energy per Si atom -5578.483979 kJ/mol
# Density = 2.272308 g / cm^3
# Si number density = 22.774912 Si / 1000 Ang^3
#
#
#
# Elastic Constant Matrix: (Units=GPa)
#
#
# Indices 1 2 3 4 5 6 
#
# 1 115.8986 50.1225 52.0882 0.0000 0.0000 0.0000
# 2 50.1225 143.1724 45.9853 0.0000 0.0000 0.0000
# 3 52.0882 45.9853 104.7098 0.0000 0.0000 0.0000
# 4 0.0000 0.0000 0.0000 25.1451 0.0000 0.0000
# 5 0.0000 0.0000 0.0000 0.0000 14.7852 0.0000
# 6 0.0000 0.0000 0.0000 0.0000 0.0000 33.5015
#
#
#
# Elastic Compliance Matrix: (Units=1/GPa)
#
#
# Indices 1 2 3 4 5 6 
#
# 1 0.011912 -0.002639 -0.004767 0.000000 0.000000 0.000000
# 2 -0.002639 0.008716 -0.002515 0.000000 0.000000 0.000000
# 3 -0.004767 -0.002515 0.013026 0.000000 0.000000 0.000000
# 4 0.000000 0.000000 0.000000 0.039769 0.000000 0.000000
# 5 0.000000 0.000000 0.000000 0.000000 0.067635 0.000000
# 6 0.000000 0.000000 0.000000 0.000000 0.000000 0.029849
#
#
# Mechanical properties :
#
#
# Convention : Reuss Voigt Hill
#
# Bulk Modulus (GPa) = 72.39844 73.35254 72.87549
# Shear Modulus (GPa) = 25.59461 29.05867 27.32664
#
# Velocity S-wave (km/s) = 3.35596 3.57586 3.46765
# Velocity P-wave (km/s) = 6.84648 7.02329 6.93545
#
# Compressibility (1/GPa) = 0.01381245
#
# Stress axis : x y z
#
# Youngs Moduli (GPa) = 83.95025 114.72706 76.77029
#
# Poissons Ratio (x) = 0.30279 0.36593
# Poissons Ratio (y) = 0.22156 0.19308
# Poissons Ratio (z) = 0.40015 0.28855
#
# Static dielectric constant tensor:
#      x y z
#    x 1.847770 0.000000 0.000000 
#    y 0.000000 1.969130 0.000000 
#    z 0.000000 0.000000 1.866580 
# 
# From -- ./inp_files/3975.got.cif
#   From: 2010.05.17/outbox.cif.g08.bks.cpg/sg18_2_cif.got.tgz:3975.got - 2010.06.03 22:40:56.
