data_PCOD9312829
_publ_section_title
;
Structure prediction by ZEFSAII (Michael W. Deem and Ramdas Pophale) SiO2 
 PCOD9312829
Probable space group: P 21 21 2
;
_chemical_formula_sum "Si O2"
_cell_formula_units_Z 16
_cell_length_a 8.064868
_cell_length_b 10.464407
_cell_length_c 7.147859
_cell_angle_alpha 90.000000
_cell_angle_beta 90.000000
_cell_angle_gamma 90.000000
_cell_volume 603.236850
_symmetry_space_group_name_H-M "P 21 21 2"
_symmetry_group_IT_number 18
_symmetry_cell_setting 'orthorhombic'
loop_
_space_group_symop_operation_xyz
x,y,z
-x,-y,z
1/2+x,1/2-y,-z
1/2-x,1/2+y,-z
loop_
_atom_site_type_symbol
_atom_site_label
_atom_site_fract_x
_atom_site_fract_y
_atom_site_fract_z
Si Si1 0.690506 0.274608 0.835600
Si Si2 0.326234 0.569945 0.190417
Si Si3 0.182729 0.539081 0.569736
Si Si4 0.308926 0.323416 0.811841
O O1 0.776425 0.319184 0.646129
O O2 0.493614 0.264486 0.809806
O O3 0.721975 0.395736 0.977493
O O4 0.763813 0.161522 0.965433
O O5 0.500000 0.500000 0.205647
O O6 0.204583 0.517995 0.349027
O O7 0.330555 0.721716 0.251567
O O8 0.305895 0.442209 0.675141
O O9 0.000000 0.500000 0.628456
#
# Coordination Sequence:
#
# PCOD9312829 Si02
#       4
#     4   4   4   4
#     4  10  23  47  69 104 140 191 239 300 358 426
#     4  10  24  45  70 103 142 190 238 300 357 428
#     4  12  25  43  67 104 147 185 246 300 354 438
#     4  10  23  45  71 101 141 193 232 302 360 423
#
# _framework density 26.523578000000001
#
# number of rings (size 3 to 8) (size 9 to 14) (size 15 to 20)
#    1.500    0.000    0.000    5.250    0.000    5.000 
#    9.000    0.000    0.000    0.000    0.000    0.000 
#    0.000    0.000    0.000    0.000    0.000    0.000 
#
# Total GULP energy -89289.880877 kJ/mol
# GULP energy per Si atom -5580.617555 kJ/mol
# Density = 2.646321 g / cm^3
# Si number density = 26.523578 Si / 1000 Ang^3
#
#
#
# Elastic Constant Matrix: (Units=GPa)
#
#
# Indices 1 2 3 4 5 6 
#
# 1 108.0919 -4.0535 13.1364 0.0000 0.0000 0.0000
# 2 -4.0535 32.3889 5.0897 0.0000 0.0000 0.0000
# 3 13.1364 5.0897 120.0770 0.0000 0.0000 0.0000
# 4 0.0000 0.0000 0.0000 35.3589 0.0000 0.0000
# 5 0.0000 0.0000 0.0000 0.0000 34.5771 0.0000
# 6 0.0000 0.0000 0.0000 0.0000 0.0000 44.5512
#
#
#
# Elastic Compliance Matrix: (Units=1/GPa)
#
#
# Indices 1 2 3 4 5 6 
#
# 1 0.009434 0.001352 -0.001089 0.000000 0.000000 0.000000
# 2 0.001352 0.031276 -0.001474 0.000000 0.000000 0.000000
# 3 -0.001089 -0.001474 0.008510 0.000000 0.000000 0.000000
# 4 0.000000 0.000000 0.000000 0.028281 0.000000 0.000000
# 5 0.000000 0.000000 0.000000 0.000000 0.028921 0.000000
# 6 0.000000 0.000000 0.000000 0.000000 0.000000 0.022446
#
#
# Mechanical properties :
#
#
# Convention : Reuss Voigt Hill
#
# Bulk Modulus (GPa) = 21.36868 32.10037 26.73453
# Shear Modulus (GPa) = 34.03922 39.32311 36.68117
#
# Velocity S-wave (km/s) = 3.58628 3.85460 3.72286
# Velocity P-wave (km/s) = 5.02221 5.65149 5.34612
#
# Compressibility (1/GPa) = 0.04679745
#
# Stress axis : x y z
#
# Youngs Moduli (GPa) = 105.99418 31.97387 117.51387
#
# Poissons Ratio (x) = -0.04323 0.12802
# Poissons Ratio (y) = -0.14330 0.17317
# Poissons Ratio (z) = 0.11547 0.04712
#
# Static dielectric constant tensor:
#      x y z
#    x 1.943110 0.000000 0.000000 
#    y 0.000000 2.356800 0.000000 
#    z 0.000000 0.000000 2.177900 
# 
# From -- ./inp_files/2864.got.cif
#   From: 2010.05.17/outbox.cif.g08.bks.cpg/sg18_2_cif.got.tgz:2864.got - 2010.06.03 22:40:56.
