data_PCOD9312800
_publ_section_title
;
Structure prediction by ZEFSAII (Michael W. Deem and Ramdas Pophale) SiO2 
 PCOD9312800
Probable space group: P 21 21 2
;
_chemical_formula_sum "Si O2"
_cell_formula_units_Z 28
_cell_length_a 18.947524
_cell_length_b 7.968903
_cell_length_c 8.380188
_cell_angle_alpha 90.000000
_cell_angle_beta 90.000000
_cell_angle_gamma 90.000000
_cell_volume 1265.332806
_symmetry_space_group_name_H-M "P 21 21 2"
_symmetry_group_IT_number 18
_symmetry_cell_setting 'orthorhombic'
loop_
_space_group_symop_operation_xyz
x,y,z
-x,-y,z
1/2+x,1/2-y,-z
1/2-x,1/2+y,-z
loop_
_atom_site_type_symbol
_atom_site_label
_atom_site_fract_x
_atom_site_fract_y
_atom_site_fract_z
Si Si1 0.129969 0.359586 0.063240
Si Si2 0.500000 0.000000 0.783366
Si Si3 0.802461 0.952031 0.236488
Si Si4 0.585533 0.802774 0.526161
Si Si5 0.644257 0.005040 0.285900
Si Si6 0.853839 0.852608 0.587831
Si Si7 0.500000 0.500000 0.421936
Si Si8 0.707339 0.837692 0.748758
O O1 0.163534 0.183422 0.117612
O O2 0.173688 0.513566 0.146668
O O3 0.048628 0.374934 0.117173
O O4 0.130072 0.397847 0.876627
O O5 0.552704 0.911546 0.664191
O O6 0.719583 0.917969 0.262212
O O7 0.839126 0.924640 0.410276
O O8 0.801951 0.148311 0.179125
O O9 0.586106 0.876165 0.348029
O O10 0.536943 0.641958 0.525582
O O11 0.666736 0.803379 0.581021
O O12 0.645952 0.150086 0.421030
O O13 0.786974 0.887193 0.701787
O O14 0.929361 0.917262 0.654590
#
# Coordination Sequence:
#
# PCOD9312800 Si02
#       8
#     4   2   4   4   4   4   2   4
#     4  11  26  46  70 102 149 188 230 297 381 433
#     4  10  24  44  74  96 142 192 228 306 360 440
#     4  11  23  43  72 104 136 185 240 306 349 427
#     4  11  21  42  67 104 132 185 243 297 349 430
#     4  11  26  43  74 101 145 191 244 302 365 445
#     4  11  23  43  67 105 135 185 251 300 361 426
#     4  12  24  36  68 106 140 174 234 322 358 420
#     4  10  23  43  71 102 136 181 248 293 359 428
#
# _framework density 22.128564999999998
#
# number of rings (size 3 to 8) (size 9 to 14) (size 15 to 20)
#    0.000    1.143    2.857    3.429    8.000    1.714 
#    2.571    0.000    0.000    0.000    0.000    0.000 
#    0.000    0.000    0.000    0.000    0.000    0.000 
#
# Total GULP energy -156119.221807 kJ/mol
# GULP energy per Si atom -5575.686493 kJ/mol
# Density = 2.207820 g / cm^3
# Si number density = 22.128565 Si / 1000 Ang^3
#
#
#
# Elastic Constant Matrix: (Units=GPa)
#
#
# Indices 1 2 3 4 5 6 
#
# 1 138.5620 23.5745 35.5595 0.0000 0.0000 0.0000
# 2 23.5745 63.7851 30.2708 0.0000 0.0000 0.0000
# 3 35.5595 30.2708 71.6484 0.0000 0.0000 0.0000
# 4 0.0000 0.0000 0.0000 20.8533 0.0000 0.0000
# 5 0.0000 0.0000 0.0000 0.0000 14.3366 0.0000
# 6 0.0000 0.0000 0.0000 0.0000 0.0000 44.9704
#
#
#
# Elastic Compliance Matrix: (Units=1/GPa)
#
#
# Indices 1 2 3 4 5 6 
#
# 1 0.008370 -0.001403 -0.003561 0.000000 0.000000 0.000000
# 2 -0.001403 0.019845 -0.007688 0.000000 0.000000 0.000000
# 3 -0.003561 -0.007688 0.018972 0.000000 0.000000 0.000000
# 4 0.000000 0.000000 0.000000 0.047954 0.000000 0.000000
# 5 0.000000 0.000000 0.000000 0.000000 0.069752 0.000000
# 6 0.000000 0.000000 0.000000 0.000000 0.000000 0.022237
#
#
# Mechanical properties :
#
#
# Convention : Reuss Voigt Hill
#
# Bulk Modulus (GPa) = 45.69849 50.31167 48.00508
# Shear Modulus (GPa) = 22.75545 28.33810 25.54678
#
# Velocity S-wave (km/s) = 3.21024 3.58245 3.40144
# Velocity P-wave (km/s) = 5.86831 6.31643 6.09649
#
# Compressibility (1/GPa) = 0.02188256
#
# Stress axis : x y z
#
# Youngs Moduli (GPa) = 119.47979 50.39132 52.70833
#
# Poissons Ratio (x) = 0.07072 0.18769
# Poissons Ratio (y) = 0.16768 0.40520
# Poissons Ratio (z) = 0.42546 0.38739
#
# Static dielectric constant tensor:
#      x y z
#    x 1.629720 0.000000 0.000000 
#    y 0.000000 1.898810 0.000000 
#    z 0.000000 0.000000 1.809990 
# 
# From -- ./inp_files/4553.got.cif
#   From: 2010.05.17/outbox.cif.g08.bks.cpg/sg18_3_cif.got.tgz:4553.got - 2010.06.03 22:40:56.
