data_PCOD9312261
_publ_section_title
;
Structure prediction by ZEFSAII (Michael W. Deem and Ramdas Pophale) SiO2 
 PCOD9312261
Probable space group: P 21 21 2
;
_chemical_formula_sum "Si O2"
_cell_formula_units_Z 32
_cell_length_a 9.728930
_cell_length_b 7.322404
_cell_length_c 19.967504
_cell_angle_alpha 90.000000
_cell_angle_beta 90.000000
_cell_angle_gamma 90.000000
_cell_volume 1422.468131
_symmetry_space_group_name_H-M "P 21 21 2"
_symmetry_group_IT_number 18
_symmetry_cell_setting 'orthorhombic'
loop_
_space_group_symop_operation_xyz
x,y,z
-x,-y,z
1/2+x,1/2-y,-z
1/2-x,1/2+y,-z
loop_
_atom_site_type_symbol
_atom_site_label
_atom_site_fract_x
_atom_site_fract_y
_atom_site_fract_z
Si Si1 0.239858 0.690418 0.695212
Si Si2 0.590929 0.818792 0.065311
Si Si3 0.133035 0.244327 0.571052
Si Si4 0.490159 0.221866 0.207775
Si Si5 0.826834 0.323150 0.553248
Si Si6 0.257533 0.748007 0.284650
Si Si7 0.984012 0.775857 0.211663
Si Si8 0.076014 0.188736 0.065112
O O1 0.097969 0.760063 0.726053
O O2 0.257805 0.740783 0.618271
O O3 0.242998 0.469671 0.704362
O O4 0.352262 0.765734 0.744592
O O5 0.571272 0.717462 0.136725
O O6 0.757461 0.830566 0.054470
O O7 0.500000 0.000000 0.077069
O O8 0.508561 0.751100 0.000193
O O9 0.143229 0.465121 0.568960
O O10 0.237804 0.182319 0.513551
O O11 0.186922 0.178484 0.643738
O O12 0.971771 0.214548 0.553712
O O13 0.639015 0.295804 0.224256
O O14 0.500000 0.000000 0.207635
O O15 0.110797 0.700881 0.254244
O O16 0.956820 0.711301 0.135502
O O17 0.000000 0.000000 0.211465
O O18 0.000000 0.000000 0.077321
#
# Coordination Sequence:
#
# PCOD9312261 Si02
#       8
#     4   4   4   4   4   4   4   4
#     4   9  15  31  49  77 102 136 172 231 269 318
#     4  11  23  37  59  84 115 152 186 229 283 333
#     4  10  21  36  53  81 109 146 178 223 271 326
#     4   9  16  29  53  76 103 135 181 226 279 314
#     4  10  21  35  55  78 113 141 181 221 273 325
#     4   9  17  29  51  77 105 134 179 228 273 316
#     4   9  18  29  51  80 108 132 180 230 273 313
#     4  11  23  38  57  85 117 148 187 230 281 337
#
# _framework density 22.496110000000002
#
# number of rings (size 3 to 8) (size 9 to 14) (size 15 to 20)
#    0.000    2.250    2.500    0.750    8.750    0.500 
#    0.000    0.000    0.000    3.000    0.000    0.000 
#    0.000    0.000    0.000    0.000    0.000    0.000 
#
# Total GULP energy -178265.102793 kJ/mol
# GULP energy per Si atom -5570.784462 kJ/mol
# Density = 2.244491 g / cm^3
# Si number density = 22.496110 Si / 1000 Ang^3
#
#
#
# Elastic Constant Matrix: (Units=GPa)
#
#
# Indices 1 2 3 4 5 6 
#
# 1 112.3110 -3.5734 68.8693 0.0000 0.0000 0.0000
# 2 -3.5734 42.7820 -3.1566 0.0000 0.0000 0.0000
# 3 68.8693 -3.1566 189.6626 0.0000 0.0000 0.0000
# 4 0.0000 0.0000 0.0000 22.4362 0.0000 0.0000
# 5 0.0000 0.0000 0.0000 0.0000 40.3452 0.0000
# 6 0.0000 0.0000 0.0000 0.0000 0.0000 9.3598
#
#
#
# Elastic Compliance Matrix: (Units=1/GPa)
#
#
# Indices 1 2 3 4 5 6 
#
# 1 0.011472 0.000652 -0.004155 0.000000 0.000000 0.000000
# 2 0.000652 0.023440 0.000153 0.000000 0.000000 0.000000
# 3 -0.004155 0.000153 0.006784 0.000000 0.000000 0.000000
# 4 0.000000 0.000000 0.000000 0.044571 0.000000 0.000000
# 5 0.000000 0.000000 0.000000 0.000000 0.024786 0.000000
# 6 0.000000 0.000000 0.000000 0.000000 0.000000 0.106840
#
#
# Mechanical properties :
#
#
# Convention : Reuss Voigt Hill
#
# Bulk Modulus (GPa) = 28.57410 52.11490 40.34450
# Shear Modulus (GPa) = 21.16324 33.26932 27.21628
#
# Velocity S-wave (km/s) = 3.07049 3.84981 3.48202
# Velocity P-wave (km/s) = 5.02991 6.55575 5.84285
#
# Compressibility (1/GPa) = 0.03499673
#
# Stress axis : x y z
#
# Youngs Moduli (GPa) = 87.16567 42.66196 147.40994
#
# Poissons Ratio (x) = -0.02780 0.61248
# Poissons Ratio (y) = -0.05680 -0.02263
# Poissons Ratio (z) = 0.36217 -0.00655
#
# Static dielectric constant tensor:
#      x y z
#    x 1.684380 0.000000 0.000000 
#    y 0.000000 1.888320 0.000000 
#    z 0.000000 0.000000 1.880250 
# 
# From -- ./inp_files/7350.got.cif
#   From: 2010.05.17/outbox.cif.g08.bks.cpg/sg18_4_cif.got.tgz:7350.got - 2010.06.03 22:40:56.
