data_PCOD9312905
_publ_section_title
;
Structure prediction by ZEFSAII (Michael W. Deem and Ramdas Pophale) SiO2 
 PCOD9312905
Probable space group: P 21 21 2
;
_chemical_formula_sum "Si O2"
_cell_formula_units_Z 30
_cell_length_a 6.183557
_cell_length_b 17.062919
_cell_length_c 13.497520
_cell_angle_alpha 90.000000
_cell_angle_beta 90.000000
_cell_angle_gamma 90.000000
_cell_volume 1424.117021
_symmetry_space_group_name_H-M "P 21 21 2"
_symmetry_group_IT_number 18
_symmetry_cell_setting 'orthorhombic'
loop_
_space_group_symop_operation_xyz
x,y,z
-x,-y,z
1/2+x,1/2-y,-z
1/2-x,1/2+y,-z
loop_
_atom_site_type_symbol
_atom_site_label
_atom_site_fract_x
_atom_site_fract_y
_atom_site_fract_z
Si Si1 0.760660 0.645536 0.924287
Si Si2 0.043931 0.275813 0.531516
Si Si3 0.318443 0.561962 0.673752
Si Si4 0.447162 0.717203 0.759734
Si Si5 0.639122 0.931632 0.539045
Si Si6 0.000000 0.500000 0.834903
Si Si7 0.061035 0.791823 0.884732
Si Si8 0.314417 0.677185 0.303407
O O1 0.605336 0.669982 0.833724
O O2 0.865333 0.561739 0.900192
O O3 0.932813 0.716939 0.928277
O O4 0.633842 0.651751 0.027199
O O5 0.295737 0.253035 0.499543
O O6 0.055216 0.248501 0.645400
O O7 0.024071 0.365646 0.502129
O O8 0.500000 0.500000 0.702953
O O9 0.387748 0.652630 0.677586
O O10 0.250009 0.540672 0.562513
O O11 0.139562 0.552339 0.758682
O O12 0.259295 0.753572 0.825494
O O13 0.574030 0.789308 0.711402
O O14 0.801920 0.892734 0.617666
O O15 0.500000 0.000000 0.586739
O O16 0.915364 0.836313 0.803527
#
# Coordination Sequence:
#
# PCOD9312905 Si02
#       8
#     4   4   4   4   4   2   4   4
#     4  11  23  41  71 103 140 171 232 297 366 435
#     4  10  24  44  70 101 139 188 248 303 362 432
#     4  12  25  41  66 104 142 181 228 293 372 437
#     4  11  23  41  71  96 138 176 233 296 354 439
#     4  11  26  43  67 100 146 192 240 295 364 443
#     4  12  24  44  64 110 148 176 224 302 380 428
#     4  11  22  42  72 104 131 184 240 292 361 446
#     4  10  26  42  69 100 137 191 247 296 354 440
#
# _framework density 21.065685999999999
#
# number of rings (size 3 to 8) (size 9 to 14) (size 15 to 20)
#    0.000    1.067    4.667    0.800   14.933    0.000 
#    0.000    0.000    1.467    1.600    0.000    0.000 
#    0.000    0.000    0.000    0.000    0.000    0.000 
#
# Total GULP energy -167387.898845 kJ/mol
# GULP energy per Si atom -5579.596628 kJ/mol
# Density = 2.101774 g / cm^3
# Si number density = 21.065686 Si / 1000 Ang^3
#
#
#
# Elastic Constant Matrix: (Units=GPa)
#
#
# Indices 1 2 3 4 5 6 
#
# 1 67.7214 16.7030 15.8076 0.0000 0.0000 0.0000
# 2 16.7030 64.7129 21.5053 0.0000 0.0000 0.0000
# 3 15.8076 21.5053 102.3929 0.0000 0.0000 0.0000
# 4 0.0000 0.0000 0.0000 26.9782 0.0000 0.0000
# 5 0.0000 0.0000 0.0000 0.0000 25.1979 0.0000
# 6 0.0000 0.0000 0.0000 0.0000 0.0000 26.0061
#
#
#
# Elastic Compliance Matrix: (Units=1/GPa)
#
#
# Indices 1 2 3 4 5 6 
#
# 1 0.016050 -0.003568 -0.001728 0.000000 0.000000 0.000000
# 2 -0.003568 0.017406 -0.003105 0.000000 0.000000 0.000000
# 3 -0.001728 -0.003105 0.010685 0.000000 0.000000 0.000000
# 4 0.000000 0.000000 0.000000 0.037067 0.000000 0.000000
# 5 0.000000 0.000000 0.000000 0.000000 0.039686 0.000000
# 6 0.000000 0.000000 0.000000 0.000000 0.000000 0.038453
#
#
# Mechanical properties :
#
#
# Convention : Reuss Voigt Hill
#
# Bulk Modulus (GPa) = 36.57923 38.09546 37.33734
# Shear Modulus (GPa) = 26.98884 27.69050 27.33967
#
# Velocity S-wave (km/s) = 3.58323 3.62951 3.60645
# Velocity P-wave (km/s) = 5.87550 5.97393 5.92492
#
# Compressibility (1/GPa) = 0.02733792
#
# Stress axis : x y z
#
# Youngs Moduli (GPa) = 62.30565 57.45256 93.58722
#
# Poissons Ratio (x) = 0.20501 0.16175
# Poissons Ratio (y) = 0.22232 0.29057
# Poissons Ratio (z) = 0.10769 0.17838
#
# Static dielectric constant tensor:
#      x y z
#    x 1.854970 0.000000 0.000000 
#    y 0.000000 1.830190 0.000000 
#    z 0.000000 0.000000 1.761420 
# 
# From -- ./inp_files/6542.got.cif
#   From: 2010.05.17/outbox.cif.g08.bks.cpg/sg18_4_cif.got.tgz:6542.got - 2010.06.03 22:40:56.
