data_PCOD9312471
_publ_section_title
;
Structure prediction by ZEFSAII (Michael W. Deem and Ramdas Pophale) SiO2 
 PCOD9312471
Probable space group: P 21 21 2
;
_chemical_formula_sum "Si O2"
_cell_formula_units_Z 16
_cell_length_a 10.063229
_cell_length_b 12.879230
_cell_length_c 4.872109
_cell_angle_alpha 90.000000
_cell_angle_beta 90.000000
_cell_angle_gamma 90.000000
_cell_volume 631.457681
_symmetry_space_group_name_H-M "P 21 21 2"
_symmetry_group_IT_number 18
_symmetry_cell_setting 'orthorhombic'
loop_
_space_group_symop_operation_xyz
x,y,z
-x,-y,z
1/2+x,1/2-y,-z
1/2-x,1/2+y,-z
loop_
_atom_site_type_symbol
_atom_site_label
_atom_site_fract_x
_atom_site_fract_y
_atom_site_fract_z
Si Si1 0.012203 0.121521 0.601540
Si Si2 0.651315 0.016110 0.481131
Si Si3 0.250359 0.766265 0.418442
Si Si4 0.729483 0.403546 0.023875
O O1 0.131122 0.191591 0.464105
O O2 0.072129 0.111248 0.911825
O O3 0.879457 0.189223 0.571228
O O4 0.000000 0.000000 0.501226
O O5 0.673268 0.128304 0.354230
O O6 0.500000 0.000000 0.552337
O O7 0.733737 0.994258 0.756156
O O8 0.699954 0.936736 0.251102
O O9 0.206989 0.700549 0.153289
#
# Coordination Sequence:
#
# PCOD9312471 Si02
#       4
#     4   4   4   4
#     4  10  21  47  71 116 149 202 251 319 367 465
#     4  12  24  48  73 109 150 195 251 311 374 454
#     4  10  22  45  75 106 149 202 241 312 383 436
#     4  10  26  45  72 110 145 197 250 308 369 456
#
# _framework density 25.338201000000002
#
# number of rings (size 3 to 8) (size 9 to 14) (size 15 to 20)
#    1.500    0.000    2.500    2.250    0.000    2.000 
#   13.500    0.000    0.000    0.000    0.000    0.000 
#    0.000    0.000    0.000    0.000    0.000    0.000 
#
# Total GULP energy -89168.224627 kJ/mol
# GULP energy per Si atom -5573.014039 kJ/mol
# Density = 2.528053 g / cm^3
# Si number density = 25.338201 Si / 1000 Ang^3
#
#
#
# Elastic Constant Matrix: (Units=GPa)
#
#
# Indices 1 2 3 4 5 6 
#
# 1 163.8792 62.1645 10.8969 0.0000 0.0000 0.0000
# 2 62.1645 143.3592 -6.5401 0.0000 0.0000 0.0000
# 3 10.8969 -6.5401 21.9613 0.0000 0.0000 0.0000
# 4 0.0000 0.0000 0.0000 7.1744 0.0000 0.0000
# 5 0.0000 0.0000 0.0000 0.0000 2.3810 0.0000
# 6 0.0000 0.0000 0.0000 0.0000 0.0000 60.1638
#
#
#
# Elastic Compliance Matrix: (Units=1/GPa)
#
#
# Indices 1 2 3 4 5 6 
#
# 1 0.007799 -0.003608 -0.004944 0.000000 0.000000 0.000000
# 2 -0.003608 0.008740 0.004393 0.000000 0.000000 0.000000
# 3 -0.004944 0.004393 0.049296 0.000000 0.000000 0.000000
# 4 0.000000 0.000000 0.000000 0.139384 0.000000 0.000000
# 5 0.000000 0.000000 0.000000 0.000000 0.419995 0.000000
# 6 0.000000 0.000000 0.000000 0.000000 0.000000 0.016621
#
#
# Mechanical properties :
#
#
# Convention : Reuss Voigt Hill
#
# Bulk Modulus (GPa) = 17.38593 51.36025 34.37309
# Shear Modulus (GPa) = 7.47020 31.45574 19.46297
#
# Velocity S-wave (km/s) = 1.71889 3.52722 2.77452
# Velocity P-wave (km/s) = 3.28876 6.07473 4.88458
#
# Compressibility (1/GPa) = 0.05751777
#
# Stress axis : x y z
#
# Youngs Moduli (GPa) = 128.21727 114.41370 20.28558
#
# Poissons Ratio (x) = 0.41275 0.10030
# Poissons Ratio (y) = 0.46255 -0.08911
# Poissons Ratio (z) = 0.63393 -0.50260
#
# Static dielectric constant tensor:
#      x y z
#    x 2.036850 0.000000 0.000000 
#    y 0.000000 2.054510 0.000000 
#    z 0.000000 0.000000 2.142230 
# 
# From -- ./inp_files/847.got.cif
#   From: 2010.05.17/outbox.cif.g08.bks.cpg/sg18_1_cif.got.tgz:847.got - 2010.06.03 22:40:56.
