data_PCOD9312672
_publ_section_title
;
Structure prediction by ZEFSAII (Michael W. Deem and Ramdas Pophale) SiO2 
 PCOD9312672
Probable space group: P 21 21 2
;
_chemical_formula_sum "Si O2"
_cell_formula_units_Z 32
_cell_length_a 8.738766
_cell_length_b 11.963312
_cell_length_c 14.991383
_cell_angle_alpha 90.000000
_cell_angle_beta 90.000000
_cell_angle_gamma 90.000000
_cell_volume 1567.267902
_symmetry_space_group_name_H-M "P 21 21 2"
_symmetry_group_IT_number 18
_symmetry_cell_setting 'orthorhombic'
loop_
_space_group_symop_operation_xyz
x,y,z
-x,-y,z
1/2+x,1/2-y,-z
1/2-x,1/2+y,-z
loop_
_atom_site_type_symbol
_atom_site_label
_atom_site_fract_x
_atom_site_fract_y
_atom_site_fract_z
Si Si1 0.856267 0.165684 0.229615
Si Si2 0.862988 0.579842 0.621604
Si Si3 0.835075 0.559534 0.124105
Si Si4 0.318679 0.483446 0.935067
Si Si5 0.801800 0.812447 0.190279
Si Si6 0.428741 0.273572 0.333613
Si Si7 0.678308 0.531237 0.446364
Si Si8 0.708972 0.400802 0.271017
O O1 0.764627 0.096410 0.303380
O O2 0.812235 0.294490 0.245509
O O3 0.037789 0.149955 0.233934
O O4 0.804302 0.120123 0.133308
O O5 0.782877 0.535411 0.532828
O O6 0.000000 0.500000 0.650486
O O7 0.950204 0.698365 0.612233
O O8 0.834459 0.691423 0.145877
O O9 0.736432 0.496814 0.199509
O O10 0.000000 0.500000 0.128858
O O11 0.766423 0.538331 0.026738
O O12 0.500000 0.500000 0.951886
O O13 0.261370 0.594303 0.883162
O O14 0.674393 0.796074 0.265664
O O15 0.328156 0.347114 0.400087
O O16 0.535351 0.356832 0.276084
O O17 0.500000 0.500000 0.465599
O O18 0.740315 0.447914 0.370128
#
# Coordination Sequence:
#
# PCOD9312672 Si02
#       8
#     4   4   4   4   4   4   4   4
#     4  10  23  47  66  94 137 180 225 286 338 407
#     4  11  25  41  66  96 132 178 224 277 342 409
#     4  12  25  40  68 101 133 178 230 288 338 405
#     4  10  26  42  63  98 137 177 228 278 344 407
#     4  11  23  42  69  99 134 183 228 277 349 405
#     4  10  23  41  67  95 134 176 222 275 351 401
#     4  10  23  42  64  99 130 173 223 282 335 405
#     4  10  22  43  66  97 133 172 228 281 341 401
#
# _framework density 20.417695999999999
#
# number of rings (size 3 to 8) (size 9 to 14) (size 15 to 20)
#    0.000    1.500    2.500    0.750    3.500   10.500 
#    0.000    0.000    0.000    0.000    0.000    0.000 
#    0.000    0.000    0.000    0.000    0.000    0.000 
#
# Total GULP energy -178876.704935 kJ/mol
# GULP energy per Si atom -5589.897029 kJ/mol
# Density = 2.037122 g / cm^3
# Si number density = 20.417696 Si / 1000 Ang^3
#
#
#
# Elastic Constant Matrix: (Units=GPa)
#
#
# Indices 1 2 3 4 5 6 
#
# 1 69.8901 37.5008 66.0504 0.0000 0.0000 0.0000
# 2 37.5008 99.9074 49.2364 0.0000 0.0000 0.0000
# 3 66.0504 49.2364 115.9618 0.0000 0.0000 0.0000
# 4 0.0000 0.0000 0.0000 31.5673 0.0000 0.0000
# 5 0.0000 0.0000 0.0000 0.0000 36.9893 0.0000
# 6 0.0000 0.0000 0.0000 0.0000 0.0000 38.4795
#
#
#
# Elastic Compliance Matrix: (Units=1/GPa)
#
#
# Indices 1 2 3 4 5 6 
#
# 1 0.032116 -0.003844 -0.016661 0.000000 0.000000 0.000000
# 2 -0.003844 0.013118 -0.003380 0.000000 0.000000 0.000000
# 3 -0.016661 -0.003380 0.019549 0.000000 0.000000 0.000000
# 4 0.000000 0.000000 0.000000 0.031678 0.000000 0.000000
# 5 0.000000 0.000000 0.000000 0.000000 0.027035 0.000000
# 6 0.000000 0.000000 0.000000 0.000000 0.000000 0.025988
#
#
# Mechanical properties :
#
#
# Convention : Reuss Voigt Hill
#
# Bulk Modulus (GPa) = 58.78063 65.70385 62.24224
# Shear Modulus (GPa) = 24.63961 30.27201 27.45581
#
# Velocity S-wave (km/s) = 3.47764 3.85468 3.67100
# Velocity P-wave (km/s) = 6.70648 7.21534 6.96556
#
# Compressibility (1/GPa) = 0.01701241
#
# Stress axis : x y z
#
# Youngs Moduli (GPa) = 31.13676 76.23083 51.15476
#
# Poissons Ratio (x) = 0.29305 0.85228
# Poissons Ratio (y) = 0.11970 0.17291
# Poissons Ratio (z) = 0.51876 0.25767
#
# Static dielectric constant tensor:
#      x y z
#    x 1.719950 0.000000 0.000000 
#    y 0.000000 1.789080 0.000000 
#    z 0.000000 0.000000 1.682740 
# 
# From -- ./inp_files/6814.got.cif
#   From: 2010.05.17/outbox.cif.g08.bks.cpg/sg18_4_cif.got.tgz:6814.got - 2010.06.03 22:40:56.
