data_PCOD9312124
_publ_section_title
;
Structure prediction by ZEFSAII (Michael W. Deem and Ramdas Pophale) SiO2 
 PCOD9312124
Probable space group: P 21 21 2
;
_chemical_formula_sum "Si O2"
_cell_formula_units_Z 24
_cell_length_a 14.763861
_cell_length_b 8.416488
_cell_length_c 9.083011
_cell_angle_alpha 90.000000
_cell_angle_beta 90.000000
_cell_angle_gamma 90.000000
_cell_volume 1128.653666
_symmetry_space_group_name_H-M "P 21 21 2"
_symmetry_group_IT_number 18
_symmetry_cell_setting 'orthorhombic'
loop_
_space_group_symop_operation_xyz
x,y,z
-x,-y,z
1/2+x,1/2-y,-z
1/2-x,1/2+y,-z
loop_
_atom_site_type_symbol
_atom_site_label
_atom_site_fract_x
_atom_site_fract_y
_atom_site_fract_z
Si Si1 0.427903 0.715107 0.425860
Si Si2 0.290293 0.846903 0.190631
Si Si3 0.134406 0.046405 0.289797
Si Si4 0.896624 0.287476 0.162293
Si Si5 0.500000 0.500000 0.195688
Si Si6 0.500000 0.000000 0.622332
Si Si7 0.926723 0.766148 0.017115
O O1 0.344264 0.770338 0.325466
O O2 0.390041 0.590307 0.544829
O O3 0.502926 0.644600 0.312969
O O4 0.465635 0.860323 0.518682
O O5 0.209613 0.731499 0.131741
O O6 0.238240 0.000833 0.251599
O O7 0.362865 0.861246 0.060595
O O8 0.106424 0.185126 0.178016
O O9 0.085075 0.881183 0.246624
O O10 0.922605 0.429186 0.271036
O O11 0.969062 0.287341 0.030723
O O12 0.425870 0.571869 0.082270
#
# Coordination Sequence:
#
# PCOD9312124 Si02
#       7
#     4   4   4   4   2   2   4
#     4  11  23  41  65 100 134 179 228 287 340 413
#     4   9  25  38  65 101 132 170 232 281 338 405
#     4  10  21  43  69  90 131 184 230 267 347 420
#     4  10  22  40  69  91 135 173 230 272 337 411
#     4  10  20  38  72  88 130 176 220 278 328 408
#     4  12  24  38  64 102 134 178 224 282 340 408
#     4  11  19  44  69  97 124 178 234 281 330 410
#
# _framework density 21.264274
#
# number of rings (size 3 to 8) (size 9 to 14) (size 15 to 20)
#    1.000    0.667    3.333    1.000    2.333    1.333 
#    0.000   10.000    0.000    0.000    0.000    0.000 
#    0.000    0.000    0.000    0.000    0.000    0.000 
#
# Total GULP energy -133685.826778 kJ/mol
# GULP energy per Si atom -5570.242782 kJ/mol
# Density = 2.121588 g / cm^3
# Si number density = 21.264274 Si / 1000 Ang^3
#
#
#
# Elastic Constant Matrix: (Units=GPa)
#
#
# Indices 1 2 3 4 5 6 
#
# 1 96.2691 15.8872 32.6532 0.0000 0.0000 0.0000
# 2 15.8872 51.1314 11.0964 0.0000 0.0000 0.0000
# 3 32.6532 11.0964 102.8862 0.0000 0.0000 0.0000
# 4 0.0000 0.0000 0.0000 21.1056 0.0000 0.0000
# 5 0.0000 0.0000 0.0000 0.0000 32.3812 0.0000
# 6 0.0000 0.0000 0.0000 0.0000 0.0000 29.0025
#
#
#
# Elastic Compliance Matrix: (Units=1/GPa)
#
#
# Indices 1 2 3 4 5 6 
#
# 1 0.012071 -0.002989 -0.003509 0.000000 0.000000 0.000000
# 2 -0.002989 0.020766 -0.001291 0.000000 0.000000 0.000000
# 3 -0.003509 -0.001291 0.010972 0.000000 0.000000 0.000000
# 4 0.000000 0.000000 0.000000 0.047381 0.000000 0.000000
# 5 0.000000 0.000000 0.000000 0.000000 0.030882 0.000000
# 6 0.000000 0.000000 0.000000 0.000000 0.000000 0.034480
#
#
# Mechanical properties :
#
#
# Convention : Reuss Voigt Hill
#
# Bulk Modulus (GPa) = 35.42075 41.06225 38.24150
# Shear Modulus (GPa) = 27.54208 29.20786 28.37497
#
# Velocity S-wave (km/s) = 3.60283 3.71018 3.65690
# Velocity P-wave (km/s) = 5.83102 6.14055 5.98778
#
# Compressibility (1/GPa) = 0.02823204
#
# Stress axis : x y z
#
# Youngs Moduli (GPa) = 82.84378 48.15477 91.13911
#
# Poissons Ratio (x) = 0.14394 0.31977
# Poissons Ratio (y) = 0.24763 0.11766
# Poissons Ratio (z) = 0.29066 0.06217
#
# Static dielectric constant tensor:
#      x y z
#    x 1.799010 0.000000 0.000000 
#    y 0.000000 1.818580 0.000000 
#    z 0.000000 0.000000 1.759790 
# 
# From -- ./inp_files/4189.got.cif
#   From: 2010.05.17/outbox.cif.g08.bks.cpg/sg18_3_cif.got.tgz:4189.got - 2010.06.03 22:40:56.
