data_PCOD9312815
_publ_section_title
;
Structure prediction by ZEFSAII (Michael W. Deem and Ramdas Pophale) SiO2 
 PCOD9312815
Probable space group: P 21 21 2
;
_chemical_formula_sum "Si O2"
_cell_formula_units_Z 32
_cell_length_a 10.450625
_cell_length_b 8.990099
_cell_length_c 15.546109
_cell_angle_alpha 90.000000
_cell_angle_beta 90.000000
_cell_angle_gamma 90.000000
_cell_volume 1460.590417
_symmetry_space_group_name_H-M "P 21 21 2"
_symmetry_group_IT_number 18
_symmetry_cell_setting 'orthorhombic'
loop_
_space_group_symop_operation_xyz
x,y,z
-x,-y,z
1/2+x,1/2-y,-z
1/2-x,1/2+y,-z
loop_
_atom_site_type_symbol
_atom_site_label
_atom_site_fract_x
_atom_site_fract_y
_atom_site_fract_z
Si Si1 0.705230 0.915442 0.663653
Si Si2 0.706886 0.688641 0.249017
Si Si3 0.027051 0.671283 0.470170
Si Si4 0.922492 0.737697 0.746302
Si Si5 0.337242 0.046436 0.361996
Si Si6 0.093259 0.227054 0.944763
Si Si7 0.185712 0.882505 0.949600
Si Si8 0.361124 0.566374 0.507887
O O1 0.600459 0.807682 0.620293
O O2 0.795614 0.829911 0.729237
O O3 0.790210 0.950888 0.580484
O O4 0.691468 0.076252 0.708061
O O5 0.553450 0.669736 0.271165
O O6 0.720020 0.853903 0.286057
O O7 0.714015 0.670720 0.147457
O O8 0.101811 0.659625 0.562993
O O9 0.000000 0.500000 0.459973
O O10 0.897148 0.762345 0.476245
O O11 0.908702 0.594792 0.682459
O O12 0.924171 0.708158 0.848037
O O13 0.220021 0.988875 0.418755
O O14 0.947533 0.198874 0.978214
O O15 0.155081 0.059773 0.945175
O O16 0.191775 0.333776 0.994617
O O17 0.500000 0.500000 0.502523
#
# Coordination Sequence:
#
# PCOD9312815 Si02
#       8
#     4   4   4   4   4   4   4   4
#     4  11  21  36  61  84 117 161 209 260 311 370
#     4  11  21  38  63  92 118 157 209 262 312 375
#     4  11  22  37  54  83 122 163 207 257 308 365
#     4  11  21  38  63  92 122 154 209 268 313 372
#     4  11  23  36  57  89 121 162 213 262 308 368
#     4  10  23  44  70  99 132 168 210 268 331 399
#     4  10  23  44  70 100 131 166 212 267 331 401
#     4  11  22  37  56  81 121 168 206 254 316 366
#
# _framework density 21.908950000000001
#
# number of rings (size 3 to 8) (size 9 to 14) (size 15 to 20)
#    0.000    1.250    1.250    6.000    1.750    4.500 
#    0.000    3.750    0.000    0.000    0.000    0.000 
#    0.000    0.000    0.000    0.000    0.000    0.000 
#
# Total GULP energy -178217.015445 kJ/mol
# GULP energy per Si atom -5569.281733 kJ/mol
# Density = 2.185908 g / cm^3
# Si number density = 21.908950 Si / 1000 Ang^3
#
#
#
# Elastic Constant Matrix: (Units=GPa)
#
#
# Indices 1 2 3 4 5 6 
#
# 1 57.8133 1.3494 31.2024 0.0000 0.0000 0.0000
# 2 1.3494 39.6744 1.7871 0.0000 0.0000 0.0000
# 3 31.2024 1.7871 70.9273 0.0000 0.0000 0.0000
# 4 0.0000 0.0000 0.0000 25.5380 0.0000 0.0000
# 5 0.0000 0.0000 0.0000 0.0000 24.7550 0.0000
# 6 0.0000 0.0000 0.0000 0.0000 0.0000 13.1807
#
#
#
# Elastic Compliance Matrix: (Units=1/GPa)
#
#
# Indices 1 2 3 4 5 6 
#
# 1 0.022687 -0.000322 -0.009972 0.000000 0.000000 0.000000
# 2 -0.000322 0.025238 -0.000494 0.000000 0.000000 0.000000
# 3 -0.009972 -0.000494 0.018498 0.000000 0.000000 0.000000
# 4 0.000000 0.000000 0.000000 0.039157 0.000000 0.000000
# 5 0.000000 0.000000 0.000000 0.000000 0.040396 0.000000
# 6 0.000000 0.000000 0.000000 0.000000 0.000000 0.075869
#
#
# Mechanical properties :
#
#
# Convention : Reuss Voigt Hill
#
# Bulk Modulus (GPa) = 22.29852 26.34365 24.32109
# Shear Modulus (GPa) = 19.35198 21.63314 20.49256
#
# Velocity S-wave (km/s) = 2.97525 3.14572 3.06167
# Velocity P-wave (km/s) = 4.69070 5.02437 4.86040
#
# Compressibility (1/GPa) = 0.04484602
#
# Stress axis : x y z
#
# Youngs Moduli (GPa) = 44.07873 39.62213 54.05882
#
# Poissons Ratio (x) = 0.01278 0.53909
# Poissons Ratio (y) = 0.01421 0.02671
# Poissons Ratio (z) = 0.43956 0.01958
#
# Static dielectric constant tensor:
#      x y z
#    x 1.914000 0.000000 0.000000 
#    y 0.000000 1.861780 0.000000 
#    z 0.000000 0.000000 1.882790 
# 
# From -- ./inp_files/6792.got.cif
#   From: 2010.05.17/outbox.cif.g08.bks.cpg/sg18_4_cif.got.tgz:6792.got - 2010.06.03 22:40:56.
