data_PCOD9312474
_publ_section_title
;
Structure prediction by ZEFSAII (Michael W. Deem and Ramdas Pophale) SiO2 
 PCOD9312474
Probable space group: P 21 21 2
;
_chemical_formula_sum "Si O2"
_cell_formula_units_Z 28
_cell_length_a 23.211891
_cell_length_b 8.984772
_cell_length_c 5.444658
_cell_angle_alpha 90.000000
_cell_angle_beta 90.000000
_cell_angle_gamma 90.000000
_cell_volume 1135.502745
_symmetry_space_group_name_H-M "P 21 21 2"
_symmetry_group_IT_number 18
_symmetry_cell_setting 'orthorhombic'
loop_
_space_group_symop_operation_xyz
x,y,z
-x,-y,z
1/2+x,1/2-y,-z
1/2-x,1/2+y,-z
loop_
_atom_site_type_symbol
_atom_site_label
_atom_site_fract_x
_atom_site_fract_y
_atom_site_fract_z
Si Si1 0.000000 0.000000 0.935904
Si Si2 0.145940 0.248509 0.240731
Si Si3 0.826732 0.421682 0.198633
Si Si4 0.538029 0.250758 0.417654
Si Si5 0.245240 0.393159 0.493661
Si Si6 0.500000 0.000000 0.124274
Si Si7 0.059522 0.747156 0.213435
Si Si8 0.787029 0.999328 0.004243
O O1 0.035895 0.114367 0.770353
O O2 0.956266 0.095326 0.098347
O O3 0.085760 0.226420 0.375972
O O4 0.199349 0.261326 0.437200
O O5 0.162548 0.117051 0.057598
O O6 0.146878 0.414908 0.126637
O O7 0.874669 0.298745 0.217222
O O8 0.771873 0.403171 0.025878
O O9 0.797576 0.463355 0.460144
O O10 0.545206 0.091230 0.289668
O O11 0.473761 0.242871 0.530035
O O12 0.275718 0.401545 0.753462
O O13 0.287165 0.413253 0.255948
O O14 0.529315 0.877261 0.955252
#
# Coordination Sequence:
#
# PCOD9312474 Si02
#       8
#     2   4   4   4   4   2   4   4
#     4  10  26  42  58  94 134 180 220 276 346 426
#     4   9  20  39  63  93 126 174 225 279 334 409
#     4   8  21  36  63  91 125 174 220 278 331 396
#     4  11  22  41  64  94 134 177 221 285 338 409
#     4   8  21  36  60  91 127 167 214 271 326 394
#     4  10  22  32  66 102 120 170 228 278 338 398
#     4  11  21  43  64  93 136 171 228 277 345 408
#     4   9  19  40  57  94 129 168 210 279 332 387
#
# _framework density 24.65868
#
# number of rings (size 3 to 8) (size 9 to 14) (size 15 to 20)
#    1.714    0.571    0.000    2.571    2.000    3.429 
#   10.286    4.286    0.000    0.000    0.000    0.000 
#    0.000    0.000    0.000    0.000    0.000    0.000 
#
# Total GULP energy -156432.873276 kJ/mol
# GULP energy per Si atom -5586.888331 kJ/mol
# Density = 2.460256 g / cm^3
# Si number density = 24.658680 Si / 1000 Ang^3
#
#
#
# Elastic Constant Matrix: (Units=GPa)
#
#
# Indices 1 2 3 4 5 6 
#
# 1 92.7545 33.6207 16.3174 0.0000 0.0000 0.0000
# 2 33.6207 100.0867 31.0948 0.0000 0.0000 0.0000
# 3 16.3174 31.0948 94.0554 0.0000 0.0000 0.0000
# 4 0.0000 0.0000 0.0000 28.8959 0.0000 0.0000
# 5 0.0000 0.0000 0.0000 0.0000 29.4260 0.0000
# 6 0.0000 0.0000 0.0000 0.0000 0.0000 34.0544
#
#
#
# Elastic Compliance Matrix: (Units=1/GPa)
#
#
# Indices 1 2 3 4 5 6 
#
# 1 0.012338 -0.003878 -0.000858 0.000000 0.000000 0.000000
# 2 -0.003878 0.012354 -0.003411 0.000000 0.000000 0.000000
# 3 -0.000858 -0.003411 0.011909 0.000000 0.000000 0.000000
# 4 0.000000 0.000000 0.000000 0.034607 0.000000 0.000000
# 5 0.000000 0.000000 0.000000 0.000000 0.033984 0.000000
# 6 0.000000 0.000000 0.000000 0.000000 0.000000 0.029365
#
#
# Mechanical properties :
#
#
# Convention : Reuss Voigt Hill
#
# Bulk Modulus (GPa) = 49.24884 49.88473 49.56678
# Shear Modulus (GPa) = 31.72199 32.19948 31.96074
#
# Velocity S-wave (km/s) = 3.59059 3.61752 3.60408
# Velocity P-wave (km/s) = 6.09962 6.14187 6.12078
#
# Compressibility (1/GPa) = 0.02030505
#
# Stress axis : x y z
#
# Youngs Moduli (GPa) = 81.05219 80.94675 83.97161
#
# Poissons Ratio (x) = 0.31389 0.07209
# Poissons Ratio (y) = 0.31430 0.28646
# Poissons Ratio (z) = 0.06958 0.27615
#
# Static dielectric constant tensor:
#      x y z
#    x 1.933670 0.000000 0.000000 
#    y 0.000000 2.015450 0.000000 
#    z 0.000000 0.000000 1.960970 
# 
# From -- ./inp_files/2222.got.cif
#   From: 2010.05.17/outbox.cif.g08.bks.cpg/sg18_2_cif.got.tgz:2222.got - 2010.06.03 22:40:56.
