data_PCOD9312222
_publ_section_title
;
Structure prediction by ZEFSAII (Michael W. Deem and Ramdas Pophale) SiO2 
 PCOD9312222
Probable space group: P 21 21 2
;
_chemical_formula_sum "Si O2"
_cell_formula_units_Z 12
_cell_length_a 13.053226
_cell_length_b 4.948019
_cell_length_c 8.438395
_cell_angle_alpha 90.000000
_cell_angle_beta 90.000000
_cell_angle_gamma 90.000000
_cell_volume 545.015767
_symmetry_space_group_name_H-M "P 21 21 2"
_symmetry_group_IT_number 18
_symmetry_cell_setting 'orthorhombic'
loop_
_space_group_symop_operation_xyz
x,y,z
-x,-y,z
1/2+x,1/2-y,-z
1/2-x,1/2+y,-z
loop_
_atom_site_type_symbol
_atom_site_label
_atom_site_fract_x
_atom_site_fract_y
_atom_site_fract_z
Si Si1 0.070128 0.766114 0.147689
Si Si2 0.692737 0.777174 0.558721
Si Si3 0.000000 0.500000 0.632078
Si Si4 0.000000 0.000000 0.847008
O O1 0.168910 0.723299 0.254570
O O2 0.000000 0.500000 0.136996
O O3 0.000000 0.000000 0.228360
O O4 0.084532 0.882809 0.970520
O O5 0.719115 0.481729 0.495074
O O6 0.590881 0.888563 0.475242
O O7 0.965074 0.749144 0.742168
#
# Coordination Sequence:
#
# PCOD9312222 Si02
#       4
#     4   4   2   2
#     4  10  20  42  69  91 131 180 214 262 351 386
#     4  12  26  42  71 103 132 179 231 275 329 402
#     4  12  24  44  70 102 134 170 230 288 320 396
#     4  10  22  40  74  94 128 186 208 278 354 384
#
# _framework density 22.017713000000001
#
# number of rings (size 3 to 8) (size 9 to 14) (size 15 to 20)
#    1.000    0.000    3.333    4.000    2.333    0.000 
#    0.000    6.667    0.000    0.000    0.000    0.000 
#    0.000    0.000    0.000    0.000    0.000    0.000 
#
# Total GULP energy -67036.426395 kJ/mol
# GULP energy per Si atom -5586.368866 kJ/mol
# Density = 2.196760 g / cm^3
# Si number density = 22.017713 Si / 1000 Ang^3
#
#
#
# Elastic Constant Matrix: (Units=GPa)
#
#
# Indices 1 2 3 4 5 6 
#
# 1 33.1781 -8.1504 16.6967 0.0000 0.0000 0.0000
# 2 -8.1504 123.6790 23.3501 0.0000 0.0000 0.0000
# 3 16.6967 23.3501 89.8014 0.0000 0.0000 0.0000
# 4 0.0000 0.0000 0.0000 26.9002 0.0000 0.0000
# 5 0.0000 0.0000 0.0000 0.0000 -37.7340 0.0000
# 6 0.0000 0.0000 0.0000 0.0000 0.0000 36.2291
#
#
#
# Elastic Compliance Matrix: (Units=1/GPa)
#
#
# Indices 1 2 3 4 5 6 
#
# 1 0.034786 0.003695 -0.007429 0.000000 0.000000 0.000000
# 2 0.003695 0.008895 -0.003000 0.000000 0.000000 0.000000
# 3 -0.007429 -0.003000 0.013297 0.000000 0.000000 0.000000
# 4 0.000000 0.000000 0.000000 0.037174 0.000000 0.000000
# 5 0.000000 0.000000 0.000000 0.000000 -0.026501 0.000000
# 6 0.000000 0.000000 0.000000 0.000000 0.000000 0.027602
#
#
# Mechanical properties :
#
#
# Convention : Reuss Voigt Hill
#
# Bulk Modulus (GPa) = 22.98249 34.49459 28.73854
# Shear Modulus (GPa) = 40.57625 19.39654 29.98640
#
# Velocity S-wave (km/s) = 4.29755 2.97130 3.69443
# Velocity P-wave (km/s) = 5.92335 5.24140 5.59278
#
# Compressibility (1/GPa) = 0.04351139
#
# Stress axis : x y z
#
# Youngs Moduli (GPa) = 28.74692 112.41880 75.20552
#
# Poissons Ratio (x) = -0.41537 0.55867
# Poissons Ratio (y) = -0.10622 0.22561
# Poissons Ratio (z) = 0.21355 0.33725
#
# Static dielectric constant tensor:
#      x y z
#    x 1.818520 0.000000 0.000000 
#    y 0.000000 1.795310 0.000000 
#    z 0.000000 0.000000 1.811790 
# 
# From -- ./inp_files/2352.got.cif
#   From: 2010.05.17/outbox.cif.g08.bks.cpg/sg18_2_cif.got.tgz:2352.got - 2010.06.03 22:40:56.
