data_PCOD9312029
_publ_section_title
;
Structure prediction by ZEFSAII (Michael W. Deem and Ramdas Pophale) SiO2 
 PCOD9312029
Probable space group: P 21 21 2
;
_chemical_formula_sum "Si O2"
_cell_formula_units_Z 32
_cell_length_a 12.617261
_cell_length_b 8.579646
_cell_length_c 13.849137
_cell_angle_alpha 90.000000
_cell_angle_beta 90.000000
_cell_angle_gamma 90.000000
_cell_volume 1499.191694
_symmetry_space_group_name_H-M "P 21 21 2"
_symmetry_group_IT_number 18
_symmetry_cell_setting 'orthorhombic'
loop_
_space_group_symop_operation_xyz
x,y,z
-x,-y,z
1/2+x,1/2-y,-z
1/2-x,1/2+y,-z
loop_
_atom_site_type_symbol
_atom_site_label
_atom_site_fract_x
_atom_site_fract_y
_atom_site_fract_z
Si Si1 0.409982 0.377596 0.701493
Si Si2 0.165230 0.291903 0.113842
Si Si3 0.229585 0.635310 0.053925
Si Si4 0.797861 0.795915 0.727568
Si Si5 0.236182 0.841814 0.679467
Si Si6 0.455765 0.828369 0.577937
Si Si7 0.048169 0.851804 0.084385
Si Si8 0.490526 0.188681 0.366821
O O1 0.500000 0.500000 0.661221
O O2 0.286727 0.329386 0.681272
O O3 0.472429 0.225867 0.667348
O O4 0.404832 0.415487 0.814747
O O5 0.192114 0.459927 0.069532
O O6 0.221416 0.281928 0.216840
O O7 0.040334 0.268941 0.120395
O O8 0.198130 0.158962 0.038370
O O9 0.277516 0.690982 0.156827
O O10 0.133206 0.751260 0.029909
O O11 0.917820 0.750933 0.703810
O O12 0.777807 0.970931 0.687629
O O13 0.332568 0.813058 0.604975
O O14 0.126648 0.754136 0.655846
O O15 0.480045 0.751015 0.474723
O O16 0.500000 0.000000 0.562149
O O17 0.000000 0.000000 0.030279
O O18 0.500000 0.000000 0.361452
#
# Coordination Sequence:
#
# PCOD9312029 Si02
#       8
#     4   4   4   4   4   4   4   4
#     4  10  21  36  65  98 123 163 212 280 317 374
#     4  11  22  40  64  94 126 169 219 265 328 389
#     4  10  23  38  64  94 126 173 213 270 320 392
#     4  10  23  45  65  92 135 176 221 262 336 399
#     4  11  24  43  71  92 133 180 217 270 336 406
#     4  11  23  43  67  98 129 166 220 275 328 399
#     4  10  20  36  59  91 124 160 214 266 321 382
#     4  11  28  42  63  99 134 176 221 275 334 394
#
# _framework density 21.344836000000001
#
# number of rings (size 3 to 8) (size 9 to 14) (size 15 to 20)
#    0.000    1.500    2.500    1.500    3.500    4.000 
#    0.000    1.250    0.000    0.000    0.000    0.000 
#    0.000    0.000    0.000    0.000    0.000    0.000 
#
# Total GULP energy -178315.083590 kJ/mol
# GULP energy per Si atom -5572.346362 kJ/mol
# Density = 2.129625 g / cm^3
# Si number density = 21.344836 Si / 1000 Ang^3
#
#
#
# Elastic Constant Matrix: (Units=GPa)
#
#
# Indices 1 2 3 4 5 6 
#
# 1 158.6485 40.8885 23.3961 0.0000 0.0000 0.0000
# 2 40.8885 53.4920 26.2621 0.0000 0.0000 0.0000
# 3 23.3961 26.2621 39.3048 0.0000 0.0000 0.0000
# 4 0.0000 0.0000 0.0000 24.6841 0.0000 0.0000
# 5 0.0000 0.0000 0.0000 0.0000 91.3646 0.0000
# 6 0.0000 0.0000 0.0000 0.0000 0.0000 45.9960
#
#
#
# Elastic Compliance Matrix: (Units=1/GPa)
#
#
# Indices 1 2 3 4 5 6 
#
# 1 0.007875 -0.005534 -0.000991 0.000000 0.000000 0.000000
# 2 -0.005534 0.031709 -0.017893 0.000000 0.000000 0.000000
# 3 -0.000991 -0.017893 0.037987 0.000000 0.000000 0.000000
# 4 0.000000 0.000000 0.000000 0.040512 0.000000 0.000000
# 5 0.000000 0.000000 0.000000 0.000000 0.010945 0.000000
# 6 0.000000 0.000000 0.000000 0.000000 0.000000 0.021741
#
#
# Mechanical properties :
#
#
# Convention : Reuss Voigt Hill
#
# Bulk Modulus (GPa) = 34.79770 48.05984 41.42877
# Shear Modulus (GPa) = 23.90260 43.13553 33.51907
#
# Velocity S-wave (km/s) = 3.35002 4.50031 3.96708
# Velocity P-wave (km/s) = 5.59477 7.04049 6.35885
#
# Compressibility (1/GPa) = 0.02873753
#
# Stress axis : x y z
#
# Youngs Moduli (GPa) = 126.97621 31.53708 26.32471
#
# Poissons Ratio (x) = 0.17451 0.02607
# Poissons Ratio (y) = 0.70264 0.47102
# Poissons Ratio (z) = 0.12577 0.56429
#
# Static dielectric constant tensor:
#      x y z
#    x 1.624510 0.000000 0.000000 
#    y 0.000000 1.604460 0.000000 
#    z 0.000000 0.000000 1.773360 
# 
# From -- ./inp_files/6908.got.cif
#   From: 2010.05.17/outbox.cif.g08.bks.cpg/sg18_4_cif.got.tgz:6908.got - 2010.06.03 22:40:56.
