data_PCOD9312919
_publ_section_title
;
Structure prediction by ZEFSAII (Michael W. Deem and Ramdas Pophale) SiO2 
 PCOD9312919
Probable space group: P 21 21 2
;
_chemical_formula_sum "Si O2"
_cell_formula_units_Z 32
_cell_length_a 13.940698
_cell_length_b 8.466379
_cell_length_c 12.559036
_cell_angle_alpha 90.000000
_cell_angle_beta 90.000000
_cell_angle_gamma 90.000000
_cell_volume 1482.308266
_symmetry_space_group_name_H-M "P 21 21 2"
_symmetry_group_IT_number 18
_symmetry_cell_setting 'orthorhombic'
loop_
_space_group_symop_operation_xyz
x,y,z
-x,-y,z
1/2+x,1/2-y,-z
1/2-x,1/2+y,-z
loop_
_atom_site_type_symbol
_atom_site_label
_atom_site_fract_x
_atom_site_fract_y
_atom_site_fract_z
Si Si1 0.081311 0.632218 0.811563
Si Si2 0.420683 0.361845 0.386454
Si Si3 0.427484 0.717724 0.777893
Si Si4 0.438678 0.161551 0.599957
Si Si5 0.494108 0.690837 0.008767
Si Si6 0.709982 0.338431 0.088095
Si Si7 0.728810 0.021296 0.709100
Si Si8 0.779044 0.007454 0.139400
O O1 0.061628 0.753877 0.716982
O O2 0.184597 0.550081 0.798809
O O3 0.000000 0.500000 0.813141
O O4 0.076726 0.728682 0.922685
O O5 0.500000 0.500000 0.390986
O O6 0.426295 0.254545 0.490988
O O7 0.312685 0.426292 0.370423
O O8 0.501861 0.732082 0.682923
O O9 0.373355 0.553517 0.800574
O O10 0.342270 0.840286 0.749190
O O11 0.478812 0.757187 0.890252
O O12 0.339023 0.107727 0.653234
O O13 0.500000 0.000000 0.583576
O O14 0.500000 0.500000 0.005168
O O15 0.397317 0.727760 0.074614
O O16 0.719412 0.457166 0.185472
O O17 0.777537 0.191906 0.116007
O O18 0.726555 0.422662 0.975625
#
# Coordination Sequence:
#
# PCOD9312919 Si02
#       8
#     4   4   4   4   4   4   4   4
#     4  12  24  41  66 102 138 188 233 292 353 421
#     4  12  27  48  74 103 136 190 241 301 357 432
#     4  10  24  46  70 105 139 189 236 295 357 432
#     4  10  26  50  74 103 140 184 241 305 360 427
#     4  11  24  38  65 102 145 185 231 286 352 430
#     4  11  23  41  61 103 141 188 227 288 349 430
#     4  11  24  46  74 103 141 182 237 298 366 428
#     4  11  24  39  67 101 149 187 236 284 355 432
#
# _framework density 21.587952000000001
#
# number of rings (size 3 to 8) (size 9 to 14) (size 15 to 20)
#    0.000    1.000    2.500    3.750    5.250    4.000 
#    2.250    0.000    0.000    0.000    0.000    0.000 
#    0.000    0.000    0.000    0.000    0.000    0.000 
#
# Total GULP energy -179128.742614 kJ/mol
# GULP energy per Si atom -5597.773207 kJ/mol
# Density = 2.153882 g / cm^3
# Si number density = 21.587952 Si / 1000 Ang^3
#
#
#
# Elastic Constant Matrix: (Units=GPa)
#
#
# Indices 1 2 3 4 5 6 
#
# 1 96.0599 33.8522 70.6236 0.0000 0.0000 0.0000
# 2 33.8522 68.0830 46.8448 0.0000 0.0000 0.0000
# 3 70.6236 46.8448 118.8005 0.0000 0.0000 0.0000
# 4 0.0000 0.0000 0.0000 40.7538 0.0000 0.0000
# 5 0.0000 0.0000 0.0000 0.0000 25.9397 0.0000
# 6 0.0000 0.0000 0.0000 0.0000 0.0000 36.2739
#
#
#
# Elastic Compliance Matrix: (Units=1/GPa)
#
#
# Indices 1 2 3 4 5 6 
#
# 1 0.018744 -0.002269 -0.010248 0.000000 0.000000 0.000000
# 2 -0.002269 0.020431 -0.006708 0.000000 0.000000 0.000000
# 3 -0.010248 -0.006708 0.017155 0.000000 0.000000 0.000000
# 4 0.000000 0.000000 0.000000 0.024538 0.000000 0.000000
# 5 0.000000 0.000000 0.000000 0.000000 0.038551 0.000000
# 6 0.000000 0.000000 0.000000 0.000000 0.000000 0.027568
#
#
# Mechanical properties :
#
#
# Convention : Reuss Voigt Hill
#
# Bulk Modulus (GPa) = 55.92556 65.06495 60.49525
# Shear Modulus (GPa) = 26.12372 29.36832 27.74602
#
# Velocity S-wave (km/s) = 3.48243 3.69237 3.58893
# Velocity P-wave (km/s) = 6.49091 6.95579 6.72737
#
# Compressibility (1/GPa) = 0.01788091
#
# Stress axis : x y z
#
# Youngs Moduli (GPa) = 53.34943 48.94467 58.29247
#
# Poissons Ratio (x) = 0.11103 0.59741
# Poissons Ratio (y) = 0.12102 0.39101
# Poissons Ratio (z) = 0.54675 0.32831
#
# Static dielectric constant tensor:
#      x y z
#    x 1.833010 0.000000 0.000000 
#    y 0.000000 1.789600 0.000000 
#    z 0.000000 0.000000 1.729790 
# 
# From -- ./inp_files/6082.got.cif
#   From: 2010.05.17/outbox.cif.g08.bks.cpg/sg18_4_cif.got.tgz:6082.got - 2010.06.03 22:40:56.
