data_PCOD9312007
_publ_section_title
;
Structure prediction by ZEFSAII (Michael W. Deem and Ramdas Pophale) SiO2 
 PCOD9312007
Probable space group: P 21 21 2
;
_chemical_formula_sum "Si O2"
_cell_formula_units_Z 20
_cell_length_a 8.707959
_cell_length_b 14.323984
_cell_length_c 7.413838
_cell_angle_alpha 90.000000
_cell_angle_beta 90.000000
_cell_angle_gamma 90.000000
_cell_volume 924.747774
_symmetry_space_group_name_H-M "P 21 21 2"
_symmetry_group_IT_number 18
_symmetry_cell_setting 'orthorhombic'
loop_
_space_group_symop_operation_xyz
x,y,z
-x,-y,z
1/2+x,1/2-y,-z
1/2-x,1/2+y,-z
loop_
_atom_site_type_symbol
_atom_site_label
_atom_site_fract_x
_atom_site_fract_y
_atom_site_fract_z
Si Si1 0.919070 0.589987 0.227779
Si Si2 0.394888 0.421587 0.048068
Si Si3 0.240682 0.226411 0.331243
Si Si4 0.318788 0.221324 0.923400
Si Si5 0.054820 0.184229 0.642429
O O1 0.781164 0.554408 0.097176
O O2 0.838345 0.670690 0.345492
O O3 0.000000 0.500000 0.314813
O O4 0.050490 0.646976 0.122185
O O5 0.500000 0.500000 0.960720
O O6 0.478005 0.396518 0.238364
O O7 0.388628 0.324738 0.940631
O O8 0.141585 0.160393 0.458367
O O9 0.416565 0.242739 0.390188
O O10 0.248401 0.201567 0.120835
O O11 0.187651 0.222728 0.773386
#
# Coordination Sequence:
#
# PCOD9312007 Si02
#       5
#     4   4   4   4   4
#     4  10  20  35  60  87 116 155 194 238 292 345
#     4  10  20  35  59  88 117 154 194 238 292 345
#     4  10  20  35  59  86 112 150 192 236 290 343
#     4  10  20  38  62  86 116 155 194 240 290 344
#     4  10  20  35  60  85 113 150 192 238 288 345
#
# _framework density 21.627520000000001
#
# number of rings (size 3 to 8) (size 9 to 14) (size 15 to 20)
#    0.000    2.400    0.000    7.200    0.000    0.000 
#    0.000    0.000    0.000  117.600    0.000    0.000 
#    0.000    0.000    0.000    0.000    0.000    0.000 
#
# Total GULP energy -111578.542873 kJ/mol
# GULP energy per Si atom -5578.927144 kJ/mol
# Density = 2.157829 g / cm^3
# Si number density = 21.627520 Si / 1000 Ang^3
#
#
#
# Elastic Constant Matrix: (Units=GPa)
#
#
# Indices 1 2 3 4 5 6 
#
# 1 162.9881 44.9264 44.2803 0.0000 0.0000 0.0000
# 2 44.9264 69.3061 12.0747 0.0000 0.0000 0.0000
# 3 44.2803 12.0747 69.5927 0.0000 0.0000 0.0000
# 4 0.0000 0.0000 0.0000 11.3526 0.0000 0.0000
# 5 0.0000 0.0000 0.0000 0.0000 42.3006 0.0000
# 6 0.0000 0.0000 0.0000 0.0000 0.0000 40.1060
#
#
#
# Elastic Compliance Matrix: (Units=1/GPa)
#
#
# Indices 1 2 3 4 5 6 
#
# 1 0.008758 -0.004853 -0.004731 0.000000 0.000000 0.000000
# 2 -0.004853 0.017568 0.000040 0.000000 0.000000 0.000000
# 3 -0.004731 0.000040 0.017372 0.000000 0.000000 0.000000
# 4 0.000000 0.000000 0.000000 0.088086 0.000000 0.000000
# 5 0.000000 0.000000 0.000000 0.000000 0.023640 0.000000
# 6 0.000000 0.000000 0.000000 0.000000 0.000000 0.024934
#
#
# Mechanical properties :
#
#
# Convention : Reuss Voigt Hill
#
# Bulk Modulus (GPa) = 40.63295 56.04995 48.34145
# Shear Modulus (GPa) = 24.07892 32.12552 28.10222
#
# Velocity S-wave (km/s) = 3.34030 3.85827 3.60859
# Velocity P-wave (km/s) = 5.80562 6.76909 6.30579
#
# Compressibility (1/GPa) = 0.02461057
#
# Stress axis : x y z
#
# Youngs Moduli (GPa) = 114.17585 56.92219 57.56236
#
# Poissons Ratio (x) = 0.27626 0.27231
# Poissons Ratio (y) = 0.55413 -0.00230
# Poissons Ratio (z) = 0.54013 -0.00227
#
# Static dielectric constant tensor:
#      x y z
#    x 1.839690 0.000000 0.000000 
#    y 0.000000 1.854310 0.000000 
#    z 0.000000 0.000000 1.781420 
# 
# From -- ./inp_files/3080.got.cif
#   From: 2010.05.17/outbox.cif.g08.bks.cpg/sg18_2_cif.got.tgz:3080.got - 2010.06.03 22:40:56.
