data_PCOD9312408
_publ_section_title
;
Structure prediction by ZEFSAII (Michael W. Deem and Ramdas Pophale) SiO2 
 PCOD9312408
Probable space group: P 21 21 2
;
_chemical_formula_sum "Si O2"
_cell_formula_units_Z 28
_cell_length_a 13.453114
_cell_length_b 14.965368
_cell_length_c 5.598948
_cell_angle_alpha 90.000000
_cell_angle_beta 90.000000
_cell_angle_gamma 90.000000
_cell_volume 1127.240690
_symmetry_space_group_name_H-M "P 21 21 2"
_symmetry_group_IT_number 18
_symmetry_cell_setting 'orthorhombic'
loop_
_space_group_symop_operation_xyz
x,y,z
-x,-y,z
1/2+x,1/2-y,-z
1/2-x,1/2+y,-z
loop_
_atom_site_type_symbol
_atom_site_label
_atom_site_fract_x
_atom_site_fract_y
_atom_site_fract_z
Si Si1 0.652208 0.083074 0.037775
Si Si2 0.625757 0.921031 0.329842
Si Si3 0.739641 0.750257 0.820628
Si Si4 0.000000 0.000000 0.228711
Si Si5 0.945908 0.186175 0.418582
Si Si6 0.955091 0.255695 0.920623
Si Si7 0.000000 0.500000 0.305192
Si Si8 0.302290 0.567769 0.976370
O O1 0.576694 0.063381 0.830478
O O2 0.612993 0.024560 0.258886
O O3 0.672518 0.181391 0.129877
O O4 0.750775 0.026853 0.962351
O O5 0.562945 0.858405 0.152932
O O6 0.574119 0.924372 0.581592
O O7 0.741338 0.904969 0.267631
O O8 0.667503 0.725848 0.597916
O O9 0.659842 0.727421 0.029280
O O10 0.776158 0.851585 0.845678
O O11 0.948994 0.079774 0.377996
O O12 0.084212 0.047716 0.072245
O O13 0.989805 0.209435 0.676538
O O14 0.998271 0.230072 0.181547
#
# Coordination Sequence:
#
# PCOD9312408 Si02
#       8
#     4   4   4   2   4   4   2   4
#     4  10  21  43  64 101 140 182 243 311 363 447
#     4   9  22  42  63 101 140 188 239 317 354 449
#     4   9  20  42  69  97 141 193 243 304 373 440
#     4  12  22  42  76 110 154 200 250 308 390 458
#     4  10  21  41  71 102 142 195 242 303 365 456
#     4   9  21  41  71  97 142 193 243 295 374 437
#     4  12  24  36  74  96 134 194 248 300 380 436
#     4   9  21  43  65 101 150 193 242 311 383 443
#
# _framework density 24.839416
#
# number of rings (size 3 to 8) (size 9 to 14) (size 15 to 20)
#    1.714    0.571    1.429    0.429    4.000    4.000 
#    2.571    1.429    0.000    0.000    0.000    0.000 
#    0.000    0.000    0.000    0.000    0.000    0.000 
#
# Total GULP energy -155974.391639 kJ/mol
# GULP energy per Si atom -5570.513987 kJ/mol
# Density = 2.478288 g / cm^3
# Si number density = 24.839416 Si / 1000 Ang^3
#
#
#
# Elastic Constant Matrix: (Units=GPa)
#
#
# Indices 1 2 3 4 5 6 
#
# 1 85.0264 15.1613 9.1274 0.0000 0.0000 0.0000
# 2 15.1613 117.3125 11.3369 0.0000 0.0000 0.0000
# 3 9.1274 11.3369 91.7690 0.0000 0.0000 0.0000
# 4 0.0000 0.0000 0.0000 19.0794 0.0000 0.0000
# 5 0.0000 0.0000 0.0000 0.0000 19.5363 0.0000
# 6 0.0000 0.0000 0.0000 0.0000 0.0000 43.0115
#
#
#
# Elastic Compliance Matrix: (Units=1/GPa)
#
#
# Indices 1 2 3 4 5 6 
#
# 1 0.012133 -0.001469 -0.001025 0.000000 0.000000 0.000000
# 2 -0.001469 0.008805 -0.000942 0.000000 0.000000 0.000000
# 3 -0.001025 -0.000942 0.011115 0.000000 0.000000 0.000000
# 4 0.000000 0.000000 0.000000 0.052413 0.000000 0.000000
# 5 0.000000 0.000000 0.000000 0.000000 0.051187 0.000000
# 6 0.000000 0.000000 0.000000 0.000000 0.000000 0.023250
#
#
# Mechanical properties :
#
#
# Convention : Reuss Voigt Hill
#
# Bulk Modulus (GPa) = 39.71163 40.59546 40.15355
# Shear Modulus (GPa) = 28.70792 33.55758 31.13275
#
# Velocity S-wave (km/s) = 3.40331 3.67956 3.54412
# Velocity P-wave (km/s) = 5.60940 5.86778 5.74004
#
# Compressibility (1/GPa) = 0.02518154
#
# Stress axis : x y z
#
# Youngs Moduli (GPa) = 82.41945 113.57065 89.96667
#
# Poissons Ratio (x) = 0.16683 0.09224
# Poissons Ratio (y) = 0.12107 0.08472
# Poissons Ratio (z) = 0.08450 0.10694
#
# Static dielectric constant tensor:
#      x y z
#    x 1.997200 0.000000 0.000000 
#    y 0.000000 1.966180 0.000000 
#    z 0.000000 0.000000 2.041150 
# 
# From -- ./inp_files/1602.got.cif
#   From: 2010.05.17/outbox.cif.g08.bks.cpg/sg18_1_cif.got.tgz:1602.got - 2010.06.03 22:40:56.
