data_PCOD9312802
_publ_section_title
;
Structure prediction by ZEFSAII (Michael W. Deem and Ramdas Pophale) SiO2 
 PCOD9312802
Probable space group: P 21 21 2
;
_chemical_formula_sum "Si O2"
_cell_formula_units_Z 18
_cell_length_a 11.379003
_cell_length_b 5.045535
_cell_length_c 11.626041
_cell_angle_alpha 90.000000
_cell_angle_beta 90.000000
_cell_angle_gamma 90.000000
_cell_volume 667.487728
_symmetry_space_group_name_H-M "P 21 21 2"
_symmetry_group_IT_number 18
_symmetry_cell_setting 'orthorhombic'
loop_
_space_group_symop_operation_xyz
x,y,z
-x,-y,z
1/2+x,1/2-y,-z
1/2-x,1/2+y,-z
loop_
_atom_site_type_symbol
_atom_site_label
_atom_site_fract_x
_atom_site_fract_y
_atom_site_fract_z
Si Si1 0.154221 0.777627 0.381177
Si Si2 0.000000 0.500000 0.202083
Si Si3 0.689275 0.730816 0.363049
Si Si4 0.124599 0.137609 0.041383
Si Si5 0.871393 0.550465 0.855219
O O1 0.056275 0.711123 0.289368
O O2 0.262684 0.570675 0.354080
O O3 0.123043 0.738438 0.515030
O O4 0.196874 0.078725 0.372293
O O5 0.103877 0.397892 0.120395
O O6 0.622437 0.880446 0.261024
O O7 0.247518 0.031279 0.088189
O O8 0.134219 0.146112 0.901668
O O9 0.000000 0.000000 0.065878
O O10 0.000000 0.500000 0.908848
#
# Coordination Sequence:
#
# PCOD9312802 Si02
#       5
#     4   2   4   4   4
#     4  10  23  43  73 102 143 194 246 302 371 454
#     4  12  24  44  74 102 142 202 252 310 364 476
#     4  10  23  45  68 106 146 189 243 310 377 437
#     4  12  27  48  73 106 147 203 252 305 383 460
#     4  12  26  45  73 107 148 188 249 314 374 440
#
# _framework density 26.966785999999999
#
# number of rings (size 3 to 8) (size 9 to 14) (size 15 to 20)
#    0.000    0.889    3.333    2.667    4.667    1.778 
#    0.000    0.000    0.000    0.000    0.000    0.000 
#    0.000    0.000    0.000    0.000    0.000    0.000 
#
# Total GULP energy -100326.567636 kJ/mol
# GULP energy per Si atom -5573.698202 kJ/mol
# Density = 2.690541 g / cm^3
# Si number density = 26.966786 Si / 1000 Ang^3
#
#
#
# Elastic Constant Matrix: (Units=GPa)
#
#
# Indices 1 2 3 4 5 6 
#
# 1 144.3687 22.7121 34.4591 0.0000 0.0000 0.0000
# 2 22.7121 62.0713 0.8899 0.0000 0.0000 0.0000
# 3 34.4591 0.8899 136.4498 0.0000 0.0000 0.0000
# 4 0.0000 0.0000 0.0000 22.6904 0.0000 0.0000
# 5 0.0000 0.0000 0.0000 0.0000 -35.6118 0.0000
# 6 0.0000 0.0000 0.0000 0.0000 0.0000 42.6843
#
#
#
# Elastic Compliance Matrix: (Units=1/GPa)
#
#
# Indices 1 2 3 4 5 6 
#
# 1 0.007842 -0.002841 -0.001962 0.000000 0.000000 0.000000
# 2 -0.002841 0.017141 0.000606 0.000000 0.000000 0.000000
# 3 -0.001962 0.000606 0.007820 0.000000 0.000000 0.000000
# 4 0.000000 0.000000 0.000000 0.044071 0.000000 0.000000
# 5 0.000000 0.000000 0.000000 0.000000 -0.028081 0.000000
# 6 0.000000 0.000000 0.000000 0.000000 0.000000 0.023428
#
#
# Mechanical properties :
#
#
# Convention : Reuss Voigt Hill
#
# Bulk Modulus (GPa) = 40.96881 51.00132 45.98507
# Shear Modulus (GPa) = 56.33586 24.94117 40.63852
#
# Velocity S-wave (km/s) = 4.57561 3.04449 3.88620
# Velocity P-wave (km/s) = 6.56812 5.59574 6.10133
#
# Compressibility (1/GPa) = 0.02440881
#
# Stress axis : x y z
#
# Youngs Moduli (GPa) = 127.51883 58.33807 127.87387
#
# Poissons Ratio (x) = 0.16576 0.25087
# Poissons Ratio (y) = 0.36232 -0.07746
# Poissons Ratio (z) = 0.25018 -0.03534
#
# Static dielectric constant tensor:
#      x y z
#    x 2.025390 0.000000 0.000000 
#    y 0.000000 2.406850 0.000000 
#    z 0.000000 0.000000 2.208040 
# 
# From -- ./inp_files/4991.got.cif
#   From: 2010.05.17/outbox.cif.g08.bks.cpg/sg18_3_cif.got.tgz:4991.got - 2010.06.03 22:40:56.
