data_PCOD9312733
_publ_section_title
;
Structure prediction by ZEFSAII (Michael W. Deem and Ramdas Pophale) SiO2 
 PCOD9312733
Probable space group: P 21 21 2
;
_chemical_formula_sum "Si O2"
_cell_formula_units_Z 22
_cell_length_a 5.366887
_cell_length_b 11.924635
_cell_length_c 15.055103
_cell_angle_alpha 90.000000
_cell_angle_beta 90.000000
_cell_angle_gamma 90.000000
_cell_volume 963.499020
_symmetry_space_group_name_H-M "P 21 21 2"
_symmetry_group_IT_number 18
_symmetry_cell_setting 'orthorhombic'
loop_
_space_group_symop_operation_xyz
x,y,z
-x,-y,z
1/2+x,1/2-y,-z
1/2-x,1/2+y,-z
loop_
_atom_site_type_symbol
_atom_site_label
_atom_site_fract_x
_atom_site_fract_y
_atom_site_fract_z
Si Si1 0.500000 0.000000 0.695741
Si Si2 0.098094 0.874633 0.061848
Si Si3 0.604652 0.757858 0.117464
Si Si4 0.687208 0.670060 0.423842
Si Si5 0.681677 0.309191 0.281376
Si Si6 0.469564 0.369479 0.619082
O O1 0.644579 0.084879 0.631436
O O2 0.331692 0.083554 0.752947
O O3 0.884271 0.803173 0.111431
O O4 0.378287 0.845732 0.094960
O O5 0.083971 0.835591 0.959166
O O6 0.000000 0.000000 0.071102
O O7 0.541834 0.714082 0.214902
O O8 0.419114 0.656682 0.378575
O O9 0.684240 0.640794 0.526953
O O10 0.785067 0.795947 0.404549
O O11 0.837224 0.197490 0.301401
O O12 0.500000 0.500000 0.639548
#
# Coordination Sequence:
#
# PCOD9312733 Si02
#       6
#     2   4   4   4   4   4
#     4  10  24  40  68  92 126 174 226 286 332 392
#     4  10  22  46  70  99 135 182 216 281 346 418
#     4  10  24  43  70 103 138 169 234 275 343 417
#     4  11  23  42  62  93 130 173 229 278 334 399
#     4  11  24  43  63  99 134 174 222 289 331 407
#     4  11  24  40  64  94 130 182 224 274 344 403
#
# _framework density 22.833445000000001
#
# number of rings (size 3 to 8) (size 9 to 14) (size 15 to 20)
#    0.000    1.455    1.818    2.182    7.636    2.909 
#    9.818    0.000    0.000    0.000    0.000    0.000 
#    0.000    0.000    0.000    0.000    0.000    0.000 
#
# Total GULP energy -122987.474771 kJ/mol
# GULP energy per Si atom -5590.339762 kJ/mol
# Density = 2.278147 g / cm^3
# Si number density = 22.833445 Si / 1000 Ang^3
#
#
#
# Elastic Constant Matrix: (Units=GPa)
#
#
# Indices 1 2 3 4 5 6 
#
# 1 56.2562 15.4687 1.5666 0.0000 0.0000 0.0000
# 2 15.4687 125.8650 3.6851 0.0000 0.0000 0.0000
# 3 1.5666 3.6851 83.6160 0.0000 0.0000 0.0000
# 4 0.0000 0.0000 0.0000 1.8907 0.0000 0.0000
# 5 0.0000 0.0000 0.0000 0.0000 34.4046 0.0000
# 6 0.0000 0.0000 0.0000 0.0000 0.0000 25.0639
#
#
#
# Elastic Compliance Matrix: (Units=1/GPa)
#
#
# Indices 1 2 3 4 5 6 
#
# 1 0.018403 -0.002254 -0.000245 0.000000 0.000000 0.000000
# 2 -0.002254 0.008231 -0.000321 0.000000 0.000000 0.000000
# 3 -0.000245 -0.000321 0.011978 0.000000 0.000000 0.000000
# 4 0.000000 0.000000 0.000000 0.528915 0.000000 0.000000
# 5 0.000000 0.000000 0.000000 0.000000 0.029066 0.000000
# 6 0.000000 0.000000 0.000000 0.000000 0.000000 0.039898
#
#
# Mechanical properties :
#
#
# Convention : Reuss Voigt Hill
#
# Bulk Modulus (GPa) = 30.32937 34.13088 32.23012
# Shear Modulus (GPa) = 7.65553 28.60630 18.13091
#
# Velocity S-wave (km/s) = 1.83304 3.54337 2.82095
# Velocity P-wave (km/s) = 4.21803 5.63212 4.97557
#
# Compressibility (1/GPa) = 0.03297134
#
# Stress axis : x y z
#
# Youngs Moduli (GPa) = 54.34026 121.48482 83.48525
#
# Poissons Ratio (x) = 0.27388 0.02049
# Poissons Ratio (y) = 0.12251 0.02676
# Poissons Ratio (z) = 0.01334 0.03894
#
# Static dielectric constant tensor:
#      x y z
#    x 1.922450 0.000000 0.000000 
#    y 0.000000 1.835530 0.000000 
#    z 0.000000 0.000000 1.808150 
# 
# From -- ./inp_files/6439.got.cif
#   From: 2010.05.17/outbox.cif.g08.bks.cpg/sg18_4_cif.got.tgz:6439.got - 2010.06.03 22:40:56.
