data_PCOD9312572
_publ_section_title
;
Structure prediction by ZEFSAII (Michael W. Deem and Ramdas Pophale) SiO2 
 PCOD9312572
Probable space group: P 21 21 2
;
_chemical_formula_sum "Si O2"
_cell_formula_units_Z 28
_cell_length_a 10.306581
_cell_length_b 19.487625
_cell_length_c 6.161749
_cell_angle_alpha 90.000000
_cell_angle_beta 90.000000
_cell_angle_gamma 90.000000
_cell_volume 1237.592127
_symmetry_space_group_name_H-M "P 21 21 2"
_symmetry_group_IT_number 18
_symmetry_cell_setting 'orthorhombic'
loop_
_space_group_symop_operation_xyz
x,y,z
-x,-y,z
1/2+x,1/2-y,-z
1/2-x,1/2+y,-z
loop_
_atom_site_type_symbol
_atom_site_label
_atom_site_fract_x
_atom_site_fract_y
_atom_site_fract_z
Si Si1 0.756840 0.189116 0.860228
Si Si2 0.883490 0.929146 0.825648
Si Si3 0.500000 0.500000 0.555216
Si Si4 0.409685 0.879557 0.481959
Si Si5 0.000000 0.500000 0.805914
Si Si6 0.363763 0.434661 0.929516
Si Si7 0.980307 0.729752 0.882316
Si Si8 0.108286 0.609579 0.141105
O O1 0.701245 0.149378 0.646788
O O2 0.771566 0.128932 0.040341
O O3 0.903160 0.217326 0.823064
O O4 0.651427 0.241112 0.971019
O O5 0.951063 0.938914 0.596255
O O6 0.759083 0.883680 0.812846
O O7 0.990116 0.910469 0.004080
O O8 0.837005 0.005798 0.895142
O O9 0.384685 0.471008 0.701975
O O10 0.407567 0.948843 0.333570
O O11 0.443915 0.814300 0.330771
O O12 0.528045 0.900621 0.640781
O O13 0.919507 0.449868 0.964833
O O14 0.055501 0.678340 0.039569
#
# Coordination Sequence:
#
# PCOD9312572 Si02
#       8
#     4   4   2   4   2   4   4   4
#     4  11  25  48  70  98 138 182 242 288 338 416
#     4   9  20  37  60  94 135 163 218 276 338 412
#     4   8  18  40  58 102 128 176 214 262 358 412
#     4  10  24  43  69 103 131 180 230 283 352 421
#     4  10  22  40  66 104 132 174 218 294 356 408
#     4   9  21  38  61  94 132 173 217 277 338 404
#     4  10  26  46  70  95 134 187 228 288 348 399
#     4  10  22  41  63  99 135 167 225 288 343 413
#
# _framework density 22.624580000000002
#
# number of rings (size 3 to 8) (size 9 to 14) (size 15 to 20)
#    0.000    2.571    0.000    0.429   10.000    9.143 
#    2.571    0.000    0.000    0.000    0.000    0.000 
#    0.000    0.000    0.000    0.000    0.000    0.000 
#
# Total GULP energy -156074.050767 kJ/mol
# GULP energy per Si atom -5574.073242 kJ/mol
# Density = 2.257309 g / cm^3
# Si number density = 22.624580 Si / 1000 Ang^3
#
#
#
# Elastic Constant Matrix: (Units=GPa)
#
#
# Indices 1 2 3 4 5 6 
#
# 1 94.3286 28.4509 23.3349 0.0000 0.0000 0.0000
# 2 28.4509 62.1967 11.2642 0.0000 0.0000 0.0000
# 3 23.3349 11.2642 86.8308 0.0000 0.0000 0.0000
# 4 0.0000 0.0000 0.0000 11.4978 0.0000 0.0000
# 5 0.0000 0.0000 0.0000 0.0000 9.9782 0.0000
# 6 0.0000 0.0000 0.0000 0.0000 0.0000 41.3005
#
#
#
# Elastic Compliance Matrix: (Units=1/GPa)
#
#
# Indices 1 2 3 4 5 6 
#
# 1 0.012917 -0.005407 -0.002770 0.000000 0.000000 0.000000
# 2 -0.005407 0.018728 -0.000976 0.000000 0.000000 0.000000
# 3 -0.002770 -0.000976 0.012388 0.000000 0.000000 0.000000
# 4 0.000000 0.000000 0.000000 0.086973 0.000000 0.000000
# 5 0.000000 0.000000 0.000000 0.000000 0.100219 0.000000
# 6 0.000000 0.000000 0.000000 0.000000 0.000000 0.024213
#
#
# Mechanical properties :
#
#
# Convention : Reuss Voigt Hill
#
# Bulk Modulus (GPa) = 38.87079 41.05066 39.96073
# Shear Modulus (GPa) = 17.71036 24.57570 21.14303
#
# Velocity S-wave (km/s) = 2.80088 3.29939 3.06030
# Velocity P-wave (km/s) = 5.26099 5.71824 5.49437
#
# Compressibility (1/GPa) = 0.02572626
#
# Stress axis : x y z
#
# Youngs Moduli (GPa) = 77.41522 53.39515 80.72517
#
# Poissons Ratio (x) = 0.28872 0.22361
# Poissons Ratio (y) = 0.41860 0.07882
# Poissons Ratio (z) = 0.21444 0.05214
#
# Static dielectric constant tensor:
#      x y z
#    x 1.935930 0.000000 0.000000 
#    y 0.000000 1.892230 0.000000 
#    z 0.000000 0.000000 1.865090 
# 
# From -- ./inp_files/1260.got.cif
#   From: 2010.05.17/outbox.cif.g08.bks.cpg/sg18_1_cif.got.tgz:1260.got - 2010.06.03 22:40:56.
