data_PCOD9312436
_publ_section_title
;
Structure prediction by ZEFSAII (Michael W. Deem and Ramdas Pophale) SiO2 
 PCOD9312436
Probable space group: P 21 21 2
;
_chemical_formula_sum "Si O2"
_cell_formula_units_Z 26
_cell_length_a 9.121077
_cell_length_b 22.783483
_cell_length_c 5.307629
_cell_angle_alpha 90.000000
_cell_angle_beta 90.000000
_cell_angle_gamma 90.000000
_cell_volume 1102.977866
_symmetry_space_group_name_H-M "P 21 21 2"
_symmetry_group_IT_number 18
_symmetry_cell_setting 'orthorhombic'
loop_
_space_group_symop_operation_xyz
x,y,z
-x,-y,z
1/2+x,1/2-y,-z
1/2-x,1/2+y,-z
loop_
_atom_site_type_symbol
_atom_site_label
_atom_site_fract_x
_atom_site_fract_y
_atom_site_fract_z
Si Si1 0.000000 0.000000 0.986348
Si Si2 0.215706 0.099489 0.788190
Si Si3 0.636651 0.336428 0.719576
Si Si4 0.203623 0.293718 0.358291
Si Si5 0.950128 0.577243 0.338613
Si Si6 0.325154 0.322778 0.861540
Si Si7 0.702018 0.054410 0.158239
O O1 0.086302 0.050519 0.825519
O O2 0.862425 0.024727 0.148883
O O3 0.172517 0.141711 0.557821
O O4 0.376710 0.078576 0.705288
O O5 0.230342 0.133987 0.056348
O O6 0.626957 0.265865 0.727838
O O7 0.472957 0.354161 0.784392
O O8 0.108189 0.353833 0.354065
O O9 0.271949 0.282355 0.633503
O O10 0.329749 0.300247 0.145413
O O11 0.888925 0.545914 0.589216
O O12 0.876450 0.543378 0.105250
O O13 0.211482 0.375361 0.858518
#
# Coordination Sequence:
#
# PCOD9312436 Si02
#       7
#     2   4   4   4   4   4   4
#     4  12  28  50  82 106 144 200 256 322 384 424
#     4  12  28  47  72 109 148 193 252 310 364 449
#     4  12  25  42  70 108 147 189 248 299 357 459
#     4  10  23  38  71  97 146 187 228 290 374 428
#     4  10  24  48  70 107 145 187 238 301 368 448
#     4  10  21  43  64 103 136 187 234 294 351 437
#     4  10  23  46  76 100 142 185 243 301 365 430
#
# _framework density 23.572548000000001
#
# number of rings (size 3 to 8) (size 9 to 14) (size 15 to 20)
#    0.000    1.231    1.538    2.769    8.615    3.077 
#    0.000    1.538    0.000    0.000    0.000    0.000 
#    0.000    0.000    0.000    0.000    0.000    0.000 
#
# Total GULP energy -145048.113560 kJ/mol
# GULP energy per Si atom -5578.773598 kJ/mol
# Density = 2.351890 g / cm^3
# Si number density = 23.572548 Si / 1000 Ang^3
#
#
#
# Elastic Constant Matrix: (Units=GPa)
#
#
# Indices 1 2 3 4 5 6 
#
# 1 118.2865 37.4504 43.9727 0.0000 0.0000 0.0000
# 2 37.4504 103.5597 64.8426 0.0000 0.0000 0.0000
# 3 43.9727 64.8426 135.1610 0.0000 0.0000 0.0000
# 4 0.0000 0.0000 0.0000 40.2884 0.0000 0.0000
# 5 0.0000 0.0000 0.0000 0.0000 43.6144 0.0000
# 6 0.0000 0.0000 0.0000 0.0000 0.0000 20.8284
#
#
#
# Elastic Compliance Matrix: (Units=1/GPa)
#
#
# Indices 1 2 3 4 5 6 
#
# 1 0.009971 -0.002251 -0.002164 0.000000 0.000000 0.000000
# 2 -0.002251 0.014310 -0.006133 0.000000 0.000000 0.000000
# 3 -0.002164 -0.006133 0.011045 0.000000 0.000000 0.000000
# 4 0.000000 0.000000 0.000000 0.024821 0.000000 0.000000
# 5 0.000000 0.000000 0.000000 0.000000 0.022928 0.000000
# 6 0.000000 0.000000 0.000000 0.000000 0.000000 0.048011
#
#
# Mechanical properties :
#
#
# Convention : Reuss Voigt Hill
#
# Bulk Modulus (GPa) = 70.27182 72.17097 71.22140
# Shear Modulus (GPa) = 31.86202 34.99566 33.42884
#
# Velocity S-wave (km/s) = 3.68048 3.85722 3.76989
# Velocity P-wave (km/s) = 6.92364 7.10778 7.01632
#
# Compressibility (1/GPa) = 0.01423046
#
# Stress axis : x y z
#
# Youngs Moduli (GPa) = 100.28876 69.87950 90.53919
#
# Poissons Ratio (x) = 0.15729 0.19594
# Poissons Ratio (y) = 0.22573 0.55528
# Poissons Ratio (z) = 0.21704 0.42857
#
# Static dielectric constant tensor:
#      x y z
#    x 1.893470 0.000000 0.000000 
#    y 0.000000 2.072300 0.000000 
#    z 0.000000 0.000000 1.932660 
# 
# From -- ./inp_files/643.got.cif
#   From: 2010.05.17/outbox.cif.g08.bks.cpg/sg18_1_cif.got.tgz:643.got - 2010.06.03 22:40:56.
