data_PCOD9312954
_publ_section_title
;
Structure prediction by ZEFSAII (Michael W. Deem and Ramdas Pophale) SiO2 
 PCOD9312954
Probable space group: P 21 21 2
;
_chemical_formula_sum "Si O2"
_cell_formula_units_Z 20
_cell_length_a 8.419249
_cell_length_b 8.249726
_cell_length_c 12.343632
_cell_angle_alpha 90.000000
_cell_angle_beta 90.000000
_cell_angle_gamma 90.000000
_cell_volume 857.345444
_symmetry_space_group_name_H-M "P 21 21 2"
_symmetry_group_IT_number 18
_symmetry_cell_setting 'orthorhombic'
loop_
_space_group_symop_operation_xyz
x,y,z
-x,-y,z
1/2+x,1/2-y,-z
1/2-x,1/2+y,-z
loop_
_atom_site_type_symbol
_atom_site_label
_atom_site_fract_x
_atom_site_fract_y
_atom_site_fract_z
Si Si1 0.754032 0.099201 0.575239
Si Si2 0.784514 0.690358 0.835138
Si Si3 0.591556 0.253129 0.384857
Si Si4 0.332547 0.594959 0.961983
Si Si5 0.953769 0.684686 0.221129
O O1 0.667615 0.117204 0.460766
O O2 0.642126 0.177409 0.667058
O O3 0.919135 0.195611 0.574388
O O4 0.799015 0.914979 0.604854
O O5 0.911754 0.704376 0.740625
O O6 0.788365 0.528880 0.906291
O O7 0.613195 0.706465 0.775721
O O8 0.791190 0.835832 0.921223
O O9 0.500000 0.500000 0.971097
O O10 0.353659 0.741226 0.877267
O O11 0.000000 0.500000 0.197961
#
# Coordination Sequence:
#
# PCOD9312954 Si02
#       5
#     4   4   4   4   4
#     4  11  26  45  70 103 135 186 232 297 360 436
#     4  11  23  43  69 102 142 190 229 299 345 428
#     4  11  26  45  72  98 145 179 239 292 363 428
#     4  10  25  42  70 105 144 185 248 286 359 423
#     4  11  22  43  71  96 141 184 234 293 358 417
#
# _framework density 23.327818000000001
#
# number of rings (size 3 to 8) (size 9 to 14) (size 15 to 20)
#    0.000    1.200    2.000    2.400    5.600    1.600 
#    0.000    4.000    0.000    0.000    0.000    0.000 
#    0.000    0.000    0.000    0.000    0.000    0.000 
#
# Total GULP energy -112037.467834 kJ/mol
# GULP energy per Si atom -5601.873392 kJ/mol
# Density = 2.327472 g / cm^3
# Si number density = 23.327818 Si / 1000 Ang^3
#
#
#
# Elastic Constant Matrix: (Units=GPa)
#
#
# Indices 1 2 3 4 5 6 
#
# 1 34.0111 23.0235 20.9232 0.0000 0.0000 0.0000
# 2 23.0235 64.3067 48.8075 0.0000 0.0000 0.0000
# 3 20.9232 48.8075 133.0146 0.0000 0.0000 0.0000
# 4 0.0000 0.0000 0.0000 39.4381 0.0000 0.0000
# 5 0.0000 0.0000 0.0000 0.0000 37.0134 0.0000
# 6 0.0000 0.0000 0.0000 0.0000 0.0000 26.1571
#
#
#
# Elastic Compliance Matrix: (Units=1/GPa)
#
#
# Indices 1 2 3 4 5 6 
#
# 1 0.038995 -0.012898 -0.001401 0.000000 0.000000 0.000000
# 2 -0.012898 0.025819 -0.007445 0.000000 0.000000 0.000000
# 3 -0.001401 -0.007445 0.010470 0.000000 0.000000 0.000000
# 4 0.000000 0.000000 0.000000 0.025356 0.000000 0.000000
# 5 0.000000 0.000000 0.000000 0.000000 0.027017 0.000000
# 6 0.000000 0.000000 0.000000 0.000000 0.000000 0.038230
#
#
# Mechanical properties :
#
#
# Convention : Reuss Voigt Hill
#
# Bulk Modulus (GPa) = 31.45033 46.31565 38.88299
# Shear Modulus (GPa) = 22.72984 29.76027 26.24506
#
# Velocity S-wave (km/s) = 3.12487 3.57563 3.35782
# Velocity P-wave (km/s) = 5.15082 6.07817 5.63361
#
# Compressibility (1/GPa) = 0.03179617
#
# Stress axis : x y z
#
# Youngs Moduli (GPa) = 25.64412 38.73146 95.50907
#
# Poissons Ratio (x) = 0.49955 0.13384
# Poissons Ratio (y) = 0.33075 0.71106
# Poissons Ratio (z) = 0.03594 0.28835
#
# Static dielectric constant tensor:
#      x y z
#    x 1.899930 0.000000 0.000000 
#    y 0.000000 1.877110 0.000000 
#    z 0.000000 0.000000 1.837190 
# 
# From -- ./inp_files/5416.got.cif
#   From: 2010.05.17/outbox.cif.g08.bks.cpg/sg18_3_cif.got.tgz:5416.got - 2010.06.03 22:40:56.
