data_PCOD9312423
_publ_section_title
;
Structure prediction by ZEFSAII (Michael W. Deem and Ramdas Pophale) SiO2 
 PCOD9312423
Probable space group: P 21 21 2
;
_chemical_formula_sum "Si O2"
_cell_formula_units_Z 22
_cell_length_a 13.659183
_cell_length_b 4.897578
_cell_length_c 13.974410
_cell_angle_alpha 90.000000
_cell_angle_beta 90.000000
_cell_angle_gamma 90.000000
_cell_volume 934.844906
_symmetry_space_group_name_H-M "P 21 21 2"
_symmetry_group_IT_number 18
_symmetry_cell_setting 'orthorhombic'
loop_
_space_group_symop_operation_xyz
x,y,z
-x,-y,z
1/2+x,1/2-y,-z
1/2-x,1/2+y,-z
loop_
_atom_site_type_symbol
_atom_site_label
_atom_site_fract_x
_atom_site_fract_y
_atom_site_fract_z
Si Si1 0.101859 0.848312 0.922652
Si Si2 0.097825 0.822705 0.142663
Si Si3 0.851709 0.841040 0.416007
Si Si4 0.500000 0.000000 0.701251
Si Si5 0.810989 0.654032 0.827876
Si Si6 0.720137 0.343841 0.378341
O O1 0.179541 0.088610 0.900114
O O2 0.118798 0.589786 0.856509
O O3 0.000000 0.000000 0.905414
O O4 0.102435 0.741763 0.031694
O O5 0.083241 0.596532 0.223730
O O6 0.200734 0.962713 0.164597
O O7 0.000000 0.000000 0.152262
O O8 0.814727 0.146438 0.395185
O O9 0.850851 0.805662 0.530765
O O10 0.948558 0.728742 0.364572
O O11 0.762628 0.648414 0.380006
O O12 0.826890 0.766958 0.721970
#
# Coordination Sequence:
#
# PCOD9312423 Si02
#       6
#     4   4   4   2   4   4
#     4  11  27  45  66  97 137 183 241 288 336 414
#     4  11  26  40  70 102 140 176 230 294 348 417
#     4  10  22  40  65  98 132 173 220 284 339 411
#     4  12  24  40  68 100 140 174 230 284 358 408
#     4  12  23  45  72  97 137 188 227 280 359 409
#     4  10  21  42  67  93 134 176 224 276 342 410
#
# _framework density 23.533315000000002
#
# number of rings (size 3 to 8) (size 9 to 14) (size 15 to 20)
#    0.000    1.091    1.818    3.818    7.636    0.000 
#    3.273    0.000    0.000    0.000    0.000    0.000 
#    0.000    0.000    0.000    0.000    0.000    0.000 
#
# Total GULP energy -123124.270205 kJ/mol
# GULP energy per Si atom -5596.557737 kJ/mol
# Density = 2.347975 g / cm^3
# Si number density = 23.533315 Si / 1000 Ang^3
#
#
#
# Elastic Constant Matrix: (Units=GPa)
#
#
# Indices 1 2 3 4 5 6 
#
# 1 76.6875 16.8426 43.7491 0.0000 0.0000 0.0000
# 2 16.8426 72.3971 22.3839 0.0000 0.0000 0.0000
# 3 43.7491 22.3839 143.6633 0.0000 0.0000 0.0000
# 4 0.0000 0.0000 0.0000 14.1864 0.0000 0.0000
# 5 0.0000 0.0000 0.0000 0.0000 35.1491 0.0000
# 6 0.0000 0.0000 0.0000 0.0000 0.0000 30.5030
#
#
#
# Elastic Compliance Matrix: (Units=1/GPa)
#
#
# Indices 1 2 3 4 5 6 
#
# 1 0.016154 -0.002350 -0.004553 0.000000 0.000000 0.000000
# 2 -0.002350 0.014854 -0.001599 0.000000 0.000000 0.000000
# 3 -0.004553 -0.001599 0.008596 0.000000 0.000000 0.000000
# 4 0.000000 0.000000 0.000000 0.070490 0.000000 0.000000
# 5 0.000000 0.000000 0.000000 0.000000 0.028450 0.000000
# 6 0.000000 0.000000 0.000000 0.000000 0.000000 0.032784
#
#
# Mechanical properties :
#
#
# Convention : Reuss Voigt Hill
#
# Bulk Modulus (GPa) = 44.24813 50.96657 47.60735
# Shear Modulus (GPa) = 25.52788 29.95254 27.74021
#
# Velocity S-wave (km/s) = 3.29713 3.57146 3.43704
# Velocity P-wave (km/s) = 5.77390 6.22184 6.00205
#
# Compressibility (1/GPa) = 0.02259982
#
# Stress axis : x y z
#
# Youngs Moduli (GPa) = 61.90599 67.32311 116.32931
#
# Poissons Ratio (x) = 0.15823 0.52964
# Poissons Ratio (y) = 0.14550 0.18596
# Poissons Ratio (z) = 0.28186 0.10762
#
# Static dielectric constant tensor:
#      x y z
#    x 1.937950 0.000000 0.000000 
#    y 0.000000 1.890980 0.000000 
#    z 0.000000 0.000000 1.882650 
# 
# From -- ./inp_files/6011.got.cif
#   From: 2010.05.17/outbox.cif.g08.bks.cpg/sg18_4_cif.got.tgz:6011.got - 2010.06.03 22:40:56.
