data_PCOD9312414
_publ_section_title
;
Structure prediction by ZEFSAII (Michael W. Deem and Ramdas Pophale) SiO2 
 PCOD9312414
Probable space group: P 21 21 2
;
_chemical_formula_sum "Si O2"
_cell_formula_units_Z 20
_cell_length_a 12.862826
_cell_length_b 4.874220
_cell_length_c 12.478636
_cell_angle_alpha 90.000000
_cell_angle_beta 90.000000
_cell_angle_gamma 90.000000
_cell_volume 782.363604
_symmetry_space_group_name_H-M "P 21 21 2"
_symmetry_group_IT_number 18
_symmetry_cell_setting 'orthorhombic'
loop_
_space_group_symop_operation_xyz
x,y,z
-x,-y,z
1/2+x,1/2-y,-z
1/2-x,1/2+y,-z
loop_
_atom_site_type_symbol
_atom_site_label
_atom_site_fract_x
_atom_site_fract_y
_atom_site_fract_z
Si Si1 0.899597 0.188558 0.574605
Si Si2 0.669447 0.578728 0.116418
Si Si3 0.691234 0.237021 0.322090
Si Si4 0.571354 0.750676 0.676180
Si Si5 0.388031 0.915165 0.986905
O O1 0.868156 0.458375 0.643689
O O2 0.919444 0.274269 0.453097
O O3 0.809637 0.957691 0.580623
O O4 0.000000 0.000000 0.605257
O O5 0.644865 0.429190 0.227291
O O6 0.637216 0.889612 0.090773
O O7 0.615360 0.395717 0.025797
O O8 0.792502 0.551395 0.093765
O O9 0.810517 0.188387 0.289608
O O10 0.500000 0.500000 0.705856
O O11 0.500000 0.000000 0.712689
O O12 0.500000 0.000000 0.947607
#
# Coordination Sequence:
#
# PCOD9312414 Si02
#       5
#     4   4   4   4   4
#     4  11  23  40  62  90 126 169 212 257 315 377
#     4  10  23  39  62  94 119 152 208 247 298 381
#     4  12  23  40  64  93 127 163 209 269 316 362
#     4  11  23  41  62  89 125 168 214 256 312 379
#     4  10  21  42  64  86 123 162 193 247 311 367
#
# _framework density 25.563564
#
# number of rings (size 3 to 8) (size 9 to 14) (size 15 to 20)
#    0.000    1.200    0.000    7.200    0.000    4.000 
#    0.000    5.000    0.000    0.000    0.000    0.000 
#    0.000    0.000    0.000    0.000    0.000    0.000 
#
# Total GULP energy -111848.354087 kJ/mol
# GULP energy per Si atom -5592.417704 kJ/mol
# Density = 2.550538 g / cm^3
# Si number density = 25.563564 Si / 1000 Ang^3
#
#
#
# Elastic Constant Matrix: (Units=GPa)
#
#
# Indices 1 2 3 4 5 6 
#
# 1 117.0680 20.0580 9.8367 0.0000 0.0000 0.0000
# 2 20.0580 165.2964 11.5955 0.0000 0.0000 0.0000
# 3 9.8367 11.5955 65.4169 0.0000 0.0000 0.0000
# 4 0.0000 0.0000 0.0000 19.7550 0.0000 0.0000
# 5 0.0000 0.0000 0.0000 0.0000 -0.4896 0.0000
# 6 0.0000 0.0000 0.0000 0.0000 0.0000 50.4574
#
#
#
# Elastic Compliance Matrix: (Units=1/GPa)
#
#
# Indices 1 2 3 4 5 6 
#
# 1 0.008808 -0.000988 -0.001149 0.000000 0.000000 0.000000
# 2 -0.000988 0.006237 -0.000957 0.000000 0.000000 0.000000
# 3 -0.001149 -0.000957 0.015629 0.000000 0.000000 0.000000
# 4 0.000000 0.000000 0.000000 0.050620 0.000000 0.000000
# 5 0.000000 0.000000 0.000000 0.000000 -2.042483 0.000000
# 6 0.000000 0.000000 0.000000 0.000000 0.000000 0.019819
#
#
# Mechanical properties :
#
#
# Convention : Reuss Voigt Hill
#
# Bulk Modulus (GPa) = 40.84138 47.86239 44.35188
# Shear Modulus (GPa) = -2.59468 34.36396 15.88464
#
# Velocity S-wave (km/s) = -1.00856 3.67039 2.49545
# Velocity P-wave (km/s) = 3.82816 6.06019 5.06856
#
# Compressibility (1/GPa) = 0.02448497
#
# Stress axis : x y z
#
# Youngs Moduli (GPa) = 113.53412 160.33924 63.98358
#
# Poissons Ratio (x) = 0.15844 0.07354
# Poissons Ratio (y) = 0.11219 0.06123
# Poissons Ratio (z) = 0.13048 0.15343
#
# Static dielectric constant tensor:
#      x y z
#    x 2.062720 0.000000 0.000000 
#    y 0.000000 1.937340 0.000000 
#    z 0.000000 0.000000 2.090790 
# 
# From -- ./inp_files/6832.got.cif
#   From: 2010.05.17/outbox.cif.g08.bks.cpg/sg18_4_cif.got.tgz:6832.got - 2010.06.03 22:40:56.
