data_PCOD9312706
_publ_section_title
;
Structure prediction by ZEFSAII (Michael W. Deem and Ramdas Pophale) SiO2 
 PCOD9312706
Probable space group: P 21 21 2
;
_chemical_formula_sum "Si O2"
_cell_formula_units_Z 32
_cell_length_a 8.629654
_cell_length_b 26.553614
_cell_length_c 5.408856
_cell_angle_alpha 90.000000
_cell_angle_beta 90.000000
_cell_angle_gamma 90.000000
_cell_volume 1239.431246
_symmetry_space_group_name_H-M "P 21 21 2"
_symmetry_group_IT_number 18
_symmetry_cell_setting 'orthorhombic'
loop_
_space_group_symop_operation_xyz
x,y,z
-x,-y,z
1/2+x,1/2-y,-z
1/2-x,1/2+y,-z
loop_
_atom_site_type_symbol
_atom_site_label
_atom_site_fract_x
_atom_site_fract_y
_atom_site_fract_z
Si Si1 0.742508 0.077336 0.512114
Si Si2 0.879597 0.678859 0.350954
Si Si3 0.066900 0.056459 0.668663
Si Si4 0.904809 0.186972 0.013092
Si Si5 0.609307 0.047008 0.024529
Si Si6 0.938814 0.345988 0.938655
Si Si7 0.633428 0.393618 0.818780
Si Si8 0.356896 0.754082 0.264149
O O1 0.653653 0.129956 0.484313
O O2 0.912083 0.087895 0.615230
O O3 0.667682 0.046113 0.740703
O O4 0.735889 0.049946 0.246140
O O5 0.742087 0.670915 0.151145
O O6 0.854263 0.735804 0.443552
O O7 0.045027 0.670700 0.225057
O O8 0.137110 0.073025 0.929542
O O9 0.000000 0.000000 0.671906
O O10 0.159412 0.071386 0.421407
O O11 0.976625 0.140287 0.164002
O O12 0.047976 0.208054 0.848127
O O13 0.814046 0.229963 0.170992
O O14 0.512903 0.098464 0.051237
O O15 0.500000 0.000000 0.071663
O O16 0.770812 0.353515 0.830938
O O17 0.028305 0.301127 0.802289
#
# Coordination Sequence:
#
# PCOD9312706 Si02
#       8
#     4   4   4   4   4   4   4   4
#     4  11  22  44  68  97 138 185 237 284 355 416
#     4  10  22  44  70  96 139 182 230 291 356 413
#     4  12  28  45  73 101 144 193 239 297 358 431
#     4  11  25  43  71 105 135 190 230 296 350 430
#     4  11  24  39  71  99 138 182 237 293 352 418
#     4  10  25  42  66 103 137 182 234 298 350 420
#     4  12  27  47  71 104 147 185 243 294 361 421
#     4  11  23  46  72 101 145 181 245 285 365 423
#
# _framework density 25.818294999999999
#
# number of rings (size 3 to 8) (size 9 to 14) (size 15 to 20)
#    0.000    1.000    2.500    3.000    7.000    3.000 
#    0.000    0.000    0.000    0.000    0.000    0.000 
#    0.000    0.000    0.000    0.000    0.000    0.000 
#
# Total GULP energy -178737.518377 kJ/mol
# GULP energy per Si atom -5585.547449 kJ/mol
# Density = 2.575953 g / cm^3
# Si number density = 25.818295 Si / 1000 Ang^3
#
#
#
# Elastic Constant Matrix: (Units=GPa)
#
#
# Indices 1 2 3 4 5 6 
#
# 1 47.0956 -1.2497 15.2921 0.0000 0.0000 0.0000
# 2 -1.2497 94.8297 26.6264 0.0000 0.0000 0.0000
# 3 15.2921 26.6264 82.9393 0.0000 0.0000 0.0000
# 4 0.0000 0.0000 0.0000 37.4257 0.0000 0.0000
# 5 0.0000 0.0000 0.0000 0.0000 14.8743 0.0000
# 6 0.0000 0.0000 0.0000 0.0000 0.0000 39.0574
#
#
#
# Elastic Compliance Matrix: (Units=1/GPa)
#
#
# Indices 1 2 3 4 5 6 
#
# 1 0.022812 0.001628 -0.004729 0.000000 0.000000 0.000000
# 2 0.001628 0.011706 -0.004058 0.000000 0.000000 0.000000
# 3 -0.004729 -0.004058 0.014232 0.000000 0.000000 0.000000
# 4 0.000000 0.000000 0.000000 0.026720 0.000000 0.000000
# 5 0.000000 0.000000 0.000000 0.000000 0.067230 0.000000
# 6 0.000000 0.000000 0.000000 0.000000 0.000000 0.025603
#
#
# Mechanical properties :
#
#
# Convention : Reuss Voigt Hill
#
# Bulk Modulus (GPa) = 29.04229 34.02247 31.53238
# Shear Modulus (GPa) = 25.76021 30.55121 28.15571
#
# Velocity S-wave (km/s) = 3.16215 3.44367 3.30590
# Velocity P-wave (km/s) = 4.96038 5.38684 5.17800
#
# Compressibility (1/GPa) = 0.03443254
#
# Stress axis : x y z
#
# Youngs Moduli (GPa) = 43.83647 85.42498 70.26545
#
# Poissons Ratio (x) = -0.13910 0.33227
# Poissons Ratio (y) = -0.07138 0.28516
# Poissons Ratio (z) = 0.20729 0.34668
#
# Static dielectric constant tensor:
#      x y z
#    x 2.051390 0.000000 0.000000 
#    y 0.000000 2.040460 0.000000 
#    z 0.000000 0.000000 2.477210 
# 
# From -- ./inp_files/803.got.cif
#   From: 2010.05.17/outbox.cif.g08.bks.cpg/sg18_1_cif.got.tgz:803.got - 2010.06.03 22:40:56.
