data_PCOD9312497
_publ_section_title
;
Structure prediction by ZEFSAII (Michael W. Deem and Ramdas Pophale) SiO2 
 PCOD9312497
Probable space group: P 21 21 2
;
_chemical_formula_sum "Si O2"
_cell_formula_units_Z 26
_cell_length_a 10.253197
_cell_length_b 23.106050
_cell_length_c 5.104949
_cell_angle_alpha 90.000000
_cell_angle_beta 90.000000
_cell_angle_gamma 90.000000
_cell_volume 1209.417973
_symmetry_space_group_name_H-M "P 21 21 2"
_symmetry_group_IT_number 18
_symmetry_cell_setting 'orthorhombic'
loop_
_space_group_symop_operation_xyz
x,y,z
-x,-y,z
1/2+x,1/2-y,-z
1/2-x,1/2+y,-z
loop_
_atom_site_type_symbol
_atom_site_label
_atom_site_fract_x
_atom_site_fract_y
_atom_site_fract_z
Si Si1 0.000000 0.000000 0.496038
Si Si2 0.931814 0.838973 0.834785
Si Si3 0.166275 0.101008 0.334065
Si Si4 0.698124 0.133838 0.278288
Si Si5 0.402528 0.172213 0.221863
Si Si6 0.179697 0.906894 0.776236
Si Si7 0.791596 0.260672 0.275629
O O1 0.094185 0.039898 0.319078
O O2 0.908064 0.039998 0.677313
O O3 0.852362 0.881643 0.638091
O O4 0.860725 0.779683 0.763675
O O5 0.080458 0.852086 0.772198
O O6 0.909722 0.855695 0.136911
O O7 0.313347 0.114091 0.248689
O O8 0.551088 0.152792 0.224223
O O9 0.711026 0.105595 0.561871
O O10 0.786140 0.191953 0.271940
O O11 0.757477 0.091072 0.060970
O O12 0.353868 0.212302 0.463122
O O13 0.366274 0.208458 0.963087
#
# Coordination Sequence:
#
# PCOD9312497 Si02
#       7
#     2   4   4   4   4   4   4
#     4  10  22  44  70  92 120 166 220 280 320 354
#     4   9  19  37  58  90 120 157 207 255 299 374
#     4   9  19  37  66  88 118 159 209 261 315 362
#     4  12  25  38  61  94 132 164 210 257 312 391
#     4  10  22  43  58  92 131 168 207 255 314 384
#     4  11  24  40  62  96 125 162 218 272 308 371
#     4  10  22  37  63  85 126 175 201 244 315 376
#
# _framework density 21.497942999999999
#
# number of rings (size 3 to 8) (size 9 to 14) (size 15 to 20)
#    0.000    1.846    0.000    3.692    4.308    5.538 
#    0.000    0.769    0.000    3.692    0.000    0.000 
#    0.000    0.000    0.000    0.000    0.000    0.000 
#
# Total GULP energy -145175.087255 kJ/mol
# GULP energy per Si atom -5583.657202 kJ/mol
# Density = 2.144901 g / cm^3
# Si number density = 21.497943 Si / 1000 Ang^3
#
#
#
# Elastic Constant Matrix: (Units=GPa)
#
#
# Indices 1 2 3 4 5 6 
#
# 1 95.0993 10.1421 3.6721 0.0000 0.0000 0.0000
# 2 10.1421 69.1870 1.1484 0.0000 0.0000 0.0000
# 3 3.6721 1.1484 80.2654 0.0000 0.0000 0.0000
# 4 0.0000 0.0000 0.0000 17.8103 0.0000 0.0000
# 5 0.0000 0.0000 0.0000 0.0000 20.3240 0.0000
# 6 0.0000 0.0000 0.0000 0.0000 0.0000 25.7968
#
#
#
# Elastic Compliance Matrix: (Units=1/GPa)
#
#
# Indices 1 2 3 4 5 6 
#
# 1 0.010700 -0.001561 -0.000467 0.000000 0.000000 0.000000
# 2 -0.001561 0.014685 -0.000139 0.000000 0.000000 0.000000
# 3 -0.000467 -0.000139 0.012482 0.000000 0.000000 0.000000
# 4 0.000000 0.000000 0.000000 0.056147 0.000000 0.000000
# 5 0.000000 0.000000 0.000000 0.000000 0.049203 0.000000
# 6 0.000000 0.000000 0.000000 0.000000 0.000000 0.038764
#
#
# Mechanical properties :
#
#
# Convention : Reuss Voigt Hill
#
# Bulk Modulus (GPa) = 29.82110 30.49743 30.15926
# Shear Modulus (GPa) = 25.31748 28.09217 26.70483
#
# Velocity S-wave (km/s) = 3.43544 3.61880 3.52831
# Velocity P-wave (km/s) = 5.44409 5.62832 5.53697
#
# Compressibility (1/GPa) = 0.03353330
#
# Stress axis : x y z
#
# Youngs Moduli (GPa) = 93.45959 68.09819 80.11522
#
# Poissons Ratio (x) = 0.10628 0.03743
# Poissons Ratio (y) = 0.14586 0.01111
# Poissons Ratio (z) = 0.04366 0.00944
#
# Static dielectric constant tensor:
#      x y z
#    x 1.786080 0.000000 0.000000 
#    y 0.000000 1.802960 0.000000 
#    z 0.000000 0.000000 1.765290 
# 
# From -- ./inp_files/635.got.cif
#   From: 2010.05.17/outbox.cif.g08.bks.cpg/sg18_1_cif.got.tgz:635.got - 2010.06.03 22:40:56.
