data_PCOD9312710
_publ_section_title
;
Structure prediction by ZEFSAII (Michael W. Deem and Ramdas Pophale) SiO2 
 PCOD9312710
Probable space group: P 21 21 2
;
_chemical_formula_sum "Si O2"
_cell_formula_units_Z 24
_cell_length_a 11.959220
_cell_length_b 16.980165
_cell_length_c 5.120237
_cell_angle_alpha 90.000000
_cell_angle_beta 90.000000
_cell_angle_gamma 90.000000
_cell_volume 1039.764115
_symmetry_space_group_name_H-M "P 21 21 2"
_symmetry_group_IT_number 18
_symmetry_cell_setting 'orthorhombic'
loop_
_space_group_symop_operation_xyz
x,y,z
-x,-y,z
1/2+x,1/2-y,-z
1/2-x,1/2+y,-z
loop_
_atom_site_type_symbol
_atom_site_label
_atom_site_fract_x
_atom_site_fract_y
_atom_site_fract_z
Si Si1 0.716658 0.290618 0.640425
Si Si2 0.883537 0.543550 0.749177
Si Si3 0.732365 0.533216 0.227526
Si Si4 0.095355 0.815141 0.725983
Si Si5 0.099671 0.275996 0.871523
Si Si6 0.927728 0.930534 0.446679
O O1 0.841790 0.259117 0.594145
O O2 0.647614 0.254412 0.402171
O O3 0.675151 0.380349 0.671251
O O4 0.684391 0.248428 0.906564
O O5 0.807988 0.544875 0.487865
O O6 0.914211 0.631451 0.843809
O O7 0.000000 0.500000 0.701041
O O8 0.810167 0.508334 0.987257
O O9 0.675537 0.617065 0.161380
O O10 0.633348 0.473311 0.307840
O O11 0.012427 0.773371 0.927380
O O12 0.020160 0.866749 0.528835
O O13 0.000000 0.000000 0.308314
#
# Coordination Sequence:
#
# PCOD9312710 Si02
#       6
#     4   4   4   4   4   4
#     4  11  23  44  70  98 135 178 225 284 346 402
#     4  12  25  45  67 101 139 185 226 282 342 422
#     4  11  24  46  69  98 140 177 231 283 350 405
#     4  10  22  44  71  96 137 174 228 287 336 411
#     4  11  24  43  67 100 131 177 230 278 344 407
#     4   9  23  44  70 105 135 183 230 287 346 413
#
# _framework density 23.082156999999999
#
# number of rings (size 3 to 8) (size 9 to 14) (size 15 to 20)
#    0.000    1.333    3.333    0.500    2.333    9.333 
#    3.000    7.500    0.000    0.000    0.000    0.000 
#    0.000    0.000    0.000    0.000    0.000    0.000 
#
# Total GULP energy -133985.735684 kJ/mol
# GULP energy per Si atom -5582.738987 kJ/mol
# Density = 2.302962 g / cm^3
# Si number density = 23.082157 Si / 1000 Ang^3
#
#
#
# Elastic Constant Matrix: (Units=GPa)
#
#
# Indices 1 2 3 4 5 6 
#
# 1 109.6529 46.9470 29.0276 0.0000 0.0000 0.0000
# 2 46.9470 127.8120 26.2246 0.0000 0.0000 0.0000
# 3 29.0276 26.2246 96.9586 0.0000 0.0000 0.0000
# 4 0.0000 0.0000 0.0000 17.6309 0.0000 0.0000
# 5 0.0000 0.0000 0.0000 0.0000 23.0953 0.0000
# 6 0.0000 0.0000 0.0000 0.0000 0.0000 70.6541
#
#
#
# Elastic Compliance Matrix: (Units=1/GPa)
#
#
# Indices 1 2 3 4 5 6 
#
# 1 0.011325 -0.003668 -0.002398 0.000000 0.000000 0.000000
# 2 -0.003668 0.009472 -0.001464 0.000000 0.000000 0.000000
# 3 -0.002398 -0.001464 0.011428 0.000000 0.000000 0.000000
# 4 0.000000 0.000000 0.000000 0.056718 0.000000 0.000000
# 5 0.000000 0.000000 0.000000 0.000000 0.043299 0.000000
# 6 0.000000 0.000000 0.000000 0.000000 0.000000 0.014153
#
#
# Mechanical properties :
#
#
# Convention : Reuss Voigt Hill
#
# Bulk Modulus (GPa) = 58.26047 59.86908 59.06478
# Shear Modulus (GPa) = 29.90861 37.75770 33.83316
#
# Velocity S-wave (km/s) = 3.60355 4.04889 3.83269
# Velocity P-wave (km/s) = 6.52759 6.91749 6.72536
#
# Compressibility (1/GPa) = 0.01716430
#
# Stress axis : x y z
#
# Youngs Moduli (GPa) = 88.30114 105.57985 87.50720
#
# Poissons Ratio (x) = 0.38723 0.20988
# Poissons Ratio (y) = 0.32386 0.12809
# Poissons Ratio (z) = 0.21179 0.15454
#
# Static dielectric constant tensor:
#      x y z
#    x 1.987340 0.000000 0.000000 
#    y 0.000000 1.887460 0.000000 
#    z 0.000000 0.000000 1.810050 
# 
# From -- ./inp_files/1109.got.cif
#   From: 2010.05.17/outbox.cif.g08.bks.cpg/sg18_1_cif.got.tgz:1109.got - 2010.06.03 22:40:56.
