data_PCOD9312039
_publ_section_title
;
Structure prediction by ZEFSAII (Michael W. Deem and Ramdas Pophale) SiO2 
 PCOD9312039
Probable space group: P 21 21 2
;
_chemical_formula_sum "Si O2"
_cell_formula_units_Z 30
_cell_length_a 18.628077
_cell_length_b 9.612782
_cell_length_c 8.962670
_cell_angle_alpha 90.000000
_cell_angle_beta 90.000000
_cell_angle_gamma 90.000000
_cell_volume 1604.924194
_symmetry_space_group_name_H-M "P 21 21 2"
_symmetry_group_IT_number 18
_symmetry_cell_setting 'orthorhombic'
loop_
_space_group_symop_operation_xyz
x,y,z
-x,-y,z
1/2+x,1/2-y,-z
1/2-x,1/2+y,-z
loop_
_atom_site_type_symbol
_atom_site_label
_atom_site_fract_x
_atom_site_fract_y
_atom_site_fract_z
Si Si1 0.254537 0.602749 0.677453
Si Si2 0.463176 0.685209 0.202154
Si Si3 0.404212 0.414862 0.043319
Si Si4 0.771611 0.342242 0.329898
Si Si5 0.337673 0.876003 0.179183
Si Si6 0.239374 0.382074 0.134005
Si Si7 0.114103 0.888407 0.293985
Si Si8 0.000000 0.000000 0.525408
O O1 0.244862 0.630376 0.502668
O O2 0.186412 0.518993 0.743342
O O3 0.322865 0.503391 0.701649
O O4 0.266546 0.743856 0.767795
O O5 0.423258 0.571121 0.096759
O O6 0.544539 0.684123 0.141879
O O7 0.419305 0.826845 0.196438
O O8 0.464362 0.613673 0.364688
O O9 0.320544 0.388663 0.070834
O O10 0.420210 0.394300 0.869695
O O11 0.710199 0.244020 0.258779
O O12 0.773180 0.484104 0.237115
O O13 0.845761 0.257632 0.317008
O O14 0.313436 0.881241 0.007123
O O15 0.058107 0.925332 0.421995
#
# Coordination Sequence:
#
# PCOD9312039 Si02
#       8
#     4   4   4   4   4   4   4   2
#     4  11  24  35  64  91 127 160 206 266 320 368
#     4  10  22  37  64  90 123 163 209 259 309 386
#     4  10  20  36  63  91 121 163 208 254 312 374
#     4  11  23  37  62  93 125 154 212 260 319 369
#     4  11  21  40  61  92 119 163 211 261 313 372
#     4  12  21  39  64  91 128 159 208 264 314 374
#     4  11  22  40  61  94 122 165 209 258 314 372
#     4  10  22  38  66  90 128 166 204 258 312 384
#
# _framework density 18.692471999999999
#
# number of rings (size 3 to 8) (size 9 to 14) (size 15 to 20)
#    0.000    1.333    4.000    4.800    5.600    0.000 
#    0.000    0.667    0.000    5.600    0.000    0.000 
#    0.000    0.000    0.000    0.000    0.000    0.000 
#
# Total GULP energy -167656.798255 kJ/mol
# GULP energy per Si atom -5588.559942 kJ/mol
# Density = 1.864993 g / cm^3
# Si number density = 18.692472 Si / 1000 Ang^3
#
#
#
# Elastic Constant Matrix: (Units=GPa)
#
#
# Indices 1 2 3 4 5 6 
#
# 1 48.3549 5.7636 8.8069 0.0000 0.0000 0.0000
# 2 5.7636 84.0337 40.1001 0.0000 0.0000 0.0000
# 3 8.8069 40.1001 147.9516 0.0000 0.0000 0.0000
# 4 0.0000 0.0000 0.0000 -7.3150 0.0000 0.0000
# 5 0.0000 0.0000 0.0000 0.0000 17.9162 0.0000
# 6 0.0000 0.0000 0.0000 0.0000 0.0000 30.3399
#
#
#
# Elastic Compliance Matrix: (Units=1/GPa)
#
#
# Indices 1 2 3 4 5 6 
#
# 1 0.020975 -0.000968 -0.000986 0.000000 0.000000 0.000000
# 2 -0.000968 0.013712 -0.003659 0.000000 0.000000 0.000000
# 3 -0.000986 -0.003659 0.007809 0.000000 0.000000 0.000000
# 4 0.000000 0.000000 0.000000 -0.136705 0.000000 0.000000
# 5 0.000000 0.000000 0.000000 0.000000 0.055815 0.000000
# 6 0.000000 0.000000 0.000000 0.000000 0.000000 0.032960
#
#
# Mechanical properties :
#
#
# Convention : Reuss Voigt Hill
#
# Bulk Modulus (GPa) = 31.97862 43.29792 37.63827
# Shear Modulus (GPa) = 308.30420 23.23285 165.76852
#
# Velocity S-wave (km/s) = 12.85663 3.52930 9.42733
# Velocity P-wave (km/s) = 15.41219 6.31043 11.77619
#
# Compressibility (1/GPa) = 0.03127089
#
# Stress axis : x y z
#
# Youngs Moduli (GPa) = 47.67485 72.92673 128.05129
#
# Poissons Ratio (x) = 0.07059 0.12628
# Poissons Ratio (y) = 0.04615 0.46853
# Poissons Ratio (z) = 0.04702 0.26683
#
# Static dielectric constant tensor:
#      x y z
#    x 1.657500 0.000000 0.000000 
#    y 0.000000 1.643250 0.000000 
#    z 0.000000 0.000000 1.636250 
# 
# From -- ./inp_files/4695.got.cif
#   From: 2010.05.17/outbox.cif.g08.bks.cpg/sg18_3_cif.got.tgz:4695.got - 2010.06.03 22:40:56.
