data_PCOD9312141
_publ_section_title
;
Structure prediction by ZEFSAII (Michael W. Deem and Ramdas Pophale) SiO2 
 PCOD9312141
Probable space group: P 21 21 2
;
_chemical_formula_sum "Si O2"
_cell_formula_units_Z 26
_cell_length_a 18.192001
_cell_length_b 7.232982
_cell_length_c 7.666243
_cell_angle_alpha 90.000000
_cell_angle_beta 90.000000
_cell_angle_gamma 90.000000
_cell_volume 1008.742774
_symmetry_space_group_name_H-M "P 21 21 2"
_symmetry_group_IT_number 18
_symmetry_cell_setting 'orthorhombic'
loop_
_space_group_symop_operation_xyz
x,y,z
-x,-y,z
1/2+x,1/2-y,-z
1/2-x,1/2+y,-z
loop_
_atom_site_type_symbol
_atom_site_label
_atom_site_fract_x
_atom_site_fract_y
_atom_site_fract_z
Si Si1 0.000000 0.000000 0.773846
Si Si2 0.820510 0.808645 0.310315
Si Si3 0.153269 0.904890 0.621266
Si Si4 0.110870 0.533743 0.160057
Si Si5 0.868387 0.480527 0.511228
Si Si6 0.225526 0.129634 0.926803
Si Si7 0.914648 0.647696 0.848638
O O1 0.066460 0.917170 0.661817
O O2 0.962133 0.831099 0.876511
O O3 0.835344 0.967217 0.451196
O O4 0.673067 0.808383 0.406310
O O5 0.885258 0.688411 0.208742
O O6 0.782503 0.887450 0.135390
O O7 0.308193 0.873503 0.563421
O O8 0.191936 0.971512 0.800974
O O9 0.086496 0.604701 0.347405
O O10 0.189501 0.630562 0.126615
O O11 0.073049 0.525949 0.975039
O O12 0.918267 0.584690 0.649169
O O13 0.172042 0.298473 0.873995
#
# Coordination Sequence:
#
# PCOD9312141 Si02
#       7
#     2   4   4   4   4   4   4
#     4  10  20  44  70  88 128 184 224 304 352 394
#     4   9  21  42  57  95 135 167 223 275 326 414
#     4  11  23  40  68  96 129 182 228 286 352 406
#     4   9  21  38  64  95 133 179 217 280 339 423
#     4  10  22  40  64  96 130 174 224 272 338 417
#     4  10  20  39  65  94 138 180 213 281 353 398
#     4  10  21  42  64  95 136 170 237 289 339 421
#
# _framework density 25.774659
#
# number of rings (size 3 to 8) (size 9 to 14) (size 15 to 20)
#    0.923    1.231    3.077    0.000    0.000   10.462 
#    0.000   12.308    0.000    5.538    0.000    0.000 
#    0.000    0.000    0.000    0.000    0.000    0.000 
#
# Total GULP energy -144803.531589 kJ/mol
# GULP energy per Si atom -5569.366600 kJ/mol
# Density = 2.571599 g / cm^3
# Si number density = 25.774659 Si / 1000 Ang^3
#
#
#
# Elastic Constant Matrix: (Units=GPa)
#
#
# Indices 1 2 3 4 5 6 
#
# 1 103.2821 18.5003 27.0698 0.0000 0.0000 0.0000
# 2 18.5003 111.3415 30.5144 0.0000 0.0000 0.0000
# 3 27.0698 30.5144 171.3053 0.0000 0.0000 0.0000
# 4 0.0000 0.0000 0.0000 45.4247 0.0000 0.0000
# 5 0.0000 0.0000 0.0000 0.0000 -2.9838 0.0000
# 6 0.0000 0.0000 0.0000 0.0000 0.0000 46.3427
#
#
#
# Elastic Compliance Matrix: (Units=1/GPa)
#
#
# Indices 1 2 3 4 5 6 
#
# 1 0.010284 -0.001328 -0.001388 0.000000 0.000000 0.000000
# 2 -0.001328 0.009614 -0.001503 0.000000 0.000000 0.000000
# 3 -0.001388 -0.001503 0.006325 0.000000 0.000000 0.000000
# 4 0.000000 0.000000 0.000000 0.022014 0.000000 0.000000
# 5 0.000000 0.000000 0.000000 0.000000 -0.335139 0.000000
# 6 0.000000 0.000000 0.000000 0.000000 0.000000 0.021578
#
#
# Mechanical properties :
#
#
# Convention : Reuss Voigt Hill
#
# Bulk Modulus (GPa) = 56.23087 59.78864 58.00976
# Shear Modulus (GPa) = -19.92372 38.41300 9.24464
#
# Velocity S-wave (km/s) = -2.78330 3.86468 1.89592
# Velocity P-wave (km/s) = 3.39628 6.56973 5.22954
#
# Compressibility (1/GPa) = 0.01778383
#
# Stress axis : x y z
#
# Youngs Moduli (GPa) = 97.23786 104.01626 158.11277
#
# Poissons Ratio (x) = 0.13816 0.21954
# Poissons Ratio (y) = 0.12916 0.23758
# Poissons Ratio (z) = 0.13501 0.15630
#
# Static dielectric constant tensor:
#      x y z
#    x 2.287190 0.000000 0.000000 
#    y 0.000000 2.051460 0.000000 
#    z 0.000000 0.000000 2.188480 
# 
# From -- ./inp_files/4571.got.cif
#   From: 2010.05.17/outbox.cif.g08.bks.cpg/sg18_3_cif.got.tgz:4571.got - 2010.06.03 22:40:56.
