data_PCOD9312116
_publ_section_title
;
Structure prediction by ZEFSAII (Michael W. Deem and Ramdas Pophale) SiO2 
 PCOD9312116
Probable space group: P 21 21 2
;
_chemical_formula_sum "Si O2"
_cell_formula_units_Z 32
_cell_length_a 11.468822
_cell_length_b 15.053288
_cell_length_c 8.822146
_cell_angle_alpha 90.000000
_cell_angle_beta 90.000000
_cell_angle_gamma 90.000000
_cell_volume 1523.085992
_symmetry_space_group_name_H-M "P 21 21 2"
_symmetry_group_IT_number 18
_symmetry_cell_setting 'orthorhombic'
loop_
_space_group_symop_operation_xyz
x,y,z
-x,-y,z
1/2+x,1/2-y,-z
1/2-x,1/2+y,-z
loop_
_atom_site_type_symbol
_atom_site_label
_atom_site_fract_x
_atom_site_fract_y
_atom_site_fract_z
Si Si1 0.868957 0.538784 0.613271
Si Si2 0.953278 0.117798 0.649883
Si Si3 0.318027 0.559876 0.439015
Si Si4 0.948378 0.731213 0.169101
Si Si5 0.541555 0.596301 0.999022
Si Si6 0.302416 0.855134 0.083844
Si Si7 0.705985 0.809314 0.736740
Si Si8 0.772026 0.708424 0.431348
O O1 0.774805 0.461505 0.570572
O O2 0.846959 0.582997 0.778358
O O3 0.836288 0.619508 0.497250
O O4 0.000000 0.500000 0.599052
O O5 0.856690 0.192658 0.637339
O O6 0.068437 0.124022 0.547114
O O7 0.882464 0.032166 0.595170
O O8 0.988519 0.107102 0.823926
O O9 0.250674 0.591166 0.287212
O O10 0.853399 0.743711 0.299225
O O11 0.980782 0.824670 0.092208
O O12 0.069426 0.695046 0.235353
O O13 0.896060 0.662669 0.046452
O O14 0.500000 0.500000 0.945693
O O15 0.680774 0.605963 0.978240
O O16 0.269182 0.756339 0.146210
O O17 0.741245 0.768509 0.574616
#
# Coordination Sequence:
#
# PCOD9312116 Si02
#       8
#     4   4   4   4   4   4   4   4
#     4  10  22  44  63  96 134 175 223 281 332 406
#     4  10  20  39  65  92 128 174 218 280 326 399
#     4  10  20  38  66  93 126 170 232 263 334 390
#     4  11  23  43  67  98 134 180 217 282 345 401
#     4  11  22  42  65  99 134 173 226 272 337 413
#     4  10  23  44  62  95 142 170 220 280 342 406
#     4  10  23  40  65  99 128 174 227 273 329 409
#     4  10  22  41  67  92 133 172 223 283 335 392
#
# _framework density 21.009975000000001
#
# number of rings (size 3 to 8) (size 9 to 14) (size 15 to 20)
#    0.000    1.750    2.500    1.500    1.750    1.000 
#   13.500    0.625    0.000    0.000    0.000    0.000 
#    0.000    0.000    0.000    0.000    0.000    0.000 
#
# Total GULP energy -178567.737457 kJ/mol
# GULP energy per Si atom -5580.241796 kJ/mol
# Density = 2.096216 g / cm^3
# Si number density = 21.009975 Si / 1000 Ang^3
#
#
#
# Elastic Constant Matrix: (Units=GPa)
#
#
# Indices 1 2 3 4 5 6 
#
# 1 196.9734 66.2275 74.5582 0.0000 0.0000 0.0000
# 2 66.2275 52.7241 22.8012 0.0000 0.0000 0.0000
# 3 74.5582 22.8012 82.2706 0.0000 0.0000 0.0000
# 4 0.0000 0.0000 0.0000 22.6437 0.0000 0.0000
# 5 0.0000 0.0000 0.0000 0.0000 23.9091 0.0000
# 6 0.0000 0.0000 0.0000 0.0000 0.0000 29.1045
#
#
#
# Elastic Compliance Matrix: (Units=1/GPa)
#
#
# Indices 1 2 3 4 5 6 
#
# 1 0.011811 -0.011597 -0.007490 0.000000 0.000000 0.000000
# 2 -0.011597 0.032936 0.001382 0.000000 0.000000 0.000000
# 3 -0.007490 0.001382 0.018560 0.000000 0.000000 0.000000
# 4 0.000000 0.000000 0.000000 0.044162 0.000000 0.000000
# 5 0.000000 0.000000 0.000000 0.000000 0.041825 0.000000
# 6 0.000000 0.000000 0.000000 0.000000 0.000000 0.034359
#
#
# Mechanical properties :
#
#
# Convention : Reuss Voigt Hill
#
# Bulk Modulus (GPa) = 35.84646 73.23800 54.54223
# Shear Modulus (GPa) = 21.89499 26.35686 24.12593
#
# Velocity S-wave (km/s) = 3.23170 3.54572 3.39235
# Velocity P-wave (km/s) = 5.56990 7.19008 6.43122
#
# Compressibility (1/GPa) = 0.02789676
#
# Stress axis : x y z
#
# Youngs Moduli (GPa) = 84.66663 30.36166 53.88016
#
# Poissons Ratio (x) = 0.35210 0.40355
# Poissons Ratio (y) = 0.98188 -0.07444
# Poissons Ratio (z) = 0.63413 -0.04195
#
# Static dielectric constant tensor:
#      x y z
#    x 1.760310 0.000000 0.000000 
#    y 0.000000 2.034140 0.000000 
#    z 0.000000 0.000000 1.728000 
# 
# From -- ./inp_files/3940.got.cif
#   From: 2010.05.17/outbox.cif.g08.bks.cpg/sg18_2_cif.got.tgz:3940.got - 2010.06.03 22:40:56.
