data_PCOD9312317
_publ_section_title
;
Structure prediction by ZEFSAII (Michael W. Deem and Ramdas Pophale) SiO2 
 PCOD9312317
Probable space group: P 21 21 2
;
_chemical_formula_sum "Si O2"
_cell_formula_units_Z 30
_cell_length_a 5.824932
_cell_length_b 17.600933
_cell_length_c 13.647348
_cell_angle_alpha 90.000000
_cell_angle_beta 90.000000
_cell_angle_gamma 90.000000
_cell_volume 1399.183953
_symmetry_space_group_name_H-M "P 21 21 2"
_symmetry_group_IT_number 18
_symmetry_cell_setting 'orthorhombic'
loop_
_space_group_symop_operation_xyz
x,y,z
-x,-y,z
1/2+x,1/2-y,-z
1/2-x,1/2+y,-z
loop_
_atom_site_type_symbol
_atom_site_label
_atom_site_fract_x
_atom_site_fract_y
_atom_site_fract_z
Si Si1 0.147091 0.164679 0.052528
Si Si2 0.078257 0.914586 0.861845
Si Si3 0.875725 0.924040 0.395841
Si Si4 0.972912 0.664267 0.070127
Si Si5 0.774211 0.288428 0.471113
Si Si6 0.182075 0.206672 0.754586
Si Si7 0.000000 0.500000 0.742537
Si Si8 0.694893 0.631079 0.774709
O O1 0.158110 0.256873 0.046305
O O2 0.009548 0.144392 0.148771
O O3 0.406416 0.141349 0.030800
O O4 0.023063 0.122294 0.962004
O O5 0.343725 0.906682 0.884664
O O6 0.016500 0.854280 0.776318
O O7 0.000000 0.000000 0.844373
O O8 0.772308 0.867857 0.475000
O O9 0.069021 0.882089 0.329659
O O10 0.669239 0.950471 0.325396
O O11 0.000000 0.000000 0.435373
O O12 0.141095 0.688714 0.158093
O O13 0.528342 0.243291 0.494659
O O14 0.779999 0.300091 0.354196
O O15 0.137330 0.296364 0.768118
O O16 0.166670 0.444268 0.799893
#
# Coordination Sequence:
#
# PCOD9312317 Si02
#       8
#     4   4   4   4   4   4   2   4
#     4  10  21  38  68  97 129 177 234 277 350 410
#     4  11  25  43  66 102 140 182 240 288 352 425
#     4  10  23  42  65 100 143 182 230 294 365 430
#     4  10  21  42  68  97 132 183 228 293 345 428
#     4  12  26  45  74 110 140 188 246 305 360 438
#     4  10  24  42  69  99 137 188 236 292 351 429
#     4  10  22  40  68 100 146 178 224 300 368 426
#     4  10  21  42  67 103 134 184 230 289 359 430
#
# _framework density 21.441068999999999
#
# number of rings (size 3 to 8) (size 9 to 14) (size 15 to 20)
#    0.000    1.600    2.667    0.800    3.733    7.467 
#    0.000    2.667    0.000    0.000    0.000    0.000 
#    0.000    0.000    0.000    0.000    0.000    0.000 
#
# Total GULP energy -167250.433355 kJ/mol
# GULP energy per Si atom -5575.014445 kJ/mol
# Density = 2.139227 g / cm^3
# Si number density = 21.441069 Si / 1000 Ang^3
#
#
#
# Elastic Constant Matrix: (Units=GPa)
#
#
# Indices 1 2 3 4 5 6 
#
# 1 69.9089 43.6081 3.6888 0.0000 0.0000 0.0000
# 2 43.6081 129.8454 31.2271 0.0000 0.0000 0.0000
# 3 3.6888 31.2271 73.9072 0.0000 0.0000 0.0000
# 4 0.0000 0.0000 0.0000 33.9952 0.0000 0.0000
# 5 0.0000 0.0000 0.0000 0.0000 18.2749 0.0000
# 6 0.0000 0.0000 0.0000 0.0000 0.0000 32.0051
#
#
#
# Elastic Compliance Matrix: (Units=1/GPa)
#
#
# Indices 1 2 3 4 5 6 
#
# 1 0.018326 -0.006606 0.001876 0.000000 0.000000 0.000000
# 2 -0.006606 0.010954 -0.004298 0.000000 0.000000 0.000000
# 3 0.001876 -0.004298 0.015253 0.000000 0.000000 0.000000
# 4 0.000000 0.000000 0.000000 0.029416 0.000000 0.000000
# 5 0.000000 0.000000 0.000000 0.000000 0.054720 0.000000
# 6 0.000000 0.000000 0.000000 0.000000 0.000000 0.031245
#
#
# Mechanical properties :
#
#
# Convention : Reuss Voigt Hill
#
# Bulk Modulus (GPa) = 37.76881 47.85660 42.81271
# Shear Modulus (GPa) = 26.76726 29.86420 28.31573
#
# Velocity S-wave (km/s) = 3.53712 3.73614 3.63799
# Velocity P-wave (km/s) = 5.85961 6.40158 6.13658
#
# Compressibility (1/GPa) = 0.02647687
#
# Stress axis : x y z
#
# Youngs Moduli (GPa) = 54.56714 91.29232 65.56085
#
# Poissons Ratio (x) = 0.60308 -0.12302
# Poissons Ratio (y) = 0.36047 0.28181
# Poissons Ratio (z) = -0.10239 0.39242
#
# Static dielectric constant tensor:
#      x y z
#    x 1.983420 0.000000 0.000000 
#    y 0.000000 1.799620 0.000000 
#    z 0.000000 0.000000 1.741880 
# 
# From -- ./inp_files/6534.got.cif
#   From: 2010.05.17/outbox.cif.g08.bks.cpg/sg18_4_cif.got.tgz:6534.got - 2010.06.03 22:40:56.
