data_PCOD9312251
_publ_section_title
;
Structure prediction by ZEFSAII (Michael W. Deem and Ramdas Pophale) SiO2 
 PCOD9312251
Probable space group: P 21 21 2
;
_chemical_formula_sum "Si O2"
_cell_formula_units_Z 24
_cell_length_a 11.867912
_cell_length_b 12.738441
_cell_length_c 5.707284
_cell_angle_alpha 90.000000
_cell_angle_beta 90.000000
_cell_angle_gamma 90.000000
_cell_volume 862.819757
_symmetry_space_group_name_H-M "P 21 21 2"
_symmetry_group_IT_number 18
_symmetry_cell_setting 'orthorhombic'
loop_
_space_group_symop_operation_xyz
x,y,z
-x,-y,z
1/2+x,1/2-y,-z
1/2-x,1/2+y,-z
loop_
_atom_site_type_symbol
_atom_site_label
_atom_site_fract_x
_atom_site_fract_y
_atom_site_fract_z
Si Si1 0.500000 0.500000 0.113771
Si Si2 0.730286 0.959847 0.247421
Si Si3 0.524541 0.352742 0.693342
Si Si4 0.200525 0.832812 0.500370
Si Si5 0.623273 0.170354 0.897215
Si Si6 0.000000 0.500000 0.792852
Si Si7 0.707733 0.358134 0.212250
O O1 0.469799 0.407665 0.922531
O O2 0.609616 0.448165 0.237770
O O3 0.715740 0.915679 0.982800
O O4 0.849879 0.904104 0.318126
O O5 0.753523 0.080625 0.316687
O O6 0.603440 0.948390 0.349721
O O7 0.431993 0.358951 0.489554
O O8 0.542519 0.229004 0.714433
O O9 0.265208 0.850860 0.744229
O O10 0.226259 0.715026 0.402072
O O11 0.560584 0.081980 0.037115
O O12 0.646565 0.264123 0.076748
#
# Coordination Sequence:
#
# PCOD9312251 Si02
#       7
#     2   4   4   4   4   2   4
#     4   8  16  38  72  94 140 190 238 320 364 456
#     4  10  22  42  77 100 138 210 237 320 375 444
#     4  10  20  47  70 101 148 192 254 308 375 452
#     4  12  21  45  74 105 146 193 263 314 378 453
#     4  10  25  42  68 106 151 193 235 323 376 458
#     4  12  22  48  66 112 154 188 262 302 396 468
#     4  10  21  45  70 103 144 194 261 301 391 447
#
# _framework density 27.815774000000001
#
# number of rings (size 3 to 8) (size 9 to 14) (size 15 to 20)
#    0.000    2.000    5.000    1.000    0.000    0.667 
#   18.000    6.667    3.667    0.000    0.000    0.000 
#    0.000    0.000    0.000    0.000    0.000    0.000 
#
# Total GULP energy -133761.682488 kJ/mol
# GULP energy per Si atom -5573.403437 kJ/mol
# Density = 2.775246 g / cm^3
# Si number density = 27.815774 Si / 1000 Ang^3
#
#
#
# Elastic Constant Matrix: (Units=GPa)
#
#
# Indices 1 2 3 4 5 6 
#
# 1 209.1661 75.7983 50.5476 0.0000 0.0000 0.0000
# 2 75.7983 180.2496 44.3895 0.0000 0.0000 0.0000
# 3 50.5476 44.3895 56.7791 0.0000 0.0000 0.0000
# 4 0.0000 0.0000 0.0000 47.8489 0.0000 0.0000
# 5 0.0000 0.0000 0.0000 0.0000 23.0300 0.0000
# 6 0.0000 0.0000 0.0000 0.0000 0.0000 61.5033
#
#
#
# Elastic Compliance Matrix: (Units=1/GPa)
#
#
# Indices 1 2 3 4 5 6 
#
# 1 0.006447 -0.001607 -0.004483 0.000000 0.000000 0.000000
# 2 -0.001607 0.007271 -0.004254 0.000000 0.000000 0.000000
# 3 -0.004483 -0.004254 0.024929 0.000000 0.000000 0.000000
# 4 0.000000 0.000000 0.000000 0.020899 0.000000 0.000000
# 5 0.000000 0.000000 0.000000 0.000000 0.043422 0.000000
# 6 0.000000 0.000000 0.000000 0.000000 0.000000 0.016259
#
#
# Mechanical properties :
#
#
# Convention : Reuss Voigt Hill
#
# Bulk Modulus (GPa) = 55.68237 87.51839 71.60038
# Shear Modulus (GPa) = 34.27001 44.84039 39.55520
#
# Velocity S-wave (km/s) = 3.51384 4.01939 3.77509
# Velocity P-wave (km/s) = 6.04355 7.28509 6.69317
#
# Compressibility (1/GPa) = 0.01795901
#
# Stress axis : x y z
#
# Youngs Moduli (GPa) = 155.12239 137.52821 40.11457
#
# Poissons Ratio (x) = 0.22100 0.17982
# Poissons Ratio (y) = 0.24927 0.17065
# Poissons Ratio (z) = 0.69537 0.58505
#
# Static dielectric constant tensor:
#      x y z
#    x 2.195900 0.000000 0.000000 
#    y 0.000000 2.211580 0.000000 
#    z 0.000000 0.000000 2.393160 
# 
# From -- ./inp_files/1503.got.cif
#   From: 2010.05.17/outbox.cif.g08.bks.cpg/sg18_1_cif.got.tgz:1503.got - 2010.06.03 22:40:56.
