data_PCOD9312268
_publ_section_title
;
Structure prediction by ZEFSAII (Michael W. Deem and Ramdas Pophale) SiO2 
 PCOD9312268
Probable space group: P 21 21 2
;
_chemical_formula_sum "Si O2"
_cell_formula_units_Z 24
_cell_length_a 24.895832
_cell_length_b 8.089459
_cell_length_c 5.522670
_cell_angle_alpha 90.000000
_cell_angle_beta 90.000000
_cell_angle_gamma 90.000000
_cell_volume 1112.231565
_symmetry_space_group_name_H-M "P 21 21 2"
_symmetry_group_IT_number 18
_symmetry_cell_setting 'orthorhombic'
loop_
_space_group_symop_operation_xyz
x,y,z
-x,-y,z
1/2+x,1/2-y,-z
1/2-x,1/2+y,-z
loop_
_atom_site_type_symbol
_atom_site_label
_atom_site_fract_x
_atom_site_fract_y
_atom_site_fract_z
Si Si1 0.895971 0.359858 0.172890
Si Si2 0.000099 0.179856 0.156948
Si Si3 0.602019 0.227214 0.590145
Si Si4 0.281525 0.735728 0.721873
Si Si5 0.274577 0.129231 0.780074
Si Si6 0.052354 0.439107 0.792682
O O1 0.900512 0.537474 0.307919
O O2 0.835210 0.301043 0.195022
O O3 0.941861 0.232975 0.253884
O O4 0.913108 0.410444 0.899635
O O5 0.047878 0.175424 0.350906
O O6 0.020293 0.329124 0.987812
O O7 0.000000 0.000000 0.036051
O O8 0.655846 0.309082 0.683923
O O9 0.596871 0.186592 0.308638
O O10 0.251846 0.692243 0.469735
O O11 0.279490 0.932681 0.752880
O O12 0.256822 0.663667 0.969259
O O13 0.000000 0.500000 0.636946
#
# Coordination Sequence:
#
# PCOD9312268 Si02
#       6
#     4   4   4   4   4   4
#     4   9  21  38  64  84 125 164 222 254 324 394
#     4  10  21  36  57  94 127 159 201 274 334 380
#     4  10  21  38  66  85 122 168 221 257 320 400
#     4  11  26  43  72  95 137 174 231 271 340 386
#     4  11  25  45  67 101 132 182 223 283 326 404
#     4   9  18  36  62  89 115 165 214 260 316 401
#
# _framework density 21.578239
#
# number of rings (size 3 to 8) (size 9 to 14) (size 15 to 20)
#    0.000    2.000    0.000    3.500   11.667    3.333 
#    0.000    0.000    0.000    0.000    0.000    0.000 
#    0.000    0.000    0.000    0.000    0.000    0.000 
#
# Total GULP energy -133661.471357 kJ/mol
# GULP energy per Si atom -5569.227973 kJ/mol
# Density = 2.152913 g / cm^3
# Si number density = 21.578239 Si / 1000 Ang^3
#
#
#
# Elastic Constant Matrix: (Units=GPa)
#
#
# Indices 1 2 3 4 5 6 
#
# 1 -81.5595 -39.8919 -6.6052 0.0000 0.0000 0.0000
# 2 -39.8919 25.2909 -13.8721 0.0000 0.0000 0.0000
# 3 -6.6052 -13.8721 63.9523 0.0000 0.0000 0.0000
# 4 0.0000 0.0000 0.0000 25.2850 0.0000 0.0000
# 5 0.0000 0.0000 0.0000 0.0000 27.7553 0.0000
# 6 0.0000 0.0000 0.0000 0.0000 0.0000 26.2881
#
#
#
# Elastic Compliance Matrix: (Units=1/GPa)
#
#
# Indices 1 2 3 4 5 6 
#
# 1 -0.006294 -0.011673 -0.003182 0.000000 0.000000 0.000000
# 2 -0.011673 0.023231 0.003833 0.000000 0.000000 0.000000
# 3 -0.003182 0.003833 0.016140 0.000000 0.000000 0.000000
# 4 0.000000 0.000000 0.000000 0.039549 0.000000 0.000000
# 5 0.000000 0.000000 0.000000 0.000000 0.036029 0.000000
# 6 0.000000 0.000000 0.000000 0.000000 0.000000 0.038040
#
#
# Mechanical properties :
#
#
# Convention : Reuss Voigt Hill
#
# Bulk Modulus (GPa) = 90.63575 -12.56163 39.03706
# Shear Modulus (GPa) = 28.99973 20.40254 24.70113
#
# Velocity S-wave (km/s) = 3.66995 3.07826 3.38705
# Velocity P-wave (km/s) = 7.74936 2.60771 5.78155
#
# Compressibility (1/GPa) = 0.01103317
#
# Stress axis : x y z
#
# Youngs Moduli (GPa) = -158.88390 43.04656 61.95975
#
# Poissons Ratio (x) = 0.50248 0.19716
# Poissons Ratio (y) = -1.85464 -0.23752
# Poissons Ratio (z) = -0.50558 -0.16502
#
# Static dielectric constant tensor:
#      x y z
#    x 1.852460 0.000000 0.000000 
#    y 0.000000 1.789220 0.000000 
#    z 0.000000 0.000000 1.979090 
# 
# From -- ./inp_files/612.got.cif
#   From: 2010.05.17/outbox.cif.g08.bks.cpg/sg18_1_cif.got.tgz:612.got - 2010.06.03 22:40:56.
