data_PCOD9312525
_publ_section_title
;
Structure prediction by ZEFSAII (Michael W. Deem and Ramdas Pophale) SiO2 
 PCOD9312525
Probable space group: P 21 21 2
;
_chemical_formula_sum "Si O2"
_cell_formula_units_Z 24
_cell_length_a 15.159798
_cell_length_b 9.005701
_cell_length_c 8.428273
_cell_angle_alpha 90.000000
_cell_angle_beta 90.000000
_cell_angle_gamma 90.000000
_cell_volume 1150.666668
_symmetry_space_group_name_H-M "P 21 21 2"
_symmetry_group_IT_number 18
_symmetry_cell_setting 'orthorhombic'
loop_
_space_group_symop_operation_xyz
x,y,z
-x,-y,z
1/2+x,1/2-y,-z
1/2-x,1/2+y,-z
loop_
_atom_site_type_symbol
_atom_site_label
_atom_site_fract_x
_atom_site_fract_y
_atom_site_fract_z
Si Si1 0.715678 0.609821 0.283325
Si Si2 0.165606 0.803374 0.158972
Si Si3 0.080040 0.401031 0.738682
Si Si4 0.463045 0.336551 0.086570
Si Si5 0.225297 0.208182 0.560070
Si Si6 0.781058 0.469354 0.978221
O O1 0.622330 0.647853 0.201861
O O2 0.751359 0.748972 0.381707
O O3 0.706286 0.463241 0.396373
O O4 0.781881 0.560152 0.143596
O O5 0.189476 0.756463 0.334666
O O6 0.225367 0.695761 0.046652
O O7 0.070062 0.781404 0.085506
O O8 0.197424 0.968985 0.118417
O O9 0.146891 0.317575 0.619896
O O10 0.000000 0.500000 0.669063
O O11 0.033626 0.271602 0.838267
O O12 0.137035 0.499545 0.862668
O O13 0.500000 0.500000 0.069696
#
# Coordination Sequence:
#
# PCOD9312525 Si02
#       6
#     4   4   4   4   4   4
#     4  10  22  39  58  82 119 157 190 229 284 352
#     4   9  19  35  57  81 109 144 188 229 278 342
#     4  11  21  37  62  86 112 146 196 245 291 336
#     4  11  21  39  60  84 116 147 190 251 291 325
#     4  10  22  39  57  84 117 156 193 226 286 356
#     4   9  19  35  56  83 109 144 187 230 278 339
#
# _framework density 20.857472000000001
#
# number of rings (size 3 to 8) (size 9 to 14) (size 15 to 20)
#    0.000    2.000    3.333    0.000    4.667    1.333 
#    0.000    3.333    0.000    0.000    0.000    0.000 
#    0.000    0.000    0.000    0.000    0.000    0.000 
#
# Total GULP energy -133858.881879 kJ/mol
# GULP energy per Si atom -5577.453412 kJ/mol
# Density = 2.081000 g / cm^3
# Si number density = 20.857472 Si / 1000 Ang^3
#
#
#
# Elastic Constant Matrix: (Units=GPa)
#
#
# Indices 1 2 3 4 5 6 
#
# 1 64.3927 -4.0552 18.4432 0.0000 0.0000 0.0000
# 2 -4.0552 72.2109 13.2637 0.0000 0.0000 0.0000
# 3 18.4432 13.2637 41.3196 0.0000 0.0000 0.0000
# 4 0.0000 0.0000 0.0000 39.0009 0.0000 0.0000
# 5 0.0000 0.0000 0.0000 0.0000 14.4642 0.0000
# 6 0.0000 0.0000 0.0000 0.0000 0.0000 29.7831
#
#
#
# Elastic Compliance Matrix: (Units=1/GPa)
#
#
# Indices 1 2 3 4 5 6 
#
# 1 0.018283 0.002684 -0.009022 0.000000 0.000000 0.000000
# 2 0.002684 0.015110 -0.006048 0.000000 0.000000 0.000000
# 3 -0.009022 -0.006048 0.030170 0.000000 0.000000 0.000000
# 4 0.000000 0.000000 0.000000 0.025640 0.000000 0.000000
# 5 0.000000 0.000000 0.000000 0.000000 0.069136 0.000000
# 6 0.000000 0.000000 0.000000 0.000000 0.000000 0.033576
#
#
# Mechanical properties :
#
#
# Convention : Reuss Voigt Hill
#
# Bulk Modulus (GPa) = 25.77992 25.91407 25.84699
# Shear Modulus (GPa) = 21.77523 26.66775 24.22149
#
# Velocity S-wave (km/s) = 3.23461 3.57959 3.41146
# Velocity P-wave (km/s) = 5.13197 5.43470 5.28550
#
# Compressibility (1/GPa) = 0.03878988
#
# Stress axis : x y z
#
# Youngs Moduli (GPa) = 54.69612 66.18129 33.14527
#
# Poissons Ratio (x) = -0.17762 0.29904
# Poissons Ratio (y) = -0.14680 0.20047
# Poissons Ratio (z) = 0.49348 0.40029
#
# Static dielectric constant tensor:
#      x y z
#    x 1.761330 0.000000 0.000000 
#    y 0.000000 1.794440 0.000000 
#    z 0.000000 0.000000 1.758540 
# 
# From -- ./inp_files/3137.got.cif
#   From: 2010.05.17/outbox.cif.g08.bks.cpg/sg18_2_cif.got.tgz:3137.got - 2010.06.03 22:40:56.
