data_PCOD9312476
_publ_section_title
;
Structure prediction by ZEFSAII (Michael W. Deem and Ramdas Pophale) SiO2 
 PCOD9312476
Probable space group: P 21 21 2
;
_chemical_formula_sum "Si O2"
_cell_formula_units_Z 32
_cell_length_a 20.556843
_cell_length_b 7.876893
_cell_length_c 9.535943
_cell_angle_alpha 90.000000
_cell_angle_beta 90.000000
_cell_angle_gamma 90.000000
_cell_volume 1544.098537
_symmetry_space_group_name_H-M "P 21 21 2"
_symmetry_group_IT_number 18
_symmetry_cell_setting 'orthorhombic'
loop_
_space_group_symop_operation_xyz
x,y,z
-x,-y,z
1/2+x,1/2-y,-z
1/2-x,1/2+y,-z
loop_
_atom_site_type_symbol
_atom_site_label
_atom_site_fract_x
_atom_site_fract_y
_atom_site_fract_z
Si Si1 0.871126 0.072359 0.361950
Si Si2 0.278493 0.029806 0.424136
Si Si3 0.857508 0.598554 0.181160
Si Si4 0.783375 0.820454 0.678797
Si Si5 0.054515 0.611374 0.385698
Si Si6 0.206749 0.830321 0.777540
Si Si7 0.038749 0.158603 0.207244
Si Si8 0.182118 0.751443 0.091765
O O1 0.905292 0.227732 0.445265
O O2 0.859384 0.142401 0.203159
O O3 0.799483 0.008179 0.403482
O O4 0.922708 0.921790 0.341098
O O5 0.275135 0.117787 0.575610
O O6 0.305876 0.162636 0.312381
O O7 0.310749 0.845904 0.398229
O O8 0.895199 0.518971 0.314695
O O9 0.785988 0.662334 0.220838
O O10 0.904644 0.744656 0.123691
O O11 0.845800 0.438451 0.081284
O O12 0.751470 0.764718 0.826927
O O13 0.820009 0.995859 0.709098
O O14 0.000000 0.500000 0.466603
O O15 0.012597 0.703522 0.262526
O O16 0.186714 0.825065 0.938511
O O17 0.000000 0.000000 0.142001
#
# Coordination Sequence:
#
# PCOD9312476 Si02
#       8
#     4   4   4   4   4   4   4   4
#     4   9  17  29  47  72 102 139 169 218 269 323
#     4  11  20  35  50  72 109 147 180 212 260 313
#     4   9  17  29  45  69 101 142 164 219 266 319
#     4  10  22  34  51  73 103 152 179 211 253 307
#     4   8  15  28  44  69 101 127 165 219 285 329
#     4  11  21  35  52  74 112 153 181 218 258 314
#     4   9  15  25  45  69 100 133 162 220 286 329
#     4   9  21  33  49  75 107 148 181 215 254 315
#
# _framework density 20.724065
#
# number of rings (size 3 to 8) (size 9 to 14) (size 15 to 20)
#    0.000    2.500    2.500    0.750    7.000    0.000 
#    0.000    0.000    0.000    0.000    0.000    0.000 
#    0.000   66.000    2.250    0.000    0.000    0.000 
#
# Total GULP energy -178139.195051 kJ/mol
# GULP energy per Si atom -5566.849845 kJ/mol
# Density = 2.067690 g / cm^3
# Si number density = 20.724065 Si / 1000 Ang^3
#
#
#
# Elastic Constant Matrix: (Units=GPa)
#
#
# Indices 1 2 3 4 5 6 
#
# 1 59.0210 2.7857 -15.5877 0.0000 0.0000 0.0000
# 2 2.7857 119.7812 22.2826 0.0000 0.0000 0.0000
# 3 -15.5877 22.2826 67.9486 0.0000 0.0000 0.0000
# 4 0.0000 0.0000 0.0000 17.9891 0.0000 0.0000
# 5 0.0000 0.0000 0.0000 0.0000 8.8587 0.0000
# 6 0.0000 0.0000 0.0000 0.0000 0.0000 28.8611
#
#
#
# Elastic Compliance Matrix: (Units=1/GPa)
#
#
# Indices 1 2 3 4 5 6 
#
# 1 0.018218 -0.001279 0.004599 0.000000 0.000000 0.000000
# 2 -0.001279 0.008981 -0.003239 0.000000 0.000000 0.000000
# 3 0.004599 -0.003239 0.016834 0.000000 0.000000 0.000000
# 4 0.000000 0.000000 0.000000 0.055589 0.000000 0.000000
# 5 0.000000 0.000000 0.000000 0.000000 0.112884 0.000000
# 6 0.000000 0.000000 0.000000 0.000000 0.000000 0.034649
#
#
# Mechanical properties :
#
#
# Convention : Reuss Voigt Hill
#
# Bulk Modulus (GPa) = 22.62701 29.52355 26.07528
# Shear Modulus (GPa) = 19.10409 26.95980 23.03195
#
# Velocity S-wave (km/s) = 3.03946 3.61070 3.33733
# Velocity P-wave (km/s) = 4.82283 5.62671 5.24021
#
# Compressibility (1/GPa) = 0.04419496
#
# Stress axis : x y z
#
# Youngs Moduli (GPa) = 54.89059 111.34911 59.40355
#
# Poissons Ratio (x) = 0.14244 -0.27318
# Poissons Ratio (y) = 0.07022 0.19238
# Poissons Ratio (z) = -0.25243 0.36061
#
# Static dielectric constant tensor:
#      x y z
#    x 1.822500 0.000000 0.000000 
#    y 0.000000 1.867160 0.000000 
#    z 0.000000 0.000000 1.715080 
# 
# From -- ./inp_files/4767.got.cif
#   From: 2010.05.17/outbox.cif.g08.bks.cpg/sg18_3_cif.got.tgz:4767.got - 2010.06.03 22:40:56.
