data_PCOD9312935
_publ_section_title
;
Structure prediction by ZEFSAII (Michael W. Deem and Ramdas Pophale) SiO2 
 PCOD9312935
Probable space group: P 21 21 2
;
_chemical_formula_sum "Si O2"
_cell_formula_units_Z 20
_cell_length_a 9.338232
_cell_length_b 14.583345
_cell_length_c 6.166167
_cell_angle_alpha 90.000000
_cell_angle_beta 90.000000
_cell_angle_gamma 90.000000
_cell_volume 839.725018
_symmetry_space_group_name_H-M "P 21 21 2"
_symmetry_group_IT_number 18
_symmetry_cell_setting 'orthorhombic'
loop_
_space_group_symop_operation_xyz
x,y,z
-x,-y,z
1/2+x,1/2-y,-z
1/2-x,1/2+y,-z
loop_
_atom_site_type_symbol
_atom_site_label
_atom_site_fract_x
_atom_site_fract_y
_atom_site_fract_z
Si Si1 0.500000 0.500000 0.352630
Si Si2 0.265193 0.555171 0.024816
Si Si3 0.993134 0.304204 0.542678
Si Si4 0.996278 0.853006 0.274815
Si Si5 0.741043 0.758293 0.745190
Si Si6 0.000000 0.500000 0.736230
O O1 0.354136 0.504435 0.212840
O O2 0.508953 0.589628 0.503778
O O3 0.206795 0.650620 0.123412
O O4 0.390281 0.588772 0.865676
O O5 0.138872 0.508200 0.890888
O O6 0.090484 0.260223 0.731285
O O7 0.006075 0.411085 0.582674
O O8 0.052857 0.251084 0.329661
O O9 0.828300 0.278458 0.494996
O O10 0.153293 0.831234 0.178756
#
# Coordination Sequence:
#
# PCOD9312935 Si02
#       6
#     2   4   4   4   4   2
#     4  12  26  50  78 106 154 194 250 318 376 458
#     4  12  27  50  73 119 143 196 264 305 378 459
#     4  10  24  49  71 108 151 201 241 308 389 434
#     4  10  26  49  75 104 152 199 245 308 384 445
#     4  10  24  47  75 105 148 201 245 309 371 459
#     4  12  30  44  76 116 152 192 260 318 370 460
#
# _framework density 23.817322000000001
#
# number of rings (size 3 to 8) (size 9 to 14) (size 15 to 20)
#    1.200    0.000    2.000    1.800    8.400    2.400 
#    0.000    0.000    0.000    0.000    0.000    0.000 
#    0.000    0.000    0.000    0.000    0.000    0.000 
#
# Total GULP energy -111454.831608 kJ/mol
# GULP energy per Si atom -5572.741580 kJ/mol
# Density = 2.376311 g / cm^3
# Si number density = 23.817322 Si / 1000 Ang^3
#
#
#
# Elastic Constant Matrix: (Units=GPa)
#
#
# Indices 1 2 3 4 5 6 
#
# 1 104.2534 57.1764 47.7106 0.0000 0.0000 0.0000
# 2 57.1764 115.0605 37.6157 0.0000 0.0000 0.0000
# 3 47.7106 37.6157 66.1274 0.0000 0.0000 0.0000
# 4 0.0000 0.0000 0.0000 30.4404 0.0000 0.0000
# 5 0.0000 0.0000 0.0000 0.0000 13.1340 0.0000
# 6 0.0000 0.0000 0.0000 0.0000 0.0000 43.0484
#
#
#
# Elastic Compliance Matrix: (Units=1/GPa)
#
#
# Indices 1 2 3 4 5 6 
#
# 1 0.016612 -0.005327 -0.008955 0.000000 0.000000 0.000000
# 2 -0.005327 0.012385 -0.003201 0.000000 0.000000 0.000000
# 3 -0.008955 -0.003201 0.023404 0.000000 0.000000 0.000000
# 4 0.000000 0.000000 0.000000 0.032851 0.000000 0.000000
# 5 0.000000 0.000000 0.000000 0.000000 0.076138 0.000000
# 6 0.000000 0.000000 0.000000 0.000000 0.000000 0.023230
#
#
# Mechanical properties :
#
#
# Convention : Reuss Voigt Hill
#
# Bulk Modulus (GPa) = 57.35986 63.38297 60.37142
# Shear Modulus (GPa) = 22.18292 26.85382 24.51837
#
# Velocity S-wave (km/s) = 3.05516 3.36146 3.21196
# Velocity P-wave (km/s) = 6.04821 6.46032 6.25766
#
# Compressibility (1/GPa) = 0.01743379
#
# Stress axis : x y z
#
# Youngs Moduli (GPa) = 60.19800 80.74326 42.72696
#
# Poissons Ratio (x) = 0.43014 0.38262
# Poissons Ratio (y) = 0.32069 0.13679
# Poissons Ratio (z) = 0.53908 0.25849
#
# Static dielectric constant tensor:
#      x y z
#    x 1.977220 0.000000 0.000000 
#    y 0.000000 1.918720 0.000000 
#    z 0.000000 0.000000 1.950300 
# 
# From -- ./inp_files/566.got.cif
#   From: 2010.05.17/outbox.cif.g08.bks.cpg/sg18_1_cif.got.tgz:566.got - 2010.06.03 22:40:56.
