data_PCOD9312142
_publ_section_title
;
Structure prediction by ZEFSAII (Michael W. Deem and Ramdas Pophale) SiO2 
 PCOD9312142
Probable space group: P 21 21 2
;
_chemical_formula_sum "Si O2"
_cell_formula_units_Z 28
_cell_length_a 20.457706
_cell_length_b 9.703139
_cell_length_c 5.277661
_cell_angle_alpha 90.000000
_cell_angle_beta 90.000000
_cell_angle_gamma 90.000000
_cell_volume 1047.636634
_symmetry_space_group_name_H-M "P 21 21 2"
_symmetry_group_IT_number 18
_symmetry_cell_setting 'orthorhombic'
loop_
_space_group_symop_operation_xyz
x,y,z
-x,-y,z
1/2+x,1/2-y,-z
1/2-x,1/2+y,-z
loop_
_atom_site_type_symbol
_atom_site_label
_atom_site_fract_x
_atom_site_fract_y
_atom_site_fract_z
Si Si1 0.571893 0.564728 0.024715
Si Si2 0.003467 0.331031 0.885531
Si Si3 0.773665 0.693726 0.272259
Si Si4 0.294289 0.045937 0.067083
Si Si5 0.576987 0.165867 0.619731
Si Si6 0.642449 0.586855 0.519984
Si Si7 0.128966 0.604718 0.439793
O O1 0.500000 0.500000 0.002907
O O2 0.618109 0.528958 0.786546
O O3 0.558503 0.731459 0.051595
O O4 0.609372 0.516441 0.278055
O O5 0.035346 0.287165 0.618113
O O6 0.000000 0.500000 0.878576
O O7 0.052332 0.287729 0.109607
O O8 0.755177 0.847179 0.192247
O O9 0.845208 0.692820 0.393700
O O10 0.717973 0.622367 0.448961
O O11 0.772403 0.605454 0.012571
O O12 0.348611 0.047898 0.285787
O O13 0.319056 0.098078 0.790937
O O14 0.573017 0.999070 0.636375
O O15 0.611456 0.739176 0.530908
#
# Coordination Sequence:
#
# PCOD9312142 Si02
#       7
#     4   4   4   4   4   4   4
#     4  12  27  47  68  97 135 181 234 279 326 400
#     4  12  25  45  72  97 131 181 230 281 338 397
#     4  10  24  44  71 106 139 178 222 281 354 408
#     4  10  22  38  62  97 142 177 214 262 332 419
#     4  11  23  41  70 104 136 164 223 296 341 392
#     4  11  23  44  72  94 134 185 227 270 337 420
#     4  10  20  39  65  97 132 176 219 267 332 410
#
# _framework density 26.726824000000001
#
# number of rings (size 3 to 8) (size 9 to 14) (size 15 to 20)
#    0.000    1.143    0.000    6.857    0.000   12.571 
#    0.000    8.571    0.000    1.714    0.000    0.000 
#    0.000    0.000    0.000    0.000    0.000    0.000 
#
# Total GULP energy -156742.855475 kJ/mol
# GULP energy per Si atom -5597.959124 kJ/mol
# Density = 2.666599 g / cm^3
# Si number density = 26.726824 Si / 1000 Ang^3
#
#
#
# Elastic Constant Matrix: (Units=GPa)
#
#
# Indices 1 2 3 4 5 6 
#
# 1 159.8183 8.6365 76.5967 0.0000 0.0000 0.0000
# 2 8.6365 72.7195 -5.9833 0.0000 0.0000 0.0000
# 3 76.5967 -5.9833 192.4409 0.0000 0.0000 0.0000
# 4 0.0000 0.0000 0.0000 20.6443 0.0000 0.0000
# 5 0.0000 0.0000 0.0000 0.0000 53.2904 0.0000
# 6 0.0000 0.0000 0.0000 0.0000 0.0000 41.3424
#
#
#
# Elastic Compliance Matrix: (Units=1/GPa)
#
#
# Indices 1 2 3 4 5 6 
#
# 1 0.007833 -0.001190 -0.003155 0.000000 0.000000 0.000000
# 2 -0.001190 0.013968 0.000908 0.000000 0.000000 0.000000
# 3 -0.003155 0.000908 0.006480 0.000000 0.000000 0.000000
# 4 0.000000 0.000000 0.000000 0.048440 0.000000 0.000000
# 5 0.000000 0.000000 0.000000 0.000000 0.018765 0.000000
# 6 0.000000 0.000000 0.000000 0.000000 0.000000 0.024188
#
#
# Mechanical properties :
#
#
# Convention : Reuss Voigt Hill
#
# Bulk Modulus (GPa) = 46.71277 64.83096 55.77187
# Shear Modulus (GPa) = 37.40164 46.10401 41.75282
#
# Velocity S-wave (km/s) = 3.74492 4.15783 3.95676
# Velocity P-wave (km/s) = 6.01789 6.88183 6.46431
#
# Compressibility (1/GPa) = 0.02140742
#
# Stress axis : x y z
#
# Youngs Moduli (GPa) = 127.65708 71.59477 154.31200
#
# Poissons Ratio (x) = 0.08519 0.48684
# Poissons Ratio (y) = 0.15190 -0.14010
# Poissons Ratio (z) = 0.40275 -0.06500
#
# Static dielectric constant tensor:
#      x y z
#    x 2.096070 0.000000 0.000000 
#    y 0.000000 2.143710 0.000000 
#    z 0.000000 0.000000 2.059640 
# 
# From -- ./inp_files/1967.got.cif
#   From: 2010.05.17/outbox.cif.g08.bks.cpg/sg18_1_cif.got.tgz:1967.got - 2010.06.03 22:40:56.
