data_PCOD9312778
_publ_section_title
;
Structure prediction by ZEFSAII (Michael W. Deem and Ramdas Pophale) SiO2 
 PCOD9312778
Probable space group: P 21 21 2
;
_chemical_formula_sum "Si O2"
_cell_formula_units_Z 32
_cell_length_a 8.200581
_cell_length_b 12.982048
_cell_length_c 15.027996
_cell_angle_alpha 90.000000
_cell_angle_beta 90.000000
_cell_angle_gamma 90.000000
_cell_volume 1599.885506
_symmetry_space_group_name_H-M "P 21 21 2"
_symmetry_group_IT_number 18
_symmetry_cell_setting 'orthorhombic'
loop_
_space_group_symop_operation_xyz
x,y,z
-x,-y,z
1/2+x,1/2-y,-z
1/2-x,1/2+y,-z
loop_
_atom_site_type_symbol
_atom_site_label
_atom_site_fract_x
_atom_site_fract_y
_atom_site_fract_z
Si Si1 0.677657 0.052296 0.403639
Si Si2 0.677658 0.552295 0.096361
Si Si3 0.130642 0.413874 0.920311
Si Si4 0.812542 0.971883 0.228780
Si Si5 0.130642 0.913873 0.579688
Si Si6 0.610219 0.773941 0.165286
Si Si7 0.110218 0.226059 0.665287
Si Si8 0.187459 0.528117 0.271221
O O1 0.736285 0.071246 0.503961
O O2 0.686334 0.167085 0.363994
O O3 0.500000 0.000000 0.402866
O O4 0.780821 0.982340 0.334497
O O5 0.500000 0.500000 0.097134
O O6 0.686335 0.667085 0.136005
O O7 0.780821 0.482341 0.165503
O O8 0.736286 0.571244 0.996039
O O9 0.205104 0.443858 0.824595
O O10 0.000000 0.500000 0.943548
O O11 0.020267 0.312745 0.908935
O O12 0.740765 0.863505 0.190687
O O13 0.000000 0.000000 0.210545
O O14 0.205103 0.943858 0.675405
O O15 0.020268 0.812745 0.591066
O O16 0.000000 0.000000 0.556450
O O17 0.500000 0.750000 0.250000
O O18 0.240764 0.136495 0.690687
O O19 0.000000 0.500000 0.289456
#
# Coordination Sequence:
#
# PCOD9312778 Si02
#       8
#     4   4   4   4   4   4   4   4
#     4  12  23  41  69  94 131 177 221 276 340 405
#     4  12  23  41  69  94 131 177 221 276 340 405
#     4  10  23  42  63  93 130 169 218 273 334 405
#     4  11  23  42  65  95 131 172 221 276 337 409
#     4  10  23  42  63  93 130 169 218 273 334 405
#     4  11  22  45  67  92 135 177 219 281 342 403
#     4  11  22  45  67  92 135 177 219 281 342 403
#     4  11  23  42  65  95 131 172 221 276 337 409
#
# _framework density 20.001431
#
# number of rings (size 3 to 8) (size 9 to 14) (size 15 to 20)
#    0.000    1.000    5.000    2.250    0.000    7.000 
#    4.500    0.000    0.000    0.000    0.000    0.000 
#    0.000    0.000    0.000    0.000    0.000    0.000 
#
# Total GULP energy -178363.276999 kJ/mol
# GULP energy per Si atom -5573.852406 kJ/mol
# Density = 1.995591 g / cm^3
# Si number density = 20.001431 Si / 1000 Ang^3
#
#
#
# Elastic Constant Matrix: (Units=GPa)
#
#
# Indices 1 2 3 4 5 6 
#
# 1 92.5640 40.3873 1.2661 0.0000 0.0000 0.0000
# 2 40.3873 83.2018 12.6703 0.0000 0.0000 0.0000
# 3 1.2661 12.6703 72.0242 0.0000 0.0000 0.0000
# 4 0.0000 0.0000 0.0000 2.4508 0.0000 0.0000
# 5 0.0000 0.0000 0.0000 0.0000 29.7510 0.0000
# 6 0.0000 0.0000 0.0000 0.0000 0.0000 17.2058
#
#
#
# Elastic Compliance Matrix: (Units=1/GPa)
#
#
# Indices 1 2 3 4 5 6 
#
# 1 0.013770 -0.006831 0.000960 0.000000 0.000000 0.000000
# 2 -0.006831 0.015738 -0.002648 0.000000 0.000000 0.000000
# 3 0.000960 -0.002648 0.014333 0.000000 0.000000 0.000000
# 4 0.000000 0.000000 0.000000 0.408037 0.000000 0.000000
# 5 0.000000 0.000000 0.000000 0.000000 0.033612 0.000000
# 6 0.000000 0.000000 0.000000 0.000000 0.000000 0.058120
#
#
# Mechanical properties :
#
#
# Convention : Reuss Voigt Hill
#
# Bulk Modulus (GPa) = 37.30963 39.60415 38.45689
# Shear Modulus (GPa) = 8.77834 22.77926 15.77880
#
# Velocity S-wave (km/s) = 2.09723 3.37839 2.81175
# Velocity P-wave (km/s) = 4.95565 5.92129 5.45986
#
# Compressibility (1/GPa) = 0.02680273
#
# Stress axis : x y z
#
# Youngs Moduli (GPa) = 72.61907 63.54077 69.76778
#
# Poissons Ratio (x) = 0.43402 -0.06694
# Poissons Ratio (y) = 0.49603 0.18478
# Poissons Ratio (z) = -0.06968 0.16829
#
# Static dielectric constant tensor:
#      x y z
#    x -2.940970 0.000000 0.000000 
#    y 0.000000 1.782690 0.000000 
#    z 0.000000 0.000000 1.767330 
# 
# From -- ./inp_files/6779.got.cif
#   From: 2010.05.17/outbox.cif.g08.bks.cpg/sg18_4_cif.got.tgz:6779.got - 2010.06.03 22:40:56.
