data_PCOD9312411
_publ_section_title
;
Structure prediction by ZEFSAII (Michael W. Deem and Ramdas Pophale) SiO2 
 PCOD9312411
Probable space group: P 21 21 2
;
_chemical_formula_sum "Si O2"
_cell_formula_units_Z 32
_cell_length_a 16.091507
_cell_length_b 10.729912
_cell_length_c 7.974947
_cell_angle_alpha 90.000000
_cell_angle_beta 90.000000
_cell_angle_gamma 90.000000
_cell_volume 1376.957970
_symmetry_space_group_name_H-M "P 21 21 2"
_symmetry_group_IT_number 18
_symmetry_cell_setting 'orthorhombic'
loop_
_space_group_symop_operation_xyz
x,y,z
-x,-y,z
1/2+x,1/2-y,-z
1/2-x,1/2+y,-z
loop_
_atom_site_type_symbol
_atom_site_label
_atom_site_fract_x
_atom_site_fract_y
_atom_site_fract_z
Si Si1 0.937864 0.110066 0.236405
Si Si2 0.497651 0.141064 0.216927
Si Si3 0.164527 0.335176 0.883827
Si Si4 0.685434 0.893519 0.240621
Si Si5 0.807794 0.562326 0.249876
Si Si6 0.185110 0.695001 0.117417
Si Si7 0.566912 0.234476 0.547637
Si Si8 0.321552 0.541500 0.503063
O O1 0.881931 0.194354 0.112643
O O2 0.997351 0.206021 0.333706
O O3 0.871683 0.047327 0.366059
O O4 0.000000 0.000000 0.172899
O O5 0.569128 0.210352 0.110081
O O6 0.401980 0.178680 0.235290
O O7 0.527814 0.148781 0.406571
O O8 0.500000 0.000000 0.146336
O O9 0.165020 0.460160 0.773055
O O10 0.231303 0.246088 0.799398
O O11 0.198480 0.376784 0.065596
O O12 0.748802 0.886388 0.392525
O O13 0.719754 0.855391 0.059885
O O14 0.847544 0.425736 0.215349
O O15 0.867126 0.652574 0.352447
O O16 0.723419 0.534231 0.353888
O O17 0.611376 0.352861 0.459490
#
# Coordination Sequence:
#
# PCOD9312411 Si02
#       8
#     4   4   4   4   4   4   4   4
#     4  10  25  44  67  96 143 190 231 286 356 425
#     4  10  22  40  60  91 137 170 210 285 352 392
#     4  10  21  42  60  94 136 174 220 280 348 410
#     4  10  22  40  65  93 127 178 218 279 343 407
#     4  11  25  38  74 106 130 180 240 286 346 415
#     4  11  23  42  69  99 137 179 233 286 344 424
#     4  11  25  41  66 103 139 179 235 289 347 418
#     4  11  23  46  69  98 139 184 231 288 354 420
#
# _framework density 23.239633999999999
#
# number of rings (size 3 to 8) (size 9 to 14) (size 15 to 20)
#    0.000    1.500    1.250    3.000    7.000    1.000 
#    0.000    1.250    0.000    0.000    0.000    0.000 
#    0.000    0.000    0.000    0.000    0.000    0.000 
#
# Total GULP energy -178530.382997 kJ/mol
# GULP energy per Si atom -5579.074469 kJ/mol
# Density = 2.318674 g / cm^3
# Si number density = 23.239634 Si / 1000 Ang^3
#
#
#
# Elastic Constant Matrix: (Units=GPa)
#
#
# Indices 1 2 3 4 5 6 
#
# 1 102.5238 28.3468 2.3745 0.0000 0.0000 0.0000
# 2 28.3468 84.5978 8.4595 0.0000 0.0000 0.0000
# 3 2.3745 8.4595 45.8209 0.0000 0.0000 0.0000
# 4 0.0000 0.0000 0.0000 9.8410 0.0000 0.0000
# 5 0.0000 0.0000 0.0000 0.0000 22.4673 0.0000
# 6 0.0000 0.0000 0.0000 0.0000 0.0000 19.6370
#
#
#
# Elastic Compliance Matrix: (Units=1/GPa)
#
#
# Indices 1 2 3 4 5 6 
#
# 1 0.010750 -0.003613 0.000110 0.000000 0.000000 0.000000
# 2 -0.003613 0.013257 -0.002260 0.000000 0.000000 0.000000
# 3 0.000110 -0.002260 0.022236 0.000000 0.000000 0.000000
# 4 0.000000 0.000000 0.000000 0.101615 0.000000 0.000000
# 5 0.000000 0.000000 0.000000 0.000000 0.044509 0.000000
# 6 0.000000 0.000000 0.000000 0.000000 0.000000 0.050924
#
#
# Mechanical properties :
#
#
# Convention : Reuss Voigt Hill
#
# Bulk Modulus (GPa) = 28.80492 34.58934 31.69713
# Shear Modulus (GPa) = 18.76937 23.30651 21.03794
#
# Velocity S-wave (km/s) = 2.84499 3.17026 3.01202
# Velocity P-wave (km/s) = 4.81805 5.32135 5.07595
#
# Compressibility (1/GPa) = 0.03471629
#
# Stress axis : x y z
#
# Youngs Moduli (GPa) = 93.02077 75.42983 44.97267
#
# Poissons Ratio (x) = 0.27254 -0.00495
# Poissons Ratio (y) = 0.33610 0.10165
# Poissons Ratio (z) = -0.01023 0.17050
#
# Static dielectric constant tensor:
#      x y z
#    x 1.970680 0.000000 0.000000 
#    y 0.000000 1.908530 0.000000 
#    z 0.000000 0.000000 1.894080 
# 
# From -- ./inp_files/4327.got.cif
#   From: 2010.05.17/outbox.cif.g08.bks.cpg/sg18_3_cif.got.tgz:4327.got - 2010.06.03 22:40:56.
