data_PCOD9312252
_publ_section_title
;
Structure prediction by ZEFSAII (Michael W. Deem and Ramdas Pophale) SiO2 
 PCOD9312252
Probable space group: P 21 21 2
;
_chemical_formula_sum "Si O2"
_cell_formula_units_Z 20
_cell_length_a 10.035999
_cell_length_b 14.378918
_cell_length_c 5.253258
_cell_angle_alpha 90.000000
_cell_angle_beta 90.000000
_cell_angle_gamma 90.000000
_cell_volume 758.080887
_symmetry_space_group_name_H-M "P 21 21 2"
_symmetry_group_IT_number 18
_symmetry_cell_setting 'orthorhombic'
loop_
_space_group_symop_operation_xyz
x,y,z
-x,-y,z
1/2+x,1/2-y,-z
1/2-x,1/2+y,-z
loop_
_atom_site_type_symbol
_atom_site_label
_atom_site_fract_x
_atom_site_fract_y
_atom_site_fract_z
Si Si1 0.000000 0.000000 0.298902
Si Si2 0.935571 0.303609 0.501203
Si Si3 0.685853 0.397892 0.331061
Si Si4 0.582799 0.250286 0.987969
Si Si5 0.500000 0.000000 0.358934
Si Si6 0.261866 0.942325 0.000697
O O1 0.934887 0.925863 0.491140
O O2 0.117281 0.953924 0.131233
O O3 0.779383 0.322707 0.471217
O O4 0.984601 0.268228 0.772008
O O5 0.995349 0.407212 0.479967
O O6 0.995517 0.250312 0.263747
O O7 0.650231 0.346950 0.066651
O O8 0.752349 0.496345 0.255528
O O9 0.686995 0.163695 0.975236
O O10 0.628668 0.006642 0.177171
#
# Coordination Sequence:
#
# PCOD9312252 Si02
#       6
#     2   4   4   4   2   4
#     4  12  28  46  74 110 162 202 254 326 410 456
#     4  11  24  47  73 114 145 205 262 319 382 467
#     4  12  27  48  77 112 162 207 258 334 397 469
#     4  11  29  45  83 111 157 205 269 319 386 472
#     4  10  20  48  78 102 146 204 268 320 376 468
#     4  11  25  49  75 115 152 207 264 321 394 465
#
# _framework density 26.382406
#
# number of rings (size 3 to 8) (size 9 to 14) (size 15 to 20)
#    0.000    0.800    2.000    4.200    8.400    2.400 
#    0.000    0.000    0.000    0.000    0.000    0.000 
#    0.000    0.000    0.000    0.000    0.000    0.000 
#
# Total GULP energy -112257.255705 kJ/mol
# GULP energy per Si atom -5612.862785 kJ/mol
# Density = 2.632236 g / cm^3
# Si number density = 26.382406 Si / 1000 Ang^3
#
#
#
# Elastic Constant Matrix: (Units=GPa)
#
#
# Indices 1 2 3 4 5 6 
#
# 1 163.5358 38.4133 47.7347 0.0000 0.0000 0.0000
# 2 38.4133 118.4845 47.5892 0.0000 0.0000 0.0000
# 3 47.7347 47.5892 119.6042 0.0000 0.0000 0.0000
# 4 0.0000 0.0000 0.0000 49.0710 0.0000 0.0000
# 5 0.0000 0.0000 0.0000 0.0000 51.4345 0.0000
# 6 0.0000 0.0000 0.0000 0.0000 0.0000 36.5405
#
#
#
# Elastic Compliance Matrix: (Units=1/GPa)
#
#
# Indices 1 2 3 4 5 6 
#
# 1 0.007108 -0.001387 -0.002285 0.000000 0.000000 0.000000
# 2 -0.001387 0.010316 -0.003551 0.000000 0.000000 0.000000
# 3 -0.002285 -0.003551 0.010686 0.000000 0.000000 0.000000
# 4 0.000000 0.000000 0.000000 0.020379 0.000000 0.000000
# 5 0.000000 0.000000 0.000000 0.000000 0.019442 0.000000
# 6 0.000000 0.000000 0.000000 0.000000 0.000000 0.027367
#
#
# Mechanical properties :
#
#
# Convention : Reuss Voigt Hill
#
# Bulk Modulus (GPa) = 73.18615 74.34433 73.76524
# Shear Modulus (GPa) = 43.74579 45.26836 44.50708
#
# Velocity S-wave (km/s) = 4.07645 4.14678 4.11176
# Velocity P-wave (km/s) = 7.06805 7.15321 7.11076
#
# Compressibility (1/GPa) = 0.01366379
#
# Stress axis : x y z
#
# Youngs Moduli (GPa) = 140.69613 96.93898 93.58204
#
# Poissons Ratio (x) = 0.13441 0.21383
# Poissons Ratio (y) = 0.19508 0.33232
# Poissons Ratio (z) = 0.32148 0.34425
#
# Static dielectric constant tensor:
#      x y z
#    x 2.131510 0.000000 0.000000 
#    y 0.000000 2.046690 0.000000 
#    z 0.000000 0.000000 2.000280 
# 
# From -- ./inp_files/557.got.cif
#   From: 2010.05.17/outbox.cif.g08.bks.cpg/sg18_1_cif.got.tgz:557.got - 2010.06.03 22:40:56.
