data_PCOD9312233
_publ_section_title
;
Structure prediction by ZEFSAII (Michael W. Deem and Ramdas Pophale) SiO2 
 PCOD9312233
Probable space group: P 21 21 2
;
_chemical_formula_sum "Si O2"
_cell_formula_units_Z 28
_cell_length_a 10.977673
_cell_length_b 13.801837
_cell_length_c 8.985675
_cell_angle_alpha 90.000000
_cell_angle_beta 90.000000
_cell_angle_gamma 90.000000
_cell_volume 1361.438070
_symmetry_space_group_name_H-M "P 21 21 2"
_symmetry_group_IT_number 18
_symmetry_cell_setting 'orthorhombic'
loop_
_space_group_symop_operation_xyz
x,y,z
-x,-y,z
1/2+x,1/2-y,-z
1/2-x,1/2+y,-z
loop_
_atom_site_type_symbol
_atom_site_label
_atom_site_fract_x
_atom_site_fract_y
_atom_site_fract_z
Si Si1 0.033870 0.316752 0.672545
Si Si2 0.145695 0.145287 0.490586
Si Si3 0.000000 0.500000 0.461137
Si Si4 0.500000 0.500000 0.318806
Si Si5 0.353900 0.140107 0.694960
Si Si6 0.100193 0.249355 0.219110
Si Si7 0.288810 0.757833 0.085909
Si Si8 0.647261 0.676929 0.178877
O O1 0.063873 0.230217 0.559684
O O2 0.145306 0.322148 0.789683
O O3 0.021968 0.411047 0.572419
O O4 0.921223 0.275033 0.767995
O O5 0.281132 0.171246 0.546339
O O6 0.123972 0.153420 0.316093
O O7 0.100179 0.049487 0.573392
O O8 0.893840 0.467358 0.348443
O O9 0.566694 0.584494 0.224055
O O10 0.474968 0.199505 0.736499
O O11 0.261833 0.163470 0.828977
O O12 0.115321 0.231581 0.043417
O O13 0.817783 0.187932 0.995290
O O14 0.282164 0.818200 0.746783
#
# Coordination Sequence:
#
# PCOD9312233 Si02
#       8
#     4   4   2   2   4   4   4   4
#     4  10  20  43  64  98 130 178 225 278 349 403
#     4  10  22  40  68  96 132 181 226 284 336 411
#     4  12  24  38  70 102 134 170 234 288 322 420
#     4  10  22  40  68 100 138 180 230 282 346 406
#     4  11  23  41  67 102 130 181 232 278 346 402
#     4  10  21  39  69  95 131 180 229 276 342 413
#     4   9  22  41  70  91 134 184 219 283 348 409
#     4   9  21  40  66  93 133 181 219 284 343 409
#
# _framework density 20.566486999999999
#
# number of rings (size 3 to 8) (size 9 to 14) (size 15 to 20)
#    0.857    1.143    1.429    1.714    4.000    0.000 
#    2.571    8.571    3.143    3.429    0.000    0.000 
#    0.000    0.000    0.000    0.000    0.000    0.000 
#
# Total GULP energy -155879.289678 kJ/mol
# GULP energy per Si atom -5567.117489 kJ/mol
# Density = 2.051968 g / cm^3
# Si number density = 20.566487 Si / 1000 Ang^3
#
#
#
# Elastic Constant Matrix: (Units=GPa)
#
#
# Indices 1 2 3 4 5 6 
#
# 1 101.0719 28.1088 29.1480 0.0000 0.0000 0.0000
# 2 28.1088 89.5978 45.3073 0.0000 0.0000 0.0000
# 3 29.1480 45.3073 108.4658 0.0000 0.0000 0.0000
# 4 0.0000 0.0000 0.0000 11.4468 0.0000 0.0000
# 5 0.0000 0.0000 0.0000 0.0000 22.7132 0.0000
# 6 0.0000 0.0000 0.0000 0.0000 0.0000 27.9474
#
#
#
# Elastic Compliance Matrix: (Units=1/GPa)
#
#
# Indices 1 2 3 4 5 6 
#
# 1 0.011155 -0.002515 -0.001947 0.000000 0.000000 0.000000
# 2 -0.002515 0.014717 -0.005472 0.000000 0.000000 0.000000
# 3 -0.001947 -0.005472 0.012028 0.000000 0.000000 0.000000
# 4 0.000000 0.000000 0.000000 0.087361 0.000000 0.000000
# 5 0.000000 0.000000 0.000000 0.000000 0.044027 0.000000
# 6 0.000000 0.000000 0.000000 0.000000 0.000000 0.035782
#
#
# Mechanical properties :
#
#
# Convention : Reuss Voigt Hill
#
# Bulk Modulus (GPa) = 55.45456 56.02929 55.74192
# Shear Modulus (GPa) = 21.64995 25.52625 23.58810
#
# Velocity S-wave (km/s) = 3.24802 3.52683 3.39029
# Velocity P-wave (km/s) = 6.41002 6.62471 6.51825
#
# Compressibility (1/GPa) = 0.01803278
#
# Stress axis : x y z
#
# Youngs Moduli (GPa) = 89.64674 67.94963 83.13757
#
# Poissons Ratio (x) = 0.17089 0.16188
# Poissons Ratio (y) = 0.22545 0.45489
# Poissons Ratio (z) = 0.17456 0.37179
#
# Static dielectric constant tensor:
#      x y z
#    x 1.838490 0.000000 0.000000 
#    y 0.000000 1.708920 0.000000 
#    z 0.000000 0.000000 1.765500 
# 
# From -- ./inp_files/3870.got.cif
#   From: 2010.05.17/outbox.cif.g08.bks.cpg/sg18_2_cif.got.tgz:3870.got - 2010.06.03 22:40:56.
