data_PCOD9312133
_publ_section_title
;
Structure prediction by ZEFSAII (Michael W. Deem and Ramdas Pophale) SiO2 
 PCOD9312133
Probable space group: P 21 21 2
;
_chemical_formula_sum "Si O2"
_cell_formula_units_Z 32
_cell_length_a 12.199295
_cell_length_b 12.961036
_cell_length_c 9.386252
_cell_angle_alpha 90.000000
_cell_angle_beta 90.000000
_cell_angle_gamma 90.000000
_cell_volume 1484.111944
_symmetry_space_group_name_H-M "P 21 21 2"
_symmetry_group_IT_number 18
_symmetry_cell_setting 'orthorhombic'
loop_
_space_group_symop_operation_xyz
x,y,z
-x,-y,z
1/2+x,1/2-y,-z
1/2-x,1/2+y,-z
loop_
_atom_site_type_symbol
_atom_site_label
_atom_site_fract_x
_atom_site_fract_y
_atom_site_fract_z
Si Si1 0.613142 0.663778 0.320019
Si Si2 0.120807 0.961890 0.389383
Si Si3 0.548961 0.235776 0.785616
Si Si4 0.226870 0.870640 0.106618
Si Si5 0.797037 0.309141 0.260863
Si Si6 0.189502 0.456699 0.161125
Si Si7 0.229451 0.175219 0.423008
Si Si8 0.496395 0.374496 0.044666
O O1 0.598528 0.611410 0.474703
O O2 0.710910 0.597584 0.247067
O O3 0.663010 0.778647 0.342911
O O4 0.509120 0.653371 0.213336
O O5 0.182004 0.918183 0.251551
O O6 0.201283 0.055026 0.432076
O O7 0.000000 0.000000 0.343366
O O8 0.422713 0.231305 0.739712
O O9 0.586750 0.118301 0.813064
O O10 0.626334 0.276919 0.660087
O O11 0.564345 0.311281 0.924143
O O12 0.273103 0.759952 0.151334
O O13 0.293952 0.948304 0.009294
O O14 0.124667 0.843396 0.006710
O O15 0.807428 0.426705 0.212521
O O16 0.744960 0.292519 0.414408
O O17 0.500000 0.500000 0.031920
#
# Coordination Sequence:
#
# PCOD9312133 Si02
#       8
#     4   4   4   4   4   4   4   4
#     4  10  22  39  60  96 132 165 222 268 337 405
#     4  12  22  39  64  98 132 174 220 281 343 410
#     4  10  23  41  64  96 134 182 234 278 345 417
#     4  10  22  37  61  90 128 163 225 277 336 401
#     4  11  21  42  67  92 134 179 222 290 345 409
#     4  10  22  41  63  91 126 180 224 269 342 419
#     4  11  23  40  67  96 137 179 215 288 348 404
#     4  10  20  39  62  94 129 171 220 283 331 397
#
# _framework density 21.561717000000002
#
# number of rings (size 3 to 8) (size 9 to 14) (size 15 to 20)
#    0.000    1.500    2.500    3.375    0.000    6.000 
#    2.250    0.000    0.000    0.000    0.000    0.000 
#    0.000    0.000    0.000    0.000    0.000    0.000 
#
# Total GULP energy -178357.666264 kJ/mol
# GULP energy per Si atom -5573.677071 kJ/mol
# Density = 2.151264 g / cm^3
# Si number density = 21.561717 Si / 1000 Ang^3
#
#
#
# Elastic Constant Matrix: (Units=GPa)
#
#
# Indices 1 2 3 4 5 6 
#
# 1 47.1409 16.1796 40.7410 0.0000 0.0000 0.0000
# 2 16.1796 83.7904 53.0533 0.0000 0.0000 0.0000
# 3 40.7410 53.0533 166.2411 0.0000 0.0000 0.0000
# 4 0.0000 0.0000 0.0000 71.5208 0.0000 0.0000
# 5 0.0000 0.0000 0.0000 0.0000 37.0170 0.0000
# 6 0.0000 0.0000 0.0000 0.0000 0.0000 14.6211
#
#
#
# Elastic Compliance Matrix: (Units=1/GPa)
#
#
# Indices 1 2 3 4 5 6 
#
# 1 0.027023 -0.001284 -0.006213 0.000000 0.000000 0.000000
# 2 -0.001284 0.015018 -0.004478 0.000000 0.000000 0.000000
# 3 -0.006213 -0.004478 0.008967 0.000000 0.000000 0.000000
# 4 0.000000 0.000000 0.000000 0.013982 0.000000 0.000000
# 5 0.000000 0.000000 0.000000 0.000000 0.027015 0.000000
# 6 0.000000 0.000000 0.000000 0.000000 0.000000 0.068394
#
#
# Mechanical properties :
#
#
# Convention : Reuss Voigt Hill
#
# Bulk Modulus (GPa) = 36.95782 57.45778 47.20780
# Shear Modulus (GPa) = 25.85739 37.11168 31.48454
#
# Velocity S-wave (km/s) = 3.46674 4.15322 3.82541
# Velocity P-wave (km/s) = 5.76213 7.05017 6.43844
#
# Compressibility (1/GPa) = 0.02705787
#
# Stress axis : x y z
#
# Youngs Moduli (GPa) = 37.00538 66.58752 111.52014
#
# Poissons Ratio (x) = 0.08552 0.69284
# Poissons Ratio (y) = 0.04753 0.49938
# Poissons Ratio (z) = 0.22990 0.29818
#
# Static dielectric constant tensor:
#      x y z
#    x 1.817220 0.000000 0.000000 
#    y 0.000000 1.869260 0.000000 
#    z 0.000000 0.000000 1.828780 
# 
# From -- ./inp_files/4296.got.cif
#   From: 2010.05.17/outbox.cif.g08.bks.cpg/sg18_3_cif.got.tgz:4296.got - 2010.06.03 22:40:56.
