data_PCOD9312678
_publ_section_title
;
Structure prediction by ZEFSAII (Michael W. Deem and Ramdas Pophale) SiO2 
 PCOD9312678
Probable space group: P 21 21 2
;
_chemical_formula_sum "Si O2"
_cell_formula_units_Z 28
_cell_length_a 5.220216
_cell_length_b 12.161135
_cell_length_c 18.502262
_cell_angle_alpha 90.000000
_cell_angle_beta 90.000000
_cell_angle_gamma 90.000000
_cell_volume 1174.593003
_symmetry_space_group_name_H-M "P 21 21 2"
_symmetry_group_IT_number 18
_symmetry_cell_setting 'orthorhombic'
loop_
_space_group_symop_operation_xyz
x,y,z
-x,-y,z
1/2+x,1/2-y,-z
1/2-x,1/2+y,-z
loop_
_atom_site_type_symbol
_atom_site_label
_atom_site_fract_x
_atom_site_fract_y
_atom_site_fract_z
Si Si1 0.000000 0.000000 0.269958
Si Si2 0.369555 0.167690 0.082015
Si Si3 0.241545 0.564752 0.229482
Si Si4 0.000000 0.500000 0.374802
Si Si5 0.349719 0.811217 0.223098
Si Si6 0.117532 0.615976 0.647151
Si Si7 0.876881 0.106374 0.999733
Si Si8 0.922337 0.682559 0.494813
O O1 0.098287 0.095199 0.325997
O O2 0.825153 0.079991 0.221774
O O3 0.428388 0.163870 0.165997
O O4 0.090052 0.126827 0.061475
O O5 0.599228 0.108675 0.037289
O O6 0.383413 0.293033 0.055171
O O7 0.500000 0.500000 0.211940
O O8 0.199988 0.551456 0.317062
O O9 0.230930 0.692266 0.206916
O O10 0.000000 0.500000 0.196843
O O11 0.906279 0.598200 0.427777
O O12 0.479987 0.797000 0.301979
O O13 0.057315 0.628849 0.564394
O O14 0.000000 0.500000 0.670872
O O15 0.000000 0.000000 0.962639
O O16 0.138450 0.777189 0.481702
#
# Coordination Sequence:
#
# PCOD9312678 Si02
#       8
#     2   4   4   2   4   4   4   4
#     4  10  26  42  72  96 136 184 226 302 362 418
#     4  10  24  41  69 106 134 188 230 282 342 410
#     4  10  26  44  70  99 136 187 232 291 351 428
#     4  10  26  46  68  98 132 180 238 276 376 408
#     4  11  25  45  70 105 146 184 244 290 363 431
#     4  10  24  43  62  98 133 174 224 297 353 420
#     4  10  22  43  68 100 146 179 232 284 334 414
#     4  12  28  42  70  96 128 177 228 291 353 425
#
# _framework density 23.838045999999999
#
# number of rings (size 3 to 8) (size 9 to 14) (size 15 to 20)
#    0.429    1.143    0.714    1.286   15.000    2.857 
#    0.000    2.857    0.000    0.000    0.000    0.000 
#    0.000    0.000    0.000    0.000    0.000    0.000 
#
# Total GULP energy -156249.754531 kJ/mol
# GULP energy per Si atom -5580.348376 kJ/mol
# Density = 2.378379 g / cm^3
# Si number density = 23.838046 Si / 1000 Ang^3
#
#
#
# Elastic Constant Matrix: (Units=GPa)
#
#
# Indices 1 2 3 4 5 6 
#
# 1 74.8135 38.3931 8.0929 0.0000 0.0000 0.0000
# 2 38.3931 122.3584 6.1653 0.0000 0.0000 0.0000
# 3 8.0929 6.1653 68.7426 0.0000 0.0000 0.0000
# 4 0.0000 0.0000 0.0000 -41.4272 0.0000 0.0000
# 5 0.0000 0.0000 0.0000 0.0000 20.9258 0.0000
# 6 0.0000 0.0000 0.0000 0.0000 0.0000 33.2260
#
#
#
# Elastic Compliance Matrix: (Units=1/GPa)
#
#
# Indices 1 2 3 4 5 6 
#
# 1 0.016074 -0.004971 -0.001447 0.000000 0.000000 0.000000
# 2 -0.004971 0.009747 -0.000289 0.000000 0.000000 0.000000
# 3 -0.001447 -0.000289 0.014743 0.000000 0.000000 0.000000
# 4 0.000000 0.000000 0.000000 -0.024139 0.000000 0.000000
# 5 0.000000 0.000000 0.000000 0.000000 0.047788 0.000000
# 6 0.000000 0.000000 0.000000 0.000000 0.000000 0.030097
#
#
# Mechanical properties :
#
#
# Convention : Reuss Voigt Hill
#
# Bulk Modulus (GPa) = 36.83018 41.24636 39.03827
# Shear Modulus (GPa) = 42.81799 16.76247 29.79023
#
# Velocity S-wave (km/s) = 4.24276 2.65463 3.53893
# Velocity P-wave (km/s) = 6.28372 5.17073 5.75419
#
# Compressibility (1/GPa) = 0.02715164
#
# Stress axis : x y z
#
# Youngs Moduli (GPa) = 62.21250 102.59609 67.82771
#
# Poissons Ratio (x) = 0.50998 0.09812
# Poissons Ratio (y) = 0.30924 0.01960
# Poissons Ratio (z) = 0.08999 0.02965
#
# Static dielectric constant tensor:
#      x y z
#    x 2.528300 0.000000 0.000000 
#    y 0.000000 1.981070 0.000000 
#    z 0.000000 0.000000 1.901870 
# 
# From -- ./inp_files/7493.got.cif
#   From: 2010.05.17/outbox.cif.g08.bks.cpg/sg18_4_cif.got.tgz:7493.got - 2010.06.03 22:40:56.
