data_PCOD9312372
_publ_section_title
;
Structure prediction by ZEFSAII (Michael W. Deem and Ramdas Pophale) SiO2 
 PCOD9312372
Probable space group: P 21 21 2
;
_chemical_formula_sum "Si O2"
_cell_formula_units_Z 30
_cell_length_a 12.431116
_cell_length_b 5.345159
_cell_length_c 18.483203
_cell_angle_alpha 90.000000
_cell_angle_beta 90.000000
_cell_angle_gamma 90.000000
_cell_volume 1228.140296
_symmetry_space_group_name_H-M "P 21 21 2"
_symmetry_group_IT_number 18
_symmetry_cell_setting 'orthorhombic'
loop_
_space_group_symop_operation_xyz
x,y,z
-x,-y,z
1/2+x,1/2-y,-z
1/2-x,1/2+y,-z
loop_
_atom_site_type_symbol
_atom_site_label
_atom_site_fract_x
_atom_site_fract_y
_atom_site_fract_z
Si Si1 0.000000 0.000000 0.003058
Si Si2 0.419116 0.184233 0.127396
Si Si3 0.384116 0.522520 0.350287
Si Si4 0.112502 0.656358 0.516624
Si Si5 0.770602 0.941387 0.042460
Si Si6 0.282699 0.406375 0.608110
Si Si7 0.372500 0.489008 0.764074
Si Si8 0.746887 0.531240 0.213642
O O1 0.022073 0.776654 0.945845
O O2 0.896494 0.974461 0.052794
O O3 0.318574 0.016130 0.102530
O O4 0.360784 0.419860 0.165673
O O5 0.500000 0.000000 0.169588
O O6 0.500000 0.500000 0.314177
O O7 0.398847 0.379830 0.425538
O O8 0.331314 0.790317 0.364462
O O9 0.297340 0.417927 0.294584
O O10 0.231570 0.564827 0.542982
O O11 0.134274 0.725524 0.433391
O O12 0.000000 0.500000 0.521312
O O13 0.755244 0.654890 0.016947
O O14 0.344088 0.504120 0.678069
O O15 0.500000 0.500000 0.773014
O O16 0.325770 0.738399 0.801145
O O17 0.311484 0.230733 0.788475
#
# Coordination Sequence:
#
# PCOD9312372 Si02
#       8
#     2   4   4   4   4   4   4   4
#     4  10  22  42  72 108 152 192 236 294 356 422
#     4  11  24  42  73 111 150 194 245 300 357 437
#     4  11  23  40  61  92 134 170 217 289 361 422
#     4  12  23  38  63  93 128 169 222 291 357 434
#     4  10  21  40  67 104 145 186 232 284 353 405
#     4  11  24  39  64  94 125 173 231 287 361 440
#     4  11  26  50  74  94 140 189 247 304 365 431
#     4  11  27  44  73 106 140 188 245 294 361 439
#
# _framework density 24.427178999999999
#
# number of rings (size 3 to 8) (size 9 to 14) (size 15 to 20)
#    0.000    1.067    5.333    0.400    2.800    5.333 
#    1.200    0.000   11.733    0.000    0.000    0.000 
#    0.000    0.000    0.000    0.000    0.000    0.000 
#
# Total GULP energy -167269.251050 kJ/mol
# GULP energy per Si atom -5575.641702 kJ/mol
# Density = 2.437158 g / cm^3
# Si number density = 24.427179 Si / 1000 Ang^3
#
#
#
# Elastic Constant Matrix: (Units=GPa)
#
#
# Indices 1 2 3 4 5 6 
#
# 1 166.0307 46.3594 27.0776 0.0000 0.0000 0.0000
# 2 46.3594 82.7927 24.7143 0.0000 0.0000 0.0000
# 3 27.0776 24.7143 56.2053 0.0000 0.0000 0.0000
# 4 0.0000 0.0000 0.0000 32.8751 0.0000 0.0000
# 5 0.0000 0.0000 0.0000 0.0000 31.8341 0.0000
# 6 0.0000 0.0000 0.0000 0.0000 0.0000 38.8148
#
#
#
# Elastic Compliance Matrix: (Units=1/GPa)
#
#
# Indices 1 2 3 4 5 6 
#
# 1 0.007327 -0.003510 -0.001987 0.000000 0.000000 0.000000
# 2 -0.003510 0.015584 -0.005162 0.000000 0.000000 0.000000
# 3 -0.001987 -0.005162 0.021019 0.000000 0.000000 0.000000
# 4 0.000000 0.000000 0.000000 0.030418 0.000000 0.000000
# 5 0.000000 0.000000 0.000000 0.000000 0.031413 0.000000
# 6 0.000000 0.000000 0.000000 0.000000 0.000000 0.025763
#
#
# Mechanical properties :
#
#
# Convention : Reuss Voigt Hill
#
# Bulk Modulus (GPa) = 44.22073 55.70350 49.96211
# Shear Modulus (GPa) = 31.17622 34.49665 32.83643
#
# Velocity S-wave (km/s) = 3.57640 3.76203 3.67039
# Velocity P-wave (km/s) = 5.93267 6.45941 6.20163
#
# Compressibility (1/GPa) = 0.02261383
#
# Stress axis : x y z
#
# Youngs Moduli (GPa) = 136.48244 64.16657 47.57661
#
# Poissons Ratio (x) = 0.22520 0.09452
# Poissons Ratio (y) = 0.47901 0.24558
# Poissons Ratio (z) = 0.27114 0.33122
#
# Static dielectric constant tensor:
#      x y z
#    x 1.962430 0.000000 0.000000 
#    y 0.000000 1.492560 0.000000 
#    z 0.000000 0.000000 2.006840 
# 
# From -- ./inp_files/7577.got.cif
#   From: 2010.05.17/outbox.cif.g08.bks.cpg/sg18_4_cif.got.tgz:7577.got - 2010.06.03 22:40:56.
