data_PCOD9312503
_publ_section_title
;
Structure prediction by ZEFSAII (Michael W. Deem and Ramdas Pophale) SiO2 
 PCOD9312503
Probable space group: P 21 21 2
;
_chemical_formula_sum "Si O2"
_cell_formula_units_Z 30
_cell_length_a 8.386100
_cell_length_b 25.410358
_cell_length_c 6.173480
_cell_angle_alpha 90.000000
_cell_angle_beta 90.000000
_cell_angle_gamma 90.000000
_cell_volume 1315.530332
_symmetry_space_group_name_H-M "P 21 21 2"
_symmetry_group_IT_number 18
_symmetry_cell_setting 'orthorhombic'
loop_
_space_group_symop_operation_xyz
x,y,z
-x,-y,z
1/2+x,1/2-y,-z
1/2-x,1/2+y,-z
loop_
_atom_site_type_symbol
_atom_site_label
_atom_site_fract_x
_atom_site_fract_y
_atom_site_fract_z
Si Si1 0.432477 0.188560 0.563638
Si Si2 0.422303 0.429926 0.493840
Si Si3 0.000000 0.000000 0.128062
Si Si4 0.214728 0.026247 0.750705
Si Si5 0.082348 0.774200 0.085612
Si Si6 0.746866 0.817392 0.168890
Si Si7 0.694165 0.142143 0.255949
Si Si8 0.548027 0.898060 0.932758
O O1 0.427081 0.244018 0.683561
O O2 0.268577 0.180873 0.428715
O O3 0.566346 0.176762 0.385819
O O4 0.470985 0.146428 0.749886
O O5 0.575514 0.432592 0.332632
O O6 0.304194 0.476787 0.410740
O O7 0.314560 0.381156 0.563660
O O8 0.492679 0.449642 0.720601
O O9 0.151838 0.003692 0.976323
O O10 0.383165 0.052584 0.800798
O O11 0.212862 0.819429 0.095789
O O12 0.913076 0.801793 0.063094
O O13 0.131529 0.729960 0.913783
O O14 0.689049 0.873361 0.079837
O O15 0.599954 0.100596 0.100515
#
# Coordination Sequence:
#
# PCOD9312503 Si02
#       8
#     4   4   2   4   4   4   4   4
#     4  10  22  41  58  88 136 171 212 270 324 393
#     4   9  21  39  64  96 124 168 225 271 327 408
#     4   8  18  38  64  90 126 160 216 272 326 396
#     4   9  20  41  64  94 130 168 222 274 339 396
#     4  11  22  40  61  91 129 172 218 274 324 398
#     4  10  22  38  60  91 125 174 216 261 335 384
#     4  11  24  40  63  98 131 169 228 274 330 405
#     4  10  23  40  62  94 131 168 213 275 327 399
#
# _framework density 22.804489
#
# number of rings (size 3 to 8) (size 9 to 14) (size 15 to 20)
#    0.000    2.400    0.000    3.200    3.733    6.400 
#    2.400    4.000    0.000    0.000    0.000    0.000 
#    0.000    0.000    0.000    0.000    0.000    0.000 
#
# Total GULP energy -167323.805143 kJ/mol
# GULP energy per Si atom -5577.460171 kJ/mol
# Density = 2.275258 g / cm^3
# Si number density = 22.804489 Si / 1000 Ang^3
#
#
#
# Elastic Constant Matrix: (Units=GPa)
#
#
# Indices 1 2 3 4 5 6 
#
# 1 46.2356 13.1358 15.2634 0.0000 0.0000 0.0000
# 2 13.1358 51.6506 5.7568 0.0000 0.0000 0.0000
# 3 15.2634 5.7568 75.3176 0.0000 0.0000 0.0000
# 4 0.0000 0.0000 0.0000 17.6643 0.0000 0.0000
# 5 0.0000 0.0000 0.0000 0.0000 15.3263 0.0000
# 6 0.0000 0.0000 0.0000 0.0000 0.0000 37.4552
#
#
#
# Elastic Compliance Matrix: (Units=1/GPa)
#
#
# Indices 1 2 3 4 5 6 
#
# 1 0.024786 -0.005793 -0.004580 0.000000 0.000000 0.000000
# 2 -0.005793 0.020881 -0.000422 0.000000 0.000000 0.000000
# 3 -0.004580 -0.000422 0.014238 0.000000 0.000000 0.000000
# 4 0.000000 0.000000 0.000000 0.056612 0.000000 0.000000
# 5 0.000000 0.000000 0.000000 0.000000 0.065247 0.000000
# 6 0.000000 0.000000 0.000000 0.000000 0.000000 0.026699
#
#
# Mechanical properties :
#
#
# Convention : Reuss Voigt Hill
#
# Bulk Modulus (GPa) = 26.09998 26.83509 26.46753
# Shear Modulus (GPa) = 20.59097 23.35899 21.97498
#
# Velocity S-wave (km/s) = 3.00815 3.20396 3.10760
# Velocity P-wave (km/s) = 4.85131 5.04779 4.95053
#
# Compressibility (1/GPa) = 0.03831421
#
# Stress axis : x y z
#
# Youngs Moduli (GPa) = 40.34488 47.88989 70.23672
#
# Poissons Ratio (x) = 0.27743 0.32170
# Poissons Ratio (y) = 0.23373 0.02964
# Poissons Ratio (z) = 0.18479 0.02021
#
# Static dielectric constant tensor:
#      x y z
#    x 1.930520 0.000000 0.000000 
#    y 0.000000 1.888750 0.000000 
#    z 0.000000 0.000000 1.860120 
# 
# From -- ./inp_files/772.got.cif
#   From: 2010.05.17/outbox.cif.g08.bks.cpg/sg18_1_cif.got.tgz:772.got - 2010.06.03 22:40:56.
