data_PCOD9312624
_publ_section_title
;
Structure prediction by ZEFSAII (Michael W. Deem and Ramdas Pophale) SiO2 
 PCOD9312624
Probable space group: P 21 21 2
;
_chemical_formula_sum "Si O2"
_cell_formula_units_Z 28
_cell_length_a 25.201546
_cell_length_b 8.324208
_cell_length_c 6.051109
_cell_angle_alpha 90.000000
_cell_angle_beta 90.000000
_cell_angle_gamma 90.000000
_cell_volume 1269.419260
_symmetry_space_group_name_H-M "P 21 21 2"
_symmetry_group_IT_number 18
_symmetry_cell_setting 'orthorhombic'
loop_
_space_group_symop_operation_xyz
x,y,z
-x,-y,z
1/2+x,1/2-y,-z
1/2-x,1/2+y,-z
loop_
_atom_site_type_symbol
_atom_site_label
_atom_site_fract_x
_atom_site_fract_y
_atom_site_fract_z
Si Si1 0.816858 0.272522 0.634000
Si Si2 0.553982 0.082878 0.033397
Si Si3 0.414298 0.179423 0.676390
Si Si4 0.384208 0.700744 0.336854
Si Si5 0.293692 0.562139 0.609954
Si Si6 0.480362 0.679478 0.671872
Si Si7 0.137869 0.930375 0.009759
O O1 0.867583 0.338451 0.500130
O O2 0.766777 0.388020 0.634590
O O3 0.832910 0.211687 0.876400
O O4 0.799409 0.109924 0.507339
O O5 0.598881 0.141235 0.202021
O O6 0.500000 0.000000 0.122493
O O7 0.533176 0.240383 0.905241
O O8 0.578445 0.967332 0.845160
O O9 0.471467 0.215640 0.570712
O O10 0.400507 0.337521 0.822674
O O11 0.327531 0.686317 0.458593
O O12 0.428630 0.683539 0.522782
O O13 0.387295 0.547296 0.172477
O O14 0.322476 0.539015 0.845331
O O15 0.500000 0.500000 0.691758
#
# Coordination Sequence:
#
# PCOD9312624 Si02
#       7
#     4   4   4   4   4   4   4
#     4  10  23  43  67  90 125 168 207 261 322 372
#     4  10  24  40  62  95 129 164 208 260 318 379
#     4  10  23  43  62  93 128 161 211 265 313 375
#     4  11  23  41  64  91 125 169 209 255 319 378
#     4  10  23  42  63  93 125 161 213 261 311 378
#     4  11  22  39  63  90 126 166 210 259 308 378
#     4  10  22  42  65  92 123 165 214 257 314 380
#
# _framework density 22.05733
#
# number of rings (size 3 to 8) (size 9 to 14) (size 15 to 20)
#    0.000    1.714    0.000    4.286    0.000   16.000 
#    0.000    2.857    0.000    0.000    0.000    0.000 
#    0.000    0.000    0.000    0.000    0.000    0.000 
#
# Total GULP energy -156608.715964 kJ/mol
# GULP energy per Si atom -5593.168427 kJ/mol
# Density = 2.200713 g / cm^3
# Si number density = 22.057330 Si / 1000 Ang^3
#
#
#
# Elastic Constant Matrix: (Units=GPa)
#
#
# Indices 1 2 3 4 5 6 
#
# 1 82.0480 8.6627 8.2813 0.0000 0.0000 0.0000
# 2 8.6627 59.5123 10.7112 0.0000 0.0000 0.0000
# 3 8.2813 10.7112 53.0365 0.0000 0.0000 0.0000
# 4 0.0000 0.0000 0.0000 33.0420 0.0000 0.0000
# 5 0.0000 0.0000 0.0000 0.0000 11.4624 0.0000
# 6 0.0000 0.0000 0.0000 0.0000 0.0000 39.3064
#
#
#
# Elastic Compliance Matrix: (Units=1/GPa)
#
#
# Indices 1 2 3 4 5 6 
#
# 1 0.012515 -0.001525 -0.001646 0.000000 0.000000 0.000000
# 2 -0.001525 0.017623 -0.003321 0.000000 0.000000 0.000000
# 3 -0.001646 -0.003321 0.019783 0.000000 0.000000 0.000000
# 4 0.000000 0.000000 0.000000 0.030265 0.000000 0.000000
# 5 0.000000 0.000000 0.000000 0.000000 0.087242 0.000000
# 6 0.000000 0.000000 0.000000 0.000000 0.000000 0.025441
#
#
# Mechanical properties :
#
#
# Convention : Reuss Voigt Hill
#
# Bulk Modulus (GPa) = 27.07392 27.76745 27.42068
# Shear Modulus (GPa) = 22.91843 27.89160 25.40501
#
# Velocity S-wave (km/s) = 3.22691 3.55985 3.39746
# Velocity P-wave (km/s) = 5.11712 5.43256 5.27720
#
# Compressibility (1/GPa) = 0.03693592
#
# Stress axis : x y z
#
# Youngs Moduli (GPa) = 79.90288 56.74403 50.54929
#
# Poissons Ratio (x) = 0.08656 0.08321
# Poissons Ratio (y) = 0.12189 0.16787
# Poissons Ratio (z) = 0.13153 0.18844
#
# Static dielectric constant tensor:
#      x y z
#    x 1.786770 0.000000 0.000000 
#    y 0.000000 1.820250 0.000000 
#    z 0.000000 0.000000 1.824410 
# 
# From -- ./inp_files/2212.got.cif
#   From: 2010.05.17/outbox.cif.g08.bks.cpg/sg18_2_cif.got.tgz:2212.got - 2010.06.03 22:40:56.
