data_PCOD9312929
_publ_section_title
;
Structure prediction by ZEFSAII (Michael W. Deem and Ramdas Pophale) SiO2 
 PCOD9312929
Probable space group: P 21 21 2
;
_chemical_formula_sum "Si O2"
_cell_formula_units_Z 24
_cell_length_a 11.939468
_cell_length_b 4.967622
_cell_length_c 17.822336
_cell_angle_alpha 90.000000
_cell_angle_beta 90.000000
_cell_angle_gamma 90.000000
_cell_volume 1057.056363
_symmetry_space_group_name_H-M "P 21 21 2"
_symmetry_group_IT_number 18
_symmetry_cell_setting 'orthorhombic'
loop_
_space_group_symop_operation_xyz
x,y,z
-x,-y,z
1/2+x,1/2-y,-z
1/2-x,1/2+y,-z
loop_
_atom_site_type_symbol
_atom_site_label
_atom_site_fract_x
_atom_site_fract_y
_atom_site_fract_z
Si Si1 0.640060 0.742984 0.743101
Si Si2 0.714722 0.731671 0.288650
Si Si3 0.000000 0.000000 0.131944
Si Si4 0.500000 0.000000 0.610664
Si Si5 0.500000 0.500000 0.114350
Si Si6 0.500000 0.000000 0.215759
Si Si7 0.283688 0.750764 0.544747
Si Si8 0.677084 0.439926 0.994190
O O1 0.691463 0.450041 0.731665
O O2 0.558083 0.718255 0.813805
O O3 0.571949 0.819001 0.668201
O O4 0.740943 0.957693 0.749164
O O5 0.717999 0.694476 0.377991
O O6 0.598530 0.860903 0.263132
O O7 0.097425 0.108135 0.077299
O O8 0.412006 0.831537 0.561551
O O9 0.536899 0.246454 0.163327
O O10 0.602036 0.571086 0.059628
O O11 0.265821 0.446128 0.518921
O O12 0.771316 0.660844 0.977996
#
# Coordination Sequence:
#
# PCOD9312929 Si02
#       8
#     4   4   2   2   2   2   4   4
#     4  11  24  44  73 105 134 180 233 305 351 393
#     4  11  26  45  70 106 142 178 240 291 341 424
#     4  11  26  44  74 106 133 186 244 288 359 418
#     4  10  24  47  67 104 144 170 232 292 344 400
#     4  11  26  46  70 102 135 202 222 286 365 412
#     4  12  26  47  71 100 146 188 236 282 354 418
#     4  11  24  43  70 101 139 188 227 279 355 413
#     4  11  27  46  69 102 146 177 240 288 348 434
#
# _framework density 22.704557000000001
#
# number of rings (size 3 to 8) (size 9 to 14) (size 15 to 20)
#    0.000    1.000    0.000    6.000    7.000    8.667 
#    0.000    3.333    0.000    0.000    0.000    0.000 
#    0.000    0.000    0.000    0.000    0.000    0.000 
#
# Total GULP energy -134373.534487 kJ/mol
# GULP energy per Si atom -5598.897270 kJ/mol
# Density = 2.265288 g / cm^3
# Si number density = 22.704557 Si / 1000 Ang^3
#
#
#
# Elastic Constant Matrix: (Units=GPa)
#
#
# Indices 1 2 3 4 5 6 
#
# 1 97.8301 4.7119 51.7398 0.0000 0.0000 0.0000
# 2 4.7119 76.6996 19.4159 0.0000 0.0000 0.0000
# 3 51.7398 19.4159 97.2732 0.0000 0.0000 0.0000
# 4 0.0000 0.0000 0.0000 37.1584 0.0000 0.0000
# 5 0.0000 0.0000 0.0000 0.0000 46.1093 0.0000
# 6 0.0000 0.0000 0.0000 0.0000 0.0000 43.2070
#
#
#
# Elastic Compliance Matrix: (Units=1/GPa)
#
#
# Indices 1 2 3 4 5 6 
#
# 1 0.014311 0.001104 -0.007832 0.000000 0.000000 0.000000
# 2 0.001104 0.013817 -0.003345 0.000000 0.000000 0.000000
# 3 -0.007832 -0.003345 0.015114 0.000000 0.000000 0.000000
# 4 0.000000 0.000000 0.000000 0.026912 0.000000 0.000000
# 5 0.000000 0.000000 0.000000 0.000000 0.021688 0.000000
# 6 0.000000 0.000000 0.000000 0.000000 0.000000 0.023144
#
#
# Mechanical properties :
#
#
# Convention : Reuss Voigt Hill
#
# Bulk Modulus (GPa) = 43.30028 47.05977 45.18002
# Shear Modulus (GPa) = 35.00645 38.35729 36.68187
#
# Velocity S-wave (km/s) = 3.93087 4.11470 4.02383
# Velocity P-wave (km/s) = 6.30197 6.58380 6.44443
#
# Compressibility (1/GPa) = 0.02309454
#
# Stress axis : x y z
#
# Youngs Moduli (GPa) = 69.87659 72.37568 66.16404
#
# Poissons Ratio (x) = -0.07987 0.51821
# Poissons Ratio (y) = -0.07711 0.22131
# Poissons Ratio (z) = 0.54729 0.24208
#
# Static dielectric constant tensor:
#      x y z
#    x 1.858690 0.000000 0.000000 
#    y 0.000000 1.748790 0.000000 
#    z 0.000000 0.000000 1.828370 
# 
# From -- ./inp_files/7377.got.cif
#   From: 2010.05.17/outbox.cif.g08.bks.cpg/sg18_4_cif.got.tgz:7377.got - 2010.06.03 22:40:56.
