data_PCOD9312392
_publ_section_title
;
Structure prediction by ZEFSAII (Michael W. Deem and Ramdas Pophale) SiO2 
 PCOD9312392
Probable space group: P 21 21 2
;
_chemical_formula_sum "Si O2"
_cell_formula_units_Z 32
_cell_length_a 13.685612
_cell_length_b 10.089738
_cell_length_c 9.754217
_cell_angle_alpha 90.000000
_cell_angle_beta 90.000000
_cell_angle_gamma 90.000000
_cell_volume 1346.903636
_symmetry_space_group_name_H-M "P 21 21 2"
_symmetry_group_IT_number 18
_symmetry_cell_setting 'orthorhombic'
loop_
_space_group_symop_operation_xyz
x,y,z
-x,-y,z
1/2+x,1/2-y,-z
1/2-x,1/2+y,-z
loop_
_atom_site_type_symbol
_atom_site_label
_atom_site_fract_x
_atom_site_fract_y
_atom_site_fract_z
Si Si1 0.866916 0.774206 0.686455
Si Si2 0.190316 0.657027 0.019732
Si Si3 0.832563 0.632786 0.056685
Si Si4 0.982699 0.355831 0.213227
Si Si5 0.073706 0.121757 0.387860
Si Si6 0.085019 0.716643 0.743796
Si Si7 0.717066 0.551850 0.320524
Si Si8 0.776051 0.505082 0.630648
O O1 0.893434 0.809171 0.528340
O O2 0.826157 0.914901 0.738126
O O3 0.792441 0.652262 0.686830
O O4 0.969067 0.725040 0.747794
O O5 0.288932 0.740158 0.015598
O O6 0.127132 0.720895 0.897302
O O7 0.201129 0.502187 0.984928
O O8 0.126551 0.660457 0.157996
O O9 0.947533 0.636208 0.079335
O O10 0.789870 0.618376 0.211655
O O11 0.018704 0.231910 0.299218
O O12 0.000000 0.500000 0.282439
O O13 0.174472 0.064167 0.323592
O O14 0.000000 0.000000 0.411702
O O15 0.133362 0.588505 0.671933
O O16 0.128971 0.843677 0.663383
O O17 0.766430 0.520775 0.465654
#
# Coordination Sequence:
#
# PCOD9312392 Si02
#       8
#     4   4   4   4   4   4   4   4
#     4  11  23  39  63  92 125 164 201 251 320 386
#     4  10  24  42  63  89 124 166 211 259 311 374
#     4  10  22  42  64  88 123 165 209 263 315 374
#     4  10  23  42  66  92 125 169 217 267 320 383
#     4  11  24  42  64  96 131 164 213 271 323 385
#     4  11  23  41  62  91 128 164 208 260 310 378
#     4  10  21  41  64  88 122 163 209 256 314 377
#     4  11  23  39  63  94 127 161 201 257 321 383
#
# _framework density 23.758194
#
# number of rings (size 3 to 8) (size 9 to 14) (size 15 to 20)
#    0.000    1.500    0.000    6.000    0.000   12.000 
#    0.000    2.500    0.000    0.000    0.000    0.000 
#    0.000    0.000    0.000    0.000    0.000    0.000 
#
# Total GULP energy -179191.880392 kJ/mol
# GULP energy per Si atom -5599.746262 kJ/mol
# Density = 2.370412 g / cm^3
# Si number density = 23.758194 Si / 1000 Ang^3
#
#
#
# Elastic Constant Matrix: (Units=GPa)
#
#
# Indices 1 2 3 4 5 6 
#
# 1 70.5719 19.1537 1.4957 0.0000 0.0000 0.0000
# 2 19.1537 155.6103 21.5044 0.0000 0.0000 0.0000
# 3 1.4957 21.5044 52.8590 0.0000 0.0000 0.0000
# 4 0.0000 0.0000 0.0000 38.7595 0.0000 0.0000
# 5 0.0000 0.0000 0.0000 0.0000 29.3932 0.0000
# 6 0.0000 0.0000 0.0000 0.0000 0.0000 47.4315
#
#
#
# Elastic Compliance Matrix: (Units=1/GPa)
#
#
# Indices 1 2 3 4 5 6 
#
# 1 0.014665 -0.001852 0.000338 0.000000 0.000000 0.000000
# 2 -0.001852 0.007043 -0.002813 0.000000 0.000000 0.000000
# 3 0.000338 -0.002813 0.020053 0.000000 0.000000 0.000000
# 4 0.000000 0.000000 0.000000 0.025800 0.000000 0.000000
# 5 0.000000 0.000000 0.000000 0.000000 0.034021 0.000000
# 6 0.000000 0.000000 0.000000 0.000000 0.000000 0.021083
#
#
# Mechanical properties :
#
#
# Convention : Reuss Voigt Hill
#
# Bulk Modulus (GPa) = 30.20355 40.37211 35.28783
# Shear Modulus (GPa) = 35.12348 38.90933 37.01641
#
# Velocity S-wave (km/s) = 3.84913 4.05127 3.95149
# Velocity P-wave (km/s) = 5.70043 6.23807 5.97530
#
# Compressibility (1/GPa) = 0.03310869
#
# Stress axis : x y z
#
# Youngs Moduli (GPa) = 68.18779 141.98546 49.86783
#
# Poissons Ratio (x) = 0.26294 -0.01688
# Poissons Ratio (y) = 0.12628 0.14027
# Poissons Ratio (z) = -0.02308 0.39939
#
# Static dielectric constant tensor:
#      x y z
#    x 1.908380 0.000000 0.000000 
#    y 0.000000 1.886130 0.000000 
#    z 0.000000 0.000000 1.953990 
# 
# From -- ./inp_files/5704.got.cif
#   From: 2010.05.17/outbox.cif.g08.bks.cpg/sg18_3_cif.got.tgz:5704.got - 2010.06.03 22:40:56.
