data_PCOD9312518
_publ_section_title
;
Structure prediction by ZEFSAII (Michael W. Deem and Ramdas Pophale) SiO2 
 PCOD9312518
Probable space group: P 21 21 2
;
_chemical_formula_sum "Si O2"
_cell_formula_units_Z 28
_cell_length_a 12.958421
_cell_length_b 16.424994
_cell_length_c 5.437665
_cell_angle_alpha 90.000000
_cell_angle_beta 90.000000
_cell_angle_gamma 90.000000
_cell_volume 1157.363424
_symmetry_space_group_name_H-M "P 21 21 2"
_symmetry_group_IT_number 18
_symmetry_cell_setting 'orthorhombic'
loop_
_space_group_symop_operation_xyz
x,y,z
-x,-y,z
1/2+x,1/2-y,-z
1/2-x,1/2+y,-z
loop_
_atom_site_type_symbol
_atom_site_label
_atom_site_fract_x
_atom_site_fract_y
_atom_site_fract_z
Si Si1 0.524897 0.709679 0.652633
Si Si2 0.855946 0.084209 0.634809
Si Si3 0.448257 0.766858 0.158633
Si Si4 0.822556 0.593225 0.031864
Si Si5 0.500000 0.000000 0.671515
Si Si6 0.701196 0.456825 0.720116
Si Si7 0.379022 0.143907 0.409448
Si Si8 0.500000 0.500000 0.996429
O O1 0.596094 0.631975 0.594873
O O2 0.465311 0.718947 0.906359
O O3 0.601783 0.787252 0.615034
O O4 0.449030 0.717692 0.414626
O O5 0.760701 0.125959 0.770862
O O6 0.813455 0.997926 0.544772
O O7 0.944250 0.065351 0.829924
O O8 0.357202 0.831859 0.135956
O O9 0.551819 0.821295 0.189724
O O10 0.921782 0.555029 0.168645
O O11 0.768865 0.520591 0.880336
O O12 0.431156 0.060789 0.507166
O O13 0.765256 0.375463 0.682538
O O14 0.588622 0.457003 0.837972
#
# Coordination Sequence:
#
# PCOD9312518 Si02
#       8
#     4   4   4   4   2   4   4   2
#     4  10  25  43  67  96 148 180 226 286 349 429
#     4  11  25  47  67  99 138 192 240 300 341 429
#     4  10  22  43  66 102 144 182 217 286 365 429
#     4  11  22  37  71 104 136 178 229 289 363 422
#     4  12  18  40  68 110 142 170 222 290 368 430
#     4  11  23  41  73  97 134 182 243 294 347 418
#     4  10  22  38  67 104 139 176 215 293 351 431
#     4  10  26  46  70  92 128 188 250 296 338 408
#
# _framework density 24.192920000000001
#
# number of rings (size 3 to 8) (size 9 to 14) (size 15 to 20)
#    0.857    0.571    2.857    2.143    6.000    0.000 
#    2.571    1.429    0.000    0.000    0.000    0.000 
#    0.000    0.000    0.000    0.000    0.000    0.000 
#
# Total GULP energy -156624.382055 kJ/mol
# GULP energy per Si atom -5593.727931 kJ/mol
# Density = 2.413786 g / cm^3
# Si number density = 24.192920 Si / 1000 Ang^3
#
#
#
# Elastic Constant Matrix: (Units=GPa)
#
#
# Indices 1 2 3 4 5 6 
#
# 1 112.3399 16.7468 30.8173 0.0000 0.0000 0.0000
# 2 16.7468 57.9367 3.8164 0.0000 0.0000 0.0000
# 3 30.8173 3.8164 106.4620 0.0000 0.0000 0.0000
# 4 0.0000 0.0000 0.0000 19.0203 0.0000 0.0000
# 5 0.0000 0.0000 0.0000 0.0000 34.6617 0.0000
# 6 0.0000 0.0000 0.0000 0.0000 0.0000 26.1642
#
#
#
# Elastic Compliance Matrix: (Units=1/GPa)
#
#
# Indices 1 2 3 4 5 6 
#
# 1 0.010082 -0.002728 -0.002821 0.000000 0.000000 0.000000
# 2 -0.002728 0.018039 0.000143 0.000000 0.000000 0.000000
# 3 -0.002821 0.000143 0.010204 0.000000 0.000000 0.000000
# 4 0.000000 0.000000 0.000000 0.052575 0.000000 0.000000
# 5 0.000000 0.000000 0.000000 0.000000 0.028850 0.000000
# 6 0.000000 0.000000 0.000000 0.000000 0.000000 0.038220
#
#
# Mechanical properties :
#
#
# Convention : Reuss Voigt Hill
#
# Bulk Modulus (GPa) = 36.34514 42.16661 39.25588
# Shear Modulus (GPa) = 28.09702 30.99313 29.54507
#
# Velocity S-wave (km/s) = 3.41159 3.58310 3.49840
# Velocity P-wave (km/s) = 5.52940 5.88093 5.70787
#
# Compressibility (1/GPa) = 0.02751399
#
# Stress axis : x y z
#
# Youngs Moduli (GPa) = 99.18615 55.43402 97.99725
#
# Poissons Ratio (x) = 0.15125 0.27641
# Poissons Ratio (y) = 0.27062 -0.01403
# Poissons Ratio (z) = 0.27977 -0.00793
#
# Static dielectric constant tensor:
#      x y z
#    x 1.936300 0.000000 0.000000 
#    y 0.000000 1.952610 0.000000 
#    z 0.000000 0.000000 1.933260 
# 
# From -- ./inp_files/1255.got.cif
#   From: 2010.05.17/outbox.cif.g08.bks.cpg/sg18_1_cif.got.tgz:1255.got - 2010.06.03 22:40:56.
