data_PCOD9312674
_publ_section_title
;
Structure prediction by ZEFSAII (Michael W. Deem and Ramdas Pophale) SiO2 
 PCOD9312674
Probable space group: P 21 21 2
;
_chemical_formula_sum "Si O2"
_cell_formula_units_Z 26
_cell_length_a 5.442606
_cell_length_b 14.636526
_cell_length_c 15.811742
_cell_angle_alpha 90.000000
_cell_angle_beta 90.000000
_cell_angle_gamma 90.000000
_cell_volume 1259.576716
_symmetry_space_group_name_H-M "P 21 21 2"
_symmetry_group_IT_number 18
_symmetry_cell_setting 'orthorhombic'
loop_
_space_group_symop_operation_xyz
x,y,z
-x,-y,z
1/2+x,1/2-y,-z
1/2-x,1/2+y,-z
loop_
_atom_site_type_symbol
_atom_site_label
_atom_site_fract_x
_atom_site_fract_y
_atom_site_fract_z
Si Si1 0.359520 0.360144 0.081909
Si Si2 0.235963 0.666153 0.202028
Si Si3 0.837702 0.333759 0.574875
Si Si4 0.500000 0.500000 0.794065
Si Si5 0.334741 0.220359 0.606591
Si Si6 0.000000 0.500000 0.690939
Si Si7 0.027777 0.183804 0.102542
Si Si8 0.000000 0.500000 0.112300
O O1 0.508778 0.374141 0.168227
O O2 0.225261 0.264578 0.101205
O O3 0.212979 0.452997 0.058906
O O4 0.502662 0.340288 0.995713
O O5 0.186628 0.680733 0.299841
O O6 0.192969 0.760676 0.149889
O O7 0.059784 0.586870 0.168872
O O8 0.578814 0.284681 0.599280
O O9 0.843942 0.348240 0.473439
O O10 0.890097 0.421393 0.631094
O O11 0.076412 0.271798 0.592890
O O12 0.753658 0.526187 0.744127
O O13 0.571594 0.409382 0.846977
#
# Coordination Sequence:
#
# PCOD9312674 Si02
#       8
#     4   4   4   2   4   2   4   2
#     4  11  24  44  65  95 131 182 226 287 343 405
#     4  11  23  43  67  94 131 179 225 283 331 417
#     4  10  22  43  67 100 135 174 218 286 343 420
#     4  12  30  40  72 106 138 184 230 290 340 420
#     4  10  23  41  71  98 131 178 227 273 350 406
#     4  12  24  44  66 102 140 174 224 282 352 406
#     4  11  25  42  65  97 133 179 231 279 344 406
#     4  10  26  40  66  96 130 172 230 288 338 392
#
# _framework density 20.641856000000001
#
# number of rings (size 3 to 8) (size 9 to 14) (size 15 to 20)
#    0.000    1.231    1.538    3.231   10.769    1.231 
#    0.000    0.000    6.769    0.000    0.000    0.000 
#    0.000    0.000    0.000    0.000    0.000    0.000 
#
# Total GULP energy -144791.758210 kJ/mol
# GULP energy per Si atom -5568.913777 kJ/mol
# Density = 2.059487 g / cm^3
# Si number density = 20.641856 Si / 1000 Ang^3
#
#
#
# Elastic Constant Matrix: (Units=GPa)
#
#
# Indices 1 2 3 4 5 6 
#
# 1 95.1358 12.6584 38.0535 0.0000 0.0000 0.0000
# 2 12.6584 92.0814 51.7891 0.0000 0.0000 0.0000
# 3 38.0535 51.7891 93.9994 0.0000 0.0000 0.0000
# 4 0.0000 0.0000 0.0000 24.4048 0.0000 0.0000
# 5 0.0000 0.0000 0.0000 0.0000 -18.7762 0.0000
# 6 0.0000 0.0000 0.0000 0.0000 0.0000 26.8350
#
#
#
# Elastic Compliance Matrix: (Units=1/GPa)
#
#
# Indices 1 2 3 4 5 6 
#
# 1 0.012715 0.001662 -0.006063 0.000000 0.000000 0.000000
# 2 0.001662 0.015953 -0.009462 0.000000 0.000000 0.000000
# 3 -0.006063 -0.009462 0.018306 0.000000 0.000000 0.000000
# 4 0.000000 0.000000 0.000000 0.040976 0.000000 0.000000
# 5 0.000000 0.000000 0.000000 0.000000 -0.053259 0.000000
# 6 0.000000 0.000000 0.000000 0.000000 0.000000 0.037265
#
#
# Mechanical properties :
#
#
# Convention : Reuss Voigt Hill
#
# Bulk Modulus (GPa) = 51.95357 54.02430 52.98893
# Shear Modulus (GPa) = 47.12548 18.40709 32.76629
#
# Velocity S-wave (km/s) = 4.78326 2.98944 3.98851
# Velocity P-wave (km/s) = 7.46524 6.17614 6.85108
#
# Compressibility (1/GPa) = 0.01924796
#
# Stress axis : x y z
#
# Youngs Moduli (GPa) = 78.64474 62.68251 54.62588
#
# Poissons Ratio (x) = -0.10419 0.33122
# Poissons Ratio (y) = -0.13072 0.51690
# Poissons Ratio (z) = 0.47685 0.59313
#
# Static dielectric constant tensor:
#      x y z
#    x 1.966320 0.000000 0.000000 
#    y 0.000000 1.684750 0.000000 
#    z 0.000000 0.000000 1.730840 
# 
# From -- ./inp_files/6512.got.cif
#   From: 2010.05.17/outbox.cif.g08.bks.cpg/sg18_4_cif.got.tgz:6512.got - 2010.06.03 22:40:56.
