data_PCOD9312555
_publ_section_title
;
Structure prediction by ZEFSAII (Michael W. Deem and Ramdas Pophale) SiO2 
 PCOD9312555
Probable space group: P 21 21 2
;
_chemical_formula_sum "Si O2"
_cell_formula_units_Z 20
_cell_length_a 22.036589
_cell_length_b 6.043632
_cell_length_c 6.588434
_cell_angle_alpha 90.000000
_cell_angle_beta 90.000000
_cell_angle_gamma 90.000000
_cell_volume 877.454456
_symmetry_space_group_name_H-M "P 21 21 2"
_symmetry_group_IT_number 18
_symmetry_cell_setting 'orthorhombic'
loop_
_space_group_symop_operation_xyz
x,y,z
-x,-y,z
1/2+x,1/2-y,-z
1/2-x,1/2+y,-z
loop_
_atom_site_type_symbol
_atom_site_label
_atom_site_fract_x
_atom_site_fract_y
_atom_site_fract_z
Si Si1 0.028475 0.750329 0.774567
Si Si2 0.286664 0.235771 0.271199
Si Si3 0.363805 0.246252 0.903613
Si Si4 0.660845 0.110530 0.559392
Si Si5 0.611182 0.525691 0.523786
O O1 0.058849 0.816972 0.558846
O O2 0.000000 0.500000 0.767799
O O3 0.082887 0.719014 0.935965
O O4 0.000000 0.000000 0.829520
O O5 0.218038 0.268423 0.336292
O O6 0.328846 0.409381 0.394928
O O7 0.311609 0.006820 0.361594
O O8 0.302422 0.259268 0.035048
O O9 0.378180 0.454578 0.762766
O O10 0.359453 0.059849 0.731646
O O11 0.605700 0.265313 0.488518
#
# Coordination Sequence:
#
# PCOD9312555 Si02
#       5
#     4   4   4   4   4
#     4  11  28  50  77  99 139 187 243 312 372 413
#     4  10  22  40  61 101 145 189 225 273 357 421
#     4  10  26  41  68 104 136 182 244 292 352 431
#     4  11  22  39  68  99 149 185 231 283 353 434
#     4  10  24  44  68  98 135 184 236 292 346 437
#
# _framework density 22.793203999999999
#
# number of rings (size 3 to 8) (size 9 to 14) (size 15 to 20)
#    0.000    1.600    2.000    0.000   14.000    3.200 
#    0.000    0.000    0.000    0.000    0.000    0.000 
#    0.000    0.000    0.000    0.000    0.000    0.000 
#
# Total GULP energy -111430.025809 kJ/mol
# GULP energy per Si atom -5571.501290 kJ/mol
# Density = 2.274133 g / cm^3
# Si number density = 22.793204 Si / 1000 Ang^3
#
#
#
# Elastic Constant Matrix: (Units=GPa)
#
#
# Indices 1 2 3 4 5 6 
#
# 1 53.1858 28.6795 5.4350 0.0000 0.0000 0.0000
# 2 28.6795 71.8825 -7.9787 0.0000 0.0000 0.0000
# 3 5.4350 -7.9787 77.0464 0.0000 0.0000 0.0000
# 4 0.0000 0.0000 0.0000 11.2564 0.0000 0.0000
# 5 0.0000 0.0000 0.0000 0.0000 26.7063 0.0000
# 6 0.0000 0.0000 0.0000 0.0000 0.0000 46.0963
#
#
#
# Elastic Compliance Matrix: (Units=1/GPa)
#
#
# Indices 1 2 3 4 5 6 
#
# 1 0.024529 -0.010095 -0.002776 0.000000 0.000000 0.000000
# 2 -0.010095 0.018228 0.002600 0.000000 0.000000 0.000000
# 3 -0.002776 0.002600 0.013444 0.000000 0.000000 0.000000
# 4 0.000000 0.000000 0.000000 0.088838 0.000000 0.000000
# 5 0.000000 0.000000 0.000000 0.000000 0.037444 0.000000
# 6 0.000000 0.000000 0.000000 0.000000 0.000000 0.021694
#
#
# Mechanical properties :
#
#
# Convention : Reuss Voigt Hill
#
# Bulk Modulus (GPa) = 28.04288 28.26514 28.15401
# Shear Modulus (GPa) = 21.13225 28.54372 24.83799
#
# Velocity S-wave (km/s) = 3.04818 3.54261 3.30466
# Velocity P-wave (km/s) = 4.97177 5.40010 5.19035
#
# Compressibility (1/GPa) = 0.03565967
#
# Stress axis : x y z
#
# Youngs Moduli (GPa) = 40.76803 54.86157 74.38146
#
# Poissons Ratio (x) = 0.55381 0.20646
# Poissons Ratio (y) = 0.41154 -0.19337
# Poissons Ratio (z) = 0.11316 -0.14262
#
# Static dielectric constant tensor:
#      x y z
#    x 1.866650 0.000000 0.000000 
#    y 0.000000 1.993600 0.000000 
#    z 0.000000 0.000000 1.812880 
# 
# From -- ./inp_files/243.got.cif
#   From: 2010.05.17/outbox.cif.g08.bks.cpg/sg18_1_cif.got.tgz:243.got - 2010.06.03 22:40:56.
