data_PCOD9312517
_publ_section_title
;
Structure prediction by ZEFSAII (Michael W. Deem and Ramdas Pophale) SiO2 
 PCOD9312517
Probable space group: P 21 21 2
;
_chemical_formula_sum "Si O2"
_cell_formula_units_Z 30
_cell_length_a 5.167043
_cell_length_b 20.923687
_cell_length_c 13.644741
_cell_angle_alpha 90.000000
_cell_angle_beta 90.000000
_cell_angle_gamma 90.000000
_cell_volume 1475.181940
_symmetry_space_group_name_H-M "P 21 21 2"
_symmetry_group_IT_number 18
_symmetry_cell_setting 'orthorhombic'
loop_
_space_group_symop_operation_xyz
x,y,z
-x,-y,z
1/2+x,1/2-y,-z
1/2-x,1/2+y,-z
loop_
_atom_site_type_symbol
_atom_site_label
_atom_site_fract_x
_atom_site_fract_y
_atom_site_fract_z
Si Si1 0.546824 0.318233 0.577689
Si Si2 0.106953 0.132104 0.206373
Si Si3 0.888124 0.570732 0.874728
Si Si4 0.000000 0.000000 0.848830
Si Si5 0.451323 0.831093 0.552810
Si Si6 0.615128 0.072199 0.730735
Si Si7 0.452820 0.712045 0.975898
Si Si8 0.636049 0.901165 0.928495
O O1 0.573538 0.353412 0.680442
O O2 0.561350 0.241497 0.593986
O O3 0.275595 0.334350 0.527168
O O4 0.775130 0.337102 0.502552
O O5 0.402187 0.113491 0.183560
O O6 0.039248 0.192377 0.137638
O O7 0.898422 0.080293 0.167072
O O8 0.000000 0.500000 0.866313
O O9 0.920007 0.592745 0.987484
O O10 0.893546 0.055261 0.777311
O O11 0.215560 0.031409 0.916928
O O12 0.404183 0.884444 0.635353
O O13 0.474469 0.108483 0.820302
O O14 0.500000 0.000000 0.715709
O O15 0.733597 0.734236 0.009952
O O16 0.337233 0.652067 0.035835
#
# Coordination Sequence:
#
# PCOD9312517 Si02
#       8
#     4   4   4   2   4   4   4   4
#     4  10  23  45  66  94 120 171 217 263 321 390
#     4  11  24  42  64  91 132 164 217 271 310 383
#     4  11  23  40  65  91 127 175 214 259 315 385
#     4  10  22  38  66  94 132 176 218 262 336 394
#     4  10  23  43  71  91 124 166 218 264 330 388
#     4  10  23  41  63 102 127 167 213 273 337 385
#     4  11  25  40  60  98 134 173 211 259 321 379
#     4  10  24  38  63  92 137 169 220 257 322 392
#
# _framework density 20.336476000000001
#
# number of rings (size 3 to 8) (size 9 to 14) (size 15 to 20)
#    0.000    1.600    0.000    4.000   14.933    0.000 
#    2.400    4.000    0.000    0.000    0.000    0.000 
#    0.000    0.000    0.000    0.000    0.000    0.000 
#
# Total GULP energy -167648.026622 kJ/mol
# GULP energy per Si atom -5588.267554 kJ/mol
# Density = 2.029019 g / cm^3
# Si number density = 20.336476 Si / 1000 Ang^3
#
#
#
# Elastic Constant Matrix: (Units=GPa)
#
#
# Indices 1 2 3 4 5 6 
#
# 1 51.6368 -7.4510 -12.1662 0.0000 0.0000 0.0000
# 2 -7.4510 54.1965 35.6314 0.0000 0.0000 0.0000
# 3 -12.1662 35.6314 91.6537 0.0000 0.0000 0.0000
# 4 0.0000 0.0000 0.0000 23.2181 0.0000 0.0000
# 5 0.0000 0.0000 0.0000 0.0000 16.6517 0.0000
# 6 0.0000 0.0000 0.0000 0.0000 0.0000 34.8560
#
#
#
# Elastic Compliance Matrix: (Units=1/GPa)
#
#
# Indices 1 2 3 4 5 6 
#
# 1 0.020065 0.001353 0.002137 0.000000 0.000000 0.000000
# 2 0.001353 0.024878 -0.009492 0.000000 0.000000 0.000000
# 3 0.002137 -0.009492 0.014884 0.000000 0.000000 0.000000
# 4 0.000000 0.000000 0.000000 0.043070 0.000000 0.000000
# 5 0.000000 0.000000 0.000000 0.000000 0.060054 0.000000
# 6 0.000000 0.000000 0.000000 0.000000 0.000000 0.028689
#
#
# Mechanical properties :
#
#
# Convention : Reuss Voigt Hill
#
# Bulk Modulus (GPa) = 20.90967 25.50171 23.20569
# Shear Modulus (GPa) = 22.77030 27.04336 24.90683
#
# Velocity S-wave (km/s) = 3.34979 3.65059 3.50342
# Velocity P-wave (km/s) = 5.02649 5.50783 5.27266
#
# Compressibility (1/GPa) = 0.04782476
#
# Stress axis : x y z
#
# Youngs Moduli (GPa) = 49.83826 40.19637 67.18435
#
# Poissons Ratio (x) = -0.05440 -0.14359
# Poissons Ratio (y) = -0.06745 0.63771
# Poissons Ratio (z) = -0.10652 0.38154
#
# Static dielectric constant tensor:
#      x y z
#    x 1.754830 0.000000 0.000000 
#    y 0.000000 1.755740 0.000000 
#    z 0.000000 0.000000 1.676500 
# 
# From -- ./inp_files/5228.got.cif
#   From: 2010.05.17/outbox.cif.g08.bks.cpg/sg18_3_cif.got.tgz:5228.got - 2010.06.03 22:40:56.
