data_PCOD9312428
_publ_section_title
;
Structure prediction by ZEFSAII (Michael W. Deem and Ramdas Pophale) SiO2 
 PCOD9312428
Probable space group: P 21 21 2
;
_chemical_formula_sum "Si O2"
_cell_formula_units_Z 20
_cell_length_a 9.805778
_cell_length_b 13.671510
_cell_length_c 5.309700
_cell_angle_alpha 90.000000
_cell_angle_beta 90.000000
_cell_angle_gamma 90.000000
_cell_volume 711.817278
_symmetry_space_group_name_H-M "P 21 21 2"
_symmetry_group_IT_number 18
_symmetry_cell_setting 'orthorhombic'
loop_
_space_group_symop_operation_xyz
x,y,z
-x,-y,z
1/2+x,1/2-y,-z
1/2-x,1/2+y,-z
loop_
_atom_site_type_symbol
_atom_site_label
_atom_site_fract_x
_atom_site_fract_y
_atom_site_fract_z
Si Si1 0.797943 0.184115 0.461344
Si Si2 0.987822 0.693021 0.288389
Si Si3 0.500000 0.500000 0.266719
Si Si4 0.710167 0.509318 0.847525
Si Si5 0.370433 0.678702 0.105172
Si Si6 0.500000 0.000000 0.961347
O O1 0.925767 0.254736 0.505635
O O2 0.670373 0.178566 0.644168
O O3 0.841783 0.072171 0.391181
O O4 0.731202 0.242261 0.223010
O O5 0.046541 0.588262 0.216077
O O6 0.984435 0.761894 0.045387
O O7 0.614636 0.547330 0.073341
O O8 0.415090 0.600123 0.320719
O O9 0.691417 0.393483 0.887023
O O10 0.869947 0.530877 0.875712
#
# Coordination Sequence:
#
# PCOD9312428 Si02
#       6
#     4   4   2   4   4   2
#     4  12  25  43  70 101 137 182 223 286 341 404
#     4  12  26  44  66 106 137 176 228 278 345 411
#     4   8  18  40  70  86 124 174 228 264 320 410
#     4  10  21  42  70  93 130 179 226 276 332 398
#     4  10  21  45  71  88 134 183 231 268 333 407
#     4  12  24  40  66 100 136 164 226 288 334 390
#
# _framework density 28.097099
#
# number of rings (size 3 to 8) (size 9 to 14) (size 15 to 20)
#    1.200    0.000    6.000    0.000    0.000    7.200 
#    0.000    1.000    0.000    0.000    0.000    0.000 
#    0.000    0.000    0.000    0.000    0.000    0.000 
#
# Total GULP energy -111711.157430 kJ/mol
# GULP energy per Si atom -5585.557871 kJ/mol
# Density = 2.803315 g / cm^3
# Si number density = 28.097099 Si / 1000 Ang^3
#
#
#
# Elastic Constant Matrix: (Units=GPa)
#
#
# Indices 1 2 3 4 5 6 
#
# 1 85.5638 -11.5326 -13.4399 0.0000 0.0000 0.0000
# 2 -11.5326 172.1415 8.7369 0.0000 0.0000 0.0000
# 3 -13.4399 8.7369 69.7801 0.0000 0.0000 0.0000
# 4 0.0000 0.0000 0.0000 45.6169 0.0000 0.0000
# 5 0.0000 0.0000 0.0000 0.0000 33.6015 0.0000
# 6 0.0000 0.0000 0.0000 0.0000 0.0000 40.8617
#
#
#
# Elastic Compliance Matrix: (Units=1/GPa)
#
#
# Indices 1 2 3 4 5 6 
#
# 1 0.012135 0.000699 0.002250 0.000000 0.000000 0.000000
# 2 0.000699 0.005887 -0.000602 0.000000 0.000000 0.000000
# 3 0.002250 -0.000602 0.014839 0.000000 0.000000 0.000000
# 4 0.000000 0.000000 0.000000 0.021922 0.000000 0.000000
# 5 0.000000 0.000000 0.000000 0.000000 0.029761 0.000000
# 6 0.000000 0.000000 0.000000 0.000000 0.000000 0.024473
#
#
# Mechanical properties :
#
#
# Convention : Reuss Voigt Hill
#
# Bulk Modulus (GPa) = 26.62915 32.77936 29.70425
# Shear Modulus (GPa) = 42.79307 46.93076 44.86192
#
# Velocity S-wave (km/s) = 3.90685 4.09137 4.00018
# Velocity P-wave (km/s) = 5.46346 5.83188 5.65068
#
# Compressibility (1/GPa) = 0.03755284
#
# Stress axis : x y z
#
# Youngs Moduli (GPa) = 82.40803 169.87829 67.38789
#
# Poissons Ratio (x) = -0.11871 -0.15160
# Poissons Ratio (y) = -0.05759 0.04060
# Poissons Ratio (z) = -0.18539 0.10234
#
# Static dielectric constant tensor:
#      x y z
#    x 2.226980 0.000000 0.000000 
#    y 0.000000 2.160110 0.000000 
#    z 0.000000 0.000000 2.247800 
# 
# From -- ./inp_files/1003.got.cif
#   From: 2010.05.17/outbox.cif.g08.bks.cpg/sg18_1_cif.got.tgz:1003.got - 2010.06.03 22:40:56.
