data_PCOD9312594
_publ_section_title
;
Structure prediction by ZEFSAII (Michael W. Deem and Ramdas Pophale) SiO2 
 PCOD9312594
Probable space group: P 21 21 2
;
_chemical_formula_sum "Si O2"
_cell_formula_units_Z 32
_cell_length_a 14.545597
_cell_length_b 10.634501
_cell_length_c 8.294639
_cell_angle_alpha 90.000000
_cell_angle_beta 90.000000
_cell_angle_gamma 90.000000
_cell_volume 1283.057609
_symmetry_space_group_name_H-M "P 21 21 2"
_symmetry_group_IT_number 18
_symmetry_cell_setting 'orthorhombic'
loop_
_space_group_symop_operation_xyz
x,y,z
-x,-y,z
1/2+x,1/2-y,-z
1/2-x,1/2+y,-z
loop_
_atom_site_type_symbol
_atom_site_label
_atom_site_fract_x
_atom_site_fract_y
_atom_site_fract_z
Si Si1 0.913672 0.096857 0.891160
Si Si2 0.295302 0.766155 0.134608
Si Si3 0.063365 0.822755 0.533092
Si Si4 0.617087 0.415781 0.622963
Si Si5 0.949994 0.796599 0.084825
Si Si6 0.771431 0.469347 0.996682
Si Si7 0.710094 0.872228 0.557098
Si Si8 0.598638 0.048926 0.733116
O O1 0.918349 0.166782 0.722053
O O2 0.817856 0.024875 0.908068
O O3 0.000000 0.000000 0.886210
O O4 0.943813 0.183969 0.041968
O O5 0.246634 0.681270 0.990359
O O6 0.262248 0.698674 0.296351
O O7 0.400151 0.739169 0.082152
O O8 0.280784 0.916850 0.133307
O O9 0.116475 0.702205 0.471153
O O10 0.956861 0.836335 0.482934
O O11 0.107347 0.944652 0.447184
O O12 0.588155 0.413307 0.810061
O O13 0.719967 0.371408 0.590483
O O14 0.919494 0.688508 0.207431
O O15 0.862730 0.481835 0.105427
O O16 0.677292 0.012597 0.605964
O O17 0.500000 0.000000 0.681334
#
# Coordination Sequence:
#
# PCOD9312594 Si02
#       8
#     4   4   4   4   4   4   4   4
#     4  12  23  43  72 102 148 187 243 317 372 437
#     4  10  22  41  63 101 138 190 239 299 366 437
#     4  11  25  44  70 107 141 199 248 309 377 454
#     4  11  25  42  68 108 144 183 256 307 370 458
#     4  11  25  41  75 105 143 189 251 313 365 453
#     4  10  23  37  69  99 142 186 248 299 372 434
#     4  11  25  44  74  99 151 197 237 308 387 445
#     4  10  23  45  67 102 143 195 240 304 377 445
#
# _framework density 24.940422999999999
#
# number of rings (size 3 to 8) (size 9 to 14) (size 15 to 20)
#    0.000    1.250    2.500    3.000   14.000    0.000 
#    0.000    0.000    0.000    0.000    0.000    0.000 
#    0.000    0.000    0.000    0.000    0.000    0.000 
#
# Total GULP energy -178728.938112 kJ/mol
# GULP energy per Si atom -5585.279316 kJ/mol
# Density = 2.488366 g / cm^3
# Si number density = 24.940423 Si / 1000 Ang^3
#
#
#
# Elastic Constant Matrix: (Units=GPa)
#
#
# Indices 1 2 3 4 5 6 
#
# 1 109.4244 19.6786 20.4363 0.0000 0.0000 0.0000
# 2 19.6786 85.8988 11.0802 0.0000 0.0000 0.0000
# 3 20.4363 11.0802 93.9802 0.0000 0.0000 0.0000
# 4 0.0000 0.0000 0.0000 25.7087 0.0000 0.0000
# 5 0.0000 0.0000 0.0000 0.0000 33.0968 0.0000
# 6 0.0000 0.0000 0.0000 0.0000 0.0000 28.2443
#
#
#
# Elastic Compliance Matrix: (Units=1/GPa)
#
#
# Indices 1 2 3 4 5 6 
#
# 1 0.009857 -0.002012 -0.001906 0.000000 0.000000 0.000000
# 2 -0.002012 0.012232 -0.001005 0.000000 0.000000 0.000000
# 3 -0.001906 -0.001005 0.011173 0.000000 0.000000 0.000000
# 4 0.000000 0.000000 0.000000 0.038897 0.000000 0.000000
# 5 0.000000 0.000000 0.000000 0.000000 0.030214 0.000000
# 6 0.000000 0.000000 0.000000 0.000000 0.000000 0.035405
#
#
# Mechanical properties :
#
#
# Convention : Reuss Voigt Hill
#
# Bulk Modulus (GPa) = 42.70510 43.52153 43.11331
# Shear Modulus (GPa) = 32.16869 33.28384 32.72627
#
# Velocity S-wave (km/s) = 3.59530 3.65709 3.62633
# Velocity P-wave (km/s) = 5.86472 5.94310 5.90404
#
# Compressibility (1/GPa) = 0.02341641
#
# Stress axis : x y z
#
# Youngs Moduli (GPa) = 101.45499 81.75170 89.49768
#
# Poissons Ratio (x) = 0.16450 0.17059
# Poissons Ratio (y) = 0.20415 0.08991
# Poissons Ratio (z) = 0.19339 0.08213
#
# Static dielectric constant tensor:
#      x y z
#    x 1.957680 0.000000 0.000000 
#    y 0.000000 2.069150 0.000000 
#    z 0.000000 0.000000 1.974160 
# 
# From -- ./inp_files/4318.got.cif
#   From: 2010.05.17/outbox.cif.g08.bks.cpg/sg18_3_cif.got.tgz:4318.got - 2010.06.03 22:40:56.
