data_PCOD9312665
_publ_section_title
;
Structure prediction by ZEFSAII (Michael W. Deem and Ramdas Pophale) SiO2 
 PCOD9312665
Probable space group: P 21 21 2
;
_chemical_formula_sum "Si O2"
_cell_formula_units_Z 24
_cell_length_a 9.272186
_cell_length_b 21.725928
_cell_length_c 5.531512
_cell_angle_alpha 90.000000
_cell_angle_beta 90.000000
_cell_angle_gamma 90.000000
_cell_volume 1114.305643
_symmetry_space_group_name_H-M "P 21 21 2"
_symmetry_group_IT_number 18
_symmetry_cell_setting 'orthorhombic'
loop_
_space_group_symop_operation_xyz
x,y,z
-x,-y,z
1/2+x,1/2-y,-z
1/2-x,1/2+y,-z
loop_
_atom_site_type_symbol
_atom_site_label
_atom_site_fract_x
_atom_site_fract_y
_atom_site_fract_z
Si Si1 0.578781 0.435757 0.903079
Si Si2 0.584939 0.936468 0.132669
Si Si3 0.859829 0.343141 0.495116
Si Si4 0.936564 0.683901 0.106133
Si Si5 0.865431 0.231340 0.815687
Si Si6 0.444601 0.634008 0.386587
O O1 0.500000 0.500000 0.862287
O O2 0.750061 0.444383 0.951326
O O3 0.560118 0.397663 0.651082
O O4 0.516005 0.406225 0.149835
O O5 0.606726 0.910672 0.404344
O O6 0.500000 0.000000 0.115491
O O7 0.498775 0.879729 0.006954
O O8 0.811609 0.295187 0.700149
O O9 0.719463 0.344391 0.328666
O O10 0.007363 0.319684 0.379789
O O11 0.767675 0.693733 0.078210
O O12 0.014974 0.743879 0.998676
O O13 0.943853 0.189737 0.617100
#
# Coordination Sequence:
#
# PCOD9312665 Si02
#       6
#     4   4   4   4   4   4
#     4  11  25  46  70  97 140 181 237 288 348 413
#     4  10  24  43  64  98 135 183 230 290 342 419
#     4  10  22  43  64  97 137 176 233 287 351 405
#     4  11  23  43  66 100 135 181 229 290 348 417
#     4  11  25  38  70  99 139 181 229 288 353 422
#     4  11  24  45  68 101 136 184 228 289 349 412
#
# _framework density 21.538076
#
# number of rings (size 3 to 8) (size 9 to 14) (size 15 to 20)
#    0.000    1.333    1.667    2.500    9.333    3.333 
#    0.000    0.000    0.000    0.000    0.000    0.000 
#    0.000    0.000    0.000    0.000    0.000    0.000 
#
# Total GULP energy -133879.335351 kJ/mol
# GULP energy per Si atom -5578.305640 kJ/mol
# Density = 2.148905 g / cm^3
# Si number density = 21.538076 Si / 1000 Ang^3
#
#
#
# Elastic Constant Matrix: (Units=GPa)
#
#
# Indices 1 2 3 4 5 6 
#
# 1 114.5840 63.6955 17.6587 0.0000 0.0000 0.0000
# 2 63.6955 118.1584 26.0454 0.0000 0.0000 0.0000
# 3 17.6587 26.0454 57.8237 0.0000 0.0000 0.0000
# 4 0.0000 0.0000 0.0000 27.0516 0.0000 0.0000
# 5 0.0000 0.0000 0.0000 0.0000 24.7827 0.0000
# 6 0.0000 0.0000 0.0000 0.0000 0.0000 41.7195
#
#
#
# Elastic Compliance Matrix: (Units=1/GPa)
#
#
# Indices 1 2 3 4 5 6 
#
# 1 0.012501 -0.006547 -0.000868 0.000000 0.000000 0.000000
# 2 -0.006547 0.012825 -0.003777 0.000000 0.000000 0.000000
# 3 -0.000868 -0.003777 0.019261 0.000000 0.000000 0.000000
# 4 0.000000 0.000000 0.000000 0.036966 0.000000 0.000000
# 5 0.000000 0.000000 0.000000 0.000000 0.040351 0.000000
# 6 0.000000 0.000000 0.000000 0.000000 0.000000 0.023970
#
#
# Mechanical properties :
#
#
# Convention : Reuss Voigt Hill
#
# Bulk Modulus (GPa) = 45.04461 56.15173 50.59817
# Shear Modulus (GPa) = 28.46418 30.92187 29.69302
#
# Velocity S-wave (km/s) = 3.63929 3.79315 3.71702
# Velocity P-wave (km/s) = 6.21439 6.73138 6.47804
#
# Compressibility (1/GPa) = 0.02220021
#
# Stress axis : x y z
#
# Youngs Moduli (GPa) = 79.99632 77.97104 51.91943
#
# Poissons Ratio (x) = 0.51049 0.04509
# Poissons Ratio (y) = 0.52375 0.19612
# Poissons Ratio (z) = 0.06947 0.29453
#
# Static dielectric constant tensor:
#      x y z
#    x 1.762310 0.000000 0.000000 
#    y 0.000000 1.768440 0.000000 
#    z 0.000000 0.000000 1.875500 
# 
# From -- ./inp_files/615.got.cif
#   From: 2010.05.17/outbox.cif.g08.bks.cpg/sg18_1_cif.got.tgz:615.got - 2010.06.03 22:40:56.
