data_PCOD9312492
_publ_section_title
;
Structure prediction by ZEFSAII (Michael W. Deem and Ramdas Pophale) SiO2 
 PCOD9312492
Probable space group: P 21 21 2
;
_chemical_formula_sum "Si O2"
_cell_formula_units_Z 20
_cell_length_a 15.383550
_cell_length_b 5.778476
_cell_length_c 10.127824
_cell_angle_alpha 90.000000
_cell_angle_beta 90.000000
_cell_angle_gamma 90.000000
_cell_volume 900.297464
_symmetry_space_group_name_H-M "P 21 21 2"
_symmetry_group_IT_number 18
_symmetry_cell_setting 'orthorhombic'
loop_
_space_group_symop_operation_xyz
x,y,z
-x,-y,z
1/2+x,1/2-y,-z
1/2-x,1/2+y,-z
loop_
_atom_site_type_symbol
_atom_site_label
_atom_site_fract_x
_atom_site_fract_y
_atom_site_fract_z
Si Si1 0.721955 0.866089 0.791032
Si Si2 0.000000 0.000000 0.850021
Si Si3 0.326277 0.265478 0.083908
Si Si4 0.473372 0.244253 0.752679
Si Si5 0.000000 0.500000 0.496002
Si Si6 0.613399 0.117652 0.278990
O O1 0.629053 0.796363 0.736437
O O2 0.798327 0.759103 0.704548
O O3 0.753215 0.128079 0.818901
O O4 0.716024 0.772065 0.942133
O O5 0.035445 0.209104 0.760224
O O6 0.912130 0.072065 0.927018
O O7 0.365579 0.041675 0.153720
O O8 0.500000 0.500000 0.801213
O O9 0.500000 0.000000 0.827546
O O10 0.513405 0.209688 0.606644
O O11 0.082775 0.514923 0.591266
#
# Coordination Sequence:
#
# PCOD9312492 Si02
#       6
#     4   2   4   4   2   4
#     4  11  25  42  67 103 137 179 227 286 359 419
#     4  10  22  36  66 102 124 186 216 290 344 428
#     4  11  22  40  67 100 139 174 223 286 352 432
#     4  10  27  48  70  97 140 188 237 290 340 415
#     4  10  24  48  66  98 134 184 240 278 334 414
#     4  11  22  42  69  96 137 176 234 280 351 416
#
# _framework density 22.214880000000001
#
# number of rings (size 3 to 8) (size 9 to 14) (size 15 to 20)
#    0.600    0.800    4.000    0.000    5.600    1.600 
#    7.200    0.000    0.000    0.000    0.000    0.000 
#    0.000    0.000    0.000    0.000    0.000    0.000 
#
# Total GULP energy -111405.023616 kJ/mol
# GULP energy per Si atom -5570.251181 kJ/mol
# Density = 2.216432 g / cm^3
# Si number density = 22.214880 Si / 1000 Ang^3
#
#
#
# Elastic Constant Matrix: (Units=GPa)
#
#
# Indices 1 2 3 4 5 6 
#
# 1 108.0839 27.6045 -1.0116 0.0000 0.0000 0.0000
# 2 27.6045 104.4755 11.3436 0.0000 0.0000 0.0000
# 3 -1.0116 11.3436 43.5099 0.0000 0.0000 0.0000
# 4 0.0000 0.0000 0.0000 3.5412 0.0000 0.0000
# 5 0.0000 0.0000 0.0000 0.0000 21.2729 0.0000
# 6 0.0000 0.0000 0.0000 0.0000 0.0000 39.5158
#
#
#
# Elastic Compliance Matrix: (Units=1/GPa)
#
#
# Indices 1 2 3 4 5 6 
#
# 1 0.009959 -0.002734 0.000944 0.000000 0.000000 0.000000
# 2 -0.002734 0.010601 -0.002827 0.000000 0.000000 0.000000
# 3 0.000944 -0.002827 0.023742 0.000000 0.000000 0.000000
# 4 0.000000 0.000000 0.000000 0.282394 0.000000 0.000000
# 5 0.000000 0.000000 0.000000 0.000000 0.047008 0.000000
# 6 0.000000 0.000000 0.000000 0.000000 0.000000 0.025306
#
#
# Mechanical properties :
#
#
# Convention : Reuss Voigt Hill
#
# Bulk Modulus (GPa) = 28.51562 36.88249 32.69905
# Shear Modulus (GPa) = 11.90663 27.40816 19.65739
#
# Velocity S-wave (km/s) = 2.31763 3.51632 2.97791
# Velocity P-wave (km/s) = 4.47504 5.75541 5.15513
#
# Compressibility (1/GPa) = 0.03506850
#
# Stress axis : x y z
#
# Youngs Moduli (GPa) = 100.41010 94.33103 42.11878
#
# Poissons Ratio (x) = 0.25789 -0.03977
# Poissons Ratio (y) = 0.27451 0.11909
# Poissons Ratio (z) = -0.09482 0.26671
#
# Static dielectric constant tensor:
#      x y z
#    x 1.851750 0.000000 0.000000 
#    y 0.000000 1.965340 0.000000 
#    z 0.000000 0.000000 1.795390 
# 
# From -- ./inp_files/6003.got.cif
#   From: 2010.05.17/outbox.cif.g08.bks.cpg/sg18_4_cif.got.tgz:6003.got - 2010.06.03 22:40:56.
