data_PCOD9312155
_publ_section_title
;
Structure prediction by ZEFSAII (Michael W. Deem and Ramdas Pophale) SiO2 
 PCOD9312155
Probable space group: P 21 21 2
;
_chemical_formula_sum "Si O2"
_cell_formula_units_Z 18
_cell_length_a 5.004718
_cell_length_b 13.313575
_cell_length_c 11.324655
_cell_angle_alpha 90.000000
_cell_angle_beta 90.000000
_cell_angle_gamma 90.000000
_cell_volume 754.569559
_symmetry_space_group_name_H-M "P 21 21 2"
_symmetry_group_IT_number 18
_symmetry_cell_setting 'orthorhombic'
loop_
_space_group_symop_operation_xyz
x,y,z
-x,-y,z
1/2+x,1/2-y,-z
1/2-x,1/2+y,-z
loop_
_atom_site_type_symbol
_atom_site_label
_atom_site_fract_x
_atom_site_fract_y
_atom_site_fract_z
Si Si1 0.160405 0.142347 0.896950
Si Si2 0.297955 0.197251 0.647614
Si Si3 0.794597 0.334399 0.620265
Si Si4 0.500000 0.500000 0.770666
Si Si5 0.834400 0.620732 0.960484
O O1 0.239608 0.130030 0.761389
O O2 0.167469 0.262343 0.921708
O O3 0.370101 0.098621 0.991812
O O4 0.864623 0.108724 0.928786
O O5 0.592697 0.243957 0.653452
O O6 0.268541 0.146245 0.519814
O O7 0.088240 0.290814 0.645551
O O8 0.689092 0.428349 0.693143
O O9 0.698090 0.563906 0.852847
#
# Coordination Sequence:
#
# PCOD9312155 Si02
#       5
#     4   4   4   2   4
#     4  10  20  40  59  91 122 178 213 252 304 407
#     4  10  20  42  63  93 125 177 219 255 310 409
#     4  10  23  36  66  96 129 165 214 270 328 373
#     4  12  24  42  62 108 132 162 210 294 330 382
#     4  10  23  34  63  90 131 164 209 262 327 369
#
# _framework density 23.854658000000001
#
# number of rings (size 3 to 8) (size 9 to 14) (size 15 to 20)
#    0.000    1.778    2.222    1.333    6.222    3.556 
#    0.000    1.111    0.000    8.000    0.000    0.000 
#    0.000    0.000    0.000    0.000    0.000    0.000 
#
# Total GULP energy -100854.562995 kJ/mol
# GULP energy per Si atom -5603.031277 kJ/mol
# Density = 2.380036 g / cm^3
# Si number density = 23.854658 Si / 1000 Ang^3
#
#
#
# Elastic Constant Matrix: (Units=GPa)
#
#
# Indices 1 2 3 4 5 6 
#
# 1 89.3935 5.4814 10.2090 0.0000 0.0000 0.0000
# 2 5.4814 63.6355 19.5339 0.0000 0.0000 0.0000
# 3 10.2090 19.5339 127.2711 0.0000 0.0000 0.0000
# 4 0.0000 0.0000 0.0000 42.7380 0.0000 0.0000
# 5 0.0000 0.0000 0.0000 0.0000 30.2935 0.0000
# 6 0.0000 0.0000 0.0000 0.0000 0.0000 29.1272
#
#
#
# Elastic Compliance Matrix: (Units=1/GPa)
#
#
# Indices 1 2 3 4 5 6 
#
# 1 0.011322 -0.000731 -0.000796 0.000000 0.000000 0.000000
# 2 -0.000731 0.016539 -0.002480 0.000000 0.000000 0.000000
# 3 -0.000796 -0.002480 0.008302 0.000000 0.000000 0.000000
# 4 0.000000 0.000000 0.000000 0.023398 0.000000 0.000000
# 5 0.000000 0.000000 0.000000 0.000000 0.033010 0.000000
# 6 0.000000 0.000000 0.000000 0.000000 0.000000 0.034332
#
#
# Mechanical properties :
#
#
# Convention : Reuss Voigt Hill
#
# Bulk Modulus (GPa) = 35.52505 38.97209 37.24857
# Shear Modulus (GPa) = 34.65005 36.77013 35.71009
#
# Velocity S-wave (km/s) = 3.81537 3.93036 3.87329
# Velocity P-wave (km/s) = 5.85952 6.08027 5.97092
#
# Compressibility (1/GPa) = 0.02814915
#
# Stress axis : x y z
#
# Youngs Moduli (GPa) = 88.32192 60.46438 120.45724
#
# Poissons Ratio (x) = 0.04419 0.09589
# Poissons Ratio (y) = 0.06456 0.29871
# Poissons Ratio (z) = 0.07031 0.14994
#
# Static dielectric constant tensor:
#      x y z
#    x 1.853400 0.000000 0.000000 
#    y 0.000000 1.939370 0.000000 
#    z 0.000000 0.000000 1.882510 
# 
# From -- ./inp_files/5027.got.cif
#   From: 2010.05.17/outbox.cif.g08.bks.cpg/sg18_3_cif.got.tgz:5027.got - 2010.06.03 22:40:56.
