data_PCOD9312773
_publ_section_title
;
Structure prediction by ZEFSAII (Michael W. Deem and Ramdas Pophale) SiO2 
 PCOD9312773
Probable space group: P 21 21 2
;
_chemical_formula_sum "Si O2"
_cell_formula_units_Z 32
_cell_length_a 16.345999
_cell_length_b 8.732797
_cell_length_c 10.199155
_cell_angle_alpha 90.000000
_cell_angle_beta 90.000000
_cell_angle_gamma 90.000000
_cell_volume 1455.891548
_symmetry_space_group_name_H-M "P 21 21 2"
_symmetry_group_IT_number 18
_symmetry_cell_setting 'orthorhombic'
loop_
_space_group_symop_operation_xyz
x,y,z
-x,-y,z
1/2+x,1/2-y,-z
1/2-x,1/2+y,-z
loop_
_atom_site_type_symbol
_atom_site_label
_atom_site_fract_x
_atom_site_fract_y
_atom_site_fract_z
Si Si1 0.269950 0.755928 0.185513
Si Si2 0.369648 0.714729 0.539983
Si Si3 0.412725 0.544231 0.290558
Si Si4 0.834372 0.264215 0.784113
Si Si5 0.107516 0.634411 0.068655
Si Si6 0.034162 0.166820 0.194387
Si Si7 0.165387 0.317697 0.077613
Si Si8 0.721253 0.015782 0.406187
O O1 0.349319 0.655061 0.216903
O O2 0.195993 0.656131 0.135168
O O3 0.242922 0.855739 0.308380
O O4 0.294470 0.857549 0.061436
O O5 0.425020 0.638333 0.425787
O O6 0.419978 0.722133 0.673962
O O7 0.332493 0.881982 0.505205
O O8 0.292746 0.595620 0.543891
O O9 0.500000 0.500000 0.229629
O O10 0.368805 0.380194 0.295140
O O11 0.741908 0.216418 0.827624
O O12 0.833209 0.408469 0.687447
O O13 0.882972 0.308002 0.917843
O O14 0.099314 0.453385 0.091527
O O15 0.041408 0.733861 0.143987
O O16 0.107579 0.168864 0.087118
O O17 0.000000 0.000000 0.219062
#
# Coordination Sequence:
#
# PCOD9312773 Si02
#       8
#     4   4   4   4   4   4   4   4
#     4  10  23  41  69 104 140 188 243 289 368 432
#     4  11  25  46  73 107 144 190 250 297 368 427
#     4  11  25  44  70 101 140 190 243 306 355 435
#     4  11  23  43  73 107 142 188 249 296 368 438
#     4  11  24  41  69 108 151 188 230 307 374 442
#     4  12  27  43  71 107 150 190 241 307 371 441
#     4  11  23  43  66 104 149 181 239 302 364 443
#     4  11  22  45  75 102 139 193 239 301 344 442
#
# _framework density 21.979659999999999
#
# number of rings (size 3 to 8) (size 9 to 14) (size 15 to 20)
#    0.000    1.000    3.750    2.250    3.500    0.000 
#    0.000    8.750    0.000    0.000    0.000    0.000 
#    0.000    0.000    0.000    0.000    0.000    0.000 
#
# Total GULP energy -178595.285454 kJ/mol
# GULP energy per Si atom -5581.102670 kJ/mol
# Density = 2.192963 g / cm^3
# Si number density = 21.979660 Si / 1000 Ang^3
#
#
#
# Elastic Constant Matrix: (Units=GPa)
#
#
# Indices 1 2 3 4 5 6 
#
# 1 92.8903 29.6415 27.2433 0.0000 0.0000 0.0000
# 2 29.6415 97.9827 34.2155 0.0000 0.0000 0.0000
# 3 27.2433 34.2155 73.1329 0.0000 0.0000 0.0000
# 4 0.0000 0.0000 0.0000 28.0227 0.0000 0.0000
# 5 0.0000 0.0000 0.0000 0.0000 28.5300 0.0000
# 6 0.0000 0.0000 0.0000 0.0000 0.0000 36.2370
#
#
#
# Elastic Compliance Matrix: (Units=1/GPa)
#
#
# Indices 1 2 3 4 5 6 
#
# 1 0.012617 -0.002600 -0.003483 0.000000 0.000000 0.000000
# 2 -0.002600 0.012735 -0.004989 0.000000 0.000000 0.000000
# 3 -0.003483 -0.004989 0.017306 0.000000 0.000000 0.000000
# 4 0.000000 0.000000 0.000000 0.035685 0.000000 0.000000
# 5 0.000000 0.000000 0.000000 0.000000 0.035051 0.000000
# 6 0.000000 0.000000 0.000000 0.000000 0.000000 0.027596
#
#
# Mechanical properties :
#
#
# Convention : Reuss Voigt Hill
#
# Bulk Modulus (GPa) = 48.75426 49.57849 49.16637
# Shear Modulus (GPa) = 29.41647 30.08498 29.75073
#
# Velocity S-wave (km/s) = 3.66232 3.70370 3.68306
# Velocity P-wave (km/s) = 6.33349 6.39494 6.36429
#
# Compressibility (1/GPa) = 0.02051103
#
# Stress axis : x y z
#
# Youngs Moduli (GPa) = 79.25934 78.52482 57.78464
#
# Poissons Ratio (x) = 0.20420 0.20128
# Poissons Ratio (y) = 0.20611 0.28831
# Poissons Ratio (z) = 0.27609 0.39179
#
# Static dielectric constant tensor:
#      x y z
#    x 1.799020 0.000000 0.000000 
#    y 0.000000 1.874750 0.000000 
#    z 0.000000 0.000000 1.845130 
# 
# From -- ./inp_files/6109.got.cif
#   From: 2010.05.17/outbox.cif.g08.bks.cpg/sg18_4_cif.got.tgz:6109.got - 2010.06.03 22:40:56.
