data_PCOD9312667
_publ_section_title
;
Structure prediction by ZEFSAII (Michael W. Deem and Ramdas Pophale) SiO2 
 PCOD9312667
Probable space group: P 21 21 2
;
_chemical_formula_sum "Si O2"
_cell_formula_units_Z 20
_cell_length_a 5.060134
_cell_length_b 18.983423
_cell_length_c 8.770117
_cell_angle_alpha 90.000000
_cell_angle_beta 90.000000
_cell_angle_gamma 90.000000
_cell_volume 842.445724
_symmetry_space_group_name_H-M "P 21 21 2"
_symmetry_group_IT_number 18
_symmetry_cell_setting 'orthorhombic'
loop_
_space_group_symop_operation_xyz
x,y,z
-x,-y,z
1/2+x,1/2-y,-z
1/2-x,1/2+y,-z
loop_
_atom_site_type_symbol
_atom_site_label
_atom_site_fract_x
_atom_site_fract_y
_atom_site_fract_z
Si Si1 0.240305 0.453075 0.323774
Si Si2 0.899093 0.183480 0.853254
Si Si3 0.758178 0.975452 0.154000
Si Si4 0.896828 0.228669 0.199363
Si Si5 0.615155 0.103797 0.350525
O O1 0.500000 0.500000 0.362553
O O2 0.327901 0.391456 0.211750
O O3 0.111053 0.414639 0.473176
O O4 0.000000 0.500000 0.266604
O O5 0.690204 0.240637 0.786271
O O6 0.195452 0.205989 0.812054
O O7 0.876614 0.188560 0.036410
O O8 0.780334 0.039002 0.278483
O O9 0.500000 0.000000 0.065254
O O10 0.000000 0.000000 0.051423
O O11 0.657754 0.906995 0.250076
O O12 0.770694 0.175340 0.320108
#
# Coordination Sequence:
#
# PCOD9312667 Si02
#       5
#     4   4   4   4   4
#     4  12  24  41  62  90 129 157 197 252 310 367
#     4  10  24  43  62  88 121 166 201 253 308 355
#     4   8  17  31  49  84 121 153 187 235 298 347
#     4  10  22  43  65  86 123 158 212 253 295 367
#     4   9  21  33  64  87 120 157 197 248 301 352
#
# _framework density 23.740402
#
# number of rings (size 3 to 8) (size 9 to 14) (size 15 to 20)
#    1.200    0.800    2.000    1.800    2.800    1.600 
#    3.600    2.000    0.000    0.000    0.000    0.000 
#    0.000    0.000    0.000    0.000    0.000    0.000 
#
# Total GULP energy -111434.236382 kJ/mol
# GULP energy per Si atom -5571.711819 kJ/mol
# Density = 2.368637 g / cm^3
# Si number density = 23.740402 Si / 1000 Ang^3
#
#
#
# Elastic Constant Matrix: (Units=GPa)
#
#
# Indices 1 2 3 4 5 6 
#
# 1 121.1655 -7.0030 -1.1758 0.0000 0.0000 0.0000
# 2 -7.0030 64.7703 32.3909 0.0000 0.0000 0.0000
# 3 -1.1758 32.3909 57.6869 0.0000 0.0000 0.0000
# 4 0.0000 0.0000 0.0000 29.2821 0.0000 0.0000
# 5 0.0000 0.0000 0.0000 0.0000 11.1836 0.0000
# 6 0.0000 0.0000 0.0000 0.0000 0.0000 18.2515
#
#
#
# Elastic Compliance Matrix: (Units=1/GPa)
#
#
# Indices 1 2 3 4 5 6 
#
# 1 0.008314 0.001132 -0.000466 0.000000 0.000000 0.000000
# 2 0.001132 0.021621 -0.012117 0.000000 0.000000 0.000000
# 3 -0.000466 -0.012117 0.024129 0.000000 0.000000 0.000000
# 4 0.000000 0.000000 0.000000 0.034151 0.000000 0.000000
# 5 0.000000 0.000000 0.000000 0.000000 0.089417 0.000000
# 6 0.000000 0.000000 0.000000 0.000000 0.000000 0.054790
#
#
# Mechanical properties :
#
#
# Convention : Reuss Voigt Hill
#
# Bulk Modulus (GPa) = 32.09044 32.44967 32.27005
# Shear Modulus (GPa) = 18.81737 26.37080 22.59409
#
# Velocity S-wave (km/s) = 2.81842 3.33648 3.08833
# Velocity P-wave (km/s) = 4.91304 5.34238 5.13220
#
# Compressibility (1/GPa) = 0.03116193
#
# Stress axis : x y z
#
# Youngs Moduli (GPa) = 120.27786 46.25084 41.44359
#
# Poissons Ratio (x) = -0.05236 0.01932
# Poissons Ratio (y) = -0.13616 0.50218
# Poissons Ratio (z) = 0.05607 0.56043
#
# Static dielectric constant tensor:
#      x y z
#    x 0.990750 0.000000 0.000000 
#    y 0.000000 1.894870 0.000000 
#    z 0.000000 0.000000 1.911850 
# 
# From -- ./inp_files/2489.got.cif
#   From: 2010.05.17/outbox.cif.g08.bks.cpg/sg18_2_cif.got.tgz:2489.got - 2010.06.03 22:40:56.
