data_PCOD9312606
_publ_section_title
;
Structure prediction by ZEFSAII (Michael W. Deem and Ramdas Pophale) SiO2 
 PCOD9312606
Probable space group: P 21 21 2
;
_chemical_formula_sum "Si O2"
_cell_formula_units_Z 20
_cell_length_a 12.869512
_cell_length_b 13.662484
_cell_length_c 5.323740
_cell_angle_alpha 90.000000
_cell_angle_beta 90.000000
_cell_angle_gamma 90.000000
_cell_volume 936.070552
_symmetry_space_group_name_H-M "P 21 21 2"
_symmetry_group_IT_number 18
_symmetry_cell_setting 'orthorhombic'
loop_
_space_group_symop_operation_xyz
x,y,z
-x,-y,z
1/2+x,1/2-y,-z
1/2-x,1/2+y,-z
loop_
_atom_site_type_symbol
_atom_site_label
_atom_site_fract_x
_atom_site_fract_y
_atom_site_fract_z
Si Si1 0.101645 0.652847 0.165771
Si Si2 0.480081 0.882066 0.331775
Si Si3 0.277719 0.516804 0.084648
Si Si4 0.758432 0.163152 0.223527
Si Si5 0.379065 0.506710 0.583498
O O1 0.028792 0.655088 0.407950
O O2 0.162284 0.549938 0.151006
O O3 0.194721 0.730664 0.190356
O O4 0.038776 0.663390 0.908543
O O5 0.359613 0.852509 0.308091
O O6 0.500000 0.000000 0.322789
O O7 0.274541 0.401146 0.029110
O O8 0.352705 0.547192 0.310318
O O9 0.317892 0.557671 0.814999
O O10 0.831741 0.102401 0.412646
O O11 0.500000 0.500000 0.637303
#
# Coordination Sequence:
#
# PCOD9312606 Si02
#       5
#     4   4   4   4   4
#     4  12  26  42  73 102 133 190 229 285 355 409
#     4  12  25  46  73 100 141 188 233 287 355 418
#     4  10  22  43  65  97 138 178 223 285 343 413
#     4  10  27  43  70 102 142 172 245 285 339 430
#     4  10  22  41  67  91 137 180 220 279 353 394
#
# _framework density 21.36591
#
# number of rings (size 3 to 8) (size 9 to 14) (size 15 to 20)
#    1.200    0.000    2.000    3.600    5.600    3.200 
#    0.000    0.000    0.000    0.000    0.000    0.000 
#    0.000    0.000    0.000    0.000    0.000    0.000 
#
# Total GULP energy -111581.406704 kJ/mol
# GULP energy per Si atom -5579.070335 kJ/mol
# Density = 2.131728 g / cm^3
# Si number density = 21.365910 Si / 1000 Ang^3
#
#
#
# Elastic Constant Matrix: (Units=GPa)
#
#
# Indices 1 2 3 4 5 6 
#
# 1 279.9658 16.4712 68.6620 0.0000 0.0000 0.0000
# 2 16.4712 61.8087 14.9790 0.0000 0.0000 0.0000
# 3 68.6620 14.9790 167.3951 0.0000 0.0000 0.0000
# 4 0.0000 0.0000 0.0000 5.5981 0.0000 0.0000
# 5 0.0000 0.0000 0.0000 0.0000 3.9543 0.0000
# 6 0.0000 0.0000 0.0000 0.0000 0.0000 32.9123
#
#
#
# Elastic Compliance Matrix: (Units=1/GPa)
#
#
# Indices 1 2 3 4 5 6 
#
# 1 0.003999 -0.000683 -0.001579 0.000000 0.000000 0.000000
# 2 -0.000683 0.016654 -0.001210 0.000000 0.000000 0.000000
# 3 -0.001579 -0.001210 0.006730 0.000000 0.000000 0.000000
# 4 0.000000 0.000000 0.000000 0.178632 0.000000 0.000000
# 5 0.000000 0.000000 0.000000 0.000000 0.252888 0.000000
# 6 0.000000 0.000000 0.000000 0.000000 0.000000 0.030384
#
#
# Mechanical properties :
#
#
# Convention : Reuss Voigt Hill
#
# Bulk Modulus (GPa) = 48.92695 78.82157 63.87426
# Shear Modulus (GPa) = 9.93946 35.76342 22.85144
#
# Velocity S-wave (km/s) = 2.15919 4.09571 3.27391
# Velocity P-wave (km/s) = 5.40050 7.70311 6.65219
#
# Compressibility (1/GPa) = 0.02043863
#
# Stress axis : x y z
#
# Youngs Moduli (GPa) = 250.03828 60.04479 148.58860
#
# Poissons Ratio (x) = 0.04101 0.23467
# Poissons Ratio (y) = 0.17079 0.17981
# Poissons Ratio (z) = 0.39490 0.07266
#
# Static dielectric constant tensor:
#      x y z
#    x 1.743810 0.000000 0.000000 
#    y 0.000000 1.978400 0.000000 
#    z 0.000000 0.000000 1.817440 
# 
# From -- ./inp_files/978.got.cif
#   From: 2010.05.17/outbox.cif.g08.bks.cpg/sg18_1_cif.got.tgz:978.got - 2010.06.03 22:40:56.
