data_PCOD9312996
_publ_section_title
;
Structure prediction by ZEFSAII (Michael W. Deem and Ramdas Pophale) SiO2 
 PCOD9312996
Probable space group: P 21 21 2
;
_chemical_formula_sum "Si O2"
_cell_formula_units_Z 30
_cell_length_a 6.462389
_cell_length_b 24.702970
_cell_length_c 9.590885
_cell_angle_alpha 90.000000
_cell_angle_beta 90.000000
_cell_angle_gamma 90.000000
_cell_volume 1531.090815
_symmetry_space_group_name_H-M "P 21 21 2"
_symmetry_group_IT_number 18
_symmetry_cell_setting 'orthorhombic'
loop_
_space_group_symop_operation_xyz
x,y,z
-x,-y,z
1/2+x,1/2-y,-z
1/2-x,1/2+y,-z
loop_
_atom_site_type_symbol
_atom_site_label
_atom_site_fract_x
_atom_site_fract_y
_atom_site_fract_z
Si Si1 0.311546 0.586528 0.140516
Si Si2 0.500000 0.176313 0.750000
Si Si3 0.000000 0.500000 0.250000
Si Si4 0.350829 0.740240 0.383470
Si Si5 0.649170 0.740240 0.116530
Si Si6 0.188453 0.913472 0.640517
Si Si7 0.913466 0.162098 0.406290
Si Si8 0.413466 0.662098 0.906290
O O1 0.500000 0.579451 0.250000
O O2 0.174137 0.637697 0.187181
O O3 0.153495 0.536600 0.156064
O O4 0.392467 0.605415 0.989297
O O5 0.372184 0.215017 0.650277
O O6 0.627818 0.215017 0.849723
O O7 0.674136 0.137696 0.687181
O O8 0.846504 0.536600 0.343935
O O9 0.499999 0.735454 0.249999
O O10 0.301054 0.803479 0.406661
O O11 0.437632 0.700997 0.502471
O O12 0.698946 0.803479 0.093339
O O13 0.562368 0.700997 0.997528
O O14 0.107533 0.894585 0.489297
O O15 0.000000 0.156248 0.250000
#
# Coordination Sequence:
#
# PCOD9312996 Si02
#       8
#     4   4   2   4   4   4   4   4
#     4  11  22  44  70  96 122 168 227 282 327 395
#     4  11  18  39  66  92 130 182 227 255 300 390
#     4  10  26  44  80  92 108 164 242 292 336 380
#     4  12  22  41  58  96 147 193 219 245 305 408
#     4  12  22  41  58  96 147 193 219 245 305 408
#     4  11  22  44  70  96 122 168 227 282 327 395
#     4  12  23  36  63 100 141 178 211 264 324 386
#     4  12  23  36  63 100 141 178 211 264 324 386
#
# _framework density 19.593872999999999
#
# number of rings (size 3 to 8) (size 9 to 14) (size 15 to 20)
#    0.000    0.533    6.667    3.600    0.000    0.000 
#    0.000    0.000    0.000    4.800    0.000    0.000 
#    0.000    0.000    0.000    0.000    0.000    0.000 
#
# Total GULP energy -167405.444099 kJ/mol
# GULP energy per Si atom -5580.181470 kJ/mol
# Density = 1.954928 g / cm^3
# Si number density = 19.593873 Si / 1000 Ang^3
#
#
#
# Elastic Constant Matrix: (Units=GPa)
#
#
# Indices 1 2 3 4 5 6 
#
# 1 116.2073 41.7390 61.5758 0.0000 0.0000 0.0000
# 2 41.7390 108.8896 59.3933 0.0000 0.0000 0.0000
# 3 61.5758 59.3933 152.8622 0.0000 0.0000 0.0000
# 4 0.0000 0.0000 0.0000 17.4955 0.0000 0.0000
# 5 0.0000 0.0000 0.0000 0.0000 29.5589 0.0000
# 6 0.0000 0.0000 0.0000 0.0000 0.0000 -45.1631
#
#
#
# Elastic Compliance Matrix: (Units=1/GPa)
#
#
# Indices 1 2 3 4 5 6 
#
# 1 0.011402 -0.002367 -0.003673 0.000000 0.000000 0.000000
# 2 -0.002367 0.012145 -0.003765 0.000000 0.000000 0.000000
# 3 -0.003673 -0.003765 0.009484 0.000000 0.000000 0.000000
# 4 0.000000 0.000000 0.000000 0.057157 0.000000 0.000000
# 5 0.000000 0.000000 0.000000 0.000000 0.033831 0.000000
# 6 0.000000 0.000000 0.000000 0.000000 0.000000 -0.022142
#
#
# Mechanical properties :
#
#
# Convention : Reuss Voigt Hill
#
# Bulk Modulus (GPa) = 74.51521 78.15282 76.33401
# Shear Modulus (GPa) = 39.69471 14.72831 27.21151
#
# Velocity S-wave (km/s) = 4.50585 2.74465 3.73067
# Velocity P-wave (km/s) = 8.07358 7.07228 7.58946
#
# Compressibility (1/GPa) = 0.01342008
#
# Stress axis : x y z
#
# Youngs Moduli (GPa) = 87.70523 82.34090 105.43584
#
# Poissons Ratio (x) = 0.19490 0.38729
# Poissons Ratio (y) = 0.20759 0.39699
# Poissons Ratio (z) = 0.32216 0.31003
#
# Static dielectric constant tensor:
#      x y z
#    x 1.727140 0.000000 0.000000 
#    y 0.000000 1.683920 0.000000 
#    z 0.000000 0.000000 1.941900 
# 
# From -- ./inp_files/2658.got.cif
#   From: 2010.05.17/outbox.cif.g08.bks.cpg/sg18_2_cif.got.tgz:2658.got - 2010.06.03 22:40:56.
