data_PCOD9312365
_publ_section_title
;
Structure prediction by ZEFSAII (Michael W. Deem and Ramdas Pophale) SiO2 
 PCOD9312365
Probable space group: P 21 21 2
;
_chemical_formula_sum "Si O2"
_cell_formula_units_Z 28
_cell_length_a 16.082288
_cell_length_b 13.027604
_cell_length_c 5.572048
_cell_angle_alpha 90.000000
_cell_angle_beta 90.000000
_cell_angle_gamma 90.000000
_cell_volume 1167.420279
_symmetry_space_group_name_H-M "P 21 21 2"
_symmetry_group_IT_number 18
_symmetry_cell_setting 'orthorhombic'
loop_
_space_group_symop_operation_xyz
x,y,z
-x,-y,z
1/2+x,1/2-y,-z
1/2-x,1/2+y,-z
loop_
_atom_site_type_symbol
_atom_site_label
_atom_site_fract_x
_atom_site_fract_y
_atom_site_fract_z
Si Si1 0.848941 0.888526 0.674645
Si Si2 0.247113 0.449037 0.112847
Si Si3 0.913935 0.358122 0.339774
Si Si4 0.540432 0.199525 0.309097
Si Si5 0.099078 0.816927 0.004670
Si Si6 0.000000 0.000000 0.927098
Si Si7 0.288075 0.011671 0.397651
Si Si8 0.000000 0.500000 0.975454
O O1 0.878850 0.771680 0.686631
O O2 0.801549 0.930418 0.437512
O O3 0.931104 0.950822 0.752148
O O4 0.781395 0.932525 0.863350
O O5 0.321249 0.366719 0.118369
O O6 0.211379 0.450684 0.847798
O O7 0.202318 0.438049 0.368727
O O8 0.873950 0.260640 0.211384
O O9 0.859737 0.403998 0.556288
O O10 0.004075 0.320669 0.427670
O O11 0.932195 0.445355 0.144323
O O12 0.465306 0.259420 0.171203
O O13 0.540645 0.089138 0.183328
O O14 0.044448 0.914379 0.088434
#
# Coordination Sequence:
#
# PCOD9312365 Si02
#       8
#     4   4   4   4   4   2   4   2
#     4   8  19  36  61  96 124 169 205 279 324 402
#     4   9  21  41  64  96 134 167 206 268 341 397
#     4  11  24  41  66  95 128 185 223 280 322 404
#     4  10  21  40  66  89 129 168 231 272 328 395
#     4   9  20  36  64  96 125 168 213 273 331 398
#     4   8  14  36  60  94 128 158 206 262 342 394
#     4  10  23  41  65  94 139 169 214 270 330 397
#     4  10  24  44  62  86 124 174 228 270 324 386
#
# _framework density 23.984504000000001
#
# number of rings (size 3 to 8) (size 9 to 14) (size 15 to 20)
#    0.857    1.714    0.000    0.429    6.000    4.571 
#    2.571    2.857    0.000    0.000    0.000    0.000 
#    0.000    0.000    0.000    0.000    0.000    0.000 
#
# Total GULP energy -156148.263409 kJ/mol
# GULP energy per Si atom -5576.723693 kJ/mol
# Density = 2.392991 g / cm^3
# Si number density = 23.984504 Si / 1000 Ang^3
#
#
#
# Elastic Constant Matrix: (Units=GPa)
#
#
# Indices 1 2 3 4 5 6 
#
# 1 63.7649 22.3242 5.3700 0.0000 0.0000 0.0000
# 2 22.3242 116.8696 21.6546 0.0000 0.0000 0.0000
# 3 5.3700 21.6546 89.9666 0.0000 0.0000 0.0000
# 4 0.0000 0.0000 0.0000 4.4595 0.0000 0.0000
# 5 0.0000 0.0000 0.0000 0.0000 16.0238 0.0000
# 6 0.0000 0.0000 0.0000 0.0000 0.0000 40.9355
#
#
#
# Elastic Compliance Matrix: (Units=1/GPa)
#
#
# Indices 1 2 3 4 5 6 
#
# 1 0.016812 -0.003167 -0.000241 0.000000 0.000000 0.000000
# 2 -0.003167 0.009552 -0.002110 0.000000 0.000000 0.000000
# 3 -0.000241 -0.002110 0.011638 0.000000 0.000000 0.000000
# 4 0.000000 0.000000 0.000000 0.224242 0.000000 0.000000
# 5 0.000000 0.000000 0.000000 0.000000 0.062407 0.000000
# 6 0.000000 0.000000 0.000000 0.000000 0.000000 0.024429
#
#
# Mechanical properties :
#
#
# Convention : Reuss Voigt Hill
#
# Bulk Modulus (GPa) = 37.08461 41.03317 39.05889
# Shear Modulus (GPa) = 13.54632 27.03391 20.29012
#
# Velocity S-wave (km/s) = 2.37912 3.36093 2.91171
# Velocity P-wave (km/s) = 4.80025 5.67508 5.25590
#
# Compressibility (1/GPa) = 0.02696536
#
# Stress axis : x y z
#
# Youngs Moduli (GPa) = 59.48283 104.68541 85.92866
#
# Poissons Ratio (x) = 0.33150 0.02073
# Poissons Ratio (y) = 0.18836 0.18133
# Poissons Ratio (z) = 0.01435 0.22091
#
# Static dielectric constant tensor:
#      x y z
#    x 1.965510 0.000000 0.000000 
#    y 0.000000 1.938470 0.000000 
#    z 0.000000 0.000000 1.940070 
# 
# From -- ./inp_files/2023.got.cif
#   From: 2010.05.17/outbox.cif.g08.bks.cpg/sg18_2_cif.got.tgz:2023.got - 2010.06.03 22:40:56.
