data_PCOD9312603
_publ_section_title
;
Structure prediction by ZEFSAII (Michael W. Deem and Ramdas Pophale) SiO2 
 PCOD9312603
Probable space group: P 21 21 2
;
_chemical_formula_sum "Si O2"
_cell_formula_units_Z 32
_cell_length_a 12.460659
_cell_length_b 12.253474
_cell_length_c 9.061803
_cell_angle_alpha 90.000000
_cell_angle_beta 90.000000
_cell_angle_gamma 90.000000
_cell_volume 1383.613725
_symmetry_space_group_name_H-M "P 21 21 2"
_symmetry_group_IT_number 18
_symmetry_cell_setting 'orthorhombic'
loop_
_space_group_symop_operation_xyz
x,y,z
-x,-y,z
1/2+x,1/2-y,-z
1/2-x,1/2+y,-z
loop_
_atom_site_type_symbol
_atom_site_label
_atom_site_fract_x
_atom_site_fract_y
_atom_site_fract_z
Si Si1 0.219490 0.453622 0.985722
Si Si2 0.462954 0.661439 0.367245
Si Si3 0.719490 0.453622 0.514278
Si Si4 0.792277 0.852004 0.177200
Si Si5 0.395810 0.214476 0.605804
Si Si6 0.292277 0.852004 0.322800
Si Si7 0.962954 0.661439 0.132755
Si Si8 0.604190 0.714476 0.105804
O O1 0.270706 0.572081 0.964488
O O2 0.179272 0.420787 0.821754
O O3 0.115730 0.438019 0.088704
O O4 0.313544 0.370639 0.032013
O O5 0.384270 0.561982 0.411296
O O6 0.543796 0.703482 0.494277
O O7 0.382280 0.763939 0.352203
O O8 0.522315 0.652083 0.211932
O O9 0.679271 0.420787 0.678246
O O10 0.813544 0.370639 0.467987
O O11 0.770706 0.572081 0.535512
O O12 0.882280 0.763938 0.147797
O O13 0.680838 0.790099 0.205813
O O14 0.319162 0.290099 0.705813
O O15 0.477685 0.152083 0.711932
O O16 0.043796 0.703482 0.005723
#
# Coordination Sequence:
#
# PCOD9312603 Si02
#       8
#     4   4   4   4   4   4   4   4
#     4  10  22  41  66  97 128 172 218 272 317 397
#     4  11  22  41  66  95 132 172 214 272 331 385
#     4  10  22  41  66  97 128 172 218 272 317 397
#     4  10  22  41  66  95 130 169 224 264 326 393
#     4  11  22  41  66  95 132 172 214 272 331 385
#     4  10  22  41  66  95 130 169 224 264 326 393
#     4  11  22  41  66  95 132 172 214 272 331 385
#     4  11  22  41  66  95 132 172 214 272 331 385
#
# _framework density 23.127842999999999
#
# number of rings (size 3 to 8) (size 9 to 14) (size 15 to 20)
#    0.000    1.500    5.000    0.000    0.000    2.000 
#    0.000    7.500    0.000    0.000    0.000    0.000 
#    0.000    0.000    0.000    0.000    0.000    0.000 
#
# Total GULP energy -178938.354950 kJ/mol
# GULP energy per Si atom -5591.823592 kJ/mol
# Density = 2.307520 g / cm^3
# Si number density = 23.127843 Si / 1000 Ang^3
#
#
#
# Elastic Constant Matrix: (Units=GPa)
#
#
# Indices 1 2 3 4 5 6 
#
# 1 92.1393 6.6723 22.4988 0.0000 0.0000 0.0000
# 2 6.6723 44.7378 3.2183 0.0000 0.0000 0.0000
# 3 22.4988 3.2183 61.6892 0.0000 0.0000 0.0000
# 4 0.0000 0.0000 0.0000 31.2180 0.0000 0.0000
# 5 0.0000 0.0000 0.0000 0.0000 25.2784 0.0000
# 6 0.0000 0.0000 0.0000 0.0000 0.0000 17.9863
#
#
#
# Elastic Compliance Matrix: (Units=1/GPa)
#
#
# Indices 1 2 3 4 5 6 
#
# 1 0.012011 -0.001482 -0.004303 0.000000 0.000000 0.000000
# 2 -0.001482 0.022619 -0.000640 0.000000 0.000000 0.000000
# 3 -0.004303 -0.000640 0.017813 0.000000 0.000000 0.000000
# 4 0.000000 0.000000 0.000000 0.032033 0.000000 0.000000
# 5 0.000000 0.000000 0.000000 0.000000 0.039559 0.000000
# 6 0.000000 0.000000 0.000000 0.000000 0.000000 0.055598
#
#
# Mechanical properties :
#
#
# Convention : Reuss Voigt Hill
#
# Bulk Modulus (GPa) = 25.25615 29.26058 27.25836
# Shear Modulus (GPa) = 24.30940 25.97499 25.14220
#
# Velocity S-wave (km/s) = 3.24557 3.35491 3.30069
# Velocity P-wave (km/s) = 4.99889 5.26178 5.13202
#
# Compressibility (1/GPa) = 0.03959432
#
# Stress axis : x y z
#
# Youngs Moduli (GPa) = 83.25534 44.20969 56.13833
#
# Poissons Ratio (x) = 0.06551 0.24158
# Poissons Ratio (y) = 0.12337 0.03591
# Poissons Ratio (z) = 0.35828 0.02828
#
# Static dielectric constant tensor:
#      x y z
#    x 1.840230 0.000000 0.000000 
#    y 0.000000 1.903340 0.000000 
#    z 0.000000 0.000000 1.853030 
# 
# From -- ./inp_files/3965.got.cif
#   From: 2010.05.17/outbox.cif.g08.bks.cpg/sg18_2_cif.got.tgz:3965.got - 2010.06.03 22:40:56.
