data_PCOD9312855
_publ_section_title
;
Structure prediction by ZEFSAII (Michael W. Deem and Ramdas Pophale) SiO2 
 PCOD9312855
Probable space group: P 21 21 2
;
_chemical_formula_sum "Si O2"
_cell_formula_units_Z 32
_cell_length_a 20.799910
_cell_length_b 5.079702
_cell_length_c 17.184908
_cell_angle_alpha 90.000000
_cell_angle_beta 90.000000
_cell_angle_gamma 90.000000
_cell_volume 1815.711743
_symmetry_space_group_name_H-M "P 21 21 2"
_symmetry_group_IT_number 18
_symmetry_cell_setting 'orthorhombic'
loop_
_space_group_symop_operation_xyz
x,y,z
-x,-y,z
1/2+x,1/2-y,-z
1/2-x,1/2+y,-z
loop_
_atom_site_type_symbol
_atom_site_label
_atom_site_fract_x
_atom_site_fract_y
_atom_site_fract_z
Si Si1 0.791841 0.354447 0.834379
Si Si2 0.426597 0.518737 0.436993
Si Si3 0.750977 0.522242 0.554849
Si Si4 0.797097 0.354580 0.164685
Si Si5 0.680924 0.868267 0.665197
Si Si6 0.681796 0.678029 0.331612
Si Si7 0.294337 0.263190 0.000697
Si Si8 0.926592 0.485395 0.452281
O O1 0.762331 0.646440 0.829250
O O2 0.828388 0.279294 0.755724
O O3 0.731934 0.148392 0.837702
O O4 0.826691 0.306186 0.916949
O O5 0.500000 0.500000 0.407897
O O6 0.235926 0.220165 0.502661
O O7 0.375557 0.487771 0.368178
O O8 0.417840 0.284863 0.499937
O O9 0.696526 0.605038 0.616292
O O10 0.807846 0.420756 0.609486
O O11 0.580985 0.215843 0.485297
O O12 0.835505 0.321796 0.244763
O O13 0.828884 0.288673 0.081513
O O14 0.625295 0.005533 0.616128
O O15 0.749572 0.023257 0.666208
O O16 0.266114 0.557955 0.001997
O O17 0.000000 0.500000 0.422618
#
# Coordination Sequence:
#
# PCOD9312855 Si02
#       8
#     4   4   4   4   4   4   4   4
#     4   9  17  29  43  70  97 125 154 194 242 297
#     4  10  24  39  51  67  97 138 174 205 246 297
#     4  12  24  32  44  76 102 132 158 210 260 290
#     4   9  17  29  43  70  97 125 154 194 242 297
#     4  11  23  33  52  76 101 123 170 210 253 287
#     4  11  23  33  52  76 101 123 170 210 253 287
#     4   8  14  26  44  60  96 130 148 178 242 302
#     4  10  24  39  51  67  97 138 174 205 246 297
#
# _framework density 17.623944000000002
#
# number of rings (size 3 to 8) (size 9 to 14) (size 15 to 20)
#    0.000    2.000    2.500    0.750    7.000    0.000 
#    0.000    0.000    0.000    0.000    0.000    0.000 
#    0.000   32.000    0.000    0.000    0.000   34.500 
#
# Total GULP energy -178424.823438 kJ/mol
# GULP energy per Si atom -5575.775732 kJ/mol
# Density = 1.758383 g / cm^3
# Si number density = 17.623944 Si / 1000 Ang^3
#
#
#
# Elastic Constant Matrix: (Units=GPa)
#
#
# Indices 1 2 3 4 5 6 
#
# 1 74.4831 4.7626 37.7720 0.0000 0.0000 0.0000
# 2 4.7626 84.2564 3.7224 0.0000 0.0000 0.0000
# 3 37.7720 3.7224 135.8558 0.0000 0.0000 0.0000
# 4 0.0000 0.0000 0.0000 14.4834 0.0000 0.0000
# 5 0.0000 0.0000 0.0000 0.0000 9.0330 0.0000
# 6 0.0000 0.0000 0.0000 0.0000 0.0000 14.2244
#
#
#
# Elastic Compliance Matrix: (Units=1/GPa)
#
#
# Indices 1 2 3 4 5 6 
#
# 1 0.015670 -0.000694 -0.004338 0.000000 0.000000 0.000000
# 2 -0.000694 0.011914 -0.000133 0.000000 0.000000 0.000000
# 3 -0.004338 -0.000133 0.008570 0.000000 0.000000 0.000000
# 4 0.000000 0.000000 0.000000 0.069045 0.000000 0.000000
# 5 0.000000 0.000000 0.000000 0.000000 0.110705 0.000000
# 6 0.000000 0.000000 0.000000 0.000000 0.000000 0.070302
#
#
# Mechanical properties :
#
#
# Convention : Reuss Voigt Hill
#
# Bulk Modulus (GPa) = 38.72433 43.01212 40.86823
# Shear Modulus (GPa) = 16.38569 24.10405 20.24487
#
# Velocity S-wave (km/s) = 3.05247 3.70224 3.39294
# Velocity P-wave (km/s) = 5.86888 6.53712 6.21199
#
# Compressibility (1/GPa) = 0.02582356
#
# Stress axis : x y z
#
# Youngs Moduli (GPa) = 63.81623 83.93723 116.68050
#
# Poissons Ratio (x) = 0.05826 0.50613
# Poissons Ratio (y) = 0.04430 0.01557
# Poissons Ratio (z) = 0.27682 0.01120
#
# Static dielectric constant tensor:
#      x y z
#    x 1.591410 0.000000 0.000000 
#    y 0.000000 1.656760 0.000000 
#    z 0.000000 0.000000 1.670420 
# 
# From -- ./inp_files/7236.got.cif
#   From: 2010.05.17/outbox.cif.g08.bks.cpg/sg18_4_cif.got.tgz:7236.got - 2010.06.03 22:40:56.
