data_PCOD9312375
_publ_section_title
;
Structure prediction by ZEFSAII (Michael W. Deem and Ramdas Pophale) SiO2 
 PCOD9312375
Probable space group: P 21 21 2
;
_chemical_formula_sum "Si O2"
_cell_formula_units_Z 32
_cell_length_a 30.169891
_cell_length_b 4.900821
_cell_length_c 9.422358
_cell_angle_alpha 90.000000
_cell_angle_beta 90.000000
_cell_angle_gamma 90.000000
_cell_volume 1393.163805
_symmetry_space_group_name_H-M "P 21 21 2"
_symmetry_group_IT_number 18
_symmetry_cell_setting 'orthorhombic'
loop_
_space_group_symop_operation_xyz
x,y,z
-x,-y,z
1/2+x,1/2-y,-z
1/2-x,1/2+y,-z
loop_
_atom_site_type_symbol
_atom_site_label
_atom_site_fract_x
_atom_site_fract_y
_atom_site_fract_z
Si Si1 0.231357 0.323748 0.661633
Si Si2 0.874506 0.800105 0.170920
Si Si3 0.817649 0.953581 0.419516
Si Si4 0.642493 0.811388 0.335932
Si Si5 0.953686 0.931533 0.353990
Si Si6 0.224696 0.298184 0.960852
Si Si7 0.048568 0.565651 0.551212
Si Si8 0.859302 0.323341 0.996249
O O1 0.284673 0.347791 0.665206
O O2 0.191620 0.550258 0.666981
O O3 0.219263 0.163123 0.805951
O O4 0.219713 0.191056 0.512913
O O5 0.914811 0.958663 0.244540
O O6 0.890413 0.530728 0.086696
O O7 0.842404 0.760145 0.307698
O O8 0.854856 0.032794 0.069117
O O9 0.850059 0.089393 0.537138
O O10 0.597021 0.973346 0.377324
O O11 0.633102 0.756975 0.169386
O O12 0.951851 0.627764 0.414346
O O13 0.951681 0.127250 0.491702
O O14 0.000000 0.000000 0.282978
O O15 0.258936 0.551748 0.942942
O O16 0.183186 0.476379 0.008709
O O17 0.000000 0.500000 0.622687
#
# Coordination Sequence:
#
# PCOD9312375 Si02
#       8
#     4   4   4   4   4   4   4   4
#     4  11  25  38  64  94 127 168 224 275 326 386
#     4  12  25  45  66  98 129 177 224 275 330 408
#     4  12  24  40  68  93 130 169 229 277 330 384
#     4  11  25  43  64  95 135 177 210 281 335 393
#     4  10  21  40  69 100 131 164 216 281 334 390
#     4  11  24  43  63  87 129 177 220 269 330 395
#     4  10  21  41  70 104 129 167 221 273 334 394
#     4  11  27  42  64  94 136 176 221 266 342 402
#
# _framework density 22.969301999999999
#
# number of rings (size 3 to 8) (size 9 to 14) (size 15 to 20)
#    0.000    1.000    2.500    3.750    8.750    1.000 
#    0.000    1.250    0.000    0.000    0.000    0.000 
#    0.000    0.000    0.000    0.000    0.000    0.000 
#
# Total GULP energy -178194.468116 kJ/mol
# GULP energy per Si atom -5568.577129 kJ/mol
# Density = 2.291702 g / cm^3
# Si number density = 22.969302 Si / 1000 Ang^3
#
#
#
# Elastic Constant Matrix: (Units=GPa)
#
#
# Indices 1 2 3 4 5 6 
#
# 1 98.5196 6.2907 8.7305 0.0000 0.0000 0.0000
# 2 6.2907 78.6313 27.8428 0.0000 0.0000 0.0000
# 3 8.7305 27.8428 90.2233 0.0000 0.0000 0.0000
# 4 0.0000 0.0000 0.0000 18.7490 0.0000 0.0000
# 5 0.0000 0.0000 0.0000 0.0000 14.8660 0.0000
# 6 0.0000 0.0000 0.0000 0.0000 0.0000 24.0883
#
#
#
# Elastic Compliance Matrix: (Units=1/GPa)
#
#
# Indices 1 2 3 4 5 6 
#
# 1 0.010257 -0.000527 -0.000830 0.000000 0.000000 0.000000
# 2 -0.000527 0.014305 -0.004363 0.000000 0.000000 0.000000
# 3 -0.000830 -0.004363 0.012510 0.000000 0.000000 0.000000
# 4 0.000000 0.000000 0.000000 0.053336 0.000000 0.000000
# 5 0.000000 0.000000 0.000000 0.000000 0.067268 0.000000
# 6 0.000000 0.000000 0.000000 0.000000 0.000000 0.041514
#
#
# Mechanical properties :
#
#
# Convention : Reuss Voigt Hill
#
# Bulk Modulus (GPa) = 39.01327 39.23359 39.12343
# Shear Modulus (GPa) = 22.81282 26.50801 24.66041
#
# Velocity S-wave (km/s) = 3.15491 3.40083 3.28018
# Velocity P-wave (km/s) = 5.50392 5.70428 5.60500
#
# Compressibility (1/GPa) = 0.02563230
#
# Stress axis : x y z
#
# Youngs Moduli (GPa) = 97.49014 69.90658 79.93291
#
# Poissons Ratio (x) = 0.03682 0.06635
# Poissons Ratio (y) = 0.05135 0.34879
# Poissons Ratio (z) = 0.08092 0.30504
#
# Static dielectric constant tensor:
#      x y z
#    x 2.044000 0.000000 0.000000 
#    y 0.000000 1.928320 0.000000 
#    z 0.000000 0.000000 1.898840 
# 
# From -- ./inp_files/4873.got.cif
#   From: 2010.05.17/outbox.cif.g08.bks.cpg/sg18_3_cif.got.tgz:4873.got - 2010.06.03 22:40:56.
