data_PCOD9312099
_publ_section_title
;
Structure prediction by ZEFSAII (Michael W. Deem and Ramdas Pophale) SiO2 
 PCOD9312099
Probable space group: P 21 21 2
;
_chemical_formula_sum "Si O2"
_cell_formula_units_Z 26
_cell_length_a 8.725638
_cell_length_b 24.861486
_cell_length_c 5.147097
_cell_angle_alpha 90.000000
_cell_angle_beta 90.000000
_cell_angle_gamma 90.000000
_cell_volume 1116.571729
_symmetry_space_group_name_H-M "P 21 21 2"
_symmetry_group_IT_number 18
_symmetry_cell_setting 'orthorhombic'
loop_
_space_group_symop_operation_xyz
x,y,z
-x,-y,z
1/2+x,1/2-y,-z
1/2-x,1/2+y,-z
loop_
_atom_site_type_symbol
_atom_site_label
_atom_site_fract_x
_atom_site_fract_y
_atom_site_fract_z
Si Si1 0.382063 0.353225 0.276301
Si Si2 0.884818 0.586301 0.112120
Si Si3 0.500000 0.000000 0.184166
Si Si4 0.565395 0.187383 0.211133
Si Si5 0.416247 0.645767 0.776695
Si Si6 0.879836 0.396390 0.507127
Si Si7 0.783872 0.257135 0.989045
O O1 0.246565 0.396963 0.311935
O O2 0.463157 0.344415 0.549361
O O3 0.315840 0.295728 0.183144
O O4 0.498055 0.371997 0.043669
O O5 0.059757 0.593089 0.215556
O O6 0.871915 0.527110 0.998676
O O7 0.862295 0.632924 0.901257
O O8 0.446375 0.050483 0.352342
O O9 0.460975 0.161565 0.433644
O O10 0.446438 0.212956 0.003109
O O11 0.695024 0.232766 0.239472
O O12 0.288406 0.609782 0.628138
O O13 0.328924 0.699698 0.862747
#
# Coordination Sequence:
#
# PCOD9312099 Si02
#       7
#     4   4   2   4   4   4   4
#     4  11  26  43  66  99 146 181 226 281 340 398
#     4  10  23  41  70  96 126 176 225 287 336 415
#     4  10  22  44  74  94 124 160 244 274 354 410
#     4   9  20  35  58  92 132 165 224 261 326 380
#     4  11  26  43  66  99 146 181 226 281 340 398
#     4  10  23  41  70  96 126 176 225 287 336 415
#     4  10  20  38  62  92 134 184 224 258 320 394
#
# _framework density 23.285564000000001
#
# number of rings (size 3 to 8) (size 9 to 14) (size 15 to 20)
#    0.000    1.846    1.538    0.462   12.923    6.154 
#    0.000    0.769    0.000    0.000    0.000    0.000 
#    0.000    0.000    0.000    0.000    0.000    0.000 
#
# Total GULP energy -144880.294578 kJ/mol
# GULP energy per Si atom -5572.319022 kJ/mol
# Density = 2.323256 g / cm^3
# Si number density = 23.285564 Si / 1000 Ang^3
#
#
#
# Elastic Constant Matrix: (Units=GPa)
#
#
# Indices 1 2 3 4 5 6 
#
# 1 73.7813 19.2898 23.9971 0.0000 0.0000 0.0000
# 2 19.2898 92.4628 6.2810 0.0000 0.0000 0.0000
# 3 23.9971 6.2810 58.1145 0.0000 0.0000 0.0000
# 4 0.0000 0.0000 0.0000 12.5965 0.0000 0.0000
# 5 0.0000 0.0000 0.0000 0.0000 32.0033 0.0000
# 6 0.0000 0.0000 0.0000 0.0000 0.0000 25.3519
#
#
#
# Elastic Compliance Matrix: (Units=1/GPa)
#
#
# Indices 1 2 3 4 5 6 
#
# 1 0.016438 -0.002990 -0.006464 0.000000 0.000000 0.000000
# 2 -0.002990 0.011439 -0.000002 0.000000 0.000000 0.000000
# 3 -0.006464 -0.000002 0.019877 0.000000 0.000000 0.000000
# 4 0.000000 0.000000 0.000000 0.079387 0.000000 0.000000
# 5 0.000000 0.000000 0.000000 0.000000 0.031247 0.000000
# 6 0.000000 0.000000 0.000000 0.000000 0.000000 0.039445
#
#
# Mechanical properties :
#
#
# Convention : Reuss Voigt Hill
#
# Bulk Modulus (GPa) = 34.67242 35.94384 35.30813
# Shear Modulus (GPa) = 22.08880 25.64304 23.86592
#
# Velocity S-wave (km/s) = 3.08328 3.32210 3.20492
# Velocity P-wave (km/s) = 5.25337 5.49406 5.37507
#
# Compressibility (1/GPa) = 0.02884137
#
# Stress axis : x y z
#
# Youngs Moduli (GPa) = 60.83507 87.41954 50.30951
#
# Poissons Ratio (x) = 0.26140 0.32523
# Poissons Ratio (y) = 0.18191 0.00008
# Poissons Ratio (z) = 0.39327 0.00014
#
# Static dielectric constant tensor:
#      x y z
#    x 2.017840 0.000000 0.000000 
#    y 0.000000 1.832840 0.000000 
#    z 0.000000 0.000000 1.969890 
# 
# From -- ./inp_files/628.got.cif
#   From: 2010.05.17/outbox.cif.g08.bks.cpg/sg18_1_cif.got.tgz:628.got - 2010.06.03 22:40:56.
