data_PCOD9312135
_publ_section_title
;
Structure prediction by ZEFSAII (Michael W. Deem and Ramdas Pophale) SiO2 
 PCOD9312135
Probable space group: P 21 21 2
;
_chemical_formula_sum "Si O2"
_cell_formula_units_Z 24
_cell_length_a 8.487805
_cell_length_b 14.935930
_cell_length_c 9.201292
_cell_angle_alpha 90.000000
_cell_angle_beta 90.000000
_cell_angle_gamma 90.000000
_cell_volume 1166.477795
_symmetry_space_group_name_H-M "P 21 21 2"
_symmetry_group_IT_number 18
_symmetry_cell_setting 'orthorhombic'
loop_
_space_group_symop_operation_xyz
x,y,z
-x,-y,z
1/2+x,1/2-y,-z
1/2-x,1/2+y,-z
loop_
_atom_site_type_symbol
_atom_site_label
_atom_site_fract_x
_atom_site_fract_y
_atom_site_fract_z
Si Si1 0.397525 0.788292 0.687734
Si Si2 0.156964 0.682691 0.100308
Si Si3 0.719067 0.642281 0.059602
Si Si4 0.547412 0.093272 0.147999
Si Si5 0.944265 0.900125 0.748408
Si Si6 0.056767 0.726360 0.609797
O O1 0.536159 0.760185 0.798949
O O2 0.314631 0.864682 0.787979
O O3 0.245441 0.728335 0.640714
O O4 0.492584 0.810744 0.541831
O O5 0.266754 0.622777 0.204039
O O6 0.242466 0.756883 0.000631
O O7 0.064470 0.620279 0.987014
O O8 0.542622 0.624721 0.106095
O O9 0.784771 0.583139 0.930159
O O10 0.529723 0.171834 0.263143
O O11 0.500000 0.000000 0.216931
O O12 0.999031 0.828942 0.627376
O O13 0.000000 0.000000 0.710624
#
# Coordination Sequence:
#
# PCOD9312135 Si02
#       6
#     4   4   4   4   4   4
#     4  10  22  38  67  87 123 173 207 256 321 371
#     4  11  19  40  66  90 123 165 210 262 314 372
#     4  10  20  39  63  93 122 166 213 261 316 368
#     4  11  22  38  62  93 128 164 212 261 312 374
#     4  11  21  36  63  93 129 166 212 261 317 379
#     4  11  22  41  59  91 128 164 216 255 320 381
#
# _framework density 20.574757999999999
#
# number of rings (size 3 to 8) (size 9 to 14) (size 15 to 20)
#    0.000    1.333    5.000    3.000    0.000    0.000 
#    0.000   10.000    0.000    0.000    0.000    0.000 
#    0.000    0.000    0.000    0.000    0.000    0.000 
#
# Total GULP energy -133607.630560 kJ/mol
# GULP energy per Si atom -5566.984607 kJ/mol
# Density = 2.052793 g / cm^3
# Si number density = 20.574758 Si / 1000 Ang^3
#
#
#
# Elastic Constant Matrix: (Units=GPa)
#
#
# Indices 1 2 3 4 5 6 
#
# 1 69.8463 -5.1639 48.3315 0.0000 0.0000 0.0000
# 2 -5.1639 59.3396 9.3102 0.0000 0.0000 0.0000
# 3 48.3315 9.3102 93.0701 0.0000 0.0000 0.0000
# 4 0.0000 0.0000 0.0000 5.6737 0.0000 0.0000
# 5 0.0000 0.0000 0.0000 0.0000 38.9461 0.0000
# 6 0.0000 0.0000 0.0000 0.0000 0.0000 14.9101
#
#
#
# Elastic Compliance Matrix: (Units=1/GPa)
#
#
# Indices 1 2 3 4 5 6 
#
# 1 0.023236 0.003978 -0.012465 0.000000 0.000000 0.000000
# 2 0.003978 0.017802 -0.003846 0.000000 0.000000 0.000000
# 3 -0.012465 -0.003846 0.017602 0.000000 0.000000 0.000000
# 4 0.000000 0.000000 0.000000 0.176250 0.000000 0.000000
# 5 0.000000 0.000000 0.000000 0.000000 0.025677 0.000000
# 6 0.000000 0.000000 0.000000 0.000000 0.000000 0.067069
#
#
# Mechanical properties :
#
#
# Convention : Reuss Voigt Hill
#
# Bulk Modulus (GPa) = 29.43444 36.35686 32.89565
# Shear Modulus (GPa) = 13.75035 23.22453 18.48744
#
# Velocity S-wave (km/s) = 2.58798 3.36339 3.00083
# Velocity P-wave (km/s) = 4.82362 5.72644 5.29431
#
# Compressibility (1/GPa) = 0.03397381
#
# Stress axis : x y z
#
# Youngs Moduli (GPa) = 43.03603 56.17411 56.81090
#
# Poissons Ratio (x) = -0.22345 0.70813
# Poissons Ratio (y) = -0.17119 0.21852
# Poissons Ratio (z) = 0.53643 0.21607
#
# Static dielectric constant tensor:
#      x y z
#    x 1.866350 0.000000 0.000000 
#    y 0.000000 1.759110 0.000000 
#    z 0.000000 0.000000 1.714680 
# 
# From -- ./inp_files/3177.got.cif
#   From: 2010.05.17/outbox.cif.g08.bks.cpg/sg18_2_cif.got.tgz:3177.got - 2010.06.03 22:40:56.
