data_PCOD9312970
_publ_section_title
;
Structure prediction by ZEFSAII (Michael W. Deem and Ramdas Pophale) SiO2 
 PCOD9312970
Probable space group: P 21 21 2
;
_chemical_formula_sum "Si O2"
_cell_formula_units_Z 18
_cell_length_a 19.028961
_cell_length_b 7.896972
_cell_length_c 5.196448
_cell_angle_alpha 90.000000
_cell_angle_beta 90.000000
_cell_angle_gamma 90.000000
_cell_volume 780.876332
_symmetry_space_group_name_H-M "P 21 21 2"
_symmetry_group_IT_number 18
_symmetry_cell_setting 'orthorhombic'
loop_
_space_group_symop_operation_xyz
x,y,z
-x,-y,z
1/2+x,1/2-y,-z
1/2-x,1/2+y,-z
loop_
_atom_site_type_symbol
_atom_site_label
_atom_site_fract_x
_atom_site_fract_y
_atom_site_fract_z
Si Si1 0.120615 0.322395 0.685952
Si Si2 0.261662 0.351112 0.965974
Si Si3 0.626047 0.871172 0.702992
Si Si4 0.000000 0.500000 0.955960
Si Si5 0.335800 0.461146 0.484615
O O1 0.179612 0.327751 0.910703
O O2 0.138273 0.469422 0.481075
O O3 0.126522 0.136110 0.570686
O O4 0.043973 0.367543 0.788534
O O5 0.306692 0.184328 0.876003
O O6 0.290024 0.479690 0.744559
O O7 0.287692 0.403225 0.245632
O O8 0.614881 0.700573 0.536805
O O9 0.558594 0.908431 0.873709
#
# Coordination Sequence:
#
# PCOD9312970 Si02
#       5
#     4   4   4   2   4
#     4  12  26  48  76 113 155 203 250 318 384 451
#     4  10  25  46  81 114 147 188 264 314 372 447
#     4  10  26  49  71 117 150 201 249 322 372 465
#     4  12  28  46  78 108 166 200 252 310 396 446
#     4  10  26  46  78 115 145 201 252 320 370 453
#
# _framework density 23.051022
#
# number of rings (size 3 to 8) (size 9 to 14) (size 15 to 20)
#    1.333    0.000    0.000    3.333   12.444    0.000 
#    0.000   16.667    0.000    0.000    0.000    0.000 
#    0.000    0.000    0.000    0.000    0.000    0.000 
#
# Total GULP energy -100724.292125 kJ/mol
# GULP energy per Si atom -5595.794007 kJ/mol
# Density = 2.299856 g / cm^3
# Si number density = 23.051022 Si / 1000 Ang^3
#
#
#
# Elastic Constant Matrix: (Units=GPa)
#
#
# Indices 1 2 3 4 5 6 
#
# 1 116.9432 30.5418 37.0074 0.0000 0.0000 0.0000
# 2 30.5418 169.8231 40.4735 0.0000 0.0000 0.0000
# 3 37.0074 40.4735 88.4157 0.0000 0.0000 0.0000
# 4 0.0000 0.0000 0.0000 33.4894 0.0000 0.0000
# 5 0.0000 0.0000 0.0000 0.0000 44.9492 0.0000
# 6 0.0000 0.0000 0.0000 0.0000 0.0000 32.7782
#
#
#
# Elastic Compliance Matrix: (Units=1/GPa)
#
#
# Indices 1 2 3 4 5 6 
#
# 1 0.009977 -0.000897 -0.003765 0.000000 0.000000 0.000000
# 2 -0.000897 0.006690 -0.002687 0.000000 0.000000 0.000000
# 3 -0.003765 -0.002687 0.014116 0.000000 0.000000 0.000000
# 4 0.000000 0.000000 0.000000 0.029860 0.000000 0.000000
# 5 0.000000 0.000000 0.000000 0.000000 0.022247 0.000000
# 6 0.000000 0.000000 0.000000 0.000000 0.000000 0.030508
#
#
# Mechanical properties :
#
#
# Convention : Reuss Voigt Hill
#
# Bulk Modulus (GPa) = 62.17111 65.69194 63.93153
# Shear Modulus (GPa) = 37.46454 40.05398 38.75926
#
# Velocity S-wave (km/s) = 4.03586 4.17300 4.10500
# Velocity P-wave (km/s) = 6.98192 7.19576 7.08965
#
# Compressibility (1/GPa) = 0.01608464
#
# Stress axis : x y z
#
# Youngs Moduli (GPa) = 100.23060 149.47238 70.83996
#
# Poissons Ratio (x) = 0.13406 0.26674
# Poissons Ratio (y) = 0.08990 0.19036
# Poissons Ratio (z) = 0.37741 0.40165
#
# Static dielectric constant tensor:
#      x y z
#    x 1.826140 0.000000 0.000000 
#    y 0.000000 1.915820 0.000000 
#    z 0.000000 0.000000 1.894940 
# 
# From -- ./inp_files/1714.got.cif
#   From: 2010.05.17/outbox.cif.g08.bks.cpg/sg18_1_cif.got.tgz:1714.got - 2010.06.03 22:40:56.
