data_PCOD9312562
_publ_section_title
;
Structure prediction by ZEFSAII (Michael W. Deem and Ramdas Pophale) SiO2 
 PCOD9312562
Probable space group: P 21 21 2
;
_chemical_formula_sum "Si O2"
_cell_formula_units_Z 30
_cell_length_a 14.803119
_cell_length_b 15.382591
_cell_length_c 4.962389
_cell_angle_alpha 90.000000
_cell_angle_beta 90.000000
_cell_angle_gamma 90.000000
_cell_volume 1129.987212
_symmetry_space_group_name_H-M "P 21 21 2"
_symmetry_group_IT_number 18
_symmetry_cell_setting 'orthorhombic'
loop_
_space_group_symop_operation_xyz
x,y,z
-x,-y,z
1/2+x,1/2-y,-z
1/2-x,1/2+y,-z
loop_
_atom_site_type_symbol
_atom_site_label
_atom_site_fract_x
_atom_site_fract_y
_atom_site_fract_z
Si Si1 0.901488 0.656774 0.797039
Si Si2 0.161850 0.757432 0.341002
Si Si3 0.000000 0.500000 0.608984
Si Si4 0.259931 0.983909 0.276328
Si Si5 0.013977 0.162724 0.585493
Si Si6 0.390565 0.584129 0.930924
Si Si7 0.657760 0.938338 0.753843
Si Si8 0.220555 0.250827 0.146002
O O1 0.979886 0.585565 0.783294
O O2 0.811275 0.607431 0.681916
O O3 0.939646 0.744253 0.660691
O O4 0.865021 0.687314 0.089492
O O5 0.127261 0.660530 0.277665
O O6 0.199318 0.784116 0.048730
O O7 0.087183 0.815894 0.486631
O O8 0.241574 0.742943 0.557696
O O9 0.917960 0.490589 0.404192
O O10 0.161893 0.994871 0.137133
O O11 0.257468 0.036064 0.558490
O O12 0.325125 0.029822 0.054780
O O13 0.061835 0.117973 0.335788
O O14 0.037270 0.099208 0.834080
O O15 0.310665 0.656891 0.968589
#
# Coordination Sequence:
#
# PCOD9312562 Si02
#       8
#     4   4   2   4   4   4   4   4
#     4  10  24  42  63 100 131 171 207 271 326 399
#     4  12  21  42  63  91 126 173 216 268 310 384
#     4  10  22  40  62  96 148 162 208 262 352 384
#     4  11  23  39  64  88 133 170 214 258 332 393
#     4  11  24  39  66  95 131 164 225 273 321 377
#     4  11  21  40  63  93 125 173 220 271 315 390
#     4  11  21  38  58  94 125 179 199 257 317 409
#     4  11  23  39  66  88 131 172 220 257 319 388
#
# _framework density 26.548971000000002
#
# number of rings (size 3 to 8) (size 9 to 14) (size 15 to 20)
#    0.000    1.067    4.000    3.200    0.000    8.533 
#    4.800    0.000    0.000    4.800    0.000    0.000 
#    0.000    0.000    0.000    0.000    0.000    0.000 
#
# Total GULP energy -167800.408181 kJ/mol
# GULP energy per Si atom -5593.346939 kJ/mol
# Density = 2.648854 g / cm^3
# Si number density = 26.548971 Si / 1000 Ang^3
#
#
#
# Elastic Constant Matrix: (Units=GPa)
#
#
# Indices 1 2 3 4 5 6 
#
# 1 40.0152 3.1587 10.2660 0.0000 0.0000 0.0000
# 2 3.1587 83.5606 16.5520 0.0000 0.0000 0.0000
# 3 10.2660 16.5520 143.0715 0.0000 0.0000 0.0000
# 4 0.0000 0.0000 0.0000 20.7933 0.0000 0.0000
# 5 0.0000 0.0000 0.0000 0.0000 34.9136 0.0000
# 6 0.0000 0.0000 0.0000 0.0000 0.0000 40.0371
#
#
#
# Elastic Compliance Matrix: (Units=1/GPa)
#
#
# Indices 1 2 3 4 5 6 
#
# 1 0.025490 -0.000615 -0.001758 0.000000 0.000000 0.000000
# 2 -0.000615 0.012263 -0.001375 0.000000 0.000000 0.000000
# 3 -0.001758 -0.001375 0.007275 0.000000 0.000000 0.000000
# 4 0.000000 0.000000 0.000000 0.048092 0.000000 0.000000
# 5 0.000000 0.000000 0.000000 0.000000 0.028642 0.000000
# 6 0.000000 0.000000 0.000000 0.000000 0.000000 0.024977
#
#
# Mechanical properties :
#
#
# Convention : Reuss Voigt Hill
#
# Bulk Modulus (GPa) = 26.64383 36.28898 31.46640
# Shear Modulus (GPa) = 29.98585 34.92682 32.45634
#
# Velocity S-wave (km/s) = 3.36438 3.63100 3.50023
# Velocity P-wave (km/s) = 5.01494 5.59261 5.31163
#
# Compressibility (1/GPa) = 0.03753215
#
# Stress axis : x y z
#
# Youngs Moduli (GPa) = 39.23095 81.54679 137.46330
#
# Poissons Ratio (x) = 0.05018 0.24164
# Poissons Ratio (y) = 0.02414 0.18895
# Poissons Ratio (z) = 0.06896 0.11209
#
# Static dielectric constant tensor:
#      x y z
#    x 2.237470 0.000000 0.000000 
#    y 0.000000 2.174240 0.000000 
#    z 0.000000 0.000000 2.006690 
# 
# From -- ./inp_files/1623.got.cif
#   From: 2010.05.17/outbox.cif.g08.bks.cpg/sg18_1_cif.got.tgz:1623.got - 2010.06.03 22:40:56.
