data_PCOD9312523
_publ_section_title
;
Structure prediction by ZEFSAII (Michael W. Deem and Ramdas Pophale) SiO2 
 PCOD9312523
Probable space group: P 21 21 2
;
_chemical_formula_sum "Si O2"
_cell_formula_units_Z 28
_cell_length_a 10.593544
_cell_length_b 17.051285
_cell_length_c 6.431802
_cell_angle_alpha 90.000000
_cell_angle_beta 90.000000
_cell_angle_gamma 90.000000
_cell_volume 1161.799150
_symmetry_space_group_name_H-M "P 21 21 2"
_symmetry_group_IT_number 18
_symmetry_cell_setting 'orthorhombic'
loop_
_space_group_symop_operation_xyz
x,y,z
-x,-y,z
1/2+x,1/2-y,-z
1/2-x,1/2+y,-z
loop_
_atom_site_type_symbol
_atom_site_label
_atom_site_fract_x
_atom_site_fract_y
_atom_site_fract_z
Si Si1 0.949845 0.867133 0.703661
Si Si2 0.600758 0.885259 0.196859
Si Si3 0.184016 0.019171 0.384849
Si Si4 0.500000 0.000000 0.854690
Si Si5 0.312393 0.213665 0.838694
Si Si6 0.500000 0.500000 0.985231
Si Si7 0.310017 0.337503 0.523518
Si Si8 0.949256 0.643418 0.415970
O O1 0.824710 0.822942 0.783840
O O2 0.060717 0.817526 0.596065
O O3 0.904001 0.929497 0.532239
O O4 0.009554 0.921182 0.881727
O O5 0.479786 0.868554 0.339581
O O6 0.692594 0.928606 0.356644
O O7 0.654004 0.809899 0.074275
O O8 0.581303 0.947428 0.011377
O O9 0.199364 0.931437 0.465991
O O10 0.119841 0.011473 0.161132
O O11 0.569534 0.061371 0.705827
O O12 0.310265 0.302275 0.755738
O O13 0.428302 0.179452 0.698146
O O14 0.182116 0.309397 0.408823
#
# Coordination Sequence:
#
# PCOD9312523 Si02
#       8
#     4   4   4   2   4   2   4   4
#     4  12  24  46  73 101 141 183 238 292 349 419
#     4  11  23  44  70  98 136 183 230 283 350 414
#     4  12  23  43  72 105 133 178 243 293 337 417
#     4  10  22  38  70 102 126 176 228 284 330 410
#     4  11  26  47  67  98 144 187 227 285 366 421
#     4  12  22  42  72 106 130 186 234 300 338 416
#     4  12  25  45  67 106 138 180 234 294 350 421
#     4  11  24  44  67  99 142 177 229 286 345 419
#
# _framework density 24.100549999999998
#
# number of rings (size 3 to 8) (size 9 to 14) (size 15 to 20)
#    0.000    0.571    5.714    3.000    4.000    0.000 
#    7.714    0.000    0.000    0.000    0.000    0.000 
#    0.000    0.000    0.000    0.000    0.000    0.000 
#
# Total GULP energy -156623.729424 kJ/mol
# GULP energy per Si atom -5593.704622 kJ/mol
# Density = 2.404570 g / cm^3
# Si number density = 24.100550 Si / 1000 Ang^3
#
#
#
# Elastic Constant Matrix: (Units=GPa)
#
#
# Indices 1 2 3 4 5 6 
#
# 1 112.4067 31.3343 33.6347 0.0000 0.0000 0.0000
# 2 31.3343 62.0739 31.2705 0.0000 0.0000 0.0000
# 3 33.6347 31.2705 89.2571 0.0000 0.0000 0.0000
# 4 0.0000 0.0000 0.0000 11.3103 0.0000 0.0000
# 5 0.0000 0.0000 0.0000 0.0000 -25.5489 0.0000
# 6 0.0000 0.0000 0.0000 0.0000 0.0000 21.3718
#
#
#
# Elastic Compliance Matrix: (Units=1/GPa)
#
#
# Indices 1 2 3 4 5 6 
#
# 1 0.010840 -0.004146 -0.002632 0.000000 0.000000 0.000000
# 2 -0.004146 0.021148 -0.005847 0.000000 0.000000 0.000000
# 3 -0.002632 -0.005847 0.014244 0.000000 0.000000 0.000000
# 4 0.000000 0.000000 0.000000 0.088415 0.000000 0.000000
# 5 0.000000 0.000000 0.000000 0.000000 -0.039141 0.000000
# 6 0.000000 0.000000 0.000000 0.000000 0.000000 0.046791
#
#
# Mechanical properties :
#
#
# Convention : Reuss Voigt Hill
#
# Bulk Modulus (GPa) = 47.66012 50.69075 49.17543
# Shear Modulus (GPa) = 28.64674 12.59318 20.61996
#
# Velocity S-wave (km/s) = 3.45140 2.28836 2.92820
# Velocity P-wave (km/s) = 5.97506 5.29725 5.64633
#
# Compressibility (1/GPa) = 0.02098190
#
# Stress axis : x y z
#
# Youngs Moduli (GPa) = 92.25487 47.28602 70.20562
#
# Poissons Ratio (x) = 0.19603 0.18480
# Poissons Ratio (y) = 0.38246 0.41048
# Poissons Ratio (z) = 0.24284 0.27647
#
# Static dielectric constant tensor:
#      x y z
#    x 2.083870 0.000000 0.000000 
#    y 0.000000 2.214430 0.000000 
#    z 0.000000 0.000000 1.877560 
# 
# From -- ./inp_files/1258.got.cif
#   From: 2010.05.17/outbox.cif.g08.bks.cpg/sg18_1_cif.got.tgz:1258.got - 2010.06.03 22:40:56.
