data_PCOD9312038
_publ_section_title
;
Structure prediction by ZEFSAII (Michael W. Deem and Ramdas Pophale) SiO2 
 PCOD9312038
Probable space group: P 21 21 2
;
_chemical_formula_sum "Si O2"
_cell_formula_units_Z 20
_cell_length_a 8.419741
_cell_length_b 9.900364
_cell_length_c 9.906647
_cell_angle_alpha 90.000000
_cell_angle_beta 90.000000
_cell_angle_gamma 90.000000
_cell_volume 825.803241
_symmetry_space_group_name_H-M "P 21 21 2"
_symmetry_group_IT_number 18
_symmetry_cell_setting 'orthorhombic'
loop_
_space_group_symop_operation_xyz
x,y,z
-x,-y,z
1/2+x,1/2-y,-z
1/2-x,1/2+y,-z
loop_
_atom_site_type_symbol
_atom_site_label
_atom_site_fract_x
_atom_site_fract_y
_atom_site_fract_z
Si Si1 0.653023 0.824994 0.993354
Si Si2 0.284143 0.064286 0.599211
Si Si3 0.500000 0.500000 0.595454
Si Si4 0.695780 0.102923 0.876627
Si Si5 0.729127 0.665114 0.741593
Si Si6 0.000000 0.500000 0.618922
O O1 0.475951 0.850114 0.935422
O O2 0.726341 0.716243 0.891671
O O3 0.738715 0.968821 0.967618
O O4 0.686468 0.734386 0.126388
O O5 0.224346 0.203674 0.658099
O O6 0.148960 0.007031 0.503150
O O7 0.318997 0.963130 0.725025
O O8 0.424947 0.099850 0.493244
O O9 0.554068 0.619095 0.695380
O O10 0.861501 0.554238 0.713064
#
# Coordination Sequence:
#
# PCOD9312038 Si02
#       6
#     4   4   2   4   4   2
#     4  10  23  43  64  93 128 169 216 266 322 377
#     4  10  20  39  62  91 126 168 212 264 325 381
#     4  10  22  36  60  92 122 166 216 262 320 386
#     4  10  23  42  67  93 129 170 215 269 319 381
#     4  10  21  38  60  89 127 165 213 267 320 381
#     4  10  20  36  62  92 126 166 212 266 320 382
#
# _framework density 24.218841999999999
#
# number of rings (size 3 to 8) (size 9 to 14) (size 15 to 20)
#    0.000    2.000    0.000    3.600    0.000    8.800 
#    0.000    6.000    0.000    4.800    0.000    0.000 
#    0.000    0.000    0.000    0.000    0.000    0.000 
#
# Total GULP energy -111452.199855 kJ/mol
# GULP energy per Si atom -5572.609993 kJ/mol
# Density = 2.416372 g / cm^3
# Si number density = 24.218842 Si / 1000 Ang^3
#
#
#
# Elastic Constant Matrix: (Units=GPa)
#
#
# Indices 1 2 3 4 5 6 
#
# 1 64.4273 27.0660 16.7829 0.0000 0.0000 0.0000
# 2 27.0660 119.3438 38.1532 0.0000 0.0000 0.0000
# 3 16.7829 38.1532 41.4733 0.0000 0.0000 0.0000
# 4 0.0000 0.0000 0.0000 19.7631 0.0000 0.0000
# 5 0.0000 0.0000 0.0000 0.0000 18.4241 0.0000
# 6 0.0000 0.0000 0.0000 0.0000 0.0000 32.9431
#
#
#
# Elastic Compliance Matrix: (Units=1/GPa)
#
#
# Indices 1 2 3 4 5 6 
#
# 1 0.017847 -0.002463 -0.004956 0.000000 0.000000 0.000000
# 2 -0.002463 0.012210 -0.010236 0.000000 0.000000 0.000000
# 3 -0.004956 -0.010236 0.035534 0.000000 0.000000 0.000000
# 4 0.000000 0.000000 0.000000 0.050599 0.000000 0.000000
# 5 0.000000 0.000000 0.000000 0.000000 0.054277 0.000000
# 6 0.000000 0.000000 0.000000 0.000000 0.000000 0.030355
#
#
# Mechanical properties :
#
#
# Convention : Reuss Voigt Hill
#
# Bulk Modulus (GPa) = 33.02420 43.24982 38.13701
# Shear Modulus (GPa) = 20.30648 23.77555 22.04101
#
# Velocity S-wave (km/s) = 2.89876 3.13660 3.02002
# Velocity P-wave (km/s) = 4.98689 5.56906 5.28599
#
# Compressibility (1/GPa) = 0.03028083
#
# Stress axis : x y z
#
# Youngs Moduli (GPa) = 56.03125 81.89956 28.14203
#
# Poissons Ratio (x) = 0.20173 0.13948
# Poissons Ratio (y) = 0.13801 0.28806
# Poissons Ratio (z) = 0.27771 0.83831
#
# Static dielectric constant tensor:
#      x y z
#    x 2.167880 0.000000 0.000000 
#    y 0.000000 2.079930 0.000000 
#    z 0.000000 0.000000 2.008870 
# 
# From -- ./inp_files/5447.got.cif
#   From: 2010.05.17/outbox.cif.g08.bks.cpg/sg18_3_cif.got.tgz:5447.got - 2010.06.03 22:40:56.
