data_PCOD9312736
_publ_section_title
;
Structure prediction by ZEFSAII (Michael W. Deem and Ramdas Pophale) SiO2 
 PCOD9312736
Probable space group: P 21 21 2
;
_chemical_formula_sum "Si O2"
_cell_formula_units_Z 18
_cell_length_a 9.103691
_cell_length_b 13.240252
_cell_length_c 5.305008
_cell_angle_alpha 90.000000
_cell_angle_beta 90.000000
_cell_angle_gamma 90.000000
_cell_volume 639.440004
_symmetry_space_group_name_H-M "P 21 21 2"
_symmetry_group_IT_number 18
_symmetry_cell_setting 'orthorhombic'
loop_
_space_group_symop_operation_xyz
x,y,z
-x,-y,z
1/2+x,1/2-y,-z
1/2-x,1/2+y,-z
loop_
_atom_site_type_symbol
_atom_site_label
_atom_site_fract_x
_atom_site_fract_y
_atom_site_fract_z
Si Si1 0.829153 0.176002 0.698822
Si Si2 0.238151 0.005393 0.355809
Si Si3 0.000000 0.500000 0.955786
Si Si4 0.140190 0.664751 0.311666
Si Si5 0.597351 0.322153 0.938579
O O1 0.807159 0.063504 0.590742
O O2 0.898243 0.231744 0.452756
O O3 0.679536 0.235508 0.772219
O O4 0.436022 0.313360 0.060636
O O5 0.351396 0.952016 0.168897
O O6 0.351185 0.089968 0.452889
O O7 0.118757 0.072480 0.210855
O O8 0.055029 0.596308 0.113347
O O9 0.300263 0.674125 0.187622
#
# Coordination Sequence:
#
# PCOD9312736 Si02
#       5
#     4   4   2   4   4
#     4  11  26  51  80 113 160 207 258 328 393 473
#     4  10  24  47  78 112 159 205 256 326 397 468
#     4  10  22  46  74 110 150 200 262 324 386 470
#     4  10  24  44  75 111 147 199 266 321 392 468
#     4  10  26  50  78 115 153 205 266 319 397 470
#
# _framework density 28.149633000000001
#
# number of rings (size 3 to 8) (size 9 to 14) (size 15 to 20)
#    0.000    1.778    0.000    0.667    0.000   22.222 
#    0.000   17.778    0.000    0.000    0.000    0.000 
#    0.000    0.000    0.000    0.000    0.000    0.000 
#
# Total GULP energy -100755.445424 kJ/mol
# GULP energy per Si atom -5597.524746 kJ/mol
# Density = 2.808556 g / cm^3
# Si number density = 28.149633 Si / 1000 Ang^3
#
#
#
# Elastic Constant Matrix: (Units=GPa)
#
#
# Indices 1 2 3 4 5 6 
#
# 1 145.5883 54.4050 40.3416 0.0000 0.0000 0.0000
# 2 54.4050 111.4393 35.5699 0.0000 0.0000 0.0000
# 3 40.3416 35.5699 132.9027 0.0000 0.0000 0.0000
# 4 0.0000 0.0000 0.0000 48.2127 0.0000 0.0000
# 5 0.0000 0.0000 0.0000 0.0000 30.9229 0.0000
# 6 0.0000 0.0000 0.0000 0.0000 0.0000 48.9279
#
#
#
# Elastic Compliance Matrix: (Units=1/GPa)
#
#
# Indices 1 2 3 4 5 6 
#
# 1 0.008720 -0.003731 -0.001648 0.000000 0.000000 0.000000
# 2 -0.003731 0.011408 -0.001921 0.000000 0.000000 0.000000
# 3 -0.001648 -0.001921 0.008539 0.000000 0.000000 0.000000
# 4 0.000000 0.000000 0.000000 0.020741 0.000000 0.000000
# 5 0.000000 0.000000 0.000000 0.000000 0.032338 0.000000
# 6 0.000000 0.000000 0.000000 0.000000 0.000000 0.020438
#
#
# Mechanical properties :
#
#
# Convention : Reuss Voigt Hill
#
# Bulk Modulus (GPa) = 71.09047 72.28481 71.68764
# Shear Modulus (GPa) = 41.16145 42.92028 42.04086
#
# Velocity S-wave (km/s) = 3.82807 3.90900 3.86875
# Velocity P-wave (km/s) = 6.69688 6.79030 6.74375
#
# Compressibility (1/GPa) = 0.01406658
#
# Stress axis : x y z
#
# Youngs Moduli (GPa) = 114.68444 87.65797 117.11407
#
# Poissons Ratio (x) = 0.32704 0.19303
# Poissons Ratio (y) = 0.42787 0.22495
# Poissons Ratio (z) = 0.18903 0.16837
#
# Static dielectric constant tensor:
#      x y z
#    x 2.256200 0.000000 0.000000 
#    y 0.000000 2.207060 0.000000 
#    z 0.000000 0.000000 2.137340 
# 
# From -- ./inp_files/580.got.cif
#   From: 2010.05.17/outbox.cif.g08.bks.cpg/sg18_1_cif.got.tgz:580.got - 2010.06.03 22:40:56.
