data_PCOD9312108
_publ_section_title
;
Structure prediction by ZEFSAII (Michael W. Deem and Ramdas Pophale) SiO2 
 PCOD9312108
Probable space group: P 21 21 2
;
_chemical_formula_sum "Si O2"
_cell_formula_units_Z 24
_cell_length_a 7.565417
_cell_length_b 7.925467
_cell_length_c 17.478278
_cell_angle_alpha 90.000000
_cell_angle_beta 90.000000
_cell_angle_gamma 90.000000
_cell_volume 1047.988159
_symmetry_space_group_name_H-M "P 21 21 2"
_symmetry_group_IT_number 18
_symmetry_cell_setting 'orthorhombic'
loop_
_space_group_symop_operation_xyz
x,y,z
-x,-y,z
1/2+x,1/2-y,-z
1/2-x,1/2+y,-z
loop_
_atom_site_type_symbol
_atom_site_label
_atom_site_fract_x
_atom_site_fract_y
_atom_site_fract_z
Si Si1 0.874062 0.272003 0.294217
Si Si2 0.246189 0.249948 0.096033
Si Si3 0.226185 0.882617 0.745860
Si Si4 0.626372 0.730224 0.407418
Si Si5 0.500000 0.500000 0.808807
Si Si6 0.000000 0.500000 0.997837
Si Si7 0.262320 0.115098 0.550550
O O1 0.733216 0.416674 0.270493
O O2 0.866282 0.272667 0.386629
O O3 0.068809 0.331073 0.267662
O O4 0.862944 0.097622 0.247833
O O5 0.331492 0.343879 0.168771
O O6 0.385946 0.135955 0.050390
O O7 0.104016 0.125094 0.135304
O O8 0.139046 0.388995 0.047209
O O9 0.124101 0.769468 0.683558
O O10 0.684396 0.878732 0.462379
O O11 0.763870 0.578479 0.424283
O O12 0.437442 0.675433 0.438708
#
# Coordination Sequence:
#
# PCOD9312108 Si02
#       7
#     4   4   4   4   2   2   4
#     4   9  18  34  58  86 121 163 206 250 308 368
#     4  11  24  43  68  97 132 168 214 267 329 402
#     4   9  19  38  60  83 118 163 205 254 313 379
#     4  10  21  36  54  79 113 154 202 252 307 362
#     4  10  20  38  64  96 128 168 210 260 318 386
#     4  12  26  46  70 102 134 174 216 272 338 404
#     4  10  21  35  53  81 117 158 204 253 303 366
#
# _framework density 22.901024
#
# number of rings (size 3 to 8) (size 9 to 14) (size 15 to 20)
#    0.000    2.000    0.000    4.000    0.000    7.333 
#    0.000    5.000    0.000    0.000    0.000    0.000 
#    0.000    0.000    0.000    0.000    0.000    0.000 
#
# Total GULP energy -133962.310487 kJ/mol
# GULP energy per Si atom -5581.762937 kJ/mol
# Density = 2.284890 g / cm^3
# Si number density = 22.901024 Si / 1000 Ang^3
#
#
#
# Elastic Constant Matrix: (Units=GPa)
#
#
# Indices 1 2 3 4 5 6 
#
# 1 57.7335 21.9866 62.5641 0.0000 0.0000 0.0000
# 2 21.9866 77.2143 65.8027 0.0000 0.0000 0.0000
# 3 62.5641 65.8027 171.8000 0.0000 0.0000 0.0000
# 4 0.0000 0.0000 0.0000 39.2411 0.0000 0.0000
# 5 0.0000 0.0000 0.0000 0.0000 32.0732 0.0000
# 6 0.0000 0.0000 0.0000 0.0000 0.0000 31.2344
#
#
#
# Elastic Compliance Matrix: (Units=1/GPa)
#
#
# Indices 1 2 3 4 5 6 
#
# 1 0.028674 0.001090 -0.010860 0.000000 0.000000 0.000000
# 2 0.001090 0.019268 -0.007777 0.000000 0.000000 0.000000
# 3 -0.010860 -0.007777 0.012754 0.000000 0.000000 0.000000
# 4 0.000000 0.000000 0.000000 0.025484 0.000000 0.000000
# 5 0.000000 0.000000 0.000000 0.000000 0.031179 0.000000
# 6 0.000000 0.000000 0.000000 0.000000 0.000000 0.032016
#
#
# Mechanical properties :
#
#
# Convention : Reuss Voigt Hill
#
# Bulk Modulus (GPa) = 39.05796 67.49495 53.27646
# Shear Modulus (GPa) = 25.90633 30.93601 28.42117
#
# Velocity S-wave (km/s) = 3.36703 3.67939 3.52667
# Velocity P-wave (km/s) = 5.67521 6.89833 6.31644
#
# Compressibility (1/GPa) = 0.02560297
#
# Stress axis : x y z
#
# Youngs Moduli (GPa) = 34.87452 51.89880 78.40560
#
# Poissons Ratio (x) = -0.05656 0.85146
# Poissons Ratio (y) = -0.03800 0.60976
# Poissons Ratio (z) = 0.37872 0.40362
#
# Static dielectric constant tensor:
#      x y z
#    x 1.867710 0.000000 0.000000 
#    y 0.000000 1.959180 0.000000 
#    z 0.000000 0.000000 1.889760 
# 
# From -- ./inp_files/6675.got.cif
#   From: 2010.05.17/outbox.cif.g08.bks.cpg/sg18_4_cif.got.tgz:6675.got - 2010.06.03 22:40:56.
