data_PCOD9312663
_publ_section_title
;
Structure prediction by ZEFSAII (Michael W. Deem and Ramdas Pophale) SiO2 
 PCOD9312663
Probable space group: P 21 21 2
;
_chemical_formula_sum "Si O2"
_cell_formula_units_Z 14
_cell_length_a 15.158886
_cell_length_b 5.353469
_cell_length_c 7.027654
_cell_angle_alpha 90.000000
_cell_angle_beta 90.000000
_cell_angle_gamma 90.000000
_cell_volume 570.312579
_symmetry_space_group_name_H-M "P 21 21 2"
_symmetry_group_IT_number 18
_symmetry_cell_setting 'orthorhombic'
loop_
_space_group_symop_operation_xyz
x,y,z
-x,-y,z
1/2+x,1/2-y,-z
1/2-x,1/2+y,-z
loop_
_atom_site_type_symbol
_atom_site_label
_atom_site_fract_x
_atom_site_fract_y
_atom_site_fract_z
Si Si1 0.323610 0.275549 0.800872
Si Si2 0.972724 0.243636 0.697963
Si Si3 0.274985 0.270957 0.249678
Si Si4 0.000000 0.000000 0.341922
O O1 0.269330 0.505668 0.711803
O O2 0.424085 0.361435 0.772346
O O3 0.288745 0.009047 0.724547
O O4 0.301813 0.272104 0.025651
O O5 0.000000 0.500000 0.791821
O O6 0.869998 0.222884 0.650226
O O7 0.000000 0.000000 0.814932
O O8 0.027928 0.209333 0.501144
#
# Coordination Sequence:
#
# PCOD9312663 Si02
#       4
#     4   4   4   2
#     4  10  23  40  65  92 123 163 207 263 302 370
#     4  10  23  40  61  93 123 163 207 248 314 371
#     4  10  22  43  63  91 124 164 211 250 318 359
#     4  10  26  38  64  94 130 156 214 248 322 358
#
# _framework density 24.547943
#
# number of rings (size 3 to 8) (size 9 to 14) (size 15 to 20)
#    0.857    1.143    0.000    1.714    6.000    2.286 
#    0.000    0.000    0.000    0.000    0.000    0.000 
#    0.000    0.000    0.000    0.000    0.000    0.000 
#
# Total GULP energy -78136.097937 kJ/mol
# GULP energy per Si atom -5581.149853 kJ/mol
# Density = 2.449207 g / cm^3
# Si number density = 24.547943 Si / 1000 Ang^3
#
#
#
# Elastic Constant Matrix: (Units=GPa)
#
#
# Indices 1 2 3 4 5 6 
#
# 1 78.1592 29.8236 7.0479 0.0000 0.0000 0.0000
# 2 29.8236 170.0169 6.8025 0.0000 0.0000 0.0000
# 3 7.0479 6.8025 67.7185 0.0000 0.0000 0.0000
# 4 0.0000 0.0000 0.0000 -1.2825 0.0000 0.0000
# 5 0.0000 0.0000 0.0000 0.0000 35.8441 0.0000
# 6 0.0000 0.0000 0.0000 0.0000 0.0000 39.7394
#
#
#
# Elastic Compliance Matrix: (Units=1/GPa)
#
#
# Indices 1 2 3 4 5 6 
#
# 1 0.013808 -0.002374 -0.001199 0.000000 0.000000 0.000000
# 2 -0.002374 0.006314 -0.000387 0.000000 0.000000 0.000000
# 3 -0.001199 -0.000387 0.014931 0.000000 0.000000 0.000000
# 4 0.000000 0.000000 0.000000 -0.779746 0.000000 0.000000
# 5 0.000000 0.000000 0.000000 0.000000 0.027899 0.000000
# 6 0.000000 0.000000 0.000000 0.000000 0.000000 0.025164
#
#
# Mechanical properties :
#
#
# Convention : Reuss Voigt Hill
#
# Bulk Modulus (GPa) = 36.85575 44.80471 40.83023
# Shear Modulus (GPa) = -7.41107 33.00826 12.79859
#
# Velocity S-wave (km/s) = -1.73942 3.67092 2.28583
# Velocity P-wave (km/s) = 3.31848 6.02155 4.86165
#
# Compressibility (1/GPa) = 0.02713281
#
# Stress axis : x y z
#
# Youngs Moduli (GPa) = 72.41946 158.38477 66.97635
#
# Poissons Ratio (x) = 0.37605 0.08028
# Poissons Ratio (y) = 0.17194 0.02593
# Poissons Ratio (z) = 0.08680 0.06131
#
# Static dielectric constant tensor:
#      x y z
#    x 1.977850 0.000000 0.000000 
#    y 0.000000 1.990570 0.000000 
#    z 0.000000 0.000000 2.010160 
# 
# From -- ./inp_files/4075.got.cif
#   From: 2010.05.17/outbox.cif.g08.bks.cpg/sg18_3_cif.got.tgz:4075.got - 2010.06.03 22:40:56.
