data_PCOD9312434
_publ_section_title
;
Structure prediction by ZEFSAII (Michael W. Deem and Ramdas Pophale) SiO2 
 PCOD9312434
Probable space group: P 21 21 2
;
_chemical_formula_sum "Si O2"
_cell_formula_units_Z 32
_cell_length_a 5.466391
_cell_length_b 14.251569
_cell_length_c 16.857397
_cell_angle_alpha 90.000000
_cell_angle_beta 90.000000
_cell_angle_gamma 90.000000
_cell_volume 1313.269588
_symmetry_space_group_name_H-M "P 21 21 2"
_symmetry_group_IT_number 18
_symmetry_cell_setting 'orthorhombic'
loop_
_space_group_symop_operation_xyz
x,y,z
-x,-y,z
1/2+x,1/2-y,-z
1/2-x,1/2+y,-z
loop_
_atom_site_type_symbol
_atom_site_label
_atom_site_fract_x
_atom_site_fract_y
_atom_site_fract_z
Si Si1 0.373868 0.288769 0.680445
Si Si2 0.644164 0.655289 0.497467
Si Si3 0.599238 0.893179 0.276390
Si Si4 0.499132 0.887148 0.764022
Si Si5 0.652714 0.872386 0.463132
Si Si6 0.614888 0.697547 0.988027
Si Si7 0.500197 0.390177 0.150823
Si Si8 0.931718 0.892091 0.169248
O O1 0.374889 0.321093 0.591132
O O2 0.454138 0.181741 0.690331
O O3 0.551401 0.352104 0.738326
O O4 0.106995 0.312621 0.712327
O O5 0.647179 0.757171 0.456900
O O6 0.388276 0.604846 0.483277
O O7 0.899735 0.602772 0.493477
O O8 0.671433 0.905947 0.373100
O O9 0.645489 0.878604 0.176610
O O10 0.500000 0.000000 0.267362
O O11 0.240503 0.855770 0.802018
O O12 0.728644 0.860380 0.821375
O O13 0.500000 0.000000 0.750571
O O14 0.566081 0.657768 0.900651
O O15 0.896360 0.726534 0.000041
O O16 0.547423 0.626113 0.058412
O O17 0.500000 0.500000 0.167341
O O18 0.000000 0.000000 0.172209
#
# Coordination Sequence:
#
# PCOD9312434 Si02
#       8
#     4   4   4   4   4   4   4   4
#     4  11  22  38  62  91 132 175 213 279 335 400
#     4   9  18  33  58  86 116 164 215 255 317 377
#     4  11  23  39  60  95 138 179 225 271 342 415
#     4  10  23  40  66  91 119 160 218 274 332 389
#     4   9  18  35  56  84 120 165 214 259 303 383
#     4  12  27  43  64  92 123 167 217 271 332 400
#     4  10  21  43  61  84 114 158 205 260 325 390
#     4  12  25  41  64  97 135 176 224 280 340 415
#
# _framework density 24.366664
#
# number of rings (size 3 to 8) (size 9 to 14) (size 15 to 20)
#    0.000    1.500    2.500    2.625    5.250    0.000 
#    0.000    2.500    0.000    0.000    0.000    4.375 
#    0.000    0.000    0.000    0.000    0.000    0.000 
#
# Total GULP energy -178227.401299 kJ/mol
# GULP energy per Si atom -5569.606291 kJ/mol
# Density = 2.431120 g / cm^3
# Si number density = 24.366664 Si / 1000 Ang^3
#
#
#
# Elastic Constant Matrix: (Units=GPa)
#
#
# Indices 1 2 3 4 5 6 
#
# 1 118.6292 12.5483 -0.2107 0.0000 0.0000 0.0000
# 2 12.5483 81.0418 23.4953 0.0000 0.0000 0.0000
# 3 -0.2107 23.4953 59.8545 0.0000 0.0000 0.0000
# 4 0.0000 0.0000 0.0000 30.4104 0.0000 0.0000
# 5 0.0000 0.0000 0.0000 0.0000 16.2851 0.0000
# 6 0.0000 0.0000 0.0000 0.0000 0.0000 21.5012
#
#
#
# Elastic Compliance Matrix: (Units=1/GPa)
#
#
# Indices 1 2 3 4 5 6 
#
# 1 0.008591 -0.001511 0.000623 0.000000 0.000000 0.000000
# 2 -0.001511 0.014190 -0.005575 0.000000 0.000000 0.000000
# 3 0.000623 -0.005575 0.018898 0.000000 0.000000 0.000000
# 4 0.000000 0.000000 0.000000 0.032883 0.000000 0.000000
# 5 0.000000 0.000000 0.000000 0.000000 0.061406 0.000000
# 6 0.000000 0.000000 0.000000 0.000000 0.000000 0.046509
#
#
# Mechanical properties :
#
#
# Convention : Reuss Voigt Hill
#
# Bulk Modulus (GPa) = 34.77974 36.79904 35.78939
# Shear Modulus (GPa) = 24.39188 28.55219 26.47203
#
# Velocity S-wave (km/s) = 3.16735 3.42683 3.29964
# Velocity P-wave (km/s) = 5.26123 5.54910 5.40708
#
# Compressibility (1/GPa) = 0.02875237
#
# Stress axis : x y z
#
# Youngs Moduli (GPa) = 116.40696 70.47408 52.91591
#
# Poissons Ratio (x) = 0.10648 -0.03298
# Poissons Ratio (y) = 0.17587 0.29502
# Poissons Ratio (z) = -0.07256 0.39291
#
# Static dielectric constant tensor:
#      x y z
#    x 2.133970 0.000000 0.000000 
#    y 0.000000 1.979830 0.000000 
#    z 0.000000 0.000000 2.019190 
# 
# From -- ./inp_files/7197.got.cif
#   From: 2010.05.17/outbox.cif.g08.bks.cpg/sg18_4_cif.got.tgz:7197.got - 2010.06.03 22:40:56.
