data_PCOD9312323
_publ_section_title
;
Structure prediction by ZEFSAII (Michael W. Deem and Ramdas Pophale) SiO2 
 PCOD9312323
Probable space group: P 21 21 2
;
_chemical_formula_sum "Si O2"
_cell_formula_units_Z 32
_cell_length_a 29.726143
_cell_length_b 8.663598
_cell_length_c 6.202127
_cell_angle_alpha 90.000000
_cell_angle_beta 90.000000
_cell_angle_gamma 90.000000
_cell_volume 1597.266967
_symmetry_space_group_name_H-M "P 21 21 2"
_symmetry_group_IT_number 18
_symmetry_cell_setting 'orthorhombic'
loop_
_space_group_symop_operation_xyz
x,y,z
-x,-y,z
1/2+x,1/2-y,-z
1/2-x,1/2+y,-z
loop_
_atom_site_type_symbol
_atom_site_label
_atom_site_fract_x
_atom_site_fract_y
_atom_site_fract_z
Si Si1 0.464104 0.889672 0.627681
Si Si2 0.177433 0.113540 0.852241
Si Si3 0.222575 0.923810 0.478476
Si Si4 0.992556 0.818514 0.007833
Si Si5 0.575651 0.882569 0.988734
Si Si6 0.407170 0.822648 0.241557
Si Si7 0.742516 0.826990 0.177035
Si Si8 0.337187 0.300882 0.896452
O O1 0.486553 0.744841 0.748011
O O2 0.423216 0.829788 0.486729
O O3 0.500000 0.000000 0.503746
O O4 0.446271 0.004762 0.811714
O O5 0.198246 0.049773 0.629814
O O6 0.138653 0.234937 0.805324
O O7 0.216885 0.177059 0.006069
O O8 0.158369 0.964864 0.981400
O O9 0.254153 0.013068 0.308639
O O10 0.246022 0.808421 0.645659
O O11 0.186297 0.832477 0.333133
O O12 0.036324 0.727254 0.922634
O O13 0.948044 0.764507 0.881648
O O14 0.000000 0.000000 0.997769
O O15 0.615224 0.782064 0.886644
O O16 0.594919 0.000735 0.163412
O O17 0.697180 0.798826 0.042908
#
# Coordination Sequence:
#
# PCOD9312323 Si02
#       8
#     4   4   4   4   4   4   4   4
#     4   9  20  38  58  84 116 151 193 237 287 349
#     4  10  23  39  59  87 119 156 200 243 292 355
#     4  10  22  40  62  86 120 158 196 248 301 349
#     4  10  21  39  61  85 116 152 190 239 291 342
#     4  10  22  38  59  86 117 151 192 243 291 345
#     4  11  22  38  60  86 117 154 192 237 293 350
#     4  10  22  41  62  88 119 155 199 247 297 359
#     4  10  22  41  61  86 119 155 201 244 292 355
#
# _framework density 20.034220999999999
#
# number of rings (size 3 to 8) (size 9 to 14) (size 15 to 20)
#    0.000    2.000    0.000    3.375    0.000   12.500 
#    0.000    3.750    0.000    0.000    0.000    0.000 
#    0.000    0.000    0.000    0.000    0.000    0.000 
#
# Total GULP energy -178713.669222 kJ/mol
# GULP energy per Si atom -5584.802163 kJ/mol
# Density = 1.998862 g / cm^3
# Si number density = 20.034221 Si / 1000 Ang^3
#
#
#
# Elastic Constant Matrix: (Units=GPa)
#
#
# Indices 1 2 3 4 5 6 
#
# 1 61.2890 29.2281 6.7706 0.0000 0.0000 0.0000
# 2 29.2281 78.9002 18.4588 0.0000 0.0000 0.0000
# 3 6.7706 18.4588 60.1741 0.0000 0.0000 0.0000
# 4 0.0000 0.0000 0.0000 27.6795 0.0000 0.0000
# 5 0.0000 0.0000 0.0000 0.0000 14.2473 0.0000
# 6 0.0000 0.0000 0.0000 0.0000 0.0000 47.0375
#
#
#
# Elastic Compliance Matrix: (Units=1/GPa)
#
#
# Indices 1 2 3 4 5 6 
#
# 1 0.019817 -0.007347 0.000024 0.000000 0.000000 0.000000
# 2 -0.007347 0.016378 -0.004197 0.000000 0.000000 0.000000
# 3 0.000024 -0.004197 0.017903 0.000000 0.000000 0.000000
# 4 0.000000 0.000000 0.000000 0.036128 0.000000 0.000000
# 5 0.000000 0.000000 0.000000 0.000000 0.070189 0.000000
# 6 0.000000 0.000000 0.000000 0.000000 0.000000 0.021260
#
#
# Mechanical properties :
#
#
# Convention : Reuss Voigt Hill
#
# Bulk Modulus (GPa) = 32.19801 34.36427 33.28114
# Shear Modulus (GPa) = 23.24852 27.51990 25.38421
#
# Velocity S-wave (km/s) = 3.41022 3.71029 3.56342
# Velocity P-wave (km/s) = 5.62250 5.96197 5.79472
#
# Compressibility (1/GPa) = 0.03105782
#
# Stress axis : x y z
#
# Youngs Moduli (GPa) = 50.46155 61.05839 55.85551
#
# Poissons Ratio (x) = 0.44858 -0.00133
# Poissons Ratio (y) = 0.37073 0.23445
# Poissons Ratio (z) = -0.00121 0.25628
#
# Static dielectric constant tensor:
#      x y z
#    x 1.689110 0.000000 0.000000 
#    y 0.000000 1.712080 0.000000 
#    z 0.000000 0.000000 1.718980 
# 
# From -- ./inp_files/2311.got.cif
#   From: 2010.05.17/outbox.cif.g08.bks.cpg/sg18_2_cif.got.tgz:2311.got - 2010.06.03 22:40:56.
