data_PCOD9312961
_publ_section_title
;
Structure prediction by ZEFSAII (Michael W. Deem and Ramdas Pophale) SiO2 
 PCOD9312961
Probable space group: P 21 21 2
;
_chemical_formula_sum "Si O2"
_cell_formula_units_Z 26
_cell_length_a 8.597982
_cell_length_b 12.335841
_cell_length_c 11.957317
_cell_angle_alpha 90.000000
_cell_angle_beta 90.000000
_cell_angle_gamma 90.000000
_cell_volume 1268.232965
_symmetry_space_group_name_H-M "P 21 21 2"
_symmetry_group_IT_number 18
_symmetry_cell_setting 'orthorhombic'
loop_
_space_group_symop_operation_xyz
x,y,z
-x,-y,z
1/2+x,1/2-y,-z
1/2-x,1/2+y,-z
loop_
_atom_site_type_symbol
_atom_site_label
_atom_site_fract_x
_atom_site_fract_y
_atom_site_fract_z
Si Si1 0.146413 0.119045 0.957720
Si Si2 0.336025 0.257005 0.097695
Si Si3 0.754503 0.047781 0.353963
Si Si4 0.000000 0.000000 0.166876
Si Si5 0.671068 0.047988 0.805196
Si Si6 0.628683 0.592144 0.401715
Si Si7 0.074045 0.662782 0.679371
O O1 0.212779 0.029409 0.874728
O O2 0.991937 0.173223 0.910811
O O3 0.282305 0.204705 0.982518
O O4 0.095510 0.073824 0.079291
O O5 0.196931 0.334045 0.140172
O O6 0.376828 0.169243 0.191227
O O7 0.874754 0.053611 0.250841
O O8 0.832038 0.087937 0.467865
O O9 0.598855 0.116146 0.331238
O O10 0.694990 0.923652 0.372452
O O11 0.500000 0.000000 0.814148
O O12 0.726678 0.060178 0.677550
O O13 0.500000 0.500000 0.378736
O O14 0.582770 0.714922 0.367731
#
# Coordination Sequence:
#
# PCOD9312961 Si02
#       7
#     4   4   4   2   4   4   4
#     4  12  24  43  68 100 141 176 234 280 348 416
#     4  11  23  43  66  99 137 183 226 283 344 414
#     4  11  25  46  71 101 137 181 231 292 348 414
#     4  12  24  44  68 102 134 178 230 288 352 414
#     4  11  24  44  67 100 137 182 228 283 341 413
#     4  11  25  47  70 100 143 182 233 283 351 418
#     4  10  25  45  68 101 138 182 230 284 350 421
#
# _framework density 20.500964
#
# number of rings (size 3 to 8) (size 9 to 14) (size 15 to 20)
#    0.000    0.923    3.846    2.769    6.462    1.231 
#    2.769    0.000    0.000    0.000    0.000    0.000 
#    0.000    0.000    0.000    0.000    0.000    0.000 
#
# Total GULP energy -145257.710708 kJ/mol
# GULP energy per Si atom -5586.835027 kJ/mol
# Density = 2.045430 g / cm^3
# Si number density = 20.500964 Si / 1000 Ang^3
#
#
#
# Elastic Constant Matrix: (Units=GPa)
#
#
# Indices 1 2 3 4 5 6 
#
# 1 86.1747 37.2038 15.6201 0.0000 0.0000 0.0000
# 2 37.2038 76.7244 14.7341 0.0000 0.0000 0.0000
# 3 15.6201 14.7341 76.9715 0.0000 0.0000 0.0000
# 4 0.0000 0.0000 0.0000 33.6368 0.0000 0.0000
# 5 0.0000 0.0000 0.0000 0.0000 25.8477 0.0000
# 6 0.0000 0.0000 0.0000 0.0000 0.0000 26.6468
#
#
#
# Elastic Compliance Matrix: (Units=1/GPa)
#
#
# Indices 1 2 3 4 5 6 
#
# 1 0.014889 -0.006893 -0.001702 0.000000 0.000000 0.000000
# 2 -0.006893 0.016722 -0.001802 0.000000 0.000000 0.000000
# 3 -0.001702 -0.001802 0.013682 0.000000 0.000000 0.000000
# 4 0.000000 0.000000 0.000000 0.029729 0.000000 0.000000
# 5 0.000000 0.000000 0.000000 0.000000 0.038688 0.000000
# 6 0.000000 0.000000 0.000000 0.000000 0.000000 0.037528
#
#
# Mechanical properties :
#
#
# Convention : Reuss Voigt Hill
#
# Bulk Modulus (GPa) = 40.81786 41.66517 41.24151
# Shear Modulus (GPa) = 27.74722 28.71377 28.23050
#
# Velocity S-wave (km/s) = 3.68293 3.74653 3.71486
# Velocity P-wave (km/s) = 6.16756 6.25163 6.20974
#
# Compressibility (1/GPa) = 0.02449908
#
# Stress axis : x y z
#
# Youngs Moduli (GPa) = 67.16569 59.80139 73.08764
#
# Poissons Ratio (x) = 0.41219 0.12439
# Poissons Ratio (y) = 0.46295 0.13172
# Poissons Ratio (z) = 0.11431 0.10778
#
# Static dielectric constant tensor:
#      x y z
#    x 1.751330 0.000000 0.000000 
#    y 0.000000 1.762210 0.000000 
#    z 0.000000 0.000000 1.699130 
# 
# From -- ./inp_files/5541.got.cif
#   From: 2010.05.17/outbox.cif.g08.bks.cpg/sg18_3_cif.got.tgz:5541.got - 2010.06.03 22:40:56.
