data_PCOD9312328
_publ_section_title
;
Structure prediction by ZEFSAII (Michael W. Deem and Ramdas Pophale) SiO2 
 PCOD9312328
Probable space group: P 21 21 2
;
_chemical_formula_sum "Si O2"
_cell_formula_units_Z 30
_cell_length_a 15.157539
_cell_length_b 5.851777
_cell_length_c 16.696984
_cell_angle_alpha 90.000000
_cell_angle_beta 90.000000
_cell_angle_gamma 90.000000
_cell_volume 1480.998071
_symmetry_space_group_name_H-M "P 21 21 2"
_symmetry_group_IT_number 18
_symmetry_cell_setting 'orthorhombic'
loop_
_space_group_symop_operation_xyz
x,y,z
-x,-y,z
1/2+x,1/2-y,-z
1/2-x,1/2+y,-z
loop_
_atom_site_type_symbol
_atom_site_label
_atom_site_fract_x
_atom_site_fract_y
_atom_site_fract_z
Si Si1 0.500000 0.500000 0.118403
Si Si2 0.147867 0.299908 0.830496
Si Si3 0.589924 0.358638 0.606776
Si Si4 0.767839 0.168138 0.309862
Si Si5 0.902224 0.531084 0.249722
Si Si6 0.858659 0.317670 0.963906
Si Si7 0.289527 0.639413 0.472641
Si Si8 0.205211 0.443906 0.108268
O O1 0.555839 0.332058 0.174920
O O2 0.431691 0.366225 0.061054
O O3 0.191797 0.406651 0.751430
O O4 0.132993 0.481383 0.899830
O O5 0.219585 0.112309 0.858261
O O6 0.500000 0.500000 0.617113
O O7 0.677316 0.477064 0.643716
O O8 0.584730 0.138191 0.662594
O O9 0.614412 0.335016 0.513610
O O10 0.845109 0.304338 0.263500
O O11 0.723115 0.326834 0.377814
O O12 0.844914 0.667598 0.183592
O O13 0.000000 0.500000 0.216772
O O14 0.759333 0.224336 0.949144
O O15 0.862084 0.413535 0.053391
O O16 0.257357 0.376233 0.492105
#
# Coordination Sequence:
#
# PCOD9312328 Si02
#       8
#     2   4   4   4   4   4   4   4
#     4  10  24  38  62  86 118 162 208 270 322 376
#     4  10  21  40  62  85 119 163 209 257 320 375
#     4  11  21  37  62  91 128 166 203 264 327 389
#     4  10  21  39  62  87 123 168 210 254 323 389
#     4  11  21  37  56  89 127 157 204 263 316 388
#     4  11  20  42  62  86 121 160 212 260 321 383
#     4  10  21  39  64  94 127 169 215 257 320 398
#     4  10  22  36  61  89 117 164 205 257 316 389
#
# _framework density 20.256612000000001
#
# number of rings (size 3 to 8) (size 9 to 14) (size 15 to 20)
#    0.000    1.600    4.000    1.200    0.000    1.067 
#    1.200    0.000    1.467    1.600    0.000    0.000 
#    0.000    0.000    0.000    0.000    0.000    0.000 
#
# Total GULP energy -167049.907121 kJ/mol
# GULP energy per Si atom -5568.330237 kJ/mol
# Density = 2.021051 g / cm^3
# Si number density = 20.256612 Si / 1000 Ang^3
#
#
#
# Elastic Constant Matrix: (Units=GPa)
#
#
# Indices 1 2 3 4 5 6 
#
# 1 94.5025 14.5138 27.7690 0.0000 0.0000 0.0000
# 2 14.5138 33.7414 -16.7784 0.0000 0.0000 0.0000
# 3 27.7690 -16.7784 42.9109 0.0000 0.0000 0.0000
# 4 0.0000 0.0000 0.0000 13.7128 0.0000 0.0000
# 5 0.0000 0.0000 0.0000 0.0000 27.3321 0.0000
# 6 0.0000 0.0000 0.0000 0.0000 0.0000 23.5203
#
#
#
# Elastic Compliance Matrix: (Units=1/GPa)
#
#
# Indices 1 2 3 4 5 6 
#
# 1 0.018922 -0.017662 -0.019151 0.000000 0.000000 0.000000
# 2 -0.017662 0.053277 0.032261 0.000000 0.000000 0.000000
# 3 -0.019151 0.032261 0.048311 0.000000 0.000000 0.000000
# 4 0.000000 0.000000 0.000000 0.072924 0.000000 0.000000
# 5 0.000000 0.000000 0.000000 0.000000 0.036587 0.000000
# 6 0.000000 0.000000 0.000000 0.000000 0.000000 0.042517
#
#
# Mechanical properties :
#
#
# Convention : Reuss Voigt Hill
#
# Bulk Modulus (GPa) = 8.97614 24.68485 16.83050
# Shear Modulus (GPa) = 15.68497 22.62306 19.15402
#
# Velocity S-wave (km/s) = 2.78567 3.34552 3.07835
# Velocity P-wave (km/s) = 3.84544 5.20921 4.57839
#
# Compressibility (1/GPa) = 0.11140645
#
# Stress axis : x y z
#
# Youngs Moduli (GPa) = 52.84961 18.76990 20.69908
#
# Poissons Ratio (x) = 0.33152 0.39640
# Poissons Ratio (y) = 0.93343 -0.66778
# Poissons Ratio (z) = 1.01211 -0.60554
#
# Static dielectric constant tensor:
#      x y z
#    x 1.732830 0.000000 0.000000 
#    y 0.000000 1.793270 0.000000 
#    z 0.000000 0.000000 1.774750 
# 
# From -- ./inp_files/7401.got.cif
#   From: 2010.05.17/outbox.cif.g08.bks.cpg/sg18_4_cif.got.tgz:7401.got - 2010.06.03 22:40:56.
