data_PCOD9312877
_publ_section_title
;
Structure prediction by ZEFSAII (Michael W. Deem and Ramdas Pophale) SiO2 
 PCOD9312877
Probable space group: P 21 21 2
;
_chemical_formula_sum "Si O2"
_cell_formula_units_Z 20
_cell_length_a 8.522946
_cell_length_b 8.845726
_cell_length_c 13.531151
_cell_angle_alpha 90.000000
_cell_angle_beta 90.000000
_cell_angle_gamma 90.000000
_cell_volume 1020.135733
_symmetry_space_group_name_H-M "P 21 21 2"
_symmetry_group_IT_number 18
_symmetry_cell_setting 'orthorhombic'
loop_
_space_group_symop_operation_xyz
x,y,z
-x,-y,z
1/2+x,1/2-y,-z
1/2-x,1/2+y,-z
loop_
_atom_site_type_symbol
_atom_site_label
_atom_site_fract_x
_atom_site_fract_y
_atom_site_fract_z
Si Si1 0.500000 0.500000 0.335265
Si Si2 0.979072 0.247843 0.831047
Si Si3 0.500000 0.500000 0.000309
Si Si4 0.337890 0.420811 0.608818
Si Si5 0.749730 0.507444 0.828540
Si Si6 0.169978 0.565781 0.441905
O O1 0.507112 0.354330 0.264623
O O2 0.329864 0.501787 0.390135
O O3 0.820456 0.340875 0.815297
O O4 0.113478 0.371469 0.844213
O O5 0.981923 0.141971 0.926888
O O6 0.644738 0.499767 0.925454
O O7 0.500000 0.500000 0.577945
O O8 0.328661 0.437878 0.726761
O O9 0.198542 0.512866 0.554978
O O10 0.332472 0.246172 0.574933
O O11 0.000000 0.500000 0.408829
#
# Coordination Sequence:
#
# PCOD9312877 Si02
#       6
#     2   4   2   4   4   4
#     4  11  24  47  66 100 148 181 240 283 348 420
#     4  10  24  42  68  95 137 181 221 291 349 414
#     4  11  22  43  68  98 132 171 234 289 346 420
#     4  12  26  46  69 102 142 188 234 293 348 425
#     4  11  23  41  69  97 133 180 232 277 354 413
#     4  12  28  44  72 104 144 189 238 289 352 420
#
# _framework density 19.605233999999999
#
# number of rings (size 3 to 8) (size 9 to 14) (size 15 to 20)
#    0.000    0.800    4.000    2.400    8.400    0.000 
#    0.000    0.000    0.000    0.000    0.000    0.000 
#    0.000    0.000    0.000    0.000    0.000    0.000 
#
# Total GULP energy -111640.322903 kJ/mol
# GULP energy per Si atom -5582.016145 kJ/mol
# Density = 1.956061 g / cm^3
# Si number density = 19.605234 Si / 1000 Ang^3
#
#
#
# Elastic Constant Matrix: (Units=GPa)
#
#
# Indices 1 2 3 4 5 6 
#
# 1 105.0696 31.2912 22.8959 0.0000 0.0000 0.0000
# 2 31.2912 121.1992 33.8015 0.0000 0.0000 0.0000
# 3 22.8959 33.8015 77.7330 0.0000 0.0000 0.0000
# 4 0.0000 0.0000 0.0000 8.4637 0.0000 0.0000
# 5 0.0000 0.0000 0.0000 0.0000 33.7978 0.0000
# 6 0.0000 0.0000 0.0000 0.0000 0.0000 12.0392
#
#
#
# Elastic Compliance Matrix: (Units=1/GPa)
#
#
# Indices 1 2 3 4 5 6 
#
# 1 0.010632 -0.002130 -0.002206 0.000000 0.000000 0.000000
# 2 -0.002130 0.009816 -0.003641 0.000000 0.000000 0.000000
# 3 -0.002206 -0.003641 0.015098 0.000000 0.000000 0.000000
# 4 0.000000 0.000000 0.000000 0.118151 0.000000 0.000000
# 5 0.000000 0.000000 0.000000 0.000000 0.029588 0.000000
# 6 0.000000 0.000000 0.000000 0.000000 0.000000 0.083062
#
#
# Mechanical properties :
#
#
# Convention : Reuss Voigt Hill
#
# Bulk Modulus (GPa) = 51.03887 53.33100 52.18494
# Shear Modulus (GPa) = 17.31112 25.26102 21.28607
#
# Velocity S-wave (km/s) = 2.97473 3.59344 3.29862
# Velocity P-wave (km/s) = 6.15536 6.66922 6.41744
#
# Compressibility (1/GPa) = 0.01959291
#
# Stress axis : x y z
#
# Youngs Moduli (GPa) = 94.05162 101.87156 66.23612
#
# Poissons Ratio (x) = 0.21698 0.14609
# Poissons Ratio (y) = 0.20033 0.24118
# Poissons Ratio (z) = 0.20744 0.37093
#
# Static dielectric constant tensor:
#      x y z
#    x 1.725750 0.000000 0.000000 
#    y 0.000000 1.669650 0.000000 
#    z 0.000000 0.000000 1.697060 
# 
# From -- ./inp_files/5442.got.cif
#   From: 2010.05.17/outbox.cif.g08.bks.cpg/sg18_3_cif.got.tgz:5442.got - 2010.06.03 22:40:56.
