data_PCOD9312693
_publ_section_title
;
Structure prediction by ZEFSAII (Michael W. Deem and Ramdas Pophale) SiO2 
 PCOD9312693
Probable space group: P 21 21 2
;
_chemical_formula_sum "Si O2"
_cell_formula_units_Z 22
_cell_length_a 10.854569
_cell_length_b 13.522500
_cell_length_c 5.685208
_cell_angle_alpha 90.000000
_cell_angle_beta 90.000000
_cell_angle_gamma 90.000000
_cell_volume 834.480000
_symmetry_space_group_name_H-M "P 21 21 2"
_symmetry_group_IT_number 18
_symmetry_cell_setting 'orthorhombic'
loop_
_space_group_symop_operation_xyz
x,y,z
-x,-y,z
1/2+x,1/2-y,-z
1/2-x,1/2+y,-z
loop_
_atom_site_type_symbol
_atom_site_label
_atom_site_fract_x
_atom_site_fract_y
_atom_site_fract_z
Si Si1 0.249703 0.071161 0.953776
Si Si2 0.393745 0.252039 0.082661
Si Si3 0.177951 0.923609 0.574687
Si Si4 0.058961 0.140416 0.298079
Si Si5 0.500000 0.000000 0.824538
Si Si6 0.424131 0.839148 0.453417
O O1 0.509990 0.095644 0.656404
O O2 0.188137 0.025959 0.719537
O O3 0.295838 0.184516 0.944974
O O4 0.159793 0.070368 0.177444
O O5 0.324959 0.336999 0.227561
O O6 0.475526 0.181243 0.251856
O O7 0.490439 0.306561 0.918387
O O8 0.051296 0.907452 0.442225
O O9 0.375424 0.008722 0.969975
O O10 0.110972 0.229940 0.453683
O O11 0.297286 0.898520 0.417765
#
# Coordination Sequence:
#
# PCOD9312693 Si02
#       6
#     4   4   4   4   2   4
#     4  11  24  49  83 116 163 207 275 337 404 494
#     4  11  24  44  81 116 151 215 265 329 416 477
#     4  10  25  49  77 117 164 209 269 334 410 478
#     4  11  24  47  79 113 162 212 267 338 405 488
#     4  10  22  46  76 126 154 210 274 334 406 476
#     4  10  22  43  76 117 157 200 268 339 396 482
#
# _framework density 26.363723
#
# number of rings (size 3 to 8) (size 9 to 14) (size 15 to 20)
#    0.000    1.455    3.636    0.000    2.545    1.455 
#    6.545    3.636    0.000    0.000    0.000    0.000 
#    0.000    0.000    0.000    0.000    0.000    0.000 
#
# Total GULP energy -123367.468664 kJ/mol
# GULP energy per Si atom -5607.612212 kJ/mol
# Density = 2.630372 g / cm^3
# Si number density = 26.363723 Si / 1000 Ang^3
#
#
#
# Elastic Constant Matrix: (Units=GPa)
#
#
# Indices 1 2 3 4 5 6 
#
# 1 161.1631 65.3316 74.7553 0.0000 0.0000 0.0000
# 2 65.3316 154.4850 76.9687 0.0000 0.0000 0.0000
# 3 74.7553 76.9687 108.1461 0.0000 0.0000 0.0000
# 4 0.0000 0.0000 0.0000 72.2241 0.0000 0.0000
# 5 0.0000 0.0000 0.0000 0.0000 59.0910 0.0000
# 6 0.0000 0.0000 0.0000 0.0000 0.0000 56.6027
#
#
#
# Elastic Compliance Matrix: (Units=1/GPa)
#
#
# Indices 1 2 3 4 5 6 
#
# 1 0.009258 -0.001126 -0.005598 0.000000 0.000000 0.000000
# 2 -0.001126 0.010167 -0.006457 0.000000 0.000000 0.000000
# 3 -0.005598 -0.006457 0.017712 0.000000 0.000000 0.000000
# 4 0.000000 0.000000 0.000000 0.013846 0.000000 0.000000
# 5 0.000000 0.000000 0.000000 0.000000 0.016923 0.000000
# 6 0.000000 0.000000 0.000000 0.000000 0.000000 0.017667
#
#
# Mechanical properties :
#
#
# Convention : Reuss Voigt Hill
#
# Bulk Modulus (GPa) = 92.81775 95.32285 94.07030
# Shear Modulus (GPa) = 43.28007 51.36613 47.32310
#
# Velocity S-wave (km/s) = 4.05613 4.41882 4.24135
# Velocity P-wave (km/s) = 7.56434 7.89113 7.72946
#
# Compressibility (1/GPa) = 0.01077380
#
# Stress axis : x y z
#
# Youngs Moduli (GPa) = 108.01389 98.36226 56.45866
#
# Poissons Ratio (x) = 0.11076 0.31606
# Poissons Ratio (y) = 0.12163 0.36456
# Poissons Ratio (z) = 0.60468 0.63514
#
# Static dielectric constant tensor:
#      x y z
#    x 2.025570 0.000000 0.000000 
#    y 0.000000 2.070630 0.000000 
#    z 0.000000 0.000000 2.071510 
# 
# From -- ./inp_files/1071.got.cif
#   From: 2010.05.17/outbox.cif.g08.bks.cpg/sg18_1_cif.got.tgz:1071.got - 2010.06.03 22:40:56.
