data_PCOD9312782
_publ_section_title
;
Structure prediction by ZEFSAII (Michael W. Deem and Ramdas Pophale) SiO2 
 PCOD9312782
Probable space group: P 21 21 2
;
_chemical_formula_sum "Si O2"
_cell_formula_units_Z 16
_cell_length_a 9.493918
_cell_length_b 9.019661
_cell_length_c 6.919725
_cell_angle_alpha 90.000000
_cell_angle_beta 90.000000
_cell_angle_gamma 90.000000
_cell_volume 592.549351
_symmetry_space_group_name_H-M "P 21 21 2"
_symmetry_group_IT_number 18
_symmetry_cell_setting 'orthorhombic'
loop_
_space_group_symop_operation_xyz
x,y,z
-x,-y,z
1/2+x,1/2-y,-z
1/2-x,1/2+y,-z
loop_
_atom_site_type_symbol
_atom_site_label
_atom_site_fract_x
_atom_site_fract_y
_atom_site_fract_z
Si Si1 0.600483 0.376431 0.071987
Si Si2 0.548138 0.283951 0.491662
Si Si3 0.346918 0.932810 0.959449
Si Si4 0.727410 0.570906 0.605909
O O1 0.500000 0.500000 0.981286
O O2 0.523424 0.307259 0.259430
O O3 0.643556 0.243595 0.932019
O O4 0.734840 0.465923 0.148509
O O5 0.649167 0.420633 0.548992
O O6 0.397333 0.305654 0.591131
O O7 0.637938 0.133742 0.512328
O O8 0.287770 0.944905 0.179006
O O9 0.500000 0.000000 0.943618
#
# Coordination Sequence:
#
# PCOD9312782 Si02
#       4
#     4   4   4   4
#     4  11  23  46  67  98 137 176 230 281 337 407
#     4  10  23  43  65 102 135 178 219 278 339 402
#     4  11  26  44  68 101 135 184 228 280 346 404
#     4  10  23  42  67 100 135 177 220 272 341 401
#
# _framework density 27.001968999999999
#
# number of rings (size 3 to 8) (size 9 to 14) (size 15 to 20)
#    0.000    1.500    2.500    1.500   10.500    2.000 
#    9.000    0.000    0.000    0.000    0.000    0.000 
#    0.000    0.000    0.000    0.000    0.000    0.000 
#
# Total GULP energy -89687.686256 kJ/mol
# GULP energy per Si atom -5605.480391 kJ/mol
# Density = 2.694051 g / cm^3
# Si number density = 27.001969 Si / 1000 Ang^3
#
#
#
# Elastic Constant Matrix: (Units=GPa)
#
#
# Indices 1 2 3 4 5 6 
#
# 1 159.5264 53.5411 -0.9677 0.0000 0.0000 0.0000
# 2 53.5411 135.3251 2.5746 0.0000 0.0000 0.0000
# 3 -0.9677 2.5746 69.3551 0.0000 0.0000 0.0000
# 4 0.0000 0.0000 0.0000 38.4234 0.0000 0.0000
# 5 0.0000 0.0000 0.0000 0.0000 33.6430 0.0000
# 6 0.0000 0.0000 0.0000 0.0000 0.0000 66.1536
#
#
#
# Elastic Compliance Matrix: (Units=1/GPa)
#
#
# Indices 1 2 3 4 5 6 
#
# 1 0.007231 -0.002865 0.000207 0.000000 0.000000 0.000000
# 2 -0.002865 0.008530 -0.000357 0.000000 0.000000 0.000000
# 3 0.000207 -0.000357 0.014435 0.000000 0.000000 0.000000
# 4 0.000000 0.000000 0.000000 0.026026 0.000000 0.000000
# 5 0.000000 0.000000 0.000000 0.000000 0.029724 0.000000
# 6 0.000000 0.000000 0.000000 0.000000 0.000000 0.015116
#
#
# Mechanical properties :
#
#
# Convention : Reuss Voigt Hill
#
# Bulk Modulus (GPa) = 41.37839 52.72253 47.05046
# Shear Modulus (GPa) = 43.42291 48.24790 45.83540
#
# Velocity S-wave (km/s) = 4.01451 4.23168 4.12452
# Velocity P-wave (km/s) = 6.07008 6.59120 6.33600
#
# Compressibility (1/GPa) = 0.02416721
#
# Stress axis : x y z
#
# Youngs Moduli (GPa) = 138.28608 117.23412 69.27759
#
# Poissons Ratio (x) = 0.33588 -0.01436
# Poissons Ratio (y) = 0.39619 0.02471
# Poissons Ratio (z) = -0.02866 0.04181
#
# Static dielectric constant tensor:
#      x y z
#    x 2.036620 0.000000 0.000000 
#    y 0.000000 2.122620 0.000000 
#    z 0.000000 0.000000 2.246730 
# 
# From -- ./inp_files/2873.got.cif
#   From: 2010.05.17/outbox.cif.g08.bks.cpg/sg18_2_cif.got.tgz:2873.got - 2010.06.03 22:40:56.
