data_PCOD9312994
_publ_section_title
;
Structure prediction by ZEFSAII (Michael W. Deem and Ramdas Pophale) SiO2 
 PCOD9312994
Probable space group: P 21 21 2
;
_chemical_formula_sum "Si O2"
_cell_formula_units_Z 18
_cell_length_a 7.362422
_cell_length_b 10.569553
_cell_length_c 9.260558
_cell_angle_alpha 90.000000
_cell_angle_beta 90.000000
_cell_angle_gamma 90.000000
_cell_volume 720.633560
_symmetry_space_group_name_H-M "P 21 21 2"
_symmetry_group_IT_number 18
_symmetry_cell_setting 'orthorhombic'
loop_
_space_group_symop_operation_xyz
x,y,z
-x,-y,z
1/2+x,1/2-y,-z
1/2-x,1/2+y,-z
loop_
_atom_site_type_symbol
_atom_site_label
_atom_site_fract_x
_atom_site_fract_y
_atom_site_fract_z
Si Si1 0.257300 0.122790 0.372094
Si Si2 0.855727 0.408325 0.932611
Si Si3 0.526138 0.848431 0.638048
Si Si4 0.000000 0.000000 0.595616
Si Si5 0.611448 0.314872 0.178483
O O1 0.289404 0.047734 0.224641
O O2 0.433067 0.159722 0.465879
O O3 0.133358 0.245882 0.337887
O O4 0.160714 0.031230 0.487481
O O5 0.000000 0.500000 0.004867
O O6 0.982412 0.290774 0.888512
O O7 0.690418 0.386245 0.038724
O O8 0.701796 0.797030 0.728212
O O9 0.500000 0.000000 0.669944
O O10 0.016064 0.888112 0.709703
#
# Coordination Sequence:
#
# PCOD9312994 Si02
#       5
#     4   4   4   2   4
#     4  11  25  43  73 106 148 191 252 298 372 428
#     4  12  28  48  75 111 148 190 253 305 359 452
#     4  11  25  44  71 105 149 192 250 303 369 446
#     4  10  26  44  74 100 142 198 236 300 366 432
#     4  11  27  48  76 104 151 194 245 297 388 419
#
# _framework density 24.978023
#
# number of rings (size 3 to 8) (size 9 to 14) (size 15 to 20)
#    0.000    0.889    0.000    5.333   18.667    0.889 
#    0.000    0.000    0.000    0.000    0.000    0.000 
#    0.000    0.000    0.000    0.000    0.000    0.000 
#
# Total GULP energy -100552.042375 kJ/mol
# GULP energy per Si atom -5586.224576 kJ/mol
# Density = 2.492117 g / cm^3
# Si number density = 24.978023 Si / 1000 Ang^3
#
#
#
# Elastic Constant Matrix: (Units=GPa)
#
#
# Indices 1 2 3 4 5 6 
#
# 1 69.5753 41.9808 16.9137 0.0000 0.0000 0.0000
# 2 41.9808 84.4705 23.5093 0.0000 0.0000 0.0000
# 3 16.9137 23.5093 164.1510 0.0000 0.0000 0.0000
# 4 0.0000 0.0000 0.0000 -411.9356 0.0000 0.0000
# 5 0.0000 0.0000 0.0000 0.0000 33.1140 0.0000
# 6 0.0000 0.0000 0.0000 0.0000 0.0000 44.6253
#
#
#
# Elastic Compliance Matrix: (Units=1/GPa)
#
#
# Indices 1 2 3 4 5 6 
#
# 1 0.020602 -0.010049 -0.000684 0.000000 0.000000 0.000000
# 2 -0.010049 0.017231 -0.001432 0.000000 0.000000 0.000000
# 3 -0.000684 -0.001432 0.006368 0.000000 0.000000 0.000000
# 4 0.000000 0.000000 0.000000 -0.002428 0.000000 0.000000
# 5 0.000000 0.000000 0.000000 0.000000 0.030199 0.000000
# 6 0.000000 0.000000 0.000000 0.000000 0.000000 0.022409
#
#
# Mechanical properties :
#
#
# Convention : Reuss Voigt Hill
#
# Bulk Modulus (GPa) = 50.32361 53.66715 51.99538
# Shear Modulus (GPa) = 39.89307 -51.11974 -5.61333
#
# Velocity S-wave (km/s) = 4.00074 -4.52883 -1.50073
# Velocity P-wave (km/s) = 6.44454 2.41137 4.22596
#
# Compressibility (1/GPa) = 0.01987139
#
# Stress axis : x y z
#
# Youngs Moduli (GPa) = 48.53780 58.03394 157.04649
#
# Poissons Ratio (x) = 0.58318 0.10736
# Poissons Ratio (y) = 0.48775 0.22495
# Poissons Ratio (z) = 0.03318 0.08313
#
# Static dielectric constant tensor:
#      x y z
#    x 2.198500 0.000000 0.000000 
#    y 0.000000 2.106520 0.000000 
#    z 0.000000 0.000000 1.928210 
# 
# From -- ./inp_files/2912.got.cif
#   From: 2010.05.17/outbox.cif.g08.bks.cpg/sg18_2_cif.got.tgz:2912.got - 2010.06.03 22:40:56.
