data_PCOD9312478
_publ_section_title
;
Structure prediction by ZEFSAII (Michael W. Deem and Ramdas Pophale) SiO2 
 PCOD9312478
Probable space group: P 21 21 2
;
_chemical_formula_sum "Si O2"
_cell_formula_units_Z 30
_cell_length_a 7.947999
_cell_length_b 15.178112
_cell_length_c 11.647750
_cell_angle_alpha 90.000000
_cell_angle_beta 90.000000
_cell_angle_gamma 90.000000
_cell_volume 1405.133531
_symmetry_space_group_name_H-M "P 21 21 2"
_symmetry_group_IT_number 18
_symmetry_cell_setting 'orthorhombic'
loop_
_space_group_symop_operation_xyz
x,y,z
-x,-y,z
1/2+x,1/2-y,-z
1/2-x,1/2+y,-z
loop_
_atom_site_type_symbol
_atom_site_label
_atom_site_fract_x
_atom_site_fract_y
_atom_site_fract_z
Si Si1 0.316174 0.032546 0.111163
Si Si2 0.000000 0.000000 0.275095
Si Si3 0.868317 0.168279 0.401997
Si Si4 0.692769 0.132253 0.950612
Si Si5 0.474536 0.826467 0.715554
Si Si6 0.120981 0.747332 0.634872
Si Si7 0.995384 0.598006 0.522611
Si Si8 0.547784 0.774438 0.116800
O O1 0.332505 0.138656 0.097341
O O2 0.500000 0.000000 0.155493
O O3 0.162922 0.014714 0.195592
O O4 0.290756 0.966709 0.001106
O O5 0.040397 0.915933 0.351897
O O6 0.943678 0.197730 0.525796
O O7 0.676437 0.143756 0.433861
O O8 0.894615 0.247629 0.310719
O O9 0.562520 0.137217 0.842539
O O10 0.865200 0.182801 0.919884
O O11 0.613853 0.195759 0.047124
O O12 0.295217 0.784873 0.680114
O O13 0.509108 0.896275 0.614924
O O14 0.012102 0.736593 0.748654
O O15 0.145166 0.651797 0.579904
O O16 0.000000 0.500000 0.562834
#
# Coordination Sequence:
#
# PCOD9312478 Si02
#       8
#     4   2   4   4   4   4   4   4
#     4  10  25  42  64 100 130 173 223 279 329 394
#     4  12  24  38  70  94 136 158 232 272 330 396
#     4  10  23  37  62  94 122 168 214 265 331 405
#     4  10  22  39  65  90 127 170 225 274 335 397
#     4   9  20  42  60  84 128 172 216 270 328 404
#     4   9  20  41  59  85 127 162 211 263 334 388
#     4  10  22  34  61  92 125 167 214 275 342 389
#     4  10  22  38  64  89 129 172 217 277 333 395
#
# _framework density 21.350283999999998
#
# number of rings (size 3 to 8) (size 9 to 14) (size 15 to 20)
#    0.000    2.133    0.000    1.600   11.200    1.600 
#    0.000    0.000    8.800    0.000    0.000    0.000 
#    0.000    0.000    0.000    0.000    0.000    0.000 
#
# Total GULP energy -167322.287829 kJ/mol
# GULP energy per Si atom -5577.409594 kJ/mol
# Density = 2.130169 g / cm^3
# Si number density = 21.350284 Si / 1000 Ang^3
#
#
#
# Elastic Constant Matrix: (Units=GPa)
#
#
# Indices 1 2 3 4 5 6 
#
# 1 42.7463 15.1147 15.3389 0.0000 0.0000 0.0000
# 2 15.1147 112.3100 38.6815 0.0000 0.0000 0.0000
# 3 15.3389 38.6815 103.4701 0.0000 0.0000 0.0000
# 4 0.0000 0.0000 0.0000 11.8416 0.0000 0.0000
# 5 0.0000 0.0000 0.0000 0.0000 25.6300 0.0000
# 6 0.0000 0.0000 0.0000 0.0000 0.0000 22.6645
#
#
#
# Elastic Compliance Matrix: (Units=1/GPa)
#
#
# Indices 1 2 3 4 5 6 
#
# 1 0.025270 -0.002422 -0.002840 0.000000 0.000000 0.000000
# 2 -0.002422 0.010452 -0.003548 0.000000 0.000000 0.000000
# 3 -0.002840 -0.003548 0.011412 0.000000 0.000000 0.000000
# 4 0.000000 0.000000 0.000000 0.084448 0.000000 0.000000
# 5 0.000000 0.000000 0.000000 0.000000 0.039017 0.000000
# 6 0.000000 0.000000 0.000000 0.000000 0.000000 0.044122
#
#
# Mechanical properties :
#
#
# Convention : Reuss Voigt Hill
#
# Bulk Modulus (GPa) = 33.88518 44.08850 38.98684
# Shear Modulus (GPa) = 20.64576 24.65329 22.64953
#
# Velocity S-wave (km/s) = 3.11304 3.40178 3.26061
# Velocity P-wave (km/s) = 5.36907 6.01036 5.69874
#
# Compressibility (1/GPa) = 0.02951143
#
# Stress axis : x y z
#
# Youngs Moduli (GPa) = 39.57314 95.67506 87.62541
#
# Poissons Ratio (x) = 0.23177 0.24890
# Poissons Ratio (y) = 0.09587 0.31092
# Poissons Ratio (z) = 0.11241 0.33948
#
# Static dielectric constant tensor:
#      x y z
#    x 1.892840 0.000000 0.000000 
#    y 0.000000 1.772950 0.000000 
#    z 0.000000 0.000000 1.811900 
# 
# From -- ./inp_files/5650.got.cif
#   From: 2010.05.17/outbox.cif.g08.bks.cpg/sg18_3_cif.got.tgz:5650.got - 2010.06.03 22:40:56.
