data_PCOD9312112
_publ_section_title
;
Structure prediction by ZEFSAII (Michael W. Deem and Ramdas Pophale) SiO2 
 PCOD9312112
Probable space group: P 21 21 2
;
_chemical_formula_sum "Si O2"
_cell_formula_units_Z 32
_cell_length_a 19.205689
_cell_length_b 5.457705
_cell_length_c 13.200379
_cell_angle_alpha 90.000000
_cell_angle_beta 90.000000
_cell_angle_gamma 90.000000
_cell_volume 1383.650327
_symmetry_space_group_name_H-M "P 21 21 2"
_symmetry_group_IT_number 18
_symmetry_cell_setting 'orthorhombic'
loop_
_space_group_symop_operation_xyz
x,y,z
-x,-y,z
1/2+x,1/2-y,-z
1/2-x,1/2+y,-z
loop_
_atom_site_type_symbol
_atom_site_label
_atom_site_fract_x
_atom_site_fract_y
_atom_site_fract_z
Si Si1 0.524060 0.250418 0.322122
Si Si2 0.813220 0.409150 0.927612
Si Si3 0.927245 0.449307 0.252327
Si Si4 0.075581 0.052796 0.372659
Si Si5 0.715766 0.049011 0.846820
Si Si6 0.768233 0.991279 0.441901
Si Si7 0.817660 0.708173 0.738935
Si Si8 0.465560 0.252448 0.091530
O O1 0.500000 0.500000 0.371110
O O2 0.606989 0.258724 0.308320
O O3 0.483239 0.248764 0.212656
O O4 0.500000 0.000000 0.374256
O O5 0.836644 0.628560 0.854557
O O6 0.882660 0.243644 0.926901
O O7 0.747329 0.313568 0.864619
O O8 0.784874 0.438901 0.040044
O O9 0.926622 0.661368 0.338804
O O10 0.862271 0.523347 0.186449
O O11 0.000000 0.500000 0.197817
O O12 0.921798 0.166483 0.287239
O O13 0.148599 0.017222 0.427738
O O14 0.000000 0.000000 0.419180
O O15 0.764419 0.926690 0.762221
O O16 0.752359 0.234219 0.507389
O O17 0.724273 0.031505 0.337975
O O18 0.500000 0.500000 0.050221
O O19 0.500000 0.000000 0.052409
#
# Coordination Sequence:
#
# PCOD9312112 Si02
#       8
#     4   4   4   4   4   4   4   4
#     4  10  20  38  65  95 129 185 225 264 350 414
#     4  12  25  40  68 100 143 194 239 285 353 425
#     4  10  22  42  71 106 135 189 239 289 356 421
#     4  10  21  46  79 100 141 186 230 295 371 414
#     4  12  25  41  65 105 139 187 244 287 351 427
#     4  12  28  48  75 113 138 183 244 295 363 430
#     4  12  25  46  71  96 146 189 221 312 346 415
#     4  10  20  39  61  90 132 182 231 274 333 405
#
# _framework density 23.127227999999999
#
# number of rings (size 3 to 8) (size 9 to 14) (size 15 to 20)
#    0.000    1.000    5.000    3.000    1.750    0.500 
#    0.000    3.750    0.000    0.000    0.000    0.000 
#    0.000    0.000    0.000    0.000    0.000    0.000 
#
# Total GULP energy -178569.047404 kJ/mol
# GULP energy per Si atom -5580.282731 kJ/mol
# Density = 2.307459 g / cm^3
# Si number density = 23.127228 Si / 1000 Ang^3
#
#
#
# Elastic Constant Matrix: (Units=GPa)
#
#
# Indices 1 2 3 4 5 6 
#
# 1 137.4039 12.4885 30.9631 0.0000 0.0000 0.0000
# 2 12.4885 114.4095 18.1954 0.0000 0.0000 0.0000
# 3 30.9631 18.1954 70.7092 0.0000 0.0000 0.0000
# 4 0.0000 0.0000 0.0000 -2.2841 0.0000 0.0000
# 5 0.0000 0.0000 0.0000 0.0000 9.2007 0.0000
# 6 0.0000 0.0000 0.0000 0.0000 0.0000 26.6394
#
#
#
# Elastic Compliance Matrix: (Units=1/GPa)
#
#
# Indices 1 2 3 4 5 6 
#
# 1 0.008087 -0.000333 -0.003455 0.000000 0.000000 0.000000
# 2 -0.000333 0.009127 -0.002203 0.000000 0.000000 0.000000
# 3 -0.003455 -0.002203 0.016222 0.000000 0.000000 0.000000
# 4 0.000000 0.000000 0.000000 -0.437815 0.000000 0.000000
# 5 0.000000 0.000000 0.000000 0.000000 0.108687 0.000000
# 6 0.000000 0.000000 0.000000 0.000000 0.000000 0.037538
#
#
# Mechanical properties :
#
#
# Convention : Reuss Voigt Hill
#
# Bulk Modulus (GPa) = 46.61219 49.53516 48.07368
# Shear Modulus (GPa) = -20.91887 24.10291 1.59202
#
# Velocity S-wave (km/s) = -3.01077 3.23180 0.83058
# Velocity P-wave (km/s) = 2.84817 5.94904 4.66386
#
# Compressibility (1/GPa) = 0.02145362
#
# Stress axis : x y z
#
# Youngs Moduli (GPa) = 123.65916 109.56227 61.64326
#
# Poissons Ratio (x) = 0.03650 0.21300
# Poissons Ratio (y) = 0.04120 0.13579
# Poissons Ratio (z) = 0.42729 0.24134
#
# Static dielectric constant tensor:
#      x y z
#    x 1.848340 0.000000 0.000000 
#    y 0.000000 1.941390 0.000000 
#    z 0.000000 0.000000 1.896310 
# 
# From -- ./inp_files/7027.got.cif
#   From: 2010.05.17/outbox.cif.g08.bks.cpg/sg18_4_cif.got.tgz:7027.got - 2010.06.03 22:40:56.
