data_PCOD9312741
_publ_section_title
;
Structure prediction by ZEFSAII (Michael W. Deem and Ramdas Pophale) SiO2 
 PCOD9312741
Probable space group: P 21 21 2
;
_chemical_formula_sum "Si O2"
_cell_formula_units_Z 18
_cell_length_a 13.216506
_cell_length_b 8.312435
_cell_length_c 7.371358
_cell_angle_alpha 90.000000
_cell_angle_beta 90.000000
_cell_angle_gamma 90.000000
_cell_volume 809.827319
_symmetry_space_group_name_H-M "P 21 21 2"
_symmetry_group_IT_number 18
_symmetry_cell_setting 'orthorhombic'
loop_
_space_group_symop_operation_xyz
x,y,z
-x,-y,z
1/2+x,1/2-y,-z
1/2-x,1/2+y,-z
loop_
_atom_site_type_symbol
_atom_site_label
_atom_site_fract_x
_atom_site_fract_y
_atom_site_fract_z
Si Si1 0.787194 0.404036 0.423063
Si Si2 0.339872 0.441278 0.117899
Si Si3 0.791863 0.582550 0.762154
Si Si4 0.500000 0.000000 0.739092
Si Si5 0.029423 0.262959 0.933154
O O1 0.714097 0.521136 0.306686
O O2 0.771861 0.429778 0.636228
O O3 0.759062 0.230125 0.346191
O O4 0.901711 0.452704 0.374924
O O5 0.417214 0.292612 0.121307
O O6 0.404502 0.599959 0.064639
O O7 0.257803 0.422798 0.959786
O O8 0.909404 0.623223 0.795214
O O9 0.524309 0.148185 0.874430
#
# Coordination Sequence:
#
# PCOD9312741 Si02
#       5
#     4   4   4   2   4
#     4  11  26  40  65 100 132 173 217 270 334 393
#     4  10  22  47  66  91 135 178 219 267 335 390
#     4  11  24  43  67  97 134 174 216 275 329 394
#     4  12  22  40  64 100 126 164 226 268 324 386
#     4  10  23  42  69  95 127 178 219 272 323 391
#
# _framework density 22.226960999999999
#
# number of rings (size 3 to 8) (size 9 to 14) (size 15 to 20)
#    0.000    1.333    4.444    0.000    3.111    4.444 
#    0.000    2.222    0.000    0.000    0.000    0.000 
#    0.000    0.000    0.000    0.000    0.000    0.000 
#
# Total GULP energy -100727.439438 kJ/mol
# GULP energy per Si atom -5595.968858 kJ/mol
# Density = 2.217637 g / cm^3
# Si number density = 22.226961 Si / 1000 Ang^3
#
#
#
# Elastic Constant Matrix: (Units=GPa)
#
#
# Indices 1 2 3 4 5 6 
#
# 1 110.5926 11.6701 20.6087 0.0000 0.0000 0.0000
# 2 11.6701 43.2364 8.2993 0.0000 0.0000 0.0000
# 3 20.6087 8.2993 71.9540 0.0000 0.0000 0.0000
# 4 0.0000 0.0000 0.0000 24.2453 0.0000 0.0000
# 5 0.0000 0.0000 0.0000 0.0000 18.9821 0.0000
# 6 0.0000 0.0000 0.0000 0.0000 0.0000 34.0746
#
#
#
# Elastic Compliance Matrix: (Units=1/GPa)
#
#
# Indices 1 2 3 4 5 6 
#
# 1 0.009742 -0.002141 -0.002543 0.000000 0.000000 0.000000
# 2 -0.002141 0.024123 -0.002169 0.000000 0.000000 0.000000
# 3 -0.002543 -0.002169 0.014876 0.000000 0.000000 0.000000
# 4 0.000000 0.000000 0.000000 0.041245 0.000000 0.000000
# 5 0.000000 0.000000 0.000000 0.000000 0.052681 0.000000
# 6 0.000000 0.000000 0.000000 0.000000 0.000000 0.029347
#
#
# Mechanical properties :
#
#
# Convention : Reuss Voigt Hill
#
# Bulk Modulus (GPa) = 28.54364 34.10436 31.32400
# Shear Modulus (GPa) = 25.32922 27.80741 26.56832
#
# Velocity S-wave (km/s) = 3.37942 3.54088 3.46109
# Velocity P-wave (km/s) = 5.30067 5.66517 5.48594
#
# Compressibility (1/GPa) = 0.03503407
#
# Stress axis : x y z
#
# Youngs Moduli (GPa) = 102.64738 41.45420 67.22062
#
# Poissons Ratio (x) = 0.08877 0.17096
# Poissons Ratio (y) = 0.21980 0.14581
# Poissons Ratio (z) = 0.26106 0.08992
#
# Static dielectric constant tensor:
#      x y z
#    x 1.795090 0.000000 0.000000 
#    y 0.000000 1.862150 0.000000 
#    z 0.000000 0.000000 1.755160 
# 
# From -- ./inp_files/964.got.cif
#   From: 2010.05.17/outbox.cif.g08.bks.cpg/sg18_1_cif.got.tgz:964.got - 2010.06.03 22:40:56.
