data_PCOD9312526
_publ_section_title
;
Structure prediction by ZEFSAII (Michael W. Deem and Ramdas Pophale) SiO2 
 PCOD9312526
Probable space group: P 21 21 2
;
_chemical_formula_sum "Si O2"
_cell_formula_units_Z 30
_cell_length_a 16.581570
_cell_length_b 14.420008
_cell_length_c 5.257741
_cell_angle_alpha 90.000000
_cell_angle_beta 90.000000
_cell_angle_gamma 90.000000
_cell_volume 1257.159376
_symmetry_space_group_name_H-M "P 21 21 2"
_symmetry_group_IT_number 18
_symmetry_cell_setting 'orthorhombic'
loop_
_space_group_symop_operation_xyz
x,y,z
-x,-y,z
1/2+x,1/2-y,-z
1/2-x,1/2+y,-z
loop_
_atom_site_type_symbol
_atom_site_label
_atom_site_fract_x
_atom_site_fract_y
_atom_site_fract_z
Si Si1 0.493140 0.678622 0.272294
Si Si2 0.776110 0.746322 0.429549
Si Si3 0.199792 0.364506 0.921680
Si Si4 0.000000 0.000000 0.370362
Si Si5 0.623616 0.572852 0.006101
Si Si6 0.347012 0.068754 0.966225
Si Si7 0.829739 0.897845 0.759888
Si Si8 0.897503 0.325758 0.530171
O O1 0.495848 0.592475 0.465565
O O2 0.564328 0.656662 0.073320
O O3 0.405747 0.663822 0.148382
O O4 0.519918 0.770063 0.420957
O O5 0.798818 0.705928 0.158301
O O6 0.806518 0.849880 0.493974
O O7 0.678978 0.753953 0.469685
O O8 0.815467 0.681927 0.649195
O O9 0.292813 0.394823 0.898771
O O10 0.152329 0.457463 0.001186
O O11 0.076088 0.991635 0.186468
O O12 0.643910 0.505236 0.243370
O O13 0.253530 0.100420 0.918889
O O14 0.392947 0.112496 0.723849
O O15 0.380376 0.111634 0.224244
#
# Coordination Sequence:
#
# PCOD9312526 Si02
#       8
#     4   4   4   2   4   4   4   4
#     4  12  23  39  59  93 136 170 206 257 330 405
#     4  11  22  39  64  92 126 162 216 266 317 380
#     4  11  23  41  67  89 122 171 219 266 319 366
#     4  12  22  34  62  92 136 174 202 248 320 426
#     4  11  22  38  56  91 132 171 202 250 322 407
#     4  10  24  42  64  91 124 170 221 269 312 379
#     4  10  22  39  57  94 130 158 206 265 325 383
#     4  11  23  41  64  91 130 171 220 258 316 396
#
# _framework density 23.863323000000001
#
# number of rings (size 3 to 8) (size 9 to 14) (size 15 to 20)
#    0.000    1.067    4.000    3.200    1.867    5.333 
#    0.000    0.000    0.000    4.800    0.000    0.000 
#    0.000    0.000    0.000    0.000    0.000    0.000 
#
# Total GULP energy -167767.324071 kJ/mol
# GULP energy per Si atom -5592.244136 kJ/mol
# Density = 2.380901 g / cm^3
# Si number density = 23.863323 Si / 1000 Ang^3
#
#
#
# Elastic Constant Matrix: (Units=GPa)
#
#
# Indices 1 2 3 4 5 6 
#
# 1 38.5274 -1.2651 -12.5001 0.0000 0.0000 0.0000
# 2 -1.2651 71.4916 36.0791 0.0000 0.0000 0.0000
# 3 -12.5001 36.0791 115.1994 0.0000 0.0000 0.0000
# 4 0.0000 0.0000 0.0000 30.2020 0.0000 0.0000
# 5 0.0000 0.0000 0.0000 0.0000 37.6095 0.0000
# 6 0.0000 0.0000 0.0000 0.0000 0.0000 36.0844
#
#
#
# Elastic Compliance Matrix: (Units=1/GPa)
#
#
# Indices 1 2 3 4 5 6 
#
# 1 0.026987 -0.001188 0.003300 0.000000 0.000000 0.000000
# 2 -0.001188 0.016666 -0.005348 0.000000 0.000000 0.000000
# 3 0.003300 -0.005348 0.010714 0.000000 0.000000 0.000000
# 4 0.000000 0.000000 0.000000 0.033110 0.000000 0.000000
# 5 0.000000 0.000000 0.000000 0.000000 0.026589 0.000000
# 6 0.000000 0.000000 0.000000 0.000000 0.000000 0.027713
#
#
# Mechanical properties :
#
#
# Convention : Reuss Voigt Hill
#
# Bulk Modulus (GPa) = 20.87907 29.98291 25.43099
# Shear Modulus (GPa) = 30.44767 34.30615 32.37691
#
# Velocity S-wave (km/s) = 3.57588 3.79570 3.68742
# Velocity P-wave (km/s) = 5.08110 5.63928 5.36745
#
# Compressibility (1/GPa) = 0.04789486
#
# Stress axis : x y z
#
# Youngs Moduli (GPa) = 37.05437 60.00321 93.33769
#
# Poissons Ratio (x) = 0.07129 -0.30805
# Poissons Ratio (y) = 0.04402 0.49921
# Poissons Ratio (z) = -0.12230 0.32092
#
# Static dielectric constant tensor:
#      x y z
#    x 1.963830 0.000000 0.000000 
#    y 0.000000 1.882300 0.000000 
#    z 0.000000 0.000000 1.912980 
# 
# From -- ./inp_files/1855.got.cif
#   From: 2010.05.17/outbox.cif.g08.bks.cpg/sg18_1_cif.got.tgz:1855.got - 2010.06.03 22:40:56.
