data_PCOD9312059
_publ_section_title
;
Structure prediction by ZEFSAII (Michael W. Deem and Ramdas Pophale) SiO2 
 PCOD9312059
Probable space group: P 21 21 2
;
_chemical_formula_sum "Si O2"
_cell_formula_units_Z 32
_cell_length_a 27.265693
_cell_length_b 9.640164
_cell_length_c 5.052448
_cell_angle_alpha 90.000000
_cell_angle_beta 90.000000
_cell_angle_gamma 90.000000
_cell_volume 1328.014494
_symmetry_space_group_name_H-M "P 21 21 2"
_symmetry_group_IT_number 18
_symmetry_cell_setting 'orthorhombic'
loop_
_space_group_symop_operation_xyz
x,y,z
-x,-y,z
1/2+x,1/2-y,-z
1/2-x,1/2+y,-z
loop_
_atom_site_type_symbol
_atom_site_label
_atom_site_fract_x
_atom_site_fract_y
_atom_site_fract_z
Si Si1 0.836105 0.126086 0.580003
Si Si2 0.812111 0.420153 0.428457
Si Si3 0.103450 0.487030 0.769039
Si Si4 0.453633 0.903039 0.758457
Si Si5 0.216004 0.074535 0.285087
Si Si6 0.235084 0.363635 0.085126
Si Si7 0.017492 0.844321 0.443402
Si Si8 0.921000 0.208203 0.943440
O O1 0.838819 0.270761 0.412990
O O2 0.783864 0.136502 0.730226
O O3 0.877464 0.122996 0.804174
O O4 0.833374 0.985691 0.409554
O O5 0.841768 0.504039 0.653683
O O6 0.755881 0.383189 0.495413
O O7 0.805689 0.529452 0.194250
O O8 0.083111 0.384451 0.993852
O O9 0.095035 0.632950 0.915734
O O10 0.071786 0.472146 0.499177
O O11 0.500000 0.000000 0.840764
O O12 0.476299 0.759799 0.659905
O O13 0.214633 0.206660 0.090954
O O14 0.241718 0.937079 0.167507
O O15 0.033729 0.807640 0.740029
O O16 0.062481 0.828788 0.236743
O O17 0.000000 0.000000 0.435808
#
# Coordination Sequence:
#
# PCOD9312059 Si02
#       8
#     4   4   4   4   4   4   4   4
#     4   9  21  38  61  87 115 164 204 250 298 365
#     4   9  21  38  58  88 120 156 203 251 307 354
#     4  11  22  39  69  98 119 159 214 267 300 375
#     4  12  22  42  68  92 124 159 210 255 320 364
#     4  10  20  37  60  85 124 162 200 249 303 371
#     4  10  20  37  60  88 125 159 201 248 311 362
#     4  12  26  44  64  92 129 168 201 259 322 378
#     4  11  22  42  68  93 124 162 217 255 306 378
#
# _framework density 24.096124
#
# number of rings (size 3 to 8) (size 9 to 14) (size 15 to 20)
#    0.000    1.500    2.500    2.250    3.500    1.000 
#    4.500    0.000    0.000    0.000    0.000    0.000 
#    0.000    0.000    0.000    0.000    0.000    0.000 
#
# Total GULP energy -178804.054176 kJ/mol
# GULP energy per Si atom -5587.626693 kJ/mol
# Density = 2.404128 g / cm^3
# Si number density = 24.096124 Si / 1000 Ang^3
#
#
#
# Elastic Constant Matrix: (Units=GPa)
#
#
# Indices 1 2 3 4 5 6 
#
# 1 48.8229 -13.6508 13.0443 0.0000 0.0000 0.0000
# 2 -13.6508 32.9414 -3.4415 0.0000 0.0000 0.0000
# 3 13.0443 -3.4415 75.0510 0.0000 0.0000 0.0000
# 4 0.0000 0.0000 0.0000 4.9783 0.0000 0.0000
# 5 0.0000 0.0000 0.0000 0.0000 36.5214 0.0000
# 6 0.0000 0.0000 0.0000 0.0000 0.0000 27.8676
#
#
#
# Elastic Compliance Matrix: (Units=1/GPa)
#
#
# Indices 1 2 3 4 5 6 
#
# 1 0.024179 0.009627 -0.003761 0.000000 0.000000 0.000000
# 2 0.009627 0.034336 -0.000099 0.000000 0.000000 0.000000
# 3 -0.003761 -0.000099 0.013973 0.000000 0.000000 0.000000
# 4 0.000000 0.000000 0.000000 0.200871 0.000000 0.000000
# 5 0.000000 0.000000 0.000000 0.000000 0.027381 0.000000
# 6 0.000000 0.000000 0.000000 0.000000 0.000000 0.035884
#
#
# Mechanical properties :
#
#
# Convention : Reuss Voigt Hill
#
# Bulk Modulus (GPa) = 11.90167 16.52436 14.21302
# Shear Modulus (GPa) = 14.16040 24.59769 19.37905
#
# Velocity S-wave (km/s) = 2.42681 3.19849 2.83899
# Velocity P-wave (km/s) = 3.57806 4.52913 4.08139
#
# Compressibility (1/GPa) = 0.08402181
#
# Stress axis : x y z
#
# Youngs Moduli (GPa) = 41.35891 29.12411 71.56442
#
# Poissons Ratio (x) = -0.28037 0.26915
# Poissons Ratio (y) = -0.39814 0.00706
# Poissons Ratio (z) = 0.15555 0.00287
#
# Static dielectric constant tensor:
#      x y z
#    x 1.986520 0.000000 0.000000 
#    y 0.000000 1.927200 0.000000 
#    z 0.000000 0.000000 1.982490 
# 
# From -- ./inp_files/795.got.cif
#   From: 2010.05.17/outbox.cif.g08.bks.cpg/sg18_1_cif.got.tgz:795.got - 2010.06.03 22:40:56.
