data_PCOD9312215
_publ_section_title
;
Structure prediction by ZEFSAII (Michael W. Deem and Ramdas Pophale) SiO2 
 PCOD9312215
Probable space group: P 21 21 2
;
_chemical_formula_sum "Si O2"
_cell_formula_units_Z 32
_cell_length_a 32.766598
_cell_length_b 8.674926
_cell_length_c 5.303167
_cell_angle_alpha 90.000000
_cell_angle_beta 90.000000
_cell_angle_gamma 90.000000
_cell_volume 1507.413621
_symmetry_space_group_name_H-M "P 21 21 2"
_symmetry_group_IT_number 18
_symmetry_cell_setting 'orthorhombic'
loop_
_space_group_symop_operation_xyz
x,y,z
-x,-y,z
1/2+x,1/2-y,-z
1/2-x,1/2+y,-z
loop_
_atom_site_type_symbol
_atom_site_label
_atom_site_fract_x
_atom_site_fract_y
_atom_site_fract_z
Si Si1 0.226321 0.008668 0.528221
Si Si2 0.195738 0.510016 0.171011
Si Si3 0.971121 0.647567 0.447501
Si Si4 0.810441 0.140078 0.029889
Si Si5 0.530252 0.354990 0.051175
Si Si6 0.184706 0.278254 0.783715
Si Si7 0.622239 0.429352 0.909235
Si Si8 0.878058 0.637124 0.414819
O O1 0.274376 0.005879 0.588207
O O2 0.210869 0.182912 0.582204
O O3 0.212288 0.951709 0.256600
O O4 0.204547 0.909625 0.751225
O O5 0.197655 0.679621 0.060914
O O6 0.149218 0.459802 0.222279
O O7 0.210318 0.378082 0.978170
O O8 0.977949 0.749144 0.195203
O O9 0.924344 0.589827 0.437094
O O10 0.000000 0.500000 0.458162
O O11 0.974865 0.754539 0.695424
O O12 0.858323 0.099135 0.092385
O O13 0.500000 0.500000 0.053754
O O14 0.577401 0.412530 0.027069
O O15 0.149314 0.379686 0.660275
O O16 0.157698 0.154175 0.932820
O O17 0.621165 0.320327 0.660233
#
# Coordination Sequence:
#
# PCOD9312215 Si02
#       8
#     4   4   4   4   4   4   4   4
#     4  11  25  42  64  88 132 175 217 267 333 388
#     4  11  26  37  64  97 130 163 228 277 322 374
#     4  11  24  45  69 100 134 176 219 271 331 402
#     4  11  25  42  62  96 127 170 221 280 320 380
#     4  11  23  42  70 102 135 169 220 269 333 399
#     4  10  20  42  63  88 122 182 210 260 320 402
#     4   9  20  41  65  89 128 175 214 255 328 401
#     4  10  21  41  67  88 129 175 217 256 332 402
#
# _framework density 21.228413
#
# number of rings (size 3 to 8) (size 9 to 14) (size 15 to 20)
#    0.000    1.500    2.500    1.500    5.250    1.000 
#    2.250    0.000    0.000    0.000    0.000    0.000 
#    0.000    0.000    0.000    0.000    0.000    0.000 
#
# Total GULP energy -178683.627399 kJ/mol
# GULP energy per Si atom -5583.863356 kJ/mol
# Density = 2.118010 g / cm^3
# Si number density = 21.228413 Si / 1000 Ang^3
#
#
#
# Elastic Constant Matrix: (Units=GPa)
#
#
# Indices 1 2 3 4 5 6 
#
# 1 144.2354 59.0977 46.6728 0.0000 0.0000 0.0000
# 2 59.0977 85.4624 21.1963 0.0000 0.0000 0.0000
# 3 46.6728 21.1963 109.9574 0.0000 0.0000 0.0000
# 4 0.0000 0.0000 0.0000 24.7842 0.0000 0.0000
# 5 0.0000 0.0000 0.0000 0.0000 23.4252 0.0000
# 6 0.0000 0.0000 0.0000 0.0000 0.0000 29.6208
#
#
#
# Elastic Compliance Matrix: (Units=1/GPa)
#
#
# Indices 1 2 3 4 5 6 
#
# 1 0.010686 -0.006579 -0.003268 0.000000 0.000000 0.000000
# 2 -0.006579 0.016339 -0.000357 0.000000 0.000000 0.000000
# 3 -0.003268 -0.000357 0.010550 0.000000 0.000000 0.000000
# 4 0.000000 0.000000 0.000000 0.040348 0.000000 0.000000
# 5 0.000000 0.000000 0.000000 0.000000 0.042689 0.000000
# 6 0.000000 0.000000 0.000000 0.000000 0.000000 0.033760
#
#
# Mechanical properties :
#
#
# Convention : Reuss Voigt Hill
#
# Bulk Modulus (GPa) = 58.24827 65.95430 62.10128
# Shear Modulus (GPa) = 27.70035 29.74526 28.72280
#
# Velocity S-wave (km/s) = 3.61622 3.74732 3.68235
# Velocity P-wave (km/s) = 6.70332 7.06113 6.88455
#
# Compressibility (1/GPa) = 0.01716789
#
# Stress axis : x y z
#
# Youngs Moduli (GPa) = 93.57924 61.20289 94.78451
#
# Poissons Ratio (x) = 0.40266 0.30972
# Poissons Ratio (y) = 0.61567 0.03385
# Poissons Ratio (z) = 0.30578 0.02185
#
# Static dielectric constant tensor:
#      x y z
#    x 1.764920 0.000000 0.000000 
#    y 0.000000 1.828360 0.000000 
#    z 0.000000 0.000000 1.809390 
# 
# From -- ./inp_files/2299.got.cif
#   From: 2010.05.17/outbox.cif.g08.bks.cpg/sg18_2_cif.got.tgz:2299.got - 2010.06.03 22:40:56.
