data_PCOD9312901
_publ_section_title
;
Structure prediction by ZEFSAII (Michael W. Deem and Ramdas Pophale) SiO2 
 PCOD9312901
Probable space group: P 21 21 2
;
_chemical_formula_sum "Si O2"
_cell_formula_units_Z 16
_cell_length_a 18.185990
_cell_length_b 5.655854
_cell_length_c 5.197973
_cell_angle_alpha 90.000000
_cell_angle_beta 90.000000
_cell_angle_gamma 90.000000
_cell_volume 534.649491
_symmetry_space_group_name_H-M "P 21 21 2"
_symmetry_group_IT_number 18
_symmetry_cell_setting 'orthorhombic'
loop_
_space_group_symop_operation_xyz
x,y,z
-x,-y,z
1/2+x,1/2-y,-z
1/2-x,1/2+y,-z
loop_
_atom_site_type_symbol
_atom_site_label
_atom_site_fract_x
_atom_site_fract_y
_atom_site_fract_z
Si Si1 0.720308 0.429821 0.890900
Si Si2 0.343341 0.022234 0.457217
Si Si3 0.593941 0.720531 0.957385
Si Si4 0.029557 0.245069 0.423807
O O1 0.757917 0.470123 0.612052
O O2 0.634969 0.469035 0.963766
O O3 0.742198 0.161239 0.967209
O O4 0.364231 0.170524 0.708269
O O5 0.384482 0.775702 0.517964
O O6 0.381706 0.139046 0.206922
O O7 0.510094 0.736581 0.859347
O O8 0.000000 0.500000 0.518261
O O9 0.000000 0.000000 0.544516
#
# Coordination Sequence:
#
# PCOD9312901 Si02
#       4
#     4   4   4   4
#     4  10  24  46  74 104 140 182 232 290 348 412
#     4  10  24  46  71 103 142 184 232 286 347 414
#     4  10  24  46  71 103 142 184 232 286 347 414
#     4  10  24  44  68 100 140 184 228 280 342 412
#
# _framework density 29.92615
#
# number of rings (size 3 to 8) (size 9 to 14) (size 15 to 20)
#    0.000    2.000    0.000    0.000    0.000   35.000 
#    0.000   10.000    0.000    0.000    0.000    0.000 
#    0.000    0.000    0.000    0.000    0.000    0.000 
#
# Total GULP energy -89371.233721 kJ/mol
# GULP energy per Si atom -5585.702108 kJ/mol
# Density = 2.985804 g / cm^3
# Si number density = 29.926150 Si / 1000 Ang^3
#
#
#
# Elastic Constant Matrix: (Units=GPa)
#
#
# Indices 1 2 3 4 5 6 
#
# 1 205.0250 42.5824 31.1969 0.0000 0.0000 0.0000
# 2 42.5824 194.2166 37.7588 0.0000 0.0000 0.0000
# 3 31.1969 37.7588 162.0981 0.0000 0.0000 0.0000
# 4 0.0000 0.0000 0.0000 66.6782 0.0000 0.0000
# 5 0.0000 0.0000 0.0000 0.0000 57.9201 0.0000
# 6 0.0000 0.0000 0.0000 0.0000 0.0000 72.7402
#
#
#
# Elastic Compliance Matrix: (Units=1/GPa)
#
#
# Indices 1 2 3 4 5 6 
#
# 1 0.005200 -0.000990 -0.000770 0.000000 0.000000 0.000000
# 2 -0.000990 0.005582 -0.001110 0.000000 0.000000 0.000000
# 3 -0.000770 -0.001110 0.006576 0.000000 0.000000 0.000000
# 4 0.000000 0.000000 0.000000 0.014997 0.000000 0.000000
# 5 0.000000 0.000000 0.000000 0.000000 0.017265 0.000000
# 6 0.000000 0.000000 0.000000 0.000000 0.000000 0.013748
#
#
# Mechanical properties :
#
#
# Convention : Reuss Voigt Hill
#
# Bulk Modulus (GPa) = 86.07661 87.15731 86.61696
# Shear Modulus (GPa) = 68.51109 69.45449 68.98279
#
# Velocity S-wave (km/s) = 4.78989 4.82276 4.80635
# Velocity P-wave (km/s) = 7.70819 7.75883 7.73355
#
# Compressibility (1/GPa) = 0.01161756
#
# Stress axis : x y z
#
# Youngs Moduli (GPa) = 192.29474 179.15458 152.07316
#
# Poissons Ratio (x) = 0.17745 0.11712
# Poissons Ratio (y) = 0.19046 0.16874
# Poissons Ratio (z) = 0.14809 0.19879
#
# Static dielectric constant tensor:
#      x y z
#    x 2.882540 0.000000 0.000000 
#    y 0.000000 2.380860 0.000000 
#    z 0.000000 0.000000 2.369440 
# 
# From -- ./inp_files/2043.got.cif
#   From: 2010.05.17/outbox.cif.g08.bks.cpg/sg18_2_cif.got.tgz:2043.got - 2010.06.03 22:40:56.
