data_PCOD9312924
_publ_section_title
;
Structure prediction by ZEFSAII (Michael W. Deem and Ramdas Pophale) SiO2 
 PCOD9312924
Probable space group: P 21 21 2
;
_chemical_formula_sum "Si O2"
_cell_formula_units_Z 14
_cell_length_a 10.600563
_cell_length_b 9.530695
_cell_length_c 5.322959
_cell_angle_alpha 90.000000
_cell_angle_beta 90.000000
_cell_angle_gamma 90.000000
_cell_volume 537.782448
_symmetry_space_group_name_H-M "P 21 21 2"
_symmetry_group_IT_number 18
_symmetry_cell_setting 'orthorhombic'
loop_
_space_group_symop_operation_xyz
x,y,z
-x,-y,z
1/2+x,1/2-y,-z
1/2-x,1/2+y,-z
loop_
_atom_site_type_symbol
_atom_site_label
_atom_site_fract_x
_atom_site_fract_y
_atom_site_fract_z
Si Si1 0.766186 0.020100 0.555868
Si Si2 0.000000 0.500000 0.433717
Si Si3 0.705868 0.247959 0.179025
Si Si4 0.431148 0.251707 0.189390
O O1 0.737878 0.094180 0.289612
O O2 0.877671 0.109411 0.678311
O O3 0.630835 0.040128 0.697899
O O4 0.796606 0.856591 0.584509
O O5 0.959438 0.368953 0.607177
O O6 0.567697 0.269592 0.062886
O O7 0.820662 0.287901 0.000720
#
# Coordination Sequence:
#
# PCOD9312924 Si02
#       4
#     4   2   4   4
#     4  11  24  48  71 109 145 193 242 304 370 439
#     4  10  24  46  74 108 144 196 238 306 380 422
#     4  11  27  46  77 108 148 195 247 306 371 445
#     4  11  26  46  74 109 146 192 251 298 376 435
#
# _framework density 26.032827999999999
#
# number of rings (size 3 to 8) (size 9 to 14) (size 15 to 20)
#    0.000    1.143    2.857    0.857   12.000    0.000 
#    5.143    0.000    0.000    0.000    0.000    0.000 
#    0.000    0.000    0.000    0.000    0.000    0.000 
#
# Total GULP energy -78288.933715 kJ/mol
# GULP energy per Si atom -5592.066694 kJ/mol
# Density = 2.597358 g / cm^3
# Si number density = 26.032828 Si / 1000 Ang^3
#
#
#
# Elastic Constant Matrix: (Units=GPa)
#
#
# Indices 1 2 3 4 5 6 
#
# 1 247.3668 18.5346 38.0291 0.0000 0.0000 0.0000
# 2 18.5346 103.0395 6.3589 0.0000 0.0000 0.0000
# 3 38.0291 6.3589 37.3031 0.0000 0.0000 0.0000
# 4 0.0000 0.0000 0.0000 -192.7318 0.0000 0.0000
# 5 0.0000 0.0000 0.0000 0.0000 45.2107 0.0000
# 6 0.0000 0.0000 0.0000 0.0000 0.0000 43.6120
#
#
#
# Elastic Compliance Matrix: (Units=1/GPa)
#
#
# Indices 1 2 3 4 5 6 
#
# 1 0.004827 -0.000571 -0.004824 0.000000 0.000000 0.000000
# 2 -0.000571 0.009876 -0.001102 0.000000 0.000000 0.000000
# 3 -0.004824 -0.001102 0.031913 0.000000 0.000000 0.000000
# 4 0.000000 0.000000 0.000000 -0.005189 0.000000 0.000000
# 5 0.000000 0.000000 0.000000 0.000000 0.022119 0.000000
# 6 0.000000 0.000000 0.000000 0.000000 0.000000 0.022929
#
#
# Mechanical properties :
#
#
# Convention : Reuss Voigt Hill
#
# Bulk Modulus (GPa) = 29.74121 57.06163 43.40142
# Shear Modulus (GPa) = 45.17752 0.87063 23.02408
#
# Velocity S-wave (km/s) = 4.17034 0.57893 2.97715
# Velocity P-wave (km/s) = 5.88543 4.73430 5.34097
#
# Compressibility (1/GPa) = 0.03362338
#
# Stress axis : x y z
#
# Youngs Moduli (GPa) = 207.17281 101.25924 31.33546
#
# Poissons Ratio (x) = 0.05778 0.15115
# Poissons Ratio (y) = 0.11821 0.03453
# Poissons Ratio (z) = 0.99931 0.11157
#
# Static dielectric constant tensor:
#      x y z
#    x 2.149070 0.000000 0.000000 
#    y 0.000000 2.026970 0.000000 
#    z 0.000000 0.000000 2.083690 
# 
# From -- ./inp_files/376.got.cif
#   From: 2010.05.17/outbox.cif.g08.bks.cpg/sg18_1_cif.got.tgz:376.got - 2010.06.03 22:40:56.
