data_PCOD9312770
_publ_section_title
;
Structure prediction by ZEFSAII (Michael W. Deem and Ramdas Pophale) SiO2 
 PCOD9312770
Probable space group: P 21 21 2
;
_chemical_formula_sum "Si O2"
_cell_formula_units_Z 20
_cell_length_a 14.731681
_cell_length_b 7.524050
_cell_length_c 7.982978
_cell_angle_alpha 90.000000
_cell_angle_beta 90.000000
_cell_angle_gamma 90.000000
_cell_volume 884.848485
_symmetry_space_group_name_H-M "P 21 21 2"
_symmetry_group_IT_number 18
_symmetry_cell_setting 'orthorhombic'
loop_
_space_group_symop_operation_xyz
x,y,z
-x,-y,z
1/2+x,1/2-y,-z
1/2-x,1/2+y,-z
loop_
_atom_site_type_symbol
_atom_site_label
_atom_site_fract_x
_atom_site_fract_y
_atom_site_fract_z
Si Si1 0.906972 0.653834 0.604361
Si Si2 0.790633 0.124071 0.376401
Si Si3 0.014714 0.788045 0.283375
Si Si4 0.180627 0.698155 0.700324
Si Si5 0.978557 0.209138 0.915244
O O1 0.805068 0.725934 0.634725
O O2 0.954673 0.708200 0.432375
O O3 0.114348 0.556049 0.607312
O O4 0.963408 0.708295 0.765854
O O5 0.876197 0.222187 0.298662
O O6 0.808667 0.135191 0.576787
O O7 0.770048 0.929270 0.295208
O O8 0.992462 0.722082 0.097370
O O9 0.000000 0.000000 0.295155
O O10 0.126872 0.752310 0.867038
O O11 0.000000 0.000000 0.913577
#
# Coordination Sequence:
#
# PCOD9312770 Si02
#       5
#     4   4   4   4   4
#     4  10  23  44  68  99 140 178 239 287 353 412
#     4  10  23  41  67 104 132 183 236 285 357 408
#     4  11  23  45  71 102 137 189 234 285 360 428
#     4  10  23  42  65 103 133 185 229 291 350 411
#     4  11  24  43  70  99 141 186 230 294 354 420
#
# _framework density 22.602741999999999
#
# number of rings (size 3 to 8) (size 9 to 14) (size 15 to 20)
#    1.200    0.400    2.000    2.400    2.800    0.000 
#   18.000    0.000    0.000    0.000    0.000    0.000 
#    0.000    0.000    0.000    0.000    0.000    0.000 
#
# Total GULP energy -111405.837981 kJ/mol
# GULP energy per Si atom -5570.291899 kJ/mol
# Density = 2.255130 g / cm^3
# Si number density = 22.602742 Si / 1000 Ang^3
#
#
#
# Elastic Constant Matrix: (Units=GPa)
#
#
# Indices 1 2 3 4 5 6 
#
# 1 125.4446 17.8864 58.8756 0.0000 0.0000 0.0000
# 2 17.8864 85.9476 12.2972 0.0000 0.0000 0.0000
# 3 58.8756 12.2972 133.7569 0.0000 0.0000 0.0000
# 4 0.0000 0.0000 0.0000 33.9440 0.0000 0.0000
# 5 0.0000 0.0000 0.0000 0.0000 57.4549 0.0000
# 6 0.0000 0.0000 0.0000 0.0000 0.0000 29.5988
#
#
#
# Elastic Compliance Matrix: (Units=1/GPa)
#
#
# Indices 1 2 3 4 5 6 
#
# 1 0.010236 -0.001505 -0.004367 0.000000 0.000000 0.000000
# 2 -0.001505 0.012011 -0.000442 0.000000 0.000000 0.000000
# 3 -0.004367 -0.000442 0.009439 0.000000 0.000000 0.000000
# 4 0.000000 0.000000 0.000000 0.029460 0.000000 0.000000
# 5 0.000000 0.000000 0.000000 0.000000 0.017405 0.000000
# 6 0.000000 0.000000 0.000000 0.000000 0.000000 0.033785
#
#
# Mechanical properties :
#
#
# Convention : Reuss Voigt Hill
#
# Bulk Modulus (GPa) = 52.47091 58.14085 55.30588
# Shear Modulus (GPa) = 38.07551 41.27221 39.67386
#
# Velocity S-wave (km/s) = 4.10878 4.27779 4.19414
# Velocity P-wave (km/s) = 6.76567 7.08365 6.92648
#
# Compressibility (1/GPa) = 0.01905818
#
# Stress axis : x y z
#
# Youngs Moduli (GPa) = 97.69496 83.25380 105.94188
#
# Poissons Ratio (x) = 0.12533 0.46266
# Poissons Ratio (y) = 0.14706 0.04679
# Poissons Ratio (z) = 0.42665 0.03677
#
# Static dielectric constant tensor:
#      x y z
#    x 1.979130 0.000000 0.000000 
#    y 0.000000 1.837640 0.000000 
#    z 0.000000 0.000000 1.814130 
# 
# From -- ./inp_files/4113.got.cif
#   From: 2010.05.17/outbox.cif.g08.bks.cpg/sg18_3_cif.got.tgz:4113.got - 2010.06.03 22:40:56.
