data_PCOD9312807
_publ_section_title
;
Structure prediction by ZEFSAII (Michael W. Deem and Ramdas Pophale) SiO2 
 PCOD9312807
Probable space group: P 21 21 2
;
_chemical_formula_sum "Si O2"
_cell_formula_units_Z 22
_cell_length_a 15.063641
_cell_length_b 11.071767
_cell_length_c 5.403391
_cell_angle_alpha 90.000000
_cell_angle_beta 90.000000
_cell_angle_gamma 90.000000
_cell_volume 901.183621
_symmetry_space_group_name_H-M "P 21 21 2"
_symmetry_group_IT_number 18
_symmetry_cell_setting 'orthorhombic'
loop_
_space_group_symop_operation_xyz
x,y,z
-x,-y,z
1/2+x,1/2-y,-z
1/2-x,1/2+y,-z
loop_
_atom_site_type_symbol
_atom_site_label
_atom_site_fract_x
_atom_site_fract_y
_atom_site_fract_z
Si Si1 0.645225 0.938673 0.441962
Si Si2 0.108692 0.129439 0.157333
Si Si3 0.934647 0.275607 0.189939
Si Si4 0.675170 0.497646 0.341550
Si Si5 0.000000 0.500000 0.854737
Si Si6 0.222362 0.759442 0.867444
O O1 0.577353 0.840720 0.549507
O O2 0.719050 0.968330 0.643634
O O3 0.583825 0.037803 0.316688
O O4 0.700388 0.874105 0.228644
O O5 0.007468 0.172252 0.172946
O O6 0.130915 0.056234 0.410617
O O7 0.171560 0.250368 0.133342
O O8 0.130827 0.057243 0.904839
O O9 0.967829 0.386475 0.015601
O O10 0.836943 0.227737 0.111572
O O11 0.680637 0.641336 0.313546
#
# Coordination Sequence:
#
# PCOD9312807 Si02
#       6
#     4   4   4   4   2   4
#     4  10  23  44  66 104 137 181 236 296 344 411
#     4  11  27  45  72 103 139 187 235 288 347 422
#     4  11  24  45  68 104 141 180 239 288 350 413
#     4  11  26  47  70 102 142 189 232 282 364 408
#     4  10  24  38  72 104 132 180 230 302 346 406
#     4  10  25  45  70  99 143 180 235 292 345 421
#
# _framework density 24.412338999999999
#
# number of rings (size 3 to 8) (size 9 to 14) (size 15 to 20)
#    0.000    1.455    1.818    0.545   12.727    2.182 
#    0.000    0.000    0.000    0.000    0.000    0.000 
#    0.000    0.000    0.000    0.000    0.000    0.000 
#
# Total GULP energy -122812.474722 kJ/mol
# GULP energy per Si atom -5582.385215 kJ/mol
# Density = 2.435678 g / cm^3
# Si number density = 24.412339 Si / 1000 Ang^3
#
#
#
# Elastic Constant Matrix: (Units=GPa)
#
#
# Indices 1 2 3 4 5 6 
#
# 1 45.7754 -1.3580 15.0279 0.0000 0.0000 0.0000
# 2 -1.3580 47.2810 18.2770 0.0000 0.0000 0.0000
# 3 15.0279 18.2770 118.3813 0.0000 0.0000 0.0000
# 4 0.0000 0.0000 0.0000 33.1086 0.0000 0.0000
# 5 0.0000 0.0000 0.0000 0.0000 21.8807 0.0000
# 6 0.0000 0.0000 0.0000 0.0000 0.0000 36.7669
#
#
#
# Elastic Compliance Matrix: (Units=1/GPa)
#
#
# Indices 1 2 3 4 5 6 
#
# 1 0.022955 0.001899 -0.003207 0.000000 0.000000 0.000000
# 2 0.001899 0.022650 -0.003738 0.000000 0.000000 0.000000
# 3 -0.003207 -0.003738 0.009432 0.000000 0.000000 0.000000
# 4 0.000000 0.000000 0.000000 0.030204 0.000000 0.000000
# 5 0.000000 0.000000 0.000000 0.000000 0.045702 0.000000
# 6 0.000000 0.000000 0.000000 0.000000 0.000000 0.027198
#
#
# Mechanical properties :
#
#
# Convention : Reuss Voigt Hill
#
# Bulk Modulus (GPa) = 22.24989 30.59240 26.42114
# Shear Modulus (GPa) = 27.29047 30.31730 28.80389
#
# Velocity S-wave (km/s) = 3.34712 3.52786 3.43868
# Velocity P-wave (km/s) = 4.90628 5.39936 5.15872
#
# Compressibility (1/GPa) = 0.04494404
#
# Stress axis : x y z
#
# Youngs Moduli (GPa) = 43.56335 44.15077 106.02728
#
# Poissons Ratio (x) = -0.08385 0.34005
# Poissons Ratio (y) = -0.08273 0.39633
# Poissons Ratio (z) = 0.13972 0.16504
#
# Static dielectric constant tensor:
#      x y z
#    x 2.020550 0.000000 0.000000 
#    y 0.000000 1.966460 0.000000 
#    z 0.000000 0.000000 1.932030 
# 
# From -- ./inp_files/1042.got.cif
#   From: 2010.05.17/outbox.cif.g08.bks.cpg/sg18_1_cif.got.tgz:1042.got - 2010.06.03 22:40:56.
