data_PCOD9312429
_publ_section_title
;
Structure prediction by ZEFSAII (Michael W. Deem and Ramdas Pophale) SiO2 
 PCOD9312429
Probable space group: P 21 21 2
;
_chemical_formula_sum "Si O2"
_cell_formula_units_Z 20
_cell_length_a 11.508591
_cell_length_b 8.382163
_cell_length_c 9.395038
_cell_angle_alpha 90.000000
_cell_angle_beta 90.000000
_cell_angle_gamma 90.000000
_cell_volume 906.310057
_symmetry_space_group_name_H-M "P 21 21 2"
_symmetry_group_IT_number 18
_symmetry_cell_setting 'orthorhombic'
loop_
_space_group_symop_operation_xyz
x,y,z
-x,-y,z
1/2+x,1/2-y,-z
1/2-x,1/2+y,-z
loop_
_atom_site_type_symbol
_atom_site_label
_atom_site_fract_x
_atom_site_fract_y
_atom_site_fract_z
Si Si1 0.022069 0.667698 0.816993
Si Si2 0.238354 0.871477 0.848472
Si Si3 0.198987 0.682365 0.580533
Si Si4 0.373677 0.420969 0.650809
Si Si5 0.778657 0.758897 0.864172
O O1 0.096065 0.616359 0.679635
O O2 0.100735 0.256694 0.779968
O O3 0.000000 0.500000 0.897764
O O4 0.106810 0.803811 0.881094
O O5 0.257932 0.058407 0.857964
O O6 0.258519 0.810261 0.688839
O O7 0.308495 0.784231 0.972725
O O8 0.294976 0.547947 0.564718
O O9 0.140391 0.762635 0.445058
O O10 0.500000 0.500000 0.668276
O O11 0.311130 0.368749 0.798018
#
# Coordination Sequence:
#
# PCOD9312429 Si02
#       5
#     4   4   4   4   4
#     4  10  21  42  71  94 138 183 227 276 357 419
#     4  10  24  40  72 103 136 188 232 281 358 410
#     4  10  25  44  66 104 135 186 231 278 359 421
#     4  12  27  44  71 103 144 182 239 296 349 415
#     4  12  22  45  68 105 141 182 235 296 341 433
#
# _framework density 22.067501
#
# number of rings (size 3 to 8) (size 9 to 14) (size 15 to 20)
#    1.200    0.000    2.000    4.200    5.600    3.200 
#    0.000    5.000    0.000    0.000    0.000    0.000 
#    0.000    0.000    0.000    0.000    0.000    0.000 
#
# Total GULP energy -111403.188498 kJ/mol
# GULP energy per Si atom -5570.159425 kJ/mol
# Density = 2.201727 g / cm^3
# Si number density = 22.067501 Si / 1000 Ang^3
#
#
#
# Elastic Constant Matrix: (Units=GPa)
#
#
# Indices 1 2 3 4 5 6 
#
# 1 87.9742 4.0278 -8.6583 0.0000 0.0000 0.0000
# 2 4.0278 89.2132 -7.9914 0.0000 0.0000 0.0000
# 3 -8.6583 -7.9914 45.0275 0.0000 0.0000 0.0000
# 4 0.0000 0.0000 0.0000 30.1054 0.0000 0.0000
# 5 0.0000 0.0000 0.0000 0.0000 9.9707 0.0000
# 6 0.0000 0.0000 0.0000 0.0000 0.0000 38.0043
#
#
#
# Elastic Compliance Matrix: (Units=1/GPa)
#
#
# Indices 1 2 3 4 5 6 
#
# 1 0.011596 -0.000329 0.002171 0.000000 0.000000 0.000000
# 2 -0.000329 0.011400 0.001960 0.000000 0.000000 0.000000
# 3 0.002171 0.001960 0.022974 0.000000 0.000000 0.000000
# 4 0.000000 0.000000 0.000000 0.033217 0.000000 0.000000
# 5 0.000000 0.000000 0.000000 0.000000 0.100294 0.000000
# 6 0.000000 0.000000 0.000000 0.000000 0.000000 0.026313
#
#
# Mechanical properties :
#
#
# Convention : Reuss Voigt Hill
#
# Bulk Modulus (GPa) = 18.66587 21.88567 20.27577
# Shear Modulus (GPa) = 23.14322 31.27187 27.20754
#
# Velocity S-wave (km/s) = 3.24195 3.76852 3.51511
# Velocity P-wave (km/s) = 4.74242 5.37353 5.06781
#
# Compressibility (1/GPa) = 0.05357372
#
# Stress axis : x y z
#
# Youngs Moduli (GPa) = 86.23861 87.72299 43.52745
#
# Poissons Ratio (x) = 0.02886 -0.09451
# Poissons Ratio (y) = 0.02837 -0.08531
# Poissons Ratio (z) = -0.18725 -0.17193
#
# Static dielectric constant tensor:
#      x y z
#    x 1.827690 0.000000 0.000000 
#    y 0.000000 1.851200 0.000000 
#    z 0.000000 0.000000 1.846540 
# 
# From -- ./inp_files/4115.got.cif
#   From: 2010.05.17/outbox.cif.g08.bks.cpg/sg18_3_cif.got.tgz:4115.got - 2010.06.03 22:40:56.
