data_PCOD9312288
_publ_section_title
;
Structure prediction by ZEFSAII (Michael W. Deem and Ramdas Pophale) SiO2 
 PCOD9312288
Probable space group: P 21 21 2
;
_chemical_formula_sum "Si O2"
_cell_formula_units_Z 32
_cell_length_a 7.701018
_cell_length_b 14.822214
_cell_length_c 10.871250
_cell_angle_alpha 90.000000
_cell_angle_beta 90.000000
_cell_angle_gamma 90.000000
_cell_volume 1240.911190
_symmetry_space_group_name_H-M "P 21 21 2"
_symmetry_group_IT_number 18
_symmetry_cell_setting 'orthorhombic'
loop_
_space_group_symop_operation_xyz
x,y,z
-x,-y,z
1/2+x,1/2-y,-z
1/2-x,1/2+y,-z
loop_
_atom_site_type_symbol
_atom_site_label
_atom_site_fract_x
_atom_site_fract_y
_atom_site_fract_z
Si Si1 0.175437 0.640756 0.988004
Si Si2 0.314244 0.030785 0.353956
Si Si3 0.469320 0.287024 0.864962
Si Si4 0.695525 0.538385 0.902431
Si Si5 0.664844 0.623613 0.356490
Si Si6 0.721209 0.436508 0.394652
Si Si7 0.444253 0.210000 0.247603
Si Si8 0.187582 0.765522 0.384670
O O1 0.350701 0.685196 0.930081
O O2 0.204341 0.533341 0.987716
O O3 0.032739 0.671280 0.888157
O O4 0.110649 0.688289 0.110366
O O5 0.274013 0.973506 0.233856
O O6 0.186372 0.029932 0.466078
O O7 0.335396 0.132230 0.311732
O O8 0.500000 0.000000 0.404739
O O9 0.336326 0.357867 0.929554
O O10 0.450515 0.299553 0.717361
O O11 0.500000 0.500000 0.893381
O O12 0.776982 0.532968 0.337374
O O13 0.464703 0.592229 0.343513
O O14 0.671434 0.700117 0.253144
O O15 0.684086 0.678026 0.487304
O O16 0.831188 0.343555 0.402087
O O17 0.623178 0.221289 0.321725
#
# Coordination Sequence:
#
# PCOD9312288 Si02
#       8
#     4   4   4   4   4   4   4   4
#     4  10  23  41  65  90 120 155 203 253 305 368
#     4  11  20  34  56  90 120 152 200 256 295 348
#     4  11  22  41  64  90 119 157 202 253 308 358
#     4   9  21  38  64  89 114 157 203 247 303 364
#     4  10  21  37  60  86 124 168 202 245 296 374
#     4  10  22  36  56  88 123 165 202 241 306 361
#     4  10  21  38  58  86 121 156 200 248 303 353
#     4  11  22  38  63  89 122 160 206 254 298 360
#
# _framework density 25.787502
#
# number of rings (size 3 to 8) (size 9 to 14) (size 15 to 20)
#    0.000    1.750    1.250    3.000    7.000    1.000 
#    4.500    0.000    0.000    0.000    0.000    0.000 
#    0.000    0.000    0.000    0.000    0.000    0.000 
#
# Total GULP energy -178735.591642 kJ/mol
# GULP energy per Si atom -5585.487239 kJ/mol
# Density = 2.572881 g / cm^3
# Si number density = 25.787502 Si / 1000 Ang^3
#
#
#
# Elastic Constant Matrix: (Units=GPa)
#
#
# Indices 1 2 3 4 5 6 
#
# 1 81.3448 5.3801 -6.8556 0.0000 0.0000 0.0000
# 2 5.3801 143.4519 -12.9708 0.0000 0.0000 0.0000
# 3 -6.8556 -12.9708 25.5231 0.0000 0.0000 0.0000
# 4 0.0000 0.0000 0.0000 18.1102 0.0000 0.0000
# 5 0.0000 0.0000 0.0000 0.0000 21.7013 0.0000
# 6 0.0000 0.0000 0.0000 0.0000 0.0000 28.9476
#
#
#
# Elastic Compliance Matrix: (Units=1/GPa)
#
#
# Indices 1 2 3 4 5 6 
#
# 1 0.012582 -0.000174 0.003291 0.000000 0.000000 0.000000
# 2 -0.000174 0.007309 0.003668 0.000000 0.000000 0.000000
# 3 0.003291 0.003668 0.041928 0.000000 0.000000 0.000000
# 4 0.000000 0.000000 0.000000 0.055218 0.000000 0.000000
# 5 0.000000 0.000000 0.000000 0.000000 0.046080 0.000000
# 6 0.000000 0.000000 0.000000 0.000000 0.000000 0.034545
#
#
# Mechanical properties :
#
#
# Convention : Reuss Voigt Hill
#
# Bulk Modulus (GPa) = 13.26467 24.60302 18.93385
# Shear Modulus (GPa) = 23.89794 31.40289 27.65042
#
# Velocity S-wave (km/s) = 3.04752 3.49342 3.27806
# Velocity P-wave (km/s) = 4.18786 5.08266 4.65680
#
# Compressibility (1/GPa) = 0.07538821
#
# Stress axis : x y z
#
# Youngs Moduli (GPa) = 79.47712 136.81492 23.85039
#
# Poissons Ratio (x) = 0.02385 -0.07849
# Poissons Ratio (y) = 0.01385 -0.08748
# Poissons Ratio (z) = -0.26156 -0.50179
#
# Static dielectric constant tensor:
#      x y z
#    x 2.057690 0.000000 0.000000 
#    y 0.000000 2.145170 0.000000 
#    z 0.000000 0.000000 2.085880 
# 
# From -- ./inp_files/5672.got.cif
#   From: 2010.05.17/outbox.cif.g08.bks.cpg/sg18_3_cif.got.tgz:5672.got - 2010.06.03 22:40:56.
