data_PCOD9312250
_publ_section_title
;
Structure prediction by ZEFSAII (Michael W. Deem and Ramdas Pophale) SiO2 
 PCOD9312250
Probable space group: P 21 21 2
;
_chemical_formula_sum "Si O2"
_cell_formula_units_Z 22
_cell_length_a 14.321663
_cell_length_b 10.168381
_cell_length_c 6.056101
_cell_angle_alpha 90.000000
_cell_angle_beta 90.000000
_cell_angle_gamma 90.000000
_cell_volume 881.938639
_symmetry_space_group_name_H-M "P 21 21 2"
_symmetry_group_IT_number 18
_symmetry_cell_setting 'orthorhombic'
loop_
_space_group_symop_operation_xyz
x,y,z
-x,-y,z
1/2+x,1/2-y,-z
1/2-x,1/2+y,-z
loop_
_atom_site_type_symbol
_atom_site_label
_atom_site_fract_x
_atom_site_fract_y
_atom_site_fract_z
Si Si1 0.019706 0.288227 0.159329
Si Si2 0.206267 0.249307 0.882987
Si Si3 0.652524 0.103434 0.494991
Si Si4 0.000000 0.000000 0.022784
Si Si5 0.321873 0.411021 0.183827
Si Si6 0.642475 0.874377 0.143249
O O1 0.059239 0.355083 0.377792
O O2 0.993034 0.133260 0.165823
O O3 0.937491 0.368411 0.042318
O O4 0.110298 0.284116 0.002038
O O5 0.188942 0.263299 0.625870
O O6 0.363073 0.268230 0.263596
O O7 0.259230 0.131817 0.008327
O O8 0.736902 0.057393 0.653351
O O9 0.634619 0.991311 0.314722
O O10 0.090917 0.004033 0.863527
O O11 0.278634 0.364434 0.950018
#
# Coordination Sequence:
#
# PCOD9312250 Si02
#       6
#     4   4   4   2   4   4
#     4  10  23  47  75 114 145 208 250 319 398 455
#     4   9  22  43  69 109 146 188 262 309 382 438
#     4  11  22  46  78 106 156 214 256 302 404 477
#     4  10  20  46  80 112 162 176 262 348 372 454
#     4   8  21  42  70 115 143 203 251 321 389 447
#     4   9  22  46  73 112 159 188 263 329 374 463
#
# _framework density 24.945046999999999
#
# number of rings (size 3 to 8) (size 9 to 14) (size 15 to 20)
#    1.091    1.455    0.000    0.000    2.545    2.182 
#    9.818    5.455   12.000    0.000    0.000    0.000 
#    0.000    0.000    0.000    0.000    0.000    0.000 
#
# Total GULP energy -122870.760225 kJ/mol
# GULP energy per Si atom -5585.034556 kJ/mol
# Density = 2.488827 g / cm^3
# Si number density = 24.945047 Si / 1000 Ang^3
#
#
#
# Elastic Constant Matrix: (Units=GPa)
#
#
# Indices 1 2 3 4 5 6 
#
# 1 151.8536 18.8944 47.6917 0.0000 0.0000 0.0000
# 2 18.8944 132.7091 52.3224 0.0000 0.0000 0.0000
# 3 47.6917 52.3224 106.8700 0.0000 0.0000 0.0000
# 4 0.0000 0.0000 0.0000 42.4738 0.0000 0.0000
# 5 0.0000 0.0000 0.0000 0.0000 38.6730 0.0000
# 6 0.0000 0.0000 0.0000 0.0000 0.0000 35.0623
#
#
#
# Elastic Compliance Matrix: (Units=1/GPa)
#
#
# Indices 1 2 3 4 5 6 
#
# 1 0.007670 0.000319 -0.003579 0.000000 0.000000 0.000000
# 2 0.000319 0.009351 -0.004721 0.000000 0.000000 0.000000
# 3 -0.003579 -0.004721 0.013265 0.000000 0.000000 0.000000
# 4 0.000000 0.000000 0.000000 0.023544 0.000000 0.000000
# 5 0.000000 0.000000 0.000000 0.000000 0.025858 0.000000
# 6 0.000000 0.000000 0.000000 0.000000 0.000000 0.028521
#
#
# Mechanical properties :
#
#
# Convention : Reuss Voigt Hill
#
# Bulk Modulus (GPa) = 69.80641 69.91664 69.86152
# Shear Modulus (GPa) = 38.77654 41.41011 40.09333
#
# Velocity S-wave (km/s) = 3.94696 4.07880 4.01342
# Velocity P-wave (km/s) = 6.98686 7.09022 7.03873
#
# Compressibility (1/GPa) = 0.01432533
#
# Stress axis : x y z
#
# Youngs Moduli (GPa) = 130.38537 106.94066 75.38437
#
# Poissons Ratio (x) = -0.03412 0.26979
# Poissons Ratio (y) = -0.04160 0.35585
# Poissons Ratio (z) = 0.46663 0.50481
#
# Static dielectric constant tensor:
#      x y z
#    x 1.969120 0.000000 0.000000 
#    y 0.000000 2.237700 0.000000 
#    z 0.000000 0.000000 1.951740 
# 
# From -- ./inp_files/1467.got.cif
#   From: 2010.05.17/outbox.cif.g08.bks.cpg/sg18_1_cif.got.tgz:1467.got - 2010.06.03 22:40:56.
