data_PCOD9312520
_publ_section_title
;
Structure prediction by ZEFSAII (Michael W. Deem and Ramdas Pophale) SiO2 
 PCOD9312520
Probable space group: P 21 21 2
;
_chemical_formula_sum "Si O2"
_cell_formula_units_Z 24
_cell_length_a 9.675694
_cell_length_b 14.556730
_cell_length_c 8.405023
_cell_angle_alpha 90.000000
_cell_angle_beta 90.000000
_cell_angle_gamma 90.000000
_cell_volume 1183.817779
_symmetry_space_group_name_H-M "P 21 21 2"
_symmetry_group_IT_number 18
_symmetry_cell_setting 'orthorhombic'
loop_
_space_group_symop_operation_xyz
x,y,z
-x,-y,z
1/2+x,1/2-y,-z
1/2-x,1/2+y,-z
loop_
_atom_site_type_symbol
_atom_site_label
_atom_site_fract_x
_atom_site_fract_y
_atom_site_fract_z
Si Si1 0.653818 0.837142 0.829095
Si Si2 0.073924 0.197862 0.635770
Si Si3 0.500000 0.000000 0.397208
Si Si4 0.365666 0.168314 0.203961
Si Si5 0.390519 0.765391 0.695689
Si Si6 0.000000 0.000000 0.621944
Si Si7 0.809675 0.534518 0.304013
O O1 0.808388 0.815313 0.768694
O O2 0.551770 0.767728 0.737447
O O3 0.630286 0.942924 0.777128
O O4 0.623036 0.830956 0.014770
O O5 0.127119 0.261357 0.493676
O O6 0.943132 0.245121 0.716644
O O7 0.037330 0.100248 0.551861
O O8 0.564120 0.919574 0.287944
O O9 0.375884 0.970408 0.517903
O O10 0.203641 0.184126 0.238192
O O11 0.342896 0.864736 0.761137
O O12 0.855436 0.022656 0.707110
#
# Coordination Sequence:
#
# PCOD9312520 Si02
#       7
#     4   4   2   4   4   2   4
#     4  11  25  41  66  99 137 171 220 280 344 387
#     4  11  22  43  67  96 130 178 227 274 327 405
#     4  12  24  42  66 100 128 176 238 266 336 408
#     4  12  25  42  65  99 137 175 221 283 340 396
#     4  12  22  42  69  94 130 177 227 269 330 406
#     4  10  22  38  68  92 126 164 226 278 324 378
#     4  11  21  41  68  96 127 180 222 276 326 403
#
# _framework density 20.273389999999999
#
# number of rings (size 3 to 8) (size 9 to 14) (size 15 to 20)
#    0.000    0.667    5.000    4.000    2.333    0.000 
#    0.000    0.000    0.000    1.000    0.000    0.000 
#    0.000    0.000    0.000    0.000    0.000    0.000 
#
# Total GULP energy -133735.374236 kJ/mol
# GULP energy per Si atom -5572.307260 kJ/mol
# Density = 2.022725 g / cm^3
# Si number density = 20.273390 Si / 1000 Ang^3
#
#
#
# Elastic Constant Matrix: (Units=GPa)
#
#
# Indices 1 2 3 4 5 6 
#
# 1 90.8329 21.2010 -3.2384 0.0000 0.0000 0.0000
# 2 21.2010 99.3430 17.6152 0.0000 0.0000 0.0000
# 3 -3.2384 17.6152 83.6806 0.0000 0.0000 0.0000
# 4 0.0000 0.0000 0.0000 16.5045 0.0000 0.0000
# 5 0.0000 0.0000 0.0000 0.0000 14.8027 0.0000
# 6 0.0000 0.0000 0.0000 0.0000 0.0000 37.5598
#
#
#
# Elastic Compliance Matrix: (Units=1/GPa)
#
#
# Indices 1 2 3 4 5 6 
#
# 1 0.011669 -0.002670 0.001014 0.000000 0.000000 0.000000
# 2 -0.002670 0.011067 -0.002433 0.000000 0.000000 0.000000
# 3 0.001014 -0.002433 0.012502 0.000000 0.000000 0.000000
# 4 0.000000 0.000000 0.000000 0.060590 0.000000 0.000000
# 5 0.000000 0.000000 0.000000 0.000000 0.067555 0.000000
# 6 0.000000 0.000000 0.000000 0.000000 0.000000 0.026624
#
#
# Mechanical properties :
#
#
# Convention : Reuss Voigt Hill
#
# Bulk Modulus (GPa) = 36.95671 38.33471 37.64571
# Shear Modulus (GPa) = 24.13071 29.65865 26.89468
#
# Velocity S-wave (km/s) = 3.45377 3.82898 3.64620
# Velocity P-wave (km/s) = 5.84580 6.20468 6.02791
#
# Compressibility (1/GPa) = 0.02705868
#
# Stress axis : x y z
#
# Youngs Moduli (GPa) = 85.70050 90.35585 79.98981
#
# Poissons Ratio (x) = 0.24124 -0.08108
# Poissons Ratio (y) = 0.22882 0.19462
# Poissons Ratio (z) = -0.08687 0.21984
#
# Static dielectric constant tensor:
#      x y z
#    x 1.761670 0.000000 0.000000 
#    y 0.000000 1.764210 0.000000 
#    z 0.000000 0.000000 1.671540 
# 
# From -- ./inp_files/3214.got.cif
#   From: 2010.05.17/outbox.cif.g08.bks.cpg/sg18_2_cif.got.tgz:3214.got - 2010.06.03 22:40:56.
