data_PCOD9312156
_publ_section_title
;
Structure prediction by ZEFSAII (Michael W. Deem and Ramdas Pophale) SiO2 
 PCOD9312156
Probable space group: P 21 21 2
;
_chemical_formula_sum "Si O2"
_cell_formula_units_Z 30
_cell_length_a 13.469563
_cell_length_b 5.112773
_cell_length_c 21.755303
_cell_angle_alpha 90.000000
_cell_angle_beta 90.000000
_cell_angle_gamma 90.000000
_cell_volume 1498.218493
_symmetry_space_group_name_H-M "P 21 21 2"
_symmetry_group_IT_number 18
_symmetry_cell_setting 'orthorhombic'
loop_
_space_group_symop_operation_xyz
x,y,z
-x,-y,z
1/2+x,1/2-y,-z
1/2-x,1/2+y,-z
loop_
_atom_site_type_symbol
_atom_site_label
_atom_site_fract_x
_atom_site_fract_y
_atom_site_fract_z
Si Si1 0.388465 0.114355 0.704490
Si Si2 0.500000 0.500000 0.772670
Si Si3 0.933574 0.744964 0.870767
Si Si4 0.235620 0.590052 0.177871
Si Si5 0.820023 0.524403 0.431426
Si Si6 0.680706 0.230145 0.001506
Si Si7 0.360797 0.615499 0.872082
Si Si8 0.114082 0.973157 0.505789
O O1 0.413107 0.409413 0.726805
O O2 0.308967 0.033772 0.755348
O O3 0.349951 0.048454 0.637462
O O4 0.500000 0.000000 0.710788
O O5 0.447099 0.686987 0.823342
O O6 0.845893 0.801381 0.822941
O O7 0.000000 0.500000 0.853703
O O8 0.881967 0.699201 0.936810
O O9 0.000000 0.000000 0.876240
O O10 0.228361 0.316399 0.141996
O O11 0.170837 0.818665 0.144044
O O12 0.859741 0.805044 0.454722
O O13 0.701531 0.505069 0.443607
O O14 0.870814 0.308158 0.474761
O O15 0.616567 0.327431 0.942924
O O16 0.763076 0.457202 0.010170
O O17 0.000000 0.000000 0.526195
#
# Coordination Sequence:
#
# PCOD9312156 Si02
#       8
#     4   2   4   4   4   4   4   4
#     4  11  22  39  62  95 122 163 207 262 315 382
#     4  10  24  36  58  90 130 158 196 256 324 388
#     4  12  25  42  61  89 118 163 212 257 305 385
#     4  11  23  41  62  82 126 161 201 256 316 370
#     4  10  23  35  64  95 129 164 220 253 312 365
#     4  12  22  40  63  86 114 153 203 257 321 372
#     4  11  21  40  57  86 122 155 194 249 323 378
#     4  10  20  40  59  93 132 176 202 261 308 364
#
# _framework density 20.023779999999999
#
# number of rings (size 3 to 8) (size 9 to 14) (size 15 to 20)
#    0.000    1.067    4.000    2.800    3.733    0.000 
#    2.400    0.667    0.000    3.200    0.000    0.000 
#    0.000    0.000    0.000    0.000    0.000    0.000 
#
# Total GULP energy -167404.358707 kJ/mol
# GULP energy per Si atom -5580.145290 kJ/mol
# Density = 1.997820 g / cm^3
# Si number density = 20.023780 Si / 1000 Ang^3
#
#
#
# Elastic Constant Matrix: (Units=GPa)
#
#
# Indices 1 2 3 4 5 6 
#
# 1 124.0248 6.2718 34.5947 0.0000 0.0000 0.0000
# 2 6.2718 65.8613 -8.2787 0.0000 0.0000 0.0000
# 3 34.5947 -8.2787 104.2217 0.0000 0.0000 0.0000
# 4 0.0000 0.0000 0.0000 17.4981 0.0000 0.0000
# 5 0.0000 0.0000 0.0000 0.0000 32.8123 0.0000
# 6 0.0000 0.0000 0.0000 0.0000 0.0000 37.9334
#
#
#
# Elastic Compliance Matrix: (Units=1/GPa)
#
#
# Indices 1 2 3 4 5 6 
#
# 1 0.008985 -0.001243 -0.003081 0.000000 0.000000 0.000000
# 2 -0.001243 0.015509 0.001644 0.000000 0.000000 0.000000
# 3 -0.003081 0.001644 0.010748 0.000000 0.000000 0.000000
# 4 0.000000 0.000000 0.000000 0.057149 0.000000 0.000000
# 5 0.000000 0.000000 0.000000 0.000000 0.030476 0.000000
# 6 0.000000 0.000000 0.000000 0.000000 0.000000 0.026362
#
#
# Mechanical properties :
#
#
# Convention : Reuss Voigt Hill
#
# Bulk Modulus (GPa) = 33.46424 39.92038 36.69231
# Shear Modulus (GPa) = 30.38596 35.08342 32.73469
#
# Velocity S-wave (km/s) = 3.89973 4.19034 4.04764
# Velocity P-wave (km/s) = 6.08487 6.58723 6.34103
#
# Compressibility (1/GPa) = 0.02988264
#
# Stress axis : x y z
#
# Youngs Moduli (GPa) = 111.29392 64.48074 93.03779
#
# Poissons Ratio (x) = 0.08015 0.28667
# Poissons Ratio (y) = 0.13833 -0.15300
# Poissons Ratio (z) = 0.34292 -0.10604
#
# Static dielectric constant tensor:
#      x y z
#    x 1.748910 0.000000 0.000000 
#    y 0.000000 1.815390 0.000000 
#    z 0.000000 0.000000 1.689330 
# 
# From -- ./inp_files/7576.got.cif
#   From: 2010.05.17/outbox.cif.g08.bks.cpg/sg18_4_cif.got.tgz:7576.got - 2010.06.03 22:40:56.
