data_PCOD9312074
_publ_section_title
;
Structure prediction by ZEFSAII (Michael W. Deem and Ramdas Pophale) SiO2 
 PCOD9312074
Probable space group: P 21 21 2
;
_chemical_formula_sum "Si O2"
_cell_formula_units_Z 32
_cell_length_a 14.013322
_cell_length_b 9.456172
_cell_length_c 9.246970
_cell_angle_alpha 90.000000
_cell_angle_beta 90.000000
_cell_angle_gamma 90.000000
_cell_volume 1225.338031
_symmetry_space_group_name_H-M "P 21 21 2"
_symmetry_group_IT_number 18
_symmetry_cell_setting 'orthorhombic'
loop_
_space_group_symop_operation_xyz
x,y,z
-x,-y,z
1/2+x,1/2-y,-z
1/2-x,1/2+y,-z
loop_
_atom_site_type_symbol
_atom_site_label
_atom_site_fract_x
_atom_site_fract_y
_atom_site_fract_z
Si Si1 0.115390 0.636138 0.177722
Si Si2 0.660704 0.786032 0.513471
Si Si3 0.877530 0.743503 0.547739
Si Si4 0.334872 0.849557 0.758569
Si Si5 0.807737 0.734684 0.934764
Si Si6 0.131577 0.509559 0.741200
Si Si7 0.126934 0.952608 0.680458
Si Si8 0.029393 0.765524 0.910358
O O1 0.106315 0.656157 0.348859
O O2 0.101935 0.468314 0.161472
O O3 0.224192 0.671861 0.130518
O O4 0.056354 0.741699 0.077522
O O5 0.762452 0.731019 0.567606
O O6 0.681313 0.895808 0.383337
O O7 0.600506 0.662197 0.441375
O O8 0.886940 0.724754 0.375126
O O9 0.898500 0.895098 0.617923
O O10 0.917865 0.611795 0.639316
O O11 0.241437 0.929580 0.694812
O O12 0.296483 0.759672 0.892361
O O13 0.805686 0.580433 0.856132
O O14 0.069896 0.621429 0.834626
O O15 0.084067 0.218557 0.903826
O O16 0.081441 0.893966 0.828347
#
# Coordination Sequence:
#
# PCOD9312074 Si02
#       8
#     4   4   4   4   4   4   4   4
#     4  12  22  43  74 103 146 193 251 318 378 441
#     4  10  20  37  69 105 139 183 250 299 372 443
#     4  11  20  38  70 106 144 188 245 306 374 460
#     4  11  22  40  71 111 139 195 249 309 376 458
#     4  12  25  44  71 112 146 195 257 317 381 453
#     4  11  21  40  68 102 142 189 242 306 373 449
#     4  10  21  42  69 107 145 194 242 308 382 453
#     4  11  26  44  71 108 148 194 254 318 369 459
#
# _framework density 26.115241999999999
#
# number of rings (size 3 to 8) (size 9 to 14) (size 15 to 20)
#    0.000    1.000    6.250    1.125    0.000    0.000 
#    0.000    6.250    0.000    3.000    0.000    0.000 
#    0.000    0.000    0.000    0.000    0.000    0.000 
#
# Total GULP energy -179128.023906 kJ/mol
# GULP energy per Si atom -5597.750747 kJ/mol
# Density = 2.605580 g / cm^3
# Si number density = 26.115242 Si / 1000 Ang^3
#
#
#
# Elastic Constant Matrix: (Units=GPa)
#
#
# Indices 1 2 3 4 5 6 
#
# 1 95.6166 8.9820 -0.6101 0.0000 0.0000 0.0000
# 2 8.9820 149.1283 50.0930 0.0000 0.0000 0.0000
# 3 -0.6101 50.0930 188.6161 0.0000 0.0000 0.0000
# 4 0.0000 0.0000 0.0000 45.5960 0.0000 0.0000
# 5 0.0000 0.0000 0.0000 0.0000 27.2805 0.0000
# 6 0.0000 0.0000 0.0000 0.0000 0.0000 27.3394
#
#
#
# Elastic Compliance Matrix: (Units=1/GPa)
#
#
# Indices 1 2 3 4 5 6 
#
# 1 0.010526 -0.000709 0.000222 0.000000 0.000000 0.000000
# 2 -0.000709 0.007410 -0.001970 0.000000 0.000000 0.000000
# 3 0.000222 -0.001970 0.005826 0.000000 0.000000 0.000000
# 4 0.000000 0.000000 0.000000 0.021932 0.000000 0.000000
# 5 0.000000 0.000000 0.000000 0.000000 0.036656 0.000000
# 6 0.000000 0.000000 0.000000 0.000000 0.000000 0.036577
#
#
# Mechanical properties :
#
#
# Convention : Reuss Voigt Hill
#
# Bulk Modulus (GPa) = 53.05336 61.14340 57.09838
# Shear Modulus (GPa) = 38.42493 45.03627 41.73060
#
# Velocity S-wave (km/s) = 3.83999 4.15724 4.00176
# Velocity P-wave (km/s) = 6.32613 6.81962 6.57751
#
# Compressibility (1/GPa) = 0.01884895
#
# Stress axis : x y z
#
# Youngs Moduli (GPa) = 94.99904 134.95000 171.65119
#
# Poissons Ratio (x) = 0.09563 -0.03815
# Poissons Ratio (y) = 0.06732 0.33820
# Poissons Ratio (z) = -0.02111 0.26589
#
# Static dielectric constant tensor:
#      x y z
#    x 2.121540 0.000000 0.000000 
#    y 0.000000 2.077810 0.000000 
#    z 0.000000 0.000000 2.043870 
# 
# From -- ./inp_files/4712.got.cif
#   From: 2010.05.17/outbox.cif.g08.bks.cpg/sg18_3_cif.got.tgz:4712.got - 2010.06.03 22:40:56.
