data_PCOD9312553
_publ_section_title
;
Structure prediction by ZEFSAII (Michael W. Deem and Ramdas Pophale) SiO2 
 PCOD9312553
Probable space group: P 21 21 2
;
_chemical_formula_sum "Si O2"
_cell_formula_units_Z 28
_cell_length_a 6.732483
_cell_length_b 18.991765
_cell_length_c 11.382576
_cell_angle_alpha 90.000000
_cell_angle_beta 90.000000
_cell_angle_gamma 90.000000
_cell_volume 1455.395916
_symmetry_space_group_name_H-M "P 21 21 2"
_symmetry_group_IT_number 18
_symmetry_cell_setting 'orthorhombic'
loop_
_space_group_symop_operation_xyz
x,y,z
-x,-y,z
1/2+x,1/2-y,-z
1/2-x,1/2+y,-z
loop_
_atom_site_type_symbol
_atom_site_label
_atom_site_fract_x
_atom_site_fract_y
_atom_site_fract_z
Si Si1 0.489196 0.081728 0.306573
Si Si2 0.984091 0.583819 0.973500
Si Si3 0.035457 0.793526 0.666607
Si Si4 0.776658 0.183326 0.431758
Si Si5 0.340095 0.676953 0.710779
Si Si6 0.901852 0.169317 0.076912
Si Si7 0.283762 0.681732 0.121751
O O1 0.469031 0.093906 0.165800
O O2 0.681239 0.117957 0.362265
O O3 0.294100 0.119788 0.356083
O O4 0.500000 0.000000 0.327988
O O5 0.000000 0.500000 0.997712
O O6 0.761553 0.615793 0.972911
O O7 0.124936 0.628071 0.062618
O O8 0.171905 0.830171 0.568011
O O9 0.186410 0.740825 0.736777
O O10 0.882701 0.744164 0.594281
O O11 0.896468 0.836455 0.756585
O O12 0.982617 0.202904 0.370219
O O13 0.450171 0.642349 0.822086
O O14 0.808116 0.240191 0.131421
O O15 0.041451 0.190984 0.971316
#
# Coordination Sequence:
#
# PCOD9312553 Si02
#       7
#     4   4   4   4   4   4   4
#     4  10  22  40  60  90 125 164 210 260 315 381
#     4  11  24  41  60  94 135 168 206 263 329 388
#     4  11  23  37  62  98 126 162 210 266 317 377
#     4  11  21  38  61  94 127 158 210 263 321 369
#     4  11  20  37  63  93 126 157 204 265 322 370
#     4  12  21  38  65  96 127 164 209 265 321 384
#     4  12  23  37  64  98 129 167 213 262 322 385
#
# _framework density 19.238748999999999
#
# number of rings (size 3 to 8) (size 9 to 14) (size 15 to 20)
#    0.000    0.857    7.143    1.714    0.000    1.143 
#    0.000    0.000    0.000    5.143    0.000    0.000 
#    0.000    0.000    0.000    0.000    0.000    0.000 
#
# Total GULP energy -156029.471477 kJ/mol
# GULP energy per Si atom -5572.481124 kJ/mol
# Density = 1.919496 g / cm^3
# Si number density = 19.238749 Si / 1000 Ang^3
#
#
#
# Elastic Constant Matrix: (Units=GPa)
#
#
# Indices 1 2 3 4 5 6 
#
# 1 124.7776 39.8889 33.8685 0.0000 0.0000 0.0000
# 2 39.8889 73.5447 18.0410 0.0000 0.0000 0.0000
# 3 33.8685 18.0410 89.4820 0.0000 0.0000 0.0000
# 4 0.0000 0.0000 0.0000 12.2711 0.0000 0.0000
# 5 0.0000 0.0000 0.0000 0.0000 43.6375 0.0000
# 6 0.0000 0.0000 0.0000 0.0000 0.0000 11.1029
#
#
#
# Elastic Compliance Matrix: (Units=1/GPa)
#
#
# Indices 1 2 3 4 5 6 
#
# 1 0.010382 -0.004910 -0.002940 0.000000 0.000000 0.000000
# 2 -0.004910 0.016627 -0.001494 0.000000 0.000000 0.000000
# 3 -0.002940 -0.001494 0.012589 0.000000 0.000000 0.000000
# 4 0.000000 0.000000 0.000000 0.081492 0.000000 0.000000
# 5 0.000000 0.000000 0.000000 0.000000 0.022916 0.000000
# 6 0.000000 0.000000 0.000000 0.000000 0.000000 0.090067
#
#
# Mechanical properties :
#
#
# Convention : Reuss Voigt Hill
#
# Bulk Modulus (GPa) = 47.82122 52.37789 50.09955
# Shear Modulus (GPa) = 19.25084 26.46935 22.86010
#
# Velocity S-wave (km/s) = 3.16670 3.71325 3.45081
# Velocity P-wave (km/s) = 6.18719 6.75785 6.47881
#
# Compressibility (1/GPa) = 0.02091122
#
# Stress axis : x y z
#
# Youngs Moduli (GPa) = 96.32360 60.14482 79.43304
#
# Poissons Ratio (x) = 0.29529 0.23350
# Poissons Ratio (y) = 0.47292 0.11866
# Poissons Ratio (z) = 0.28315 0.08985
#
# Static dielectric constant tensor:
#      x y z
#    x 1.715060 0.000000 0.000000 
#    y 0.000000 1.656450 0.000000 
#    z 0.000000 0.000000 1.742880 
# 
# From -- ./inp_files/5201.got.cif
#   From: 2010.05.17/outbox.cif.g08.bks.cpg/sg18_3_cif.got.tgz:5201.got - 2010.06.03 22:40:56.
