data_PCOD9312642
_publ_section_title
;
Structure prediction by ZEFSAII (Michael W. Deem and Ramdas Pophale) SiO2 
 PCOD9312642
Probable space group: P 21 21 2
;
_chemical_formula_sum "Si O2"
_cell_formula_units_Z 16
_cell_length_a 5.107427
_cell_length_b 23.223872
_cell_length_c 4.795424
_cell_angle_alpha 90.000000
_cell_angle_beta 90.000000
_cell_angle_gamma 90.000000
_cell_volume 568.805530
_symmetry_space_group_name_H-M "P 21 21 2"
_symmetry_group_IT_number 18
_symmetry_cell_setting 'orthorhombic'
loop_
_space_group_symop_operation_xyz
x,y,z
-x,-y,z
1/2+x,1/2-y,-z
1/2-x,1/2+y,-z
loop_
_atom_site_type_symbol
_atom_site_label
_atom_site_fract_x
_atom_site_fract_y
_atom_site_fract_z
Si Si1 0.439235 0.265235 0.644468
Si Si2 0.267201 0.657089 0.262828
Si Si3 0.045346 0.062751 0.109694
Si Si4 0.950858 0.561314 0.505681
O O1 0.662593 0.223578 0.510221
O O2 0.602238 0.322432 0.556778
O O3 0.321091 0.219020 0.873503
O O4 0.031735 0.613560 0.310945
O O5 0.466465 0.618501 0.087240
O O6 0.328390 0.062189 0.253096
O O7 0.827090 0.064903 0.349345
O O8 0.000000 0.000000 0.969020
O O9 0.000000 0.500000 0.361710
#
# Coordination Sequence:
#
# PCOD9312642 Si02
#       4
#     4   4   4   4
#     4   8  20  36  62  94 118 166 228 248 308 412
#     4  10  22  42  68  86 134 170 206 274 330 364
#     4  10  24  40  61  98 130 164 219 265 318 398
#     4  10  24  40  61  98 130 164 219 265 318 398
#
# _framework density 28.129121000000001
#
# number of rings (size 3 to 8) (size 9 to 14) (size 15 to 20)
#    1.500    1.000    0.000    0.000    7.000    6.000 
#    0.000    5.000    0.000    0.000    0.000    0.000 
#    0.000    0.000    0.000    0.000    0.000    0.000 
#
# Total GULP energy -89090.507920 kJ/mol
# GULP energy per Si atom -5568.156745 kJ/mol
# Density = 2.806510 g / cm^3
# Si number density = 28.129121 Si / 1000 Ang^3
#
#
#
# Elastic Constant Matrix: (Units=GPa)
#
#
# Indices 1 2 3 4 5 6 
#
# 1 127.3575 14.0537 37.9827 0.0000 0.0000 0.0000
# 2 14.0537 145.1509 24.1818 0.0000 0.0000 0.0000
# 3 37.9827 24.1818 71.2793 0.0000 0.0000 0.0000
# 4 0.0000 0.0000 0.0000 35.4669 0.0000 0.0000
# 5 0.0000 0.0000 0.0000 0.0000 42.0250 0.0000
# 6 0.0000 0.0000 0.0000 0.0000 0.0000 53.7820
#
#
#
# Elastic Compliance Matrix: (Units=1/GPa)
#
#
# Indices 1 2 3 4 5 6 
#
# 1 0.009336 -0.000080 -0.004948 0.000000 0.000000 0.000000
# 2 -0.000080 0.007303 -0.002435 0.000000 0.000000 0.000000
# 3 -0.004948 -0.002435 0.017492 0.000000 0.000000 0.000000
# 4 0.000000 0.000000 0.000000 0.028195 0.000000 0.000000
# 5 0.000000 0.000000 0.000000 0.000000 0.023795 0.000000
# 6 0.000000 0.000000 0.000000 0.000000 0.000000 0.018594
#
#
# Mechanical properties :
#
#
# Convention : Reuss Voigt Hill
#
# Bulk Modulus (GPa) = 52.06779 55.13602 53.60191
# Shear Modulus (GPa) = 39.66902 44.09276 41.88089
#
# Velocity S-wave (km/s) = 3.75940 3.96348 3.86279
# Velocity P-wave (km/s) = 6.11511 6.37096 6.24435
#
# Compressibility (1/GPa) = 0.01920573
#
# Stress axis : x y z
#
# Youngs Moduli (GPa) = 107.10761 136.93444 57.16862
#
# Poissons Ratio (x) = 0.01090 0.28288
# Poissons Ratio (y) = 0.00853 0.13921
# Poissons Ratio (z) = 0.52998 0.33344
#
# Static dielectric constant tensor:
#      x y z
#    x 2.137240 0.000000 0.000000 
#    y 0.000000 2.325230 0.000000 
#    z 0.000000 0.000000 2.313300 
# 
# From -- ./inp_files/166.got.cif
#   From: 2010.05.17/outbox.cif.g08.bks.cpg/sg18_1_cif.got.tgz:166.got - 2010.06.03 22:40:56.
