data_PCOD9312619
_publ_section_title
;
Structure prediction by ZEFSAII (Michael W. Deem and Ramdas Pophale) SiO2 
 PCOD9312619
Probable space group: P 21 21 2
;
_chemical_formula_sum "Si O2"
_cell_formula_units_Z 24
_cell_length_a 8.316355
_cell_length_b 21.058313
_cell_length_c 5.103227
_cell_angle_alpha 90.000000
_cell_angle_beta 90.000000
_cell_angle_gamma 90.000000
_cell_volume 893.720013
_symmetry_space_group_name_H-M "P 21 21 2"
_symmetry_group_IT_number 18
_symmetry_cell_setting 'orthorhombic'
loop_
_space_group_symop_operation_xyz
x,y,z
-x,-y,z
1/2+x,1/2-y,-z
1/2-x,1/2+y,-z
loop_
_atom_site_type_symbol
_atom_site_label
_atom_site_fract_x
_atom_site_fract_y
_atom_site_fract_z
Si Si1 0.816354 0.770259 0.391361
Si Si2 0.422876 0.585971 0.532195
Si Si3 0.394053 0.405148 0.028803
Si Si4 0.953380 0.573466 0.274451
Si Si5 0.084928 0.567464 0.774515
Si Si6 0.120947 0.756800 0.096523
O O1 0.891052 0.838480 0.459222
O O2 0.956474 0.733369 0.233706
O O3 0.747349 0.743318 0.661894
O O4 0.681383 0.777575 0.166054
O O5 0.474975 0.570771 0.238808
O O6 0.258202 0.558862 0.647305
O O7 0.563933 0.570672 0.739044
O O8 0.404365 0.328963 0.003174
O O9 0.000000 0.500000 0.328367
O O10 0.081520 0.598039 0.061447
O O11 0.778911 0.579107 0.148665
O O12 0.977065 0.603530 0.559504
O O13 0.000000 0.500000 0.827972
#
# Coordination Sequence:
#
# PCOD9312619 Si02
#       6
#     4   4   4   4   4   4
#     4  11  23  40  61  92 128 167 211 256 308 373
#     4  11  23  42  64  91 127 168 209 257 313 375
#     4  11  23  42  64  91 127 168 209 257 313 375
#     4  10  22  42  63  91 123 157 208 263 312 372
#     4  10  22  42  63  91 123 157 208 263 312 372
#     4  11  23  40  61  92 128 167 211 256 308 373
#
# _framework density 26.854047000000001
#
# number of rings (size 3 to 8) (size 9 to 14) (size 15 to 20)
#    0.000    1.333    0.000    7.000    0.000    4.000 
#    0.000   20.000    0.000    0.000    0.000    0.000 
#    0.000    0.000    0.000    0.000    0.000    0.000 
#
# Total GULP energy -134450.367765 kJ/mol
# GULP energy per Si atom -5602.098657 kJ/mol
# Density = 2.679293 g / cm^3
# Si number density = 26.854047 Si / 1000 Ang^3
#
#
#
# Elastic Constant Matrix: (Units=GPa)
#
#
# Indices 1 2 3 4 5 6 
#
# 1 88.8085 -9.0888 13.5750 0.0000 0.0000 0.0000
# 2 -9.0888 60.0682 1.5317 0.0000 0.0000 0.0000
# 3 13.5750 1.5317 181.9921 0.0000 0.0000 0.0000
# 4 0.0000 0.0000 0.0000 13.7556 0.0000 0.0000
# 5 0.0000 0.0000 0.0000 0.0000 65.4510 0.0000
# 6 0.0000 0.0000 0.0000 0.0000 0.0000 39.2252
#
#
#
# Elastic Compliance Matrix: (Units=1/GPa)
#
#
# Indices 1 2 3 4 5 6 
#
# 1 0.011576 0.001774 -0.000878 0.000000 0.000000 0.000000
# 2 0.001774 0.016923 -0.000275 0.000000 0.000000 0.000000
# 3 -0.000878 -0.000275 0.005563 0.000000 0.000000 0.000000
# 4 0.000000 0.000000 0.000000 0.072698 0.000000 0.000000
# 5 0.000000 0.000000 0.000000 0.000000 0.015279 0.000000
# 6 0.000000 0.000000 0.000000 0.000000 0.000000 0.025494
#
#
# Mechanical properties :
#
#
# Convention : Reuss Voigt Hill
#
# Bulk Modulus (GPa) = 28.32594 38.10052 33.21323
# Shear Modulus (GPa) = 31.63397 45.34308 38.48852
#
# Velocity S-wave (km/s) = 3.43592 4.11359 3.78993
# Velocity P-wave (km/s) = 5.12950 6.06474 5.61662
#
# Compressibility (1/GPa) = 0.03530333
#
# Stress axis : x y z
#
# Youngs Moduli (GPa) = 86.38566 59.09057 179.77280
#
# Poissons Ratio (x) = -0.10482 0.15791
# Poissons Ratio (y) = -0.15324 0.04939
# Poissons Ratio (z) = 0.07588 0.01624
#
# Static dielectric constant tensor:
#      x y z
#    x 2.124250 0.000000 0.000000 
#    y 0.000000 2.204810 0.000000 
#    z 0.000000 0.000000 2.122120 
# 
# From -- ./inp_files/1330.got.cif
#   From: 2010.05.17/outbox.cif.g08.bks.cpg/sg18_1_cif.got.tgz:1330.got - 2010.06.03 22:40:56.
