data_PCOD9312272
_publ_section_title
;
Structure prediction by ZEFSAII (Michael W. Deem and Ramdas Pophale) SiO2 
 PCOD9312272
Probable space group: P 21 21 2
;
_chemical_formula_sum "Si O2"
_cell_formula_units_Z 30
_cell_length_a 9.793546
_cell_length_b 10.397239
_cell_length_c 15.393062
_cell_angle_alpha 90.000000
_cell_angle_beta 90.000000
_cell_angle_gamma 90.000000
_cell_volume 1567.411444
_symmetry_space_group_name_H-M "P 21 21 2"
_symmetry_group_IT_number 18
_symmetry_cell_setting 'orthorhombic'
loop_
_space_group_symop_operation_xyz
x,y,z
-x,-y,z
1/2+x,1/2-y,-z
1/2-x,1/2+y,-z
loop_
_atom_site_type_symbol
_atom_site_label
_atom_site_fract_x
_atom_site_fract_y
_atom_site_fract_z
Si Si1 0.685642 0.865445 0.013718
Si Si2 0.031311 0.858095 0.473003
Si Si3 0.500000 0.000000 0.591898
Si Si4 0.953987 0.250171 0.297178
Si Si5 0.806335 0.599657 0.743236
Si Si6 0.651352 0.136032 0.451013
Si Si7 0.881041 0.896494 0.172684
Si Si8 0.123322 0.345740 0.937550
O O1 0.782898 0.852353 0.096983
O O2 0.530101 0.817621 0.028559
O O3 0.672223 0.023513 0.010961
O O4 0.768054 0.771493 0.947669
O O5 0.992296 0.848641 0.371180
O O6 0.191666 0.827439 0.467427
O O7 0.948240 0.753273 0.526288
O O8 0.000000 0.000000 0.505657
O O9 0.466120 0.116703 0.654353
O O10 0.620548 0.029997 0.524290
O O11 0.801493 0.215733 0.269128
O O12 0.047503 0.225804 0.214848
O O13 0.872749 0.592349 0.648125
O O14 0.714024 0.474417 0.760357
O O15 0.885715 0.620409 0.833955
O O16 0.000000 0.000000 0.146838
#
# Coordination Sequence:
#
# PCOD9312272 Si02
#       8
#     4   4   2   4   4   4   4   4
#     4  10  23  40  66  95 126 160 208 259 316 381
#     4  10  21  36  59  82 117 155 207 247 297 365
#     4  10  22  36  56  88 128 158 210 256 306 368
#     4   9  18  36  56  87 115 160 204 245 305 367
#     4   9  19  38  61  85 118 155 204 260 299 372
#     4  10  22  37  60  85 117 165 202 252 311 350
#     4   9  18  36  64  88 113 160 204 248 305 375
#     4  10  23  42  64  97 127 161 214 259 319 387
#
# _framework density 19.139838000000001
#
# number of rings (size 3 to 8) (size 9 to 14) (size 15 to 20)
#    0.000    2.400    0.000    2.000   11.200    2.133 
#    7.200    0.000    2.933    0.000    0.000    0.000 
#    0.000    0.000    0.000    0.000    0.000    0.000 
#
# Total GULP energy -167017.850028 kJ/mol
# GULP energy per Si atom -5567.261668 kJ/mol
# Density = 1.909627 g / cm^3
# Si number density = 19.139838 Si / 1000 Ang^3
#
#
#
# Elastic Constant Matrix: (Units=GPa)
#
#
# Indices 1 2 3 4 5 6 
#
# 1 96.1869 28.5615 44.4798 0.0000 0.0000 0.0000
# 2 28.5615 80.7147 35.8719 0.0000 0.0000 0.0000
# 3 44.4798 35.8719 61.3023 0.0000 0.0000 0.0000
# 4 0.0000 0.0000 0.0000 2.6513 0.0000 0.0000
# 5 0.0000 0.0000 0.0000 0.0000 34.9667 0.0000
# 6 0.0000 0.0000 0.0000 0.0000 0.0000 19.9153
#
#
#
# Elastic Compliance Matrix: (Units=1/GPa)
#
#
# Indices 1 2 3 4 5 6 
#
# 1 0.015673 -0.000665 -0.010983 0.000000 0.000000 0.000000
# 2 -0.000665 0.016772 -0.009332 0.000000 0.000000 0.000000
# 3 -0.010983 -0.009332 0.029742 0.000000 0.000000 0.000000
# 4 0.000000 0.000000 0.000000 0.377170 0.000000 0.000000
# 5 0.000000 0.000000 0.000000 0.000000 0.028599 0.000000
# 6 0.000000 0.000000 0.000000 0.000000 0.000000 0.050213
#
#
# Mechanical properties :
#
#
# Convention : Reuss Voigt Hill
#
# Bulk Modulus (GPa) = 49.43706 50.67002 50.05354
# Shear Modulus (GPa) = 8.82038 20.12605 14.47321
#
# Velocity S-wave (km/s) = 2.14904 3.24624 2.75286
# Velocity P-wave (km/s) = 5.66068 6.37039 6.02599
#
# Compressibility (1/GPa) = 0.02022774
#
# Stress axis : x y z
#
# Youngs Moduli (GPa) = 63.80573 59.62337 33.62236
#
# Poissons Ratio (x) = 0.03964 0.36926
# Poissons Ratio (y) = 0.04242 0.31376
# Poissons Ratio (z) = 0.70076 0.55640
#
# Static dielectric constant tensor:
#      x y z
#    x 1.702210 0.000000 0.000000 
#    y 0.000000 1.719330 0.000000 
#    z 0.000000 0.000000 1.691620 
# 
# From -- ./inp_files/6725.got.cif
#   From: 2010.05.17/outbox.cif.g08.bks.cpg/sg18_4_cif.got.tgz:6725.got - 2010.06.03 22:40:56.
