data_PCOD9312796
_publ_section_title
;
Structure prediction by ZEFSAII (Michael W. Deem and Ramdas Pophale) SiO2 
 PCOD9312796
Probable space group: P 21 21 2
;
_chemical_formula_sum "Si O2"
_cell_formula_units_Z 32
_cell_length_a 7.874943
_cell_length_b 11.261110
_cell_length_c 14.389179
_cell_angle_alpha 90.000000
_cell_angle_beta 90.000000
_cell_angle_gamma 90.000000
_cell_volume 1276.041018
_symmetry_space_group_name_H-M "P 21 21 2"
_symmetry_group_IT_number 18
_symmetry_cell_setting 'orthorhombic'
loop_
_space_group_symop_operation_xyz
x,y,z
-x,-y,z
1/2+x,1/2-y,-z
1/2-x,1/2+y,-z
loop_
_atom_site_type_symbol
_atom_site_label
_atom_site_fract_x
_atom_site_fract_y
_atom_site_fract_z
Si Si1 0.675948 0.719526 0.284945
Si Si2 0.751861 0.089064 0.538130
Si Si3 0.883216 0.605896 0.727890
Si Si4 0.456048 0.282262 0.718514
Si Si5 0.169830 0.929445 0.889446
Si Si6 0.867919 0.340911 0.458138
Si Si7 0.861418 0.652914 0.942496
Si Si8 0.363194 0.147939 0.900813
O O1 0.705181 0.608361 0.352863
O O2 0.494466 0.779865 0.301363
O O3 0.678104 0.682654 0.177449
O O4 0.844441 0.800740 0.302050
O O5 0.840891 0.206855 0.495342
O O6 0.556325 0.118347 0.514458
O O7 0.763851 0.947309 0.517140
O O8 0.000000 0.500000 0.692496
O O9 0.684961 0.615533 0.702275
O O10 0.881318 0.601450 0.840323
O O11 0.386976 0.177016 0.652564
O O12 0.439290 0.235498 0.823705
O O13 0.319144 0.019954 0.861250
O O14 0.207372 0.900862 0.996792
O O15 0.000000 0.000000 0.872610
O O16 0.813211 0.790339 0.930365
O O17 0.022793 0.638820 0.008009
#
# Coordination Sequence:
#
# PCOD9312796 Si02
#       8
#     4   4   4   4   4   4   4   4
#     4  11  24  45  69 102 134 183 237 293 355 430
#     4  10  24  44  74 103 145 182 234 301 366 447
#     4  11  25  44  64  99 140 185 236 295 353 428
#     4  10  23  43  69  95 139 178 232 291 356 427
#     4  12  23  39  65  97 131 176 232 284 352 422
#     4  10  23  46  69 108 141 184 234 296 372 447
#     4  11  23  39  61  94 133 175 232 287 346 411
#     4  11  21  38  62  90 127 176 215 287 337 406
#
# _framework density 25.077562
#
# number of rings (size 3 to 8) (size 9 to 14) (size 15 to 20)
#    0.000    1.250    1.250    4.875    1.750    3.000 
#    4.500    2.500    0.000    0.000    0.000    0.000 
#    0.000    0.000    0.000    0.000    0.000    0.000 
#
# Total GULP energy -178762.234115 kJ/mol
# GULP energy per Si atom -5586.319816 kJ/mol
# Density = 2.502048 g / cm^3
# Si number density = 25.077562 Si / 1000 Ang^3
#
#
#
# Elastic Constant Matrix: (Units=GPa)
#
#
# Indices 1 2 3 4 5 6 
#
# 1 109.1550 18.5442 5.1422 0.0000 0.0000 0.0000
# 2 18.5442 67.5104 13.9197 0.0000 0.0000 0.0000
# 3 5.1422 13.9197 95.5423 0.0000 0.0000 0.0000
# 4 0.0000 0.0000 0.0000 17.5418 0.0000 0.0000
# 5 0.0000 0.0000 0.0000 0.0000 21.4415 0.0000
# 6 0.0000 0.0000 0.0000 0.0000 0.0000 34.9405
#
#
#
# Elastic Compliance Matrix: (Units=1/GPa)
#
#
# Indices 1 2 3 4 5 6 
#
# 1 0.009611 -0.002612 -0.000137 0.000000 0.000000 0.000000
# 2 -0.002612 0.015981 -0.002188 0.000000 0.000000 0.000000
# 3 -0.000137 -0.002188 0.010793 0.000000 0.000000 0.000000
# 4 0.000000 0.000000 0.000000 0.057007 0.000000 0.000000
# 5 0.000000 0.000000 0.000000 0.000000 0.046639 0.000000
# 6 0.000000 0.000000 0.000000 0.000000 0.000000 0.028620
#
#
# Mechanical properties :
#
#
# Convention : Reuss Voigt Hill
#
# Bulk Modulus (GPa) = 37.71830 38.60223 38.16027
# Shear Modulus (GPa) = 26.68644 30.42484 28.55564
#
# Velocity S-wave (km/s) = 3.26568 3.48692 3.37811
# Velocity P-wave (km/s) = 5.41229 5.62477 5.51955
#
# Compressibility (1/GPa) = 0.02651233
#
# Stress axis : x y z
#
# Youngs Moduli (GPa) = 104.04242 62.57401 92.65551
#
# Poissons Ratio (x) = 0.16344 0.01267
# Poissons Ratio (y) = 0.27175 0.20271
# Poissons Ratio (z) = 0.01423 0.13690
#
# Static dielectric constant tensor:
#      x y z
#    x 2.002960 0.000000 0.000000 
#    y 0.000000 2.038850 0.000000 
#    z 0.000000 0.000000 1.990440 
# 
# From -- ./inp_files/6772.got.cif
#   From: 2010.05.17/outbox.cif.g08.bks.cpg/sg18_4_cif.got.tgz:6772.got - 2010.06.03 22:40:56.
