data_PCOD9312818
_publ_section_title
;
Structure prediction by ZEFSAII (Michael W. Deem and Ramdas Pophale) SiO2 
 PCOD9312818
Probable space group: P 21 21 2
;
_chemical_formula_sum "Si O2"
_cell_formula_units_Z 18
_cell_length_a 8.700278
_cell_length_b 5.032690
_cell_length_c 16.635281
_cell_angle_alpha 90.000000
_cell_angle_beta 90.000000
_cell_angle_gamma 90.000000
_cell_volume 728.389122
_symmetry_space_group_name_H-M "P 21 21 2"
_symmetry_group_IT_number 18
_symmetry_cell_setting 'orthorhombic'
loop_
_space_group_symop_operation_xyz
x,y,z
-x,-y,z
1/2+x,1/2-y,-z
1/2-x,1/2+y,-z
loop_
_atom_site_type_symbol
_atom_site_label
_atom_site_fract_x
_atom_site_fract_y
_atom_site_fract_z
Si Si1 0.841349 0.909950 0.732197
Si Si2 0.000000 0.500000 0.981934
Si Si3 0.500000 0.000000 0.659586
Si Si4 0.693856 0.905679 0.168446
Si Si5 0.144339 0.356478 0.490819
Si Si6 0.000000 0.000000 0.096016
O O1 0.662580 0.934501 0.702529
O O2 0.852782 0.610640 0.762872
O O3 0.850913 0.110574 0.808155
O O4 0.000000 0.000000 0.685604
O O5 0.862773 0.512275 0.917671
O O6 0.972468 0.247904 0.037518
O O7 0.436106 0.786003 0.594247
O O8 0.872441 0.906263 0.157221
O O9 0.270092 0.593475 0.478479
O O10 0.000000 0.500000 0.536962
#
# Coordination Sequence:
#
# PCOD9312818 Si02
#       6
#     4   2   2   4   4   2
#     4  12  24  46  68  97 137 180 225 290 335 412
#     4  12  22  41  60  95 128 170 226 288 346 436
#     4  10  28  45  78 105 140 182 246 260 354 416
#     4  12  24  43  64  94 134 172 227 286 355 402
#     4  10  23  44  72 106 149 184 230 288 343 411
#     4  12  24  38  66  92 124 174 228 282 356 418
#
# _framework density 24.712066
#
# number of rings (size 3 to 8) (size 9 to 14) (size 15 to 20)
#    0.667    0.000    2.222    6.000    0.000    5.333 
#    0.000    0.000    0.000    0.000    0.000    0.000 
#    0.000    0.000    0.000    0.000    0.000    0.000 
#
# Total GULP energy -100256.036595 kJ/mol
# GULP energy per Si atom -5569.779811 kJ/mol
# Density = 2.465582 g / cm^3
# Si number density = 24.712066 Si / 1000 Ang^3
#
#
#
# Elastic Constant Matrix: (Units=GPa)
#
#
# Indices 1 2 3 4 5 6 
#
# 1 188.5715 26.6930 46.5684 0.0000 0.0000 0.0000
# 2 26.6930 110.0860 33.8242 0.0000 0.0000 0.0000
# 3 46.5684 33.8242 53.3940 0.0000 0.0000 0.0000
# 4 0.0000 0.0000 0.0000 8.2934 0.0000 0.0000
# 5 0.0000 0.0000 0.0000 0.0000 47.5124 0.0000
# 6 0.0000 0.0000 0.0000 0.0000 0.0000 34.3903
#
#
#
# Elastic Compliance Matrix: (Units=1/GPa)
#
#
# Indices 1 2 3 4 5 6 
#
# 1 0.006763 0.000214 -0.006034 0.000000 0.000000 0.000000
# 2 0.000214 0.011286 -0.007336 0.000000 0.000000 0.000000
# 3 -0.006034 -0.007336 0.028639 0.000000 0.000000 0.000000
# 4 0.000000 0.000000 0.000000 0.120578 0.000000 0.000000
# 5 0.000000 0.000000 0.000000 0.000000 0.021047 0.000000
# 6 0.000000 0.000000 0.000000 0.000000 0.000000 0.029078
#
#
# Mechanical properties :
#
#
# Convention : Reuss Voigt Hill
#
# Bulk Modulus (GPa) = 49.07885 62.91363 55.99624
# Shear Modulus (GPa) = 19.96050 34.37026 27.16538
#
# Velocity S-wave (km/s) = 2.84513 3.73343 3.31913
# Velocity P-wave (km/s) = 5.54043 6.64068 6.11535
#
# Compressibility (1/GPa) = 0.02037538
#
# Stress axis : x y z
#
# Youngs Moduli (GPa) = 147.86721 88.60569 34.91779
#
# Poissons Ratio (x) = -0.01897 0.21069
# Poissons Ratio (y) = -0.03166 0.25616
# Poissons Ratio (z) = 0.89223 0.65003
#
# Static dielectric constant tensor:
#      x y z
#    x 2.025030 0.000000 0.000000 
#    y 0.000000 1.877370 0.000000 
#    z 0.000000 0.000000 1.991550 
# 
# From -- ./inp_files/7289.got.cif
#   From: 2010.05.17/outbox.cif.g08.bks.cpg/sg18_4_cif.got.tgz:7289.got - 2010.06.03 22:40:56.
