data_PCOD9312564
_publ_section_title
;
Structure prediction by ZEFSAII (Michael W. Deem and Ramdas Pophale) SiO2 
 PCOD9312564
Probable space group: P 21 21 2
;
_chemical_formula_sum "Si O2"
_cell_formula_units_Z 30
_cell_length_a 19.575183
_cell_length_b 6.224338
_cell_length_c 12.148061
_cell_angle_alpha 90.000000
_cell_angle_beta 90.000000
_cell_angle_gamma 90.000000
_cell_volume 1480.150795
_symmetry_space_group_name_H-M "P 21 21 2"
_symmetry_group_IT_number 18
_symmetry_cell_setting 'orthorhombic'
loop_
_space_group_symop_operation_xyz
x,y,z
-x,-y,z
1/2+x,1/2-y,-z
1/2-x,1/2+y,-z
loop_
_atom_site_type_symbol
_atom_site_label
_atom_site_fract_x
_atom_site_fract_y
_atom_site_fract_z
Si Si1 0.809055 0.302258 0.231974
Si Si2 0.382255 0.198282 0.313450
Si Si3 0.500000 0.500000 0.245894
Si Si4 0.167776 0.085040 0.106300
Si Si5 0.428057 0.877657 0.151698
Si Si6 0.579821 0.050706 0.909076
Si Si7 0.282703 0.151022 0.514992
Si Si8 0.293533 0.406242 0.119395
O O1 0.874179 0.403772 0.168946
O O2 0.804536 0.365585 0.358001
O O3 0.741468 0.379581 0.167499
O O4 0.814960 0.050976 0.213205
O O5 0.453309 0.333357 0.314559
O O6 0.343470 0.180946 0.427476
O O7 0.336767 0.309955 0.218896
O O8 0.393199 0.962981 0.261380
O O9 0.448343 0.632291 0.168041
O O10 0.097024 0.206280 0.124156
O O11 0.229545 0.252546 0.093720
O O12 0.167428 0.948431 0.994182
O O13 0.500000 0.000000 0.146999
O O14 0.394316 0.945946 0.036879
O O15 0.500000 0.000000 0.904843
O O16 0.247233 0.400188 0.508031
#
# Coordination Sequence:
#
# PCOD9312564 Si02
#       8
#     4   4   2   4   4   4   4   4
#     4  11  24  43  64  98 134 177 229 279 354 418
#     4  11  23  40  67  95 134 177 233 288 353 408
#     4  10  22  40  64 104 132 182 226 294 348 424
#     4  11  22  35  63  93 134 168 226 276 352 416
#     4   9  20  38  63  96 135 172 224 276 347 412
#     4  10  23  41  63  97 139 183 222 277 345 429
#     4  12  28  48  74 103 138 186 237 300 357 415
#     4  11  21  37  62  97 129 173 216 288 341 421
#
# _framework density 20.268207
#
# number of rings (size 3 to 8) (size 9 to 14) (size 15 to 20)
#    0.000    1.333    2.667    2.400    5.600    4.800 
#    0.000    3.333    0.000    0.000    0.000    0.000 
#    0.000    0.000    0.000    0.000    0.000    0.000 
#
# Total GULP energy -167167.189106 kJ/mol
# GULP energy per Si atom -5572.239637 kJ/mol
# Density = 2.022208 g / cm^3
# Si number density = 20.268207 Si / 1000 Ang^3
#
#
#
# Elastic Constant Matrix: (Units=GPa)
#
#
# Indices 1 2 3 4 5 6 
#
# 1 67.4920 30.6861 35.2600 0.0000 0.0000 0.0000
# 2 30.6861 94.9848 27.3469 0.0000 0.0000 0.0000
# 3 35.2600 27.3469 113.2037 0.0000 0.0000 0.0000
# 4 0.0000 0.0000 0.0000 15.5257 0.0000 0.0000
# 5 0.0000 0.0000 0.0000 0.0000 31.9525 0.0000
# 6 0.0000 0.0000 0.0000 0.0000 0.0000 35.7812
#
#
#
# Elastic Compliance Matrix: (Units=1/GPa)
#
#
# Indices 1 2 3 4 5 6 
#
# 1 0.019628 -0.004923 -0.004924 0.000000 0.000000 0.000000
# 2 -0.004923 0.012550 -0.001498 0.000000 0.000000 0.000000
# 3 -0.004924 -0.001498 0.010729 0.000000 0.000000 0.000000
# 4 0.000000 0.000000 0.000000 0.064409 0.000000 0.000000
# 5 0.000000 0.000000 0.000000 0.000000 0.031296 0.000000
# 6 0.000000 0.000000 0.000000 0.000000 0.000000 0.027948
#
#
# Mechanical properties :
#
#
# Convention : Reuss Voigt Hill
#
# Bulk Modulus (GPa) = 49.46707 51.36293 50.41500
# Shear Modulus (GPa) = 25.51153 28.81105 27.16129
#
# Velocity S-wave (km/s) = 3.55166 3.77436 3.66470
# Velocity P-wave (km/s) = 6.42482 6.66266 6.54482
#
# Compressibility (1/GPa) = 0.02021547
#
# Stress axis : x y z
#
# Youngs Moduli (GPa) = 50.94888 79.68208 93.20268
#
# Poissons Ratio (x) = 0.39229 0.45894
# Poissons Ratio (y) = 0.25083 0.13964
# Poissons Ratio (z) = 0.25088 0.11938
#
# Static dielectric constant tensor:
#      x y z
#    x 1.750420 0.000000 0.000000 
#    y 0.000000 1.876060 0.000000 
#    z 0.000000 0.000000 1.679770 
# 
# From -- ./inp_files/6270.got.cif
#   From: 2010.05.17/outbox.cif.g08.bks.cpg/sg18_4_cif.got.tgz:6270.got - 2010.06.03 22:40:56.
