data_PCOD9312087
_publ_section_title
;
Structure prediction by ZEFSAII (Michael W. Deem and Ramdas Pophale) SiO2 
 PCOD9312087
Probable space group: P 21 21 2
;
_chemical_formula_sum "Si O2"
_cell_formula_units_Z 20
_cell_length_a 8.020143
_cell_length_b 11.411884
_cell_length_c 9.223902
_cell_angle_alpha 90.000000
_cell_angle_beta 90.000000
_cell_angle_gamma 90.000000
_cell_volume 844.217092
_symmetry_space_group_name_H-M "P 21 21 2"
_symmetry_group_IT_number 18
_symmetry_cell_setting 'orthorhombic'
loop_
_space_group_symop_operation_xyz
x,y,z
-x,-y,z
1/2+x,1/2-y,-z
1/2-x,1/2+y,-z
loop_
_atom_site_type_symbol
_atom_site_label
_atom_site_fract_x
_atom_site_fract_y
_atom_site_fract_z
Si Si1 0.000000 0.500000 0.553557
Si Si2 0.189798 0.877980 0.322815
Si Si3 0.471452 0.625873 0.967385
Si Si4 0.500000 0.500000 0.439589
Si Si5 0.908290 0.379145 0.982118
Si Si6 0.690107 0.879616 0.682970
O O1 0.161283 0.467441 0.646241
O O2 0.052170 0.601435 0.440719
O O3 0.263587 0.749111 0.332700
O O4 0.095709 0.883551 0.169487
O O5 0.053955 0.898268 0.448555
O O6 0.500000 0.500000 0.045925
O O7 0.278676 0.628974 0.921457
O O8 0.506362 0.751664 0.043692
O O9 0.337672 0.530257 0.347858
O O10 0.000000 0.500000 0.939298
O O11 0.884973 0.389148 0.156900
#
# Coordination Sequence:
#
# PCOD9312087 Si02
#       6
#     2   4   4   2   4   4
#     4  10  20  40  66  98 128 174 216 284 328 412
#     4  10  21  40  63  95 132 172 222 274 338 398
#     4  11  24  46  66  98 137 179 231 279 340 405
#     4  10  20  38  60  96 128 172 210 282 328 410
#     4  11  24  46  69  98 138 180 230 282 340 412
#     4  10  21  38  64  95 129 170 221 274 338 398
#
# _framework density 23.690591000000001
#
# number of rings (size 3 to 8) (size 9 to 14) (size 15 to 20)
#    0.000    1.600    2.000    2.400    1.400    0.000 
#    9.000    0.000    0.000    0.000    0.000    0.000 
#    0.000    0.000    0.000    0.000    0.000    0.000 
#
# Total GULP energy -111766.476621 kJ/mol
# GULP energy per Si atom -5588.323831 kJ/mol
# Density = 2.363667 g / cm^3
# Si number density = 23.690591 Si / 1000 Ang^3
#
#
#
# Elastic Constant Matrix: (Units=GPa)
#
#
# Indices 1 2 3 4 5 6 
#
# 1 122.0746 30.7550 23.5275 0.0000 0.0000 0.0000
# 2 30.7550 136.0991 21.7726 0.0000 0.0000 0.0000
# 3 23.5275 21.7726 94.7864 0.0000 0.0000 0.0000
# 4 0.0000 0.0000 0.0000 -18.0864 0.0000 0.0000
# 5 0.0000 0.0000 0.0000 0.0000 30.5624 0.0000
# 6 0.0000 0.0000 0.0000 0.0000 0.0000 29.4863
#
#
#
# Elastic Compliance Matrix: (Units=1/GPa)
#
#
# Indices 1 2 3 4 5 6 
#
# 1 0.008982 -0.001737 -0.001831 0.000000 0.000000 0.000000
# 2 -0.001737 0.007964 -0.001398 0.000000 0.000000 0.000000
# 3 -0.001831 -0.001398 0.011326 0.000000 0.000000 0.000000
# 4 0.000000 0.000000 0.000000 -0.055290 0.000000 0.000000
# 5 0.000000 0.000000 0.000000 0.000000 0.032720 0.000000
# 6 0.000000 0.000000 0.000000 0.000000 0.000000 0.033914
#
#
# Mechanical properties :
#
#
# Convention : Reuss Voigt Hill
#
# Bulk Modulus (GPa) = 54.52492 56.11894 55.32193
# Shear Modulus (GPa) = 89.83110 26.85278 58.34194
#
# Velocity S-wave (km/s) = 6.16448 3.37037 4.96791
# Velocity P-wave (km/s) = 8.58680 6.23583 7.50396
#
# Compressibility (1/GPa) = 0.01834024
#
# Stress axis : x y z
#
# Youngs Moduli (GPa) = 111.33262 125.56893 88.29582
#
# Poissons Ratio (x) = 0.21810 0.16163
# Poissons Ratio (y) = 0.19337 0.12345
# Poissons Ratio (z) = 0.20380 0.17557
#
# Static dielectric constant tensor:
#      x y z
#    x 1.879180 0.000000 0.000000 
#    y 0.000000 1.950330 0.000000 
#    z 0.000000 0.000000 1.894850 
# 
# From -- ./inp_files/2984.got.cif
#   From: 2010.05.17/outbox.cif.g08.bks.cpg/sg18_2_cif.got.tgz:2984.got - 2010.06.03 22:40:56.
