data_PCOD9312786
_publ_section_title
;
Structure prediction by ZEFSAII (Michael W. Deem and Ramdas Pophale) SiO2 
 PCOD9312786
Probable space group: P 21 21 2
;
_chemical_formula_sum "Si O2"
_cell_formula_units_Z 26
_cell_length_a 11.438832
_cell_length_b 10.346833
_cell_length_c 9.799856
_cell_angle_alpha 90.000000
_cell_angle_beta 90.000000
_cell_angle_gamma 90.000000
_cell_volume 1159.868664
_symmetry_space_group_name_H-M "P 21 21 2"
_symmetry_group_IT_number 18
_symmetry_cell_setting 'orthorhombic'
loop_
_space_group_symop_operation_xyz
x,y,z
-x,-y,z
1/2+x,1/2-y,-z
1/2-x,1/2+y,-z
loop_
_atom_site_type_symbol
_atom_site_label
_atom_site_fract_x
_atom_site_fract_y
_atom_site_fract_z
Si Si1 0.861153 0.507209 0.153360
Si Si2 0.000000 0.000000 0.282934
Si Si3 0.204054 0.062650 0.099690
Si Si4 0.183735 0.773123 0.771311
Si Si5 0.960946 0.850225 0.881038
Si Si6 0.218059 0.155014 0.638288
Si Si7 0.149485 0.887579 0.493245
O O1 0.796383 0.635153 0.211363
O O2 0.820444 0.397813 0.261252
O O3 0.000000 0.500000 0.139370
O O4 0.794585 0.493071 0.008297
O O5 0.961656 0.108953 0.392651
O O6 0.107126 0.982682 0.178215
O O7 0.271163 0.129660 0.223261
O O8 0.126051 0.162307 0.008594
O O9 0.120683 0.822629 0.637358
O O10 0.085072 0.780067 0.888718
O O11 0.886696 0.822792 0.745753
O O12 0.000000 0.000000 0.874499
O O13 0.254434 0.289262 0.568238
O O14 0.189382 0.034483 0.534809
#
# Coordination Sequence:
#
# PCOD9312786 Si02
#       7
#     4   2   4   4   4   4   4
#     4  10  23  43  63  98 144 175 219 292 362 399
#     4  12  24  42  74  96 132 186 234 278 338 420
#     4  11  24  39  69 102 126 173 240 280 335 415
#     4  11  23  40  66  98 135 178 226 280 350 414
#     4  11  19  45  67  95 135 182 226 290 353 411
#     4  10  23  43  71 102 136 191 231 285 349 417
#     4  11  23  44  69 101 141 176 237 276 342 420
#
# _framework density 22.416333999999999
#
# number of rings (size 3 to 8) (size 9 to 14) (size 15 to 20)
#    0.000    1.231    5.385    1.846    4.308    3.692 
#    2.769    0.000    0.000    0.000    0.000    0.000 
#    0.000    0.000    0.000    0.000    0.000    0.000 
#
# Total GULP energy -144801.815442 kJ/mol
# GULP energy per Si atom -5569.300594 kJ/mol
# Density = 2.236531 g / cm^3
# Si number density = 22.416334 Si / 1000 Ang^3
#
#
#
# Elastic Constant Matrix: (Units=GPa)
#
#
# Indices 1 2 3 4 5 6 
#
# 1 133.9132 -0.2886 38.3298 0.0000 0.0000 0.0000
# 2 -0.2886 30.1740 22.8082 0.0000 0.0000 0.0000
# 3 38.3298 22.8082 113.0023 0.0000 0.0000 0.0000
# 4 0.0000 0.0000 0.0000 24.3281 0.0000 0.0000
# 5 0.0000 0.0000 0.0000 0.0000 22.4767 0.0000
# 6 0.0000 0.0000 0.0000 0.0000 0.0000 18.0695
#
#
#
# Elastic Compliance Matrix: (Units=1/GPa)
#
#
# Indices 1 2 3 4 5 6 
#
# 1 0.008446 0.002651 -0.003400 0.000000 0.000000 0.000000
# 2 0.002651 0.039940 -0.008960 0.000000 0.000000 0.000000
# 3 -0.003400 -0.008960 0.011811 0.000000 0.000000 0.000000
# 4 0.000000 0.000000 0.000000 0.041105 0.000000 0.000000
# 5 0.000000 0.000000 0.000000 0.000000 0.044491 0.000000
# 6 0.000000 0.000000 0.000000 0.000000 0.000000 0.055342
#
#
# Mechanical properties :
#
#
# Convention : Reuss Voigt Hill
#
# Bulk Modulus (GPa) = 24.52309 44.30982 34.41646
# Shear Modulus (GPa) = 21.35415 27.39086 24.37250
#
# Velocity S-wave (km/s) = 3.08980 3.49938 3.30095
# Velocity P-wave (km/s) = 4.86751 6.01143 5.46946
#
# Compressibility (1/GPa) = 0.04077789
#
# Stress axis : x y z
#
# Youngs Moduli (GPa) = 118.39341 25.03779 84.66536
#
# Poissons Ratio (x) = -0.06637 0.28786
# Poissons Ratio (y) = -0.31384 0.75864
# Poissons Ratio (z) = 0.40254 0.22435
#
# Static dielectric constant tensor:
#      x y z
#    x 2.135050 0.000000 0.000000 
#    y 0.000000 1.910950 0.000000 
#    z 0.000000 0.000000 1.881810 
# 
# From -- ./inp_files/3792.got.cif
#   From: 2010.05.17/outbox.cif.g08.bks.cpg/sg18_2_cif.got.tgz:3792.got - 2010.06.03 22:40:56.
