data_PCOD9312192
_publ_section_title
;
Structure prediction by ZEFSAII (Michael W. Deem and Ramdas Pophale) SiO2 
 PCOD9312192
Probable space group: P 21 21 2
;
_chemical_formula_sum "Si O2"
_cell_formula_units_Z 28
_cell_length_a 18.564447
_cell_length_b 6.331427
_cell_length_c 11.337204
_cell_angle_alpha 90.000000
_cell_angle_beta 90.000000
_cell_angle_gamma 90.000000
_cell_volume 1332.568620
_symmetry_space_group_name_H-M "P 21 21 2"
_symmetry_group_IT_number 18
_symmetry_cell_setting 'orthorhombic'
loop_
_space_group_symop_operation_xyz
x,y,z
-x,-y,z
1/2+x,1/2-y,-z
1/2-x,1/2+y,-z
loop_
_atom_site_type_symbol
_atom_site_label
_atom_site_fract_x
_atom_site_fract_y
_atom_site_fract_z
Si Si1 0.205941 0.046025 0.852319
Si Si2 0.000000 0.500000 0.628560
Si Si3 0.500000 0.500000 0.696263
Si Si4 0.197465 0.905352 0.114835
Si Si5 0.394648 0.672425 0.501837
Si Si6 0.577582 0.606678 0.285129
Si Si7 0.327704 0.796700 0.718298
Si Si8 0.066576 0.619057 0.156487
O O1 0.233079 0.284594 0.832597
O O2 0.125911 0.974232 0.821573
O O3 0.256399 0.906055 0.768853
O O4 0.218181 0.006393 0.990580
O O5 0.948610 0.651483 0.551015
O O6 0.943874 0.351486 0.700012
O O7 0.436912 0.563928 0.608368
O O8 0.527193 0.694974 0.772763
O O9 0.133534 0.734087 0.092721
O O10 0.169616 0.080404 0.206096
O O11 0.384495 0.497355 0.400845
O O12 0.328593 0.767610 0.576749
O O13 0.500000 0.500000 0.277105
O O14 0.393144 0.951668 0.757677
O O15 0.000000 0.500000 0.091746
#
# Coordination Sequence:
#
# PCOD9312192 Si02
#       8
#     4   2   2   4   4   4   4   4
#     4  11  25  47  64  89 127 177 231 267 345 401
#     4  10  20  40  70  90 140 174 206 266 346 390
#     4  12  18  34  64  92 146 166 212 266 326 396
#     4  11  23  44  68  86 129 179 218 282 330 393
#     4  11  20  37  62  97 130 170 210 264 330 390
#     4  10  24  44  64  99 129 177 217 276 334 410
#     4  11  23  39  66  97 127 177 223 271 331 394
#     4  11  21  35  61 102 132 165 218 276 330 391
#
# _framework density 21.012052000000001
#
# number of rings (size 3 to 8) (size 9 to 14) (size 15 to 20)
#    0.000    1.143    6.429    0.857    0.000    2.286 
#   10.286    0.000    0.000    0.000    0.000    0.000 
#    0.000    0.000    0.000    0.000    0.000    0.000 
#
# Total GULP energy -156096.415160 kJ/mol
# GULP energy per Si atom -5574.871970 kJ/mol
# Density = 2.096423 g / cm^3
# Si number density = 21.012052 Si / 1000 Ang^3
#
#
#
# Elastic Constant Matrix: (Units=GPa)
#
#
# Indices 1 2 3 4 5 6 
#
# 1 47.8648 22.2358 20.5904 0.0000 0.0000 0.0000
# 2 22.2358 112.5447 29.1935 0.0000 0.0000 0.0000
# 3 20.5904 29.1935 50.4551 0.0000 0.0000 0.0000
# 4 0.0000 0.0000 0.0000 12.9034 0.0000 0.0000
# 5 0.0000 0.0000 0.0000 0.0000 35.7591 0.0000
# 6 0.0000 0.0000 0.0000 0.0000 0.0000 32.4506
#
#
#
# Elastic Compliance Matrix: (Units=1/GPa)
#
#
# Indices 1 2 3 4 5 6 
#
# 1 0.026077 -0.002814 -0.009014 0.000000 0.000000 0.000000
# 2 -0.002814 0.010758 -0.005076 0.000000 0.000000 0.000000
# 3 -0.009014 -0.005076 0.026435 0.000000 0.000000 0.000000
# 4 0.000000 0.000000 0.000000 0.077499 0.000000 0.000000
# 5 0.000000 0.000000 0.000000 0.000000 0.027965 0.000000
# 6 0.000000 0.000000 0.000000 0.000000 0.000000 0.030816
#
#
# Mechanical properties :
#
#
# Convention : Reuss Voigt Hill
#
# Bulk Modulus (GPa) = 33.94165 39.43375 36.68770
# Shear Modulus (GPa) = 20.56103 25.47896 23.01999
#
# Velocity S-wave (km/s) = 3.13155 3.48600 3.31352
# Velocity P-wave (km/s) = 5.40962 5.91700 5.66899
#
# Compressibility (1/GPa) = 0.02946233
#
# Stress axis : x y z
#
# Youngs Moduli (GPa) = 38.34816 92.95329 37.82841
#
# Poissons Ratio (x) = 0.26157 0.34097
# Poissons Ratio (y) = 0.10791 0.19203
# Poissons Ratio (z) = 0.34566 0.47186
#
# Static dielectric constant tensor:
#      x y z
#    x 1.866270 0.000000 0.000000 
#    y 0.000000 1.842230 0.000000 
#    z 0.000000 0.000000 1.735510 
# 
# From -- ./inp_files/6264.got.cif
#   From: 2010.05.17/outbox.cif.g08.bks.cpg/sg18_4_cif.got.tgz:6264.got - 2010.06.03 22:40:56.
