data_PCOD9312545
_publ_section_title
;
Structure prediction by ZEFSAII (Michael W. Deem and Ramdas Pophale) SiO2 
 PCOD9312545
Probable space group: P 21 21 2
;
_chemical_formula_sum "Si O2"
_cell_formula_units_Z 24
_cell_length_a 11.683432
_cell_length_b 8.138835
_cell_length_c 11.500043
_cell_angle_alpha 90.000000
_cell_angle_beta 90.000000
_cell_angle_gamma 90.000000
_cell_volume 1093.533630
_symmetry_space_group_name_H-M "P 21 21 2"
_symmetry_group_IT_number 18
_symmetry_cell_setting 'orthorhombic'
loop_
_space_group_symop_operation_xyz
x,y,z
-x,-y,z
1/2+x,1/2-y,-z
1/2-x,1/2+y,-z
loop_
_atom_site_type_symbol
_atom_site_label
_atom_site_fract_x
_atom_site_fract_y
_atom_site_fract_z
Si Si1 0.946393 0.790751 0.416833
Si Si2 0.627697 0.433752 0.946231
Si Si3 0.936004 0.664991 0.653685
Si Si4 0.821360 0.066338 0.308101
Si Si5 0.835839 0.539044 0.073207
Si Si6 0.500000 0.000000 0.727787
Si Si7 0.000000 0.500000 0.870204
O O1 0.962622 0.795580 0.554695
O O2 0.838332 0.897072 0.378296
O O3 0.930415 0.615054 0.359398
O O4 0.064075 0.842392 0.351872
O O5 0.500000 0.500000 0.963338
O O6 0.669166 0.523518 0.827669
O O7 0.639353 0.236183 0.924688
O O8 0.705264 0.490120 0.054646
O O9 0.799477 0.645282 0.662023
O O10 0.000000 0.500000 0.608366
O O11 0.018832 0.343033 0.786101
O O12 0.900641 0.450681 0.179552
O O13 0.894710 0.474571 0.955119
#
# Coordination Sequence:
#
# PCOD9312545 Si02
#       7
#     4   4   4   4   4   2   2
#     4  11  23  41  68  98 122 180 223 280 343 398
#     4  12  24  43  68 101 135 182 229 281 344 410
#     4  10  22  39  65  92 130 173 215 272 343 394
#     4  11  23  42  65  94 136 164 229 284 331 404
#     4  11  25  39  69  98 139 181 225 282 341 402
#     4  11  21  42  66  98 129 173 240 272 334 417
#     4   9  21  40  62  94 137 177 212 278 338 391
#
# _framework density 21.947199999999999
#
# number of rings (size 3 to 8) (size 9 to 14) (size 15 to 20)
#    0.500    0.667    5.833    0.000    9.333    0.000 
#    0.000    0.000    3.667    0.000    0.000    0.000 
#    0.000    0.000    0.000    0.000    0.000    0.000 
#
# Total GULP energy -133715.095616 kJ/mol
# GULP energy per Si atom -5571.462317 kJ/mol
# Density = 2.189725 g / cm^3
# Si number density = 21.947200 Si / 1000 Ang^3
#
#
#
# Elastic Constant Matrix: (Units=GPa)
#
#
# Indices 1 2 3 4 5 6 
#
# 1 90.1803 1.3776 10.1615 0.0000 0.0000 0.0000
# 2 1.3776 25.1422 0.3617 0.0000 0.0000 0.0000
# 3 10.1615 0.3617 95.0872 0.0000 0.0000 0.0000
# 4 0.0000 0.0000 0.0000 -266.6171 0.0000 0.0000
# 5 0.0000 0.0000 0.0000 0.0000 14.9954 0.0000
# 6 0.0000 0.0000 0.0000 0.0000 0.0000 23.9422
#
#
#
# Elastic Compliance Matrix: (Units=1/GPa)
#
#
# Indices 1 2 3 4 5 6 
#
# 1 0.011233 -0.000598 -0.001198 0.000000 0.000000 0.000000
# 2 -0.000598 0.039808 -0.000088 0.000000 0.000000 0.000000
# 3 -0.001198 -0.000088 0.010645 0.000000 0.000000 0.000000
# 4 0.000000 0.000000 0.000000 -0.003751 0.000000 0.000000
# 5 0.000000 0.000000 0.000000 0.000000 0.066687 0.000000
# 6 0.000000 0.000000 0.000000 0.000000 0.000000 0.041767
#
#
# Mechanical properties :
#
#
# Convention : Reuss Voigt Hill
#
# Bulk Modulus (GPa) = 17.26579 26.02350 21.64465
# Shear Modulus (GPa) = 26.39034 -32.30197 -2.95581
#
# Velocity S-wave (km/s) = 3.47139 -3.84057 -1.16177
# Velocity P-wave (km/s) = 4.89402 2.78991 2.84323
#
# Compressibility (1/GPa) = 0.05791799
#
# Stress axis : x y z
#
# Youngs Moduli (GPa) = 89.02313 25.12075 93.94053
#
# Poissons Ratio (x) = 0.01503 0.11255
# Poissons Ratio (y) = 0.05326 0.00822
# Poissons Ratio (z) = 0.10666 0.00220
#
# Static dielectric constant tensor:
#      x y z
#    x 1.860720 0.000000 0.000000 
#    y 0.000000 1.919320 0.000000 
#    z 0.000000 0.000000 1.818210 
# 
# From -- ./inp_files/5877.got.cif
#   From: 2010.05.17/outbox.cif.g08.bks.cpg/sg18_3_cif.got.tgz:5877.got - 2010.06.03 22:40:56.
