data_PCOD9312495
_publ_section_title
;
Structure prediction by ZEFSAII (Michael W. Deem and Ramdas Pophale) SiO2 
 PCOD9312495
Probable space group: P 21 21 2
;
_chemical_formula_sum "Si O2"
_cell_formula_units_Z 24
_cell_length_a 9.771218
_cell_length_b 8.971424
_cell_length_c 11.222514
_cell_angle_alpha 90.000000
_cell_angle_beta 90.000000
_cell_angle_gamma 90.000000
_cell_volume 983.785101
_symmetry_space_group_name_H-M "P 21 21 2"
_symmetry_group_IT_number 18
_symmetry_cell_setting 'orthorhombic'
loop_
_space_group_symop_operation_xyz
x,y,z
-x,-y,z
1/2+x,1/2-y,-z
1/2-x,1/2+y,-z
loop_
_atom_site_type_symbol
_atom_site_label
_atom_site_fract_x
_atom_site_fract_y
_atom_site_fract_z
Si Si1 0.959639 0.174934 0.213084
Si Si2 0.764658 0.329207 0.037200
Si Si3 0.369598 0.893621 0.893257
Si Si4 0.639456 0.912482 0.222999
Si Si5 0.741452 0.159119 0.403419
Si Si6 0.042701 0.835023 0.616922
O O1 0.880080 0.220023 0.092272
O O2 0.850059 0.229224 0.310388
O O3 0.092125 0.282003 0.214021
O O4 0.000000 0.000000 0.221761
O O5 0.752154 0.479989 0.114595
O O6 0.646158 0.212622 0.008108
O O7 0.792454 0.394206 0.905166
O O8 0.500000 0.000000 0.906615
O O9 0.600685 0.752200 0.271496
O O10 0.500000 0.000000 0.203625
O O11 0.710474 0.004250 0.331885
O O12 0.596799 0.244100 0.421593
O O13 0.835345 0.150910 0.520019
O O14 0.000000 0.000000 0.646392
#
# Coordination Sequence:
#
# PCOD9312495 Si02
#       6
#     4   4   4   4   4   4
#     4  11  23  40  68 102 138 184 230 289 362 437
#     4  11  22  41  66  96 138 183 226 279 352 437
#     4  10  22  37  59  93 130 173 225 278 338 419
#     4  10  22  42  68  98 138 181 224 287 363 431
#     4  11  24  46  71 100 142 188 238 299 369 426
#     4  11  25  44  71 101 132 179 241 302 353 422
#
# _framework density 24.395571
#
# number of rings (size 3 to 8) (size 9 to 14) (size 15 to 20)
#    0.000    1.333    0.000    6.000    0.000    7.333 
#    0.000    9.167    0.000    0.000    0.000    0.000 
#    0.000    0.000    0.000    0.000    0.000    0.000 
#
# Total GULP energy -133868.250505 kJ/mol
# GULP energy per Si atom -5577.843771 kJ/mol
# Density = 2.434005 g / cm^3
# Si number density = 24.395571 Si / 1000 Ang^3
#
#
#
# Elastic Constant Matrix: (Units=GPa)
#
#
# Indices 1 2 3 4 5 6 
#
# 1 73.5448 15.4117 15.6538 0.0000 0.0000 0.0000
# 2 15.4117 134.0833 41.2022 0.0000 0.0000 0.0000
# 3 15.6538 41.2022 55.6916 0.0000 0.0000 0.0000
# 4 0.0000 0.0000 0.0000 23.8216 0.0000 0.0000
# 5 0.0000 0.0000 0.0000 0.0000 51.4288 0.0000
# 6 0.0000 0.0000 0.0000 0.0000 0.0000 36.6717
#
#
#
# Elastic Compliance Matrix: (Units=1/GPa)
#
#
# Indices 1 2 3 4 5 6 
#
# 1 0.014492 -0.000536 -0.003677 0.000000 0.000000 0.000000
# 2 -0.000536 0.009672 -0.007005 0.000000 0.000000 0.000000
# 3 -0.003677 -0.007005 0.024172 0.000000 0.000000 0.000000
# 4 0.000000 0.000000 0.000000 0.041979 0.000000 0.000000
# 5 0.000000 0.000000 0.000000 0.000000 0.019444 0.000000
# 6 0.000000 0.000000 0.000000 0.000000 0.000000 0.027269
#
#
# Mechanical properties :
#
#
# Convention : Reuss Voigt Hill
#
# Bulk Modulus (GPa) = 38.60935 45.31722 41.96329
# Shear Modulus (GPa) = 29.74455 35.12123 32.43289
#
# Velocity S-wave (km/s) = 3.49558 3.79840 3.65013
# Velocity P-wave (km/s) = 5.67035 6.15251 5.91634
#
# Compressibility (1/GPa) = 0.02590046
#
# Stress axis : x y z
#
# Youngs Moduli (GPa) = 69.00320 103.38863 41.36990
#
# Poissons Ratio (x) = 0.05540 0.15212
# Poissons Ratio (y) = 0.03697 0.28980
# Poissons Ratio (z) = 0.25373 0.72426
#
# Static dielectric constant tensor:
#      x y z
#    x 2.135230 0.000000 0.000000 
#    y 0.000000 1.994880 0.000000 
#    z 0.000000 0.000000 1.986750 
# 
# From -- ./inp_files/5843.got.cif
#   From: 2010.05.17/outbox.cif.g08.bks.cpg/sg18_3_cif.got.tgz:5843.got - 2010.06.03 22:40:56.
