data_PCOD9312536
_publ_section_title
;
Structure prediction by ZEFSAII (Michael W. Deem and Ramdas Pophale) SiO2 
 PCOD9312536
Probable space group: P 21 21 2
;
_chemical_formula_sum "Si O2"
_cell_formula_units_Z 32
_cell_length_a 11.431120
_cell_length_b 12.279705
_cell_length_c 11.435304
_cell_angle_alpha 90.000000
_cell_angle_beta 90.000000
_cell_angle_gamma 90.000000
_cell_volume 1605.182558
_symmetry_space_group_name_H-M "P 21 21 2"
_symmetry_group_IT_number 18
_symmetry_cell_setting 'orthorhombic'
loop_
_space_group_symop_operation_xyz
x,y,z
-x,-y,z
1/2+x,1/2-y,-z
1/2-x,1/2+y,-z
loop_
_atom_site_type_symbol
_atom_site_label
_atom_site_fract_x
_atom_site_fract_y
_atom_site_fract_z
Si Si1 0.140588 0.501276 0.723303
Si Si2 0.488853 0.624799 0.295105
Si Si3 0.337163 0.803729 0.826637
Si Si4 0.200794 0.730219 0.610048
Si Si5 0.108642 0.890658 0.946865
Si Si6 0.260750 0.763414 0.340934
Si Si7 0.232904 0.081805 0.046333
Si Si8 0.400676 0.194882 0.869574
O O1 0.182450 0.603685 0.644661
O O2 0.190944 0.385415 0.681619
O O3 0.188349 0.525276 0.853667
O O4 0.000000 0.500000 0.723504
O O5 0.500000 0.500000 0.337065
O O6 0.585409 0.702859 0.352712
O O7 0.516614 0.622559 0.157000
O O8 0.363819 0.677345 0.316215
O O9 0.304294 0.777716 0.692320
O O10 0.234220 0.876390 0.880701
O O11 0.319349 0.690768 0.896770
O O12 0.467927 0.845504 0.845586
O O13 0.223433 0.748365 0.474487
O O14 0.092566 0.795639 0.040206
O O15 0.127414 0.003721 0.011731
O O16 0.157906 0.736575 0.249757
O O17 0.314395 0.112607 0.936632
#
# Coordination Sequence:
#
# PCOD9312536 Si02
#       8
#     4   4   4   4   4   4   4   4
#     4  11  23  44  71  99 132 184 226 272 341 404
#     4  11  25  44  70  98 134 180 221 280 347 398
#     4   9  23  41  60  93 132 171 213 271 333 381
#     4  10  25  48  67  97 135 176 230 287 321 402
#     4  10  22  39  62  93 134 167 214 269 334 401
#     4  12  26  44  72 100 132 179 236 270 343 404
#     4  10  22  40  63  98 134 169 217 273 334 406
#     4  11  24  37  66  99 129 172 218 276 332 400
#
# _framework density 19.935428000000002
#
# number of rings (size 3 to 8) (size 9 to 14) (size 15 to 20)
#    0.000    1.500    2.500    1.500   10.500    0.000 
#    0.000    0.000    0.000    0.000    0.000    0.000 
#    0.000    0.000    0.000    0.000    0.000    0.000 
#
# Total GULP energy -178895.085931 kJ/mol
# GULP energy per Si atom -5590.471435 kJ/mol
# Density = 1.989005 g / cm^3
# Si number density = 19.935428 Si / 1000 Ang^3
#
#
#
# Elastic Constant Matrix: (Units=GPa)
#
#
# Indices 1 2 3 4 5 6 
#
# 1 65.7712 -10.9220 25.0019 0.0000 0.0000 0.0000
# 2 -10.9220 77.2962 15.0674 0.0000 0.0000 0.0000
# 3 25.0019 15.0674 133.7532 0.0000 0.0000 0.0000
# 4 0.0000 0.0000 0.0000 15.1374 0.0000 0.0000
# 5 0.0000 0.0000 0.0000 0.0000 16.4865 0.0000
# 6 0.0000 0.0000 0.0000 0.0000 0.0000 20.1748
#
#
#
# Elastic Compliance Matrix: (Units=1/GPa)
#
#
# Indices 1 2 3 4 5 6 
#
# 1 0.017065 0.003101 -0.003539 0.000000 0.000000 0.000000
# 2 0.003101 0.013791 -0.002133 0.000000 0.000000 0.000000
# 3 -0.003539 -0.002133 0.008378 0.000000 0.000000 0.000000
# 4 0.000000 0.000000 0.000000 0.066062 0.000000 0.000000
# 5 0.000000 0.000000 0.000000 0.000000 0.060656 0.000000
# 6 0.000000 0.000000 0.000000 0.000000 0.000000 0.049567
#
#
# Mechanical properties :
#
#
# Convention : Reuss Voigt Hill
#
# Bulk Modulus (GPa) = 29.33279 37.23504 33.28391
# Shear Modulus (GPa) = 21.54944 26.87131 24.21037
#
# Velocity S-wave (km/s) = 3.29137 3.67538 3.48866
# Velocity P-wave (km/s) = 5.40277 6.06050 5.74106
#
# Compressibility (1/GPa) = 0.03409154
#
# Stress axis : x y z
#
# Youngs Moduli (GPa) = 58.60105 72.50961 119.35554
#
# Poissons Ratio (x) = -0.22486 0.42242
# Poissons Ratio (y) = -0.18173 0.25462
# Poissons Ratio (z) = 0.20740 0.15468
#
# Static dielectric constant tensor:
#      x y z
#    x 1.705730 0.000000 0.000000 
#    y 0.000000 1.723590 0.000000 
#    z 0.000000 0.000000 1.667880 
# 
# From -- ./inp_files/5945.got.cif
#   From: 2010.05.17/outbox.cif.g08.bks.cpg/sg18_3_cif.got.tgz:5945.got - 2010.06.03 22:40:56.
