data_PCOD9312034
_publ_section_title
;
Structure prediction by ZEFSAII (Michael W. Deem and Ramdas Pophale) SiO2 
 PCOD9312034
Probable space group: P 21 21 2
;
_chemical_formula_sum "Si O2"
_cell_formula_units_Z 18
_cell_length_a 19.137483
_cell_length_b 4.956250
_cell_length_c 6.859751
_cell_angle_alpha 90.000000
_cell_angle_beta 90.000000
_cell_angle_gamma 90.000000
_cell_volume 650.648412
_symmetry_space_group_name_H-M "P 21 21 2"
_symmetry_group_IT_number 18
_symmetry_cell_setting 'orthorhombic'
loop_
_space_group_symop_operation_xyz
x,y,z
-x,-y,z
1/2+x,1/2-y,-z
1/2-x,1/2+y,-z
loop_
_atom_site_type_symbol
_atom_site_label
_atom_site_fract_x
_atom_site_fract_y
_atom_site_fract_z
Si Si1 0.000000 0.500000 0.042098
Si Si2 0.451750 0.236609 0.337248
Si Si3 0.887085 0.862367 0.163072
Si Si4 0.832338 0.359967 0.381858
Si Si5 0.778925 0.732455 0.888146
O O1 0.951184 0.336932 0.890642
O O2 0.961582 0.727008 0.162574
O O3 0.500000 0.500000 0.365869
O O4 0.373270 0.206817 0.420182
O O5 0.500000 0.000000 0.427095
O O6 0.856777 0.818533 0.943863
O O7 0.843772 0.664091 0.308611
O O8 0.875344 0.160429 0.237233
O O9 0.752755 0.276173 0.326650
O O10 0.764254 0.434427 0.968051
#
# Coordination Sequence:
#
# PCOD9312034 Si02
#       5
#     2   4   4   4   4
#     4  10  26  36  56  82 128 144 180 236 286 332
#     4  10  23  38  53  78 120 151 180 224 287 334
#     4  10  21  34  61  86 109 144 192 232 282 323
#     4  10  20  36  61  82 108 147 194 230 272 337
#     4   8  16  33  54  83 108 135 183 242 273 317
#
# _framework density 27.664708999999998
#
# number of rings (size 3 to 8) (size 9 to 14) (size 15 to 20)
#    0.667    1.778    0.000    1.333    7.778    0.000 
#    0.000    0.000    4.889    0.000    0.000    0.000 
#    0.000    0.000    0.000    0.000    0.000    0.000 
#
# Total GULP energy -100686.859815 kJ/mol
# GULP energy per Si atom -5593.714434 kJ/mol
# Density = 2.760174 g / cm^3
# Si number density = 27.664709 Si / 1000 Ang^3
#
#
#
# Elastic Constant Matrix: (Units=GPa)
#
#
# Indices 1 2 3 4 5 6 
#
# 1 61.0830 13.2861 19.3068 0.0000 0.0000 0.0000
# 2 13.2861 147.7161 21.7976 0.0000 0.0000 0.0000
# 3 19.3068 21.7976 91.0832 0.0000 0.0000 0.0000
# 4 0.0000 0.0000 0.0000 15.9815 0.0000 0.0000
# 5 0.0000 0.0000 0.0000 0.0000 48.1984 0.0000
# 6 0.0000 0.0000 0.0000 0.0000 0.0000 41.4425
#
#
#
# Elastic Compliance Matrix: (Units=1/GPa)
#
#
# Indices 1 2 3 4 5 6 
#
# 1 0.017711 -0.001077 -0.003496 0.000000 0.000000 0.000000
# 2 -0.001077 0.007083 -0.001467 0.000000 0.000000 0.000000
# 3 -0.003496 -0.001467 0.012071 0.000000 0.000000 0.000000
# 4 0.000000 0.000000 0.000000 0.062572 0.000000 0.000000
# 5 0.000000 0.000000 0.000000 0.000000 0.020748 0.000000
# 6 0.000000 0.000000 0.000000 0.000000 0.000000 0.024130
#
#
# Mechanical properties :
#
#
# Convention : Reuss Voigt Hill
#
# Bulk Modulus (GPa) = 40.34793 45.40704 42.87749
# Shear Modulus (GPa) = 30.36631 37.49059 33.92845
#
# Velocity S-wave (km/s) = 3.31668 3.68527 3.50582
# Velocity P-wave (km/s) = 5.41142 5.87854 5.64981
#
# Compressibility (1/GPa) = 0.02478442
#
# Stress axis : x y z
#
# Youngs Moduli (GPa) = 56.46362 141.18194 82.84240
#
# Poissons Ratio (x) = 0.15206 0.28964
# Poissons Ratio (y) = 0.06081 0.12151
# Poissons Ratio (z) = 0.19742 0.20708
#
# Static dielectric constant tensor:
#      x y z
#    x 2.240820 0.000000 0.000000 
#    y 0.000000 2.092160 0.000000 
#    z 0.000000 0.000000 2.171810 
# 
# From -- ./inp_files/2522.got.cif
#   From: 2010.05.17/outbox.cif.g08.bks.cpg/sg18_2_cif.got.tgz:2522.got - 2010.06.03 22:40:56.
