data_PCOD9312671
_publ_section_title
;
Structure prediction by ZEFSAII (Michael W. Deem and Ramdas Pophale) SiO2 
 PCOD9312671
Probable space group: P 21 21 2
;
_chemical_formula_sum "Si O2"
_cell_formula_units_Z 24
_cell_length_a 8.973635
_cell_length_b 12.051675
_cell_length_c 11.218412
_cell_angle_alpha 90.000000
_cell_angle_beta 90.000000
_cell_angle_gamma 90.000000
_cell_volume 1213.241334
_symmetry_space_group_name_H-M "P 21 21 2"
_symmetry_group_IT_number 18
_symmetry_cell_setting 'orthorhombic'
loop_
_space_group_symop_operation_xyz
x,y,z
-x,-y,z
1/2+x,1/2-y,-z
1/2-x,1/2+y,-z
loop_
_atom_site_type_symbol
_atom_site_label
_atom_site_fract_x
_atom_site_fract_y
_atom_site_fract_z
Si Si1 0.851345 0.381103 0.910890
Si Si2 0.172624 0.030072 0.399357
Si Si3 0.859925 0.327485 0.181670
Si Si4 0.326026 0.488314 0.321037
Si Si5 0.821141 0.742208 0.263734
Si Si6 0.170742 0.395292 0.801133
O O1 0.732905 0.293223 0.862213
O O2 0.789019 0.505660 0.893489
O O3 0.996027 0.374410 0.824745
O O4 0.895970 0.359859 0.045833
O O5 0.194412 0.017375 0.539752
O O6 0.195645 0.155662 0.355014
O O7 0.281289 0.948717 0.325194
O O8 0.000000 0.000000 0.370794
O O9 0.772130 0.427833 0.243226
O O10 0.758599 0.217654 0.180547
O O11 0.009840 0.298049 0.251894
O O12 0.500000 0.500000 0.291289
O O13 0.276605 0.362648 0.299061
#
# Coordination Sequence:
#
# PCOD9312671 Si02
#       6
#     4   4   4   4   4   4
#     4  10  24  41  68  97 136 172 222 278 333 419
#     4  10  22  46  69  98 132 175 229 284 336 415
#     4  12  24  42  70  98 138 175 227 282 339 406
#     4  11  27  43  66  98 138 177 228 281 341 404
#     4  11  24  44  68 100 135 176 228 280 347 400
#     4  10  22  43  66  95 129 179 220 271 345 395
#
# _framework density 19.78172
#
# number of rings (size 3 to 8) (size 9 to 14) (size 15 to 20)
#    0.000    1.333    1.667    2.500    9.333    0.000 
#   12.000    0.000    0.000    0.000    0.000    0.000 
#    0.000    0.000    0.000    0.000    0.000    0.000 
#
# Total GULP energy -134154.878472 kJ/mol
# GULP energy per Si atom -5589.786603 kJ/mol
# Density = 1.973670 g / cm^3
# Si number density = 19.781720 Si / 1000 Ang^3
#
#
#
# Elastic Constant Matrix: (Units=GPa)
#
#
# Indices 1 2 3 4 5 6 
#
# 1 83.9866 46.0703 23.9484 0.0000 0.0000 0.0000
# 2 46.0703 147.9390 31.5422 0.0000 0.0000 0.0000
# 3 23.9484 31.5422 52.6601 0.0000 0.0000 0.0000
# 4 0.0000 0.0000 0.0000 13.6559 0.0000 0.0000
# 5 0.0000 0.0000 0.0000 0.0000 21.4659 0.0000
# 6 0.0000 0.0000 0.0000 0.0000 0.0000 39.4381
#
#
#
# Elastic Compliance Matrix: (Units=1/GPa)
#
#
# Indices 1 2 3 4 5 6 
#
# 1 0.015315 -0.003765 -0.004710 0.000000 0.000000 0.000000
# 2 -0.003765 0.008675 -0.003484 0.000000 0.000000 0.000000
# 3 -0.004710 -0.003484 0.023218 0.000000 0.000000 0.000000
# 4 0.000000 0.000000 0.000000 0.073229 0.000000 0.000000
# 5 0.000000 0.000000 0.000000 0.000000 0.046586 0.000000
# 6 0.000000 0.000000 0.000000 0.000000 0.000000 0.025356
#
#
# Mechanical properties :
#
#
# Convention : Reuss Voigt Hill
#
# Bulk Modulus (GPa) = 42.93502 54.18971 48.56237
# Shear Modulus (GPa) = 22.31557 27.11363 24.71460
#
# Velocity S-wave (km/s) = 3.36235 3.70623 3.53847
# Velocity P-wave (km/s) = 6.06839 6.76522 6.42626
#
# Compressibility (1/GPa) = 0.02329101
#
# Stress axis : x y z
#
# Youngs Moduli (GPa) = 65.29580 115.27600 43.06974
#
# Poissons Ratio (x) = 0.43403 0.20284
# Poissons Ratio (y) = 0.24585 0.15004
# Poissons Ratio (z) = 0.30751 0.40159
#
# Static dielectric constant tensor:
#      x y z
#    x 1.695930 0.000000 0.000000 
#    y 0.000000 1.675260 0.000000 
#    z 0.000000 0.000000 1.669000 
# 
# From -- ./inp_files/5508.got.cif
#   From: 2010.05.17/outbox.cif.g08.bks.cpg/sg18_3_cif.got.tgz:5508.got - 2010.06.03 22:40:56.
