data_PCOD9312985
_publ_section_title
;
Structure prediction by ZEFSAII (Michael W. Deem and Ramdas Pophale) SiO2 
 PCOD9312985
Probable space group: P 21 21 2
;
_chemical_formula_sum "Si O2"
_cell_formula_units_Z 20
_cell_length_a 5.677940
_cell_length_b 12.780184
_cell_length_c 12.054132
_cell_angle_alpha 90.000000
_cell_angle_beta 90.000000
_cell_angle_gamma 90.000000
_cell_volume 874.709510
_symmetry_space_group_name_H-M "P 21 21 2"
_symmetry_group_IT_number 18
_symmetry_cell_setting 'orthorhombic'
loop_
_space_group_symop_operation_xyz
x,y,z
-x,-y,z
1/2+x,1/2-y,-z
1/2-x,1/2+y,-z
loop_
_atom_site_type_symbol
_atom_site_label
_atom_site_fract_x
_atom_site_fract_y
_atom_site_fract_z
Si Si1 0.021873 0.813905 0.998315
Si Si2 0.617153 0.325970 0.671502
Si Si3 0.500000 0.000000 0.676755
Si Si4 0.619478 0.632969 0.240580
Si Si5 0.239787 0.688345 0.418321
Si Si6 0.500000 0.500000 0.823970
O O1 0.995987 0.863606 0.876644
O O2 0.269370 0.747611 0.992117
O O3 0.062593 0.903603 0.092785
O O4 0.713602 0.235236 0.750525
O O5 0.725407 0.311630 0.549124
O O6 0.345682 0.295111 0.641332
O O7 0.657744 0.435038 0.734075
O O8 0.720530 0.030948 0.750484
O O9 0.457736 0.101071 0.602900
O O10 0.458895 0.645382 0.349140
#
# Coordination Sequence:
#
# PCOD9312985 Si02
#       6
#     4   4   2   4   4   2
#     4  12  29  55  77 113 158 206 269 336 389 459
#     4  11  24  46  71 110 151 195 251 321 400 475
#     4  10  26  40  70 106 136 192 254 302 390 472
#     4  11  24  47  72 101 147 197 248 312 390 468
#     4  11  23  44  72 108 150 195 243 326 393 486
#     4  12  28  48  78 114 156 210 276 326 400 478
#
# _framework density 22.864735
#
# number of rings (size 3 to 8) (size 9 to 14) (size 15 to 20)
#    0.000    0.800    4.000    1.800    8.400    0.800 
#    7.200    0.000    0.000    0.000    0.000    0.000 
#    0.000    0.000    0.000    0.000    0.000    0.000 
#
# Total GULP energy -111401.013264 kJ/mol
# GULP energy per Si atom -5570.050663 kJ/mol
# Density = 2.281269 g / cm^3
# Si number density = 22.864735 Si / 1000 Ang^3
#
#
#
# Elastic Constant Matrix: (Units=GPa)
#
#
# Indices 1 2 3 4 5 6 
#
# 1 87.6555 37.9108 35.3403 0.0000 0.0000 0.0000
# 2 37.9108 120.1901 48.1739 0.0000 0.0000 0.0000
# 3 35.3403 48.1739 170.2122 0.0000 0.0000 0.0000
# 4 0.0000 0.0000 0.0000 39.5609 0.0000 0.0000
# 5 0.0000 0.0000 0.0000 0.0000 30.9744 0.0000
# 6 0.0000 0.0000 0.0000 0.0000 0.0000 37.4374
#
#
#
# Elastic Compliance Matrix: (Units=1/GPa)
#
#
# Indices 1 2 3 4 5 6 
#
# 1 0.013697 -0.003587 -0.001829 0.000000 0.000000 0.000000
# 2 -0.003587 0.010324 -0.002177 0.000000 0.000000 0.000000
# 3 -0.001829 -0.002177 0.006871 0.000000 0.000000 0.000000
# 4 0.000000 0.000000 0.000000 0.025277 0.000000 0.000000
# 5 0.000000 0.000000 0.000000 0.000000 0.032285 0.000000
# 6 0.000000 0.000000 0.000000 0.000000 0.000000 0.026711
#
#
# Mechanical properties :
#
#
# Convention : Reuss Voigt Hill
#
# Bulk Modulus (GPa) = 63.67014 68.98975 66.32995
# Shear Modulus (GPa) = 36.87656 38.70339 37.78998
#
# Velocity S-wave (km/s) = 4.02034 4.11872 4.06983
# Velocity P-wave (km/s) = 7.03262 7.27028 7.15244
#
# Compressibility (1/GPa) = 0.01570595
#
# Stress axis : x y z
#
# Youngs Moduli (GPa) = 73.00824 96.85809 145.54220
#
# Poissons Ratio (x) = 0.34748 0.26613
# Poissons Ratio (y) = 0.26192 0.31687
# Poissons Ratio (z) = 0.13350 0.21088
#
# Static dielectric constant tensor:
#      x y z
#    x 2.029530 0.000000 0.000000 
#    y 0.000000 1.912990 0.000000 
#    z 0.000000 0.000000 1.837810 
# 
# From -- ./inp_files/5060.got.cif
#   From: 2010.05.17/outbox.cif.g08.bks.cpg/sg18_3_cif.got.tgz:5060.got - 2010.06.03 22:40:56.
