data_PCOD9312955
_publ_section_title
;
Structure prediction by ZEFSAII (Michael W. Deem and Ramdas Pophale) SiO2 
 PCOD9312955
Probable space group: P 21 21 2
;
_chemical_formula_sum "Si O2"
_cell_formula_units_Z 12
_cell_length_a 10.924068
_cell_length_b 8.523691
_cell_length_c 4.864149
_cell_angle_alpha 90.000000
_cell_angle_beta 90.000000
_cell_angle_gamma 90.000000
_cell_volume 452.917355
_symmetry_space_group_name_H-M "P 21 21 2"
_symmetry_group_IT_number 18
_symmetry_cell_setting 'orthorhombic'
loop_
_space_group_symop_operation_xyz
x,y,z
-x,-y,z
1/2+x,1/2-y,-z
1/2-x,1/2+y,-z
loop_
_atom_site_type_symbol
_atom_site_label
_atom_site_fract_x
_atom_site_fract_y
_atom_site_fract_z
Si Si1 0.137383 0.294136 0.716742
Si Si2 0.179500 0.013070 0.120711
Si Si3 0.120172 0.814779 0.601539
O O1 0.250466 0.247387 0.511794
O O2 0.004010 0.283719 0.583284
O O3 0.146886 0.171408 0.967219
O O4 0.177858 0.465718 0.830497
O O5 0.134141 0.877370 0.909287
O O6 0.118088 0.968076 0.406788
#
# Coordination Sequence:
#
# PCOD9312955 Si02
#       3
#     4   4   4
#     4  10  25  48  73 112 138 204 238 311 359 446
#     4  10  25  42  79 100 151 185 249 293 375 432
#     4  10  25  42  79 100 151 185 249 293 375 432
#
# _framework density 26.494900000000001
#
# number of rings (size 3 to 8) (size 9 to 14) (size 15 to 20)
#    2.000    0.000    0.000    1.000    9.333    2.667 
#    0.000   10.000    0.000    0.000    0.000    0.000 
#    0.000    0.000    0.000    0.000    0.000    0.000 
#
# Total GULP energy -67023.236936 kJ/mol
# GULP energy per Si atom -5585.269745 kJ/mol
# Density = 2.643460 g / cm^3
# Si number density = 26.494900 Si / 1000 Ang^3
#
#
#
# Elastic Constant Matrix: (Units=GPa)
#
#
# Indices 1 2 3 4 5 6 
#
# 1 203.5775 50.1409 37.9705 0.0000 0.0000 0.0000
# 2 50.1409 46.7035 15.3892 0.0000 0.0000 0.0000
# 3 37.9705 15.3892 68.8592 0.0000 0.0000 0.0000
# 4 0.0000 0.0000 0.0000 4.2911 0.0000 0.0000
# 5 0.0000 0.0000 0.0000 0.0000 28.7200 0.0000
# 6 0.0000 0.0000 0.0000 0.0000 0.0000 44.8243
#
#
#
# Elastic Compliance Matrix: (Units=1/GPa)
#
#
# Indices 1 2 3 4 5 6 
#
# 1 0.007016 -0.006755 -0.002359 0.000000 0.000000 0.000000
# 2 -0.006755 0.029617 -0.002894 0.000000 0.000000 0.000000
# 3 -0.002359 -0.002894 0.016470 0.000000 0.000000 0.000000
# 4 0.000000 0.000000 0.000000 0.233042 0.000000 0.000000
# 5 0.000000 0.000000 0.000000 0.000000 0.034819 0.000000
# 6 0.000000 0.000000 0.000000 0.000000 0.000000 0.022309
#
#
# Mechanical properties :
#
#
# Convention : Reuss Voigt Hill
#
# Bulk Modulus (GPa) = 34.37990 58.46015 46.42002
# Shear Modulus (GPa) = 13.26308 29.94306 21.60307
#
# Velocity S-wave (km/s) = 2.23981 3.36541 2.85856
# Velocity P-wave (km/s) = 4.43771 6.10032 5.33419
#
# Compressibility (1/GPa) = 0.02908676
#
# Stress axis : x y z
#
# Youngs Moduli (GPa) = 142.53427 33.76394 60.71617
#
# Poissons Ratio (x) = 0.22807 0.14323
# Poissons Ratio (y) = 0.96280 0.17573
# Poissons Ratio (z) = 0.33625 0.09772
#
# Static dielectric constant tensor:
#      x y z
#    x 2.530930 0.000000 0.000000 
#    y 0.000000 2.196190 0.000000 
#    z 0.000000 0.000000 2.023920 
# 
# From -- ./inp_files/358.got.cif
#   From: 2010.05.17/outbox.cif.g08.bks.cpg/sg18_1_cif.got.tgz:358.got - 2010.06.03 22:40:56.
