data_PCOD9312640
_publ_section_title
;
Structure prediction by ZEFSAII (Michael W. Deem and Ramdas Pophale) SiO2 
 PCOD9312640
Probable space group: P 21 21 2
;
_chemical_formula_sum "Si O2"
_cell_formula_units_Z 20
_cell_length_a 8.205621
_cell_length_b 10.313617
_cell_length_c 12.184107
_cell_angle_alpha 90.000000
_cell_angle_beta 90.000000
_cell_angle_gamma 90.000000
_cell_volume 1031.136495
_symmetry_space_group_name_H-M "P 21 21 2"
_symmetry_group_IT_number 18
_symmetry_cell_setting 'orthorhombic'
loop_
_space_group_symop_operation_xyz
x,y,z
-x,-y,z
1/2+x,1/2-y,-z
1/2-x,1/2+y,-z
loop_
_atom_site_type_symbol
_atom_site_label
_atom_site_fract_x
_atom_site_fract_y
_atom_site_fract_z
Si Si1 0.876587 0.882782 0.442026
Si Si2 0.109346 0.128068 0.033284
Si Si3 0.408284 0.131961 0.612847
Si Si4 0.170125 0.731194 0.158665
Si Si5 0.306125 0.008796 0.228843
O O1 0.755623 0.858175 0.542377
O O2 0.771864 0.925919 0.336021
O O3 0.977817 0.754415 0.413941
O O4 0.000000 0.000000 0.466952
O O5 0.245558 0.088384 0.122594
O O6 0.990388 0.233271 0.088695
O O7 0.194088 0.178754 0.924040
O O8 0.000000 0.000000 0.012887
O O9 0.368503 0.135606 0.741920
O O10 0.500000 0.000000 0.582873
O O11 0.230866 0.865517 0.213499
O O12 0.500000 0.000000 0.236058
#
# Coordination Sequence:
#
# PCOD9312640 Si02
#       5
#     4   4   4   4   4
#     4  12  24  49  70  97 140 181 229 280 343 414
#     4  10  22  42  67  99 141 177 226 282 340 408
#     4  12  27  43  70 103 138 178 230 290 335 399
#     4  11  23  44  67 101 139 178 229 285 337 408
#     4  11  22  42  73  95 130 189 228 273 346 411
#
# _framework density 19.396073000000001
#
# number of rings (size 3 to 8) (size 9 to 14) (size 15 to 20)
#    0.000    0.800    4.000    3.600    2.800    4.800 
#    3.600    0.000    0.000    0.000    0.000    0.000 
#    0.000    0.000    0.000    0.000    0.000    0.000 
#
# Total GULP energy -111916.655134 kJ/mol
# GULP energy per Si atom -5595.832757 kJ/mol
# Density = 1.935193 g / cm^3
# Si number density = 19.396073 Si / 1000 Ang^3
#
#
#
# Elastic Constant Matrix: (Units=GPa)
#
#
# Indices 1 2 3 4 5 6 
#
# 1 154.4479 58.0334 70.8915 0.0000 0.0000 0.0000
# 2 58.0334 74.7408 52.6846 0.0000 0.0000 0.0000
# 3 70.8915 52.6846 119.2212 0.0000 0.0000 0.0000
# 4 0.0000 0.0000 0.0000 30.1613 0.0000 0.0000
# 5 0.0000 0.0000 0.0000 0.0000 40.9373 0.0000
# 6 0.0000 0.0000 0.0000 0.0000 0.0000 29.0842
#
#
#
# Elastic Compliance Matrix: (Units=1/GPa)
#
#
# Indices 1 2 3 4 5 6 
#
# 1 0.010159 -0.005272 -0.003711 0.000000 0.000000 0.000000
# 2 -0.005272 0.022169 -0.006662 0.000000 0.000000 0.000000
# 3 -0.003711 -0.006662 0.013538 0.000000 0.000000 0.000000
# 4 0.000000 0.000000 0.000000 0.033155 0.000000 0.000000
# 5 0.000000 0.000000 0.000000 0.000000 0.024428 0.000000
# 6 0.000000 0.000000 0.000000 0.000000 0.000000 0.034383
#
#
# Mechanical properties :
#
#
# Convention : Reuss Voigt Hill
#
# Bulk Modulus (GPa) = 68.60312 79.06987 73.83650
# Shear Modulus (GPa) = 28.73884 31.15657 29.94771
#
# Velocity S-wave (km/s) = 3.85344 4.01226 3.93365
# Velocity P-wave (km/s) = 7.43270 7.89422 7.66693
#
# Compressibility (1/GPa) = 0.01457660
#
# Stress axis : x y z
#
# Youngs Moduli (GPa) = 98.43448 45.10787 73.86508
#
# Poissons Ratio (x) = 0.23782 0.27411
# Poissons Ratio (y) = 0.51897 0.49206
# Poissons Ratio (z) = 0.36528 0.30049
#
# Static dielectric constant tensor:
#      x y z
#    x 1.652820 0.000000 0.000000 
#    y 0.000000 1.664310 0.000000 
#    z 0.000000 0.000000 1.653720 
# 
# From -- ./inp_files/5400.got.cif
#   From: 2010.05.17/outbox.cif.g08.bks.cpg/sg18_3_cif.got.tgz:5400.got - 2010.06.03 22:40:56.
