data_PCOD9312200
_publ_section_title
;
Structure prediction by ZEFSAII (Michael W. Deem and Ramdas Pophale) SiO2 
 PCOD9312200
Probable space group: P 21 21 2
;
_chemical_formula_sum "Si O2"
_cell_formula_units_Z 32
_cell_length_a 8.378068
_cell_length_b 11.528445
_cell_length_c 15.282841
_cell_angle_alpha 90.000000
_cell_angle_beta 90.000000
_cell_angle_gamma 90.000000
_cell_volume 1476.109950
_symmetry_space_group_name_H-M "P 21 21 2"
_symmetry_group_IT_number 18
_symmetry_cell_setting 'orthorhombic'
loop_
_space_group_symop_operation_xyz
x,y,z
-x,-y,z
1/2+x,1/2-y,-z
1/2-x,1/2+y,-z
loop_
_atom_site_type_symbol
_atom_site_label
_atom_site_fract_x
_atom_site_fract_y
_atom_site_fract_z
Si Si1 0.809844 0.477705 0.907794
Si Si2 0.206218 0.254304 0.190393
Si Si3 0.173839 0.440594 0.728134
Si Si4 0.899402 0.381754 0.231628
Si Si5 0.455684 0.275393 0.504876
Si Si6 0.813394 0.007392 0.898181
Si Si7 0.809267 0.783177 0.626476
Si Si8 0.748198 0.344830 0.625161
O O1 0.760750 0.350107 0.872629
O O2 0.755823 0.555527 0.825404
O O3 0.000000 0.500000 0.918860
O O4 0.731720 0.503666 0.000208
O O5 0.260354 0.372613 0.145824
O O6 0.277861 0.229099 0.286669
O O7 0.017853 0.275623 0.209559
O O8 0.147782 0.310713 0.698491
O O9 0.270425 0.524598 0.661839
O O10 0.000000 0.500000 0.732038
O O11 0.775228 0.404375 0.153684
O O12 0.810226 0.367527 0.324007
O O13 0.000000 0.500000 0.237040
O O14 0.290799 0.294222 0.555831
O O15 0.545482 0.341840 0.425540
O O16 0.589995 0.290676 0.579913
O O17 0.392606 0.164699 0.445974
O O18 0.000000 0.000000 0.887122
#
# Coordination Sequence:
#
# PCOD9312200 Si02
#       8
#     4   4   4   4   4   4   4   4
#     4  10  23  43  70 100 130 175 220 268 338 404
#     4  10  22  44  69  92 143 173 215 281 329 393
#     4  10  21  39  64  94 128 168 211 269 331 389
#     4  10  23  46  68  93 133 180 222 273 335 398
#     4  10  22  38  62  93 128 169 223 267 321 395
#     4  11  26  42  66 105 131 174 230 269 334 407
#     4  11  22  42  66  92 133 174 217 274 334 382
#     4  10  20  41  62  94 131 168 219 271 330 385
#
# _framework density 21.678601
#
# number of rings (size 3 to 8) (size 9 to 14) (size 15 to 20)
#    0.000    1.750    2.500    1.125    1.750    4.500 
#    4.500    2.500    0.000    0.000    0.000    0.000 
#    0.000    0.000    0.000    0.000    0.000    0.000 
#
# Total GULP energy -178161.681507 kJ/mol
# GULP energy per Si atom -5567.552547 kJ/mol
# Density = 2.162926 g / cm^3
# Si number density = 21.678601 Si / 1000 Ang^3
#
#
#
# Elastic Constant Matrix: (Units=GPa)
#
#
# Indices 1 2 3 4 5 6 
#
# 1 56.2125 16.5161 10.0900 0.0000 0.0000 0.0000
# 2 16.5161 47.8263 36.1044 0.0000 0.0000 0.0000
# 3 10.0900 36.1044 106.8282 0.0000 0.0000 0.0000
# 4 0.0000 0.0000 0.0000 7.5188 0.0000 0.0000
# 5 0.0000 0.0000 0.0000 0.0000 25.8631 0.0000
# 6 0.0000 0.0000 0.0000 0.0000 0.0000 24.7127
#
#
#
# Elastic Compliance Matrix: (Units=1/GPa)
#
#
# Indices 1 2 3 4 5 6 
#
# 1 0.019826 -0.007294 0.000593 0.000000 0.000000 0.000000
# 2 -0.007294 0.030754 -0.009705 0.000000 0.000000 0.000000
# 3 0.000593 -0.009705 0.012585 0.000000 0.000000 0.000000
# 4 0.000000 0.000000 0.000000 0.133001 0.000000 0.000000
# 5 0.000000 0.000000 0.000000 0.000000 0.038665 0.000000
# 6 0.000000 0.000000 0.000000 0.000000 0.000000 0.040465
#
#
# Mechanical properties :
#
#
# Convention : Reuss Voigt Hill
#
# Bulk Modulus (GPa) = 32.94627 37.36533 35.15580
# Shear Modulus (GPa) = 15.71208 21.49602 18.60405
#
# Velocity S-wave (km/s) = 2.69508 3.15235 2.93264
# Velocity P-wave (km/s) = 4.99151 5.52478 5.26490
#
# Compressibility (1/GPa) = 0.03035245
#
# Stress axis : x y z
#
# Youngs Moduli (GPa) = 50.43783 32.51583 79.46075
#
# Poissons Ratio (x) = 0.23717 -0.04708
# Poissons Ratio (y) = 0.36790 0.77117
# Poissons Ratio (z) = -0.02989 0.31557
#
# Static dielectric constant tensor:
#      x y z
#    x 1.872090 0.000000 0.000000 
#    y 0.000000 1.787350 0.000000 
#    z 0.000000 0.000000 1.798930 
# 
# From -- ./inp_files/6786.got.cif
#   From: 2010.05.17/outbox.cif.g08.bks.cpg/sg18_4_cif.got.tgz:6786.got - 2010.06.03 22:40:56.
