data_PCOD9312184
_publ_section_title
;
Structure prediction by ZEFSAII (Michael W. Deem and Ramdas Pophale) SiO2 
 PCOD9312184
Probable space group: P 21 21 2
;
_chemical_formula_sum "Si O2"
_cell_formula_units_Z 18
_cell_length_a 10.642623
_cell_length_b 8.500518
_cell_length_c 9.124567
_cell_angle_alpha 90.000000
_cell_angle_beta 90.000000
_cell_angle_gamma 90.000000
_cell_volume 825.479579
_symmetry_space_group_name_H-M "P 21 21 2"
_symmetry_group_IT_number 18
_symmetry_cell_setting 'orthorhombic'
loop_
_space_group_symop_operation_xyz
x,y,z
-x,-y,z
1/2+x,1/2-y,-z
1/2-x,1/2+y,-z
loop_
_atom_site_type_symbol
_atom_site_label
_atom_site_fract_x
_atom_site_fract_y
_atom_site_fract_z
Si Si1 0.869400 0.085128 0.866518
Si Si2 0.868981 0.445764 0.970648
Si Si3 0.261989 0.891287 0.301724
Si Si4 0.500000 0.500000 0.657374
Si Si5 0.682768 0.438539 0.429451
O O1 0.867681 0.263565 0.924010
O O2 0.856208 0.069425 0.689761
O O3 0.000000 0.000000 0.905104
O O4 0.751064 0.992707 0.933611
O O5 0.852842 0.549348 0.823218
O O6 0.000000 0.500000 0.041656
O O7 0.278088 0.987282 0.453314
O O8 0.116075 0.926344 0.256877
O O9 0.274241 0.710719 0.340136
O O10 0.570239 0.386863 0.540496
#
# Coordination Sequence:
#
# PCOD9312184 Si02
#       5
#     4   4   4   2   4
#     4  12  24  46  69  92 136 173 219 276 328 396
#     4  12  27  43  67 100 130 176 222 269 335 390
#     4  10  21  40  66  93 133 169 213 266 327 384
#     4   8  22  38  64  96 130 162 220 264 320 380
#     4  10  20  40  66  95 129 169 214 266 327 379
#
# _framework density 21.805505
#
# number of rings (size 3 to 8) (size 9 to 14) (size 15 to 20)
#    1.333    0.000    1.111    5.333    1.556    0.000 
#    4.000    1.111    0.000    0.000    0.000    0.000 
#    0.000    0.000    0.000    0.000    0.000    0.000 
#
# Total GULP energy -100396.498658 kJ/mol
# GULP energy per Si atom -5577.583259 kJ/mol
# Density = 2.175587 g / cm^3
# Si number density = 21.805505 Si / 1000 Ang^3
#
#
#
# Elastic Constant Matrix: (Units=GPa)
#
#
# Indices 1 2 3 4 5 6 
#
# 1 107.0122 -7.4150 10.2329 0.0000 0.0000 0.0000
# 2 -7.4150 61.6189 4.4970 0.0000 0.0000 0.0000
# 3 10.2329 4.4970 63.7914 0.0000 0.0000 0.0000
# 4 0.0000 0.0000 0.0000 29.1616 0.0000 0.0000
# 5 0.0000 0.0000 0.0000 0.0000 8.6086 0.0000
# 6 0.0000 0.0000 0.0000 0.0000 0.0000 26.9346
#
#
#
# Elastic Compliance Matrix: (Units=1/GPa)
#
#
# Indices 1 2 3 4 5 6 
#
# 1 0.009589 0.001273 -0.001628 0.000000 0.000000 0.000000
# 2 0.001273 0.016482 -0.001366 0.000000 0.000000 0.000000
# 3 -0.001628 -0.001366 0.016034 0.000000 0.000000 0.000000
# 4 0.000000 0.000000 0.000000 0.034292 0.000000 0.000000
# 5 0.000000 0.000000 0.000000 0.000000 0.116163 0.000000
# 6 0.000000 0.000000 0.000000 0.000000 0.000000 0.037127
#
#
# Mechanical properties :
#
#
# Convention : Reuss Voigt Hill
#
# Bulk Modulus (GPa) = 25.86567 27.45026 26.65796
# Shear Modulus (GPa) = 20.32399 27.94814 24.13607
#
# Velocity S-wave (km/s) = 3.05627 3.58397 3.33059
# Velocity P-wave (km/s) = 4.93378 5.45367 5.20022
#
# Compressibility (1/GPa) = 0.03866129
#
# Stress axis : x y z
#
# Youngs Moduli (GPa) = 104.29081 60.67364 62.36936
#
# Poissons Ratio (x) = -0.07722 0.10153
# Poissons Ratio (y) = -0.13273 0.08520
# Poissons Ratio (z) = 0.16977 0.08288
#
# Static dielectric constant tensor:
#      x y z
#    x 1.850350 0.000000 0.000000 
#    y 0.000000 1.743750 0.000000 
#    z 0.000000 0.000000 1.803450 
# 
# From -- ./inp_files/5369.got.cif
#   From: 2010.05.17/outbox.cif.g08.bks.cpg/sg18_3_cif.got.tgz:5369.got - 2010.06.03 22:40:56.
