data_PCOD9312009
_publ_section_title
;
Structure prediction by ZEFSAII (Michael W. Deem and Ramdas Pophale) SiO2 
 PCOD9312009
Probable space group: P 21 21 2
;
_chemical_formula_sum "Si O2"
_cell_formula_units_Z 28
_cell_length_a 7.858683
_cell_length_b 16.328946
_cell_length_c 11.104295
_cell_angle_alpha 90.000000
_cell_angle_beta 90.000000
_cell_angle_gamma 90.000000
_cell_volume 1424.947666
_symmetry_space_group_name_H-M "P 21 21 2"
_symmetry_group_IT_number 18
_symmetry_cell_setting 'orthorhombic'
loop_
_space_group_symop_operation_xyz
x,y,z
-x,-y,z
1/2+x,1/2-y,-z
1/2-x,1/2+y,-z
loop_
_atom_site_type_symbol
_atom_site_label
_atom_site_fract_x
_atom_site_fract_y
_atom_site_fract_z
Si Si1 0.500000 0.000000 0.296439
Si Si2 0.859675 0.929260 0.367089
Si Si3 0.543941 0.147323 0.119477
Si Si4 0.455355 0.665972 0.148819
Si Si5 0.850304 0.645226 0.141208
Si Si6 0.000000 0.500000 0.298902
Si Si7 0.848696 0.933942 0.626573
Si Si8 0.138837 0.167345 0.119427
O O1 0.668844 0.965721 0.359605
O O2 0.435834 0.923387 0.216506
O O3 0.871843 0.887009 0.499056
O O4 0.892945 0.879170 0.244531
O O5 0.000000 0.000000 0.368928
O O6 0.601278 0.238908 0.153611
O O7 0.341989 0.160113 0.098267
O O8 0.635171 0.119654 0.997918
O O9 0.654145 0.653706 0.179836
O O10 0.355145 0.617562 0.250751
O O11 0.436017 0.638796 0.009061
O O12 0.948707 0.578771 0.219006
O O13 0.917624 0.738641 0.140098
O O14 0.832980 0.478243 0.373850
O O15 0.000000 0.000000 0.635039
#
# Coordination Sequence:
#
# PCOD9312009 Si02
#       8
#     2   4   4   4   4   2   4   4
#     4  10  20  40  62  88 121 156 201 246 299 358
#     4  10  23  41  62  85 120 156 200 247 302 357
#     4   9  19  35  60  90 126 155 198 250 301 354
#     4  10  20  37  62  89 125 157 201 249 302 354
#     4  10  20  35  59  92 123 159 199 248 301 358
#     4  12  22  38  64  86 121 162 205 242 305 356
#     4  11  23  42  60  87 119 158 200 252 297 358
#     4   9  20  39  59  88 123 157 199 250 300 358
#
# _framework density 19.649844000000002
#
# number of rings (size 3 to 8) (size 9 to 14) (size 15 to 20)
#    0.000    2.000    1.429    1.714    2.000    2.857 
#    0.000    5.714    0.000    0.000    0.000    0.000 
#    0.000    0.000    0.000    0.000    0.000    0.000 
#
# Total GULP energy -156092.680152 kJ/mol
# GULP energy per Si atom -5574.738577 kJ/mol
# Density = 1.960512 g / cm^3
# Si number density = 19.649844 Si / 1000 Ang^3
#
#
#
# Elastic Constant Matrix: (Units=GPa)
#
#
# Indices 1 2 3 4 5 6 
#
# 1 50.1907 12.0703 26.5058 0.0000 0.0000 0.0000
# 2 12.0703 49.7813 62.8530 0.0000 0.0000 0.0000
# 3 26.5058 62.8530 156.1127 0.0000 0.0000 0.0000
# 4 0.0000 0.0000 0.0000 95.7420 0.0000 0.0000
# 5 0.0000 0.0000 0.0000 0.0000 -111.6081 0.0000
# 6 0.0000 0.0000 0.0000 0.0000 0.0000 24.8054
#
#
#
# Elastic Compliance Matrix: (Units=1/GPa)
#
#
# Indices 1 2 3 4 5 6 
#
# 1 0.021925 -0.001253 -0.003218 0.000000 0.000000 0.000000
# 2 -0.001253 0.040928 -0.016266 0.000000 0.000000 0.000000
# 3 -0.003218 -0.016266 0.013501 0.000000 0.000000 0.000000
# 4 0.000000 0.000000 0.000000 0.010445 0.000000 0.000000
# 5 0.000000 0.000000 0.000000 0.000000 -0.008960 0.000000
# 6 0.000000 0.000000 0.000000 0.000000 0.000000 0.040314
#
#
# Mechanical properties :
#
#
# Convention : Reuss Voigt Hill
#
# Bulk Modulus (GPa) = 28.66916 50.99365 39.83141
# Shear Modulus (GPa) = 29.19668 12.09823 20.64746
#
# Velocity S-wave (km/s) = 3.85885 2.48400 3.24507
# Velocity P-wave (km/s) = 5.87163 5.85103 5.86134
#
# Compressibility (1/GPa) = 0.03488068
#
# Stress axis : x y z
#
# Youngs Moduli (GPa) = 45.61047 24.43301 74.07018
#
# Poissons Ratio (x) = 0.03061 0.23836
# Poissons Ratio (y) = 0.05715 1.20479
# Poissons Ratio (z) = 0.14678 0.39742
#
# Static dielectric constant tensor:
#      x y z
#    x 1.693510 0.000000 0.000000 
#    y 0.000000 1.683120 0.000000 
#    z 0.000000 0.000000 1.711710 
# 
# From -- ./inp_files/3406.got.cif
#   From: 2010.05.17/outbox.cif.g08.bks.cpg/sg18_2_cif.got.tgz:3406.got - 2010.06.03 22:40:56.
