data_PCOD9312890
_publ_section_title
;
Structure prediction by ZEFSAII (Michael W. Deem and Ramdas Pophale) SiO2 
 PCOD9312890
Probable space group: P 21 21 2
;
_chemical_formula_sum "Si O2"
_cell_formula_units_Z 24
_cell_length_a 9.089298
_cell_length_b 9.702326
_cell_length_c 12.821755
_cell_angle_alpha 90.000000
_cell_angle_beta 90.000000
_cell_angle_gamma 90.000000
_cell_volume 1130.716369
_symmetry_space_group_name_H-M "P 21 21 2"
_symmetry_group_IT_number 18
_symmetry_cell_setting 'orthorhombic'
loop_
_space_group_symop_operation_xyz
x,y,z
-x,-y,z
1/2+x,1/2-y,-z
1/2-x,1/2+y,-z
loop_
_atom_site_type_symbol
_atom_site_label
_atom_site_fract_x
_atom_site_fract_y
_atom_site_fract_z
Si Si1 0.135215 0.100723 0.068972
Si Si2 0.368011 0.247404 0.425042
Si Si3 0.337489 0.537757 0.694970
Si Si4 0.169319 0.980572 0.743104
Si Si5 0.146748 0.417188 0.055851
Si Si6 0.791456 0.733022 0.640492
O O1 0.125085 0.256527 0.024912
O O2 0.139247 0.111444 0.194448
O O3 0.000000 0.000000 0.041819
O O4 0.274343 0.014426 0.028949
O O5 0.328341 0.381392 0.356937
O O6 0.321928 0.266924 0.544183
O O7 0.541591 0.222253 0.404262
O O8 0.263330 0.126988 0.381170
O O9 0.500000 0.500000 0.653328
O O10 0.249147 0.396473 0.711277
O O11 0.254582 0.919292 0.840299
O O12 0.225951 0.128551 0.706311
O O13 0.000000 0.000000 0.774043
O O14 0.000000 0.500000 0.082341
#
# Coordination Sequence:
#
# PCOD9312890 Si02
#       6
#     4   4   4   4   4   4
#     4  11  26  47  69 101 140 175 225 281 342 411
#     4  11  22  44  62 100 132 177 228 277 345 397
#     4  11  24  42  66  95 136 175 224 279 334 401
#     4  10  24  43  65  95 135 173 222 276 338 402
#     4  12  26  44  74 101 134 177 226 280 344 410
#     4  11  24  38  70  94 135 179 223 283 335 411
#
# _framework density 21.225480000000001
#
# number of rings (size 3 to 8) (size 9 to 14) (size 15 to 20)
#    0.000    1.000    1.667    4.000    7.000    4.000 
#    0.000    0.000    0.000    0.000    0.000    0.000 
#    0.000    0.000    0.000    0.000    0.000    0.000 
#
# Total GULP energy -134194.937633 kJ/mol
# GULP energy per Si atom -5591.455735 kJ/mol
# Density = 2.117717 g / cm^3
# Si number density = 21.225480 Si / 1000 Ang^3
#
#
#
# Elastic Constant Matrix: (Units=GPa)
#
#
# Indices 1 2 3 4 5 6 
#
# 1 50.4010 39.8859 0.3507 0.0000 0.0000 0.0000
# 2 39.8859 157.5950 6.9750 0.0000 0.0000 0.0000
# 3 0.3507 6.9750 27.9184 0.0000 0.0000 0.0000
# 4 0.0000 0.0000 0.0000 17.3110 0.0000 0.0000
# 5 0.0000 0.0000 0.0000 0.0000 19.5060 0.0000
# 6 0.0000 0.0000 0.0000 0.0000 0.0000 26.8176
#
#
#
# Elastic Compliance Matrix: (Units=1/GPa)
#
#
# Indices 1 2 3 4 5 6 
#
# 1 0.024855 -0.006347 0.001273 0.000000 0.000000 0.000000
# 2 -0.006347 0.008037 -0.001928 0.000000 0.000000 0.000000
# 3 0.001273 -0.001928 0.036284 0.000000 0.000000 0.000000
# 4 0.000000 0.000000 0.000000 0.057767 0.000000 0.000000
# 5 0.000000 0.000000 0.000000 0.000000 0.051266 0.000000
# 6 0.000000 0.000000 0.000000 0.000000 0.000000 0.037289
#
#
# Mechanical properties :
#
#
# Convention : Reuss Voigt Hill
#
# Bulk Modulus (GPa) = 18.12480 36.70419 27.41450
# Shear Modulus (GPa) = 20.17003 25.30710 22.73856
#
# Velocity S-wave (km/s) = 3.08600 3.45671 3.27660
# Velocity P-wave (km/s) = 4.61037 5.76731 5.22099
#
# Compressibility (1/GPa) = 0.05517301
#
# Stress axis : x y z
#
# Youngs Moduli (GPa) = 40.23374 124.42351 27.56000
#
# Poissons Ratio (x) = 0.78970 -0.03510
# Poissons Ratio (y) = 0.25536 0.05314
# Poissons Ratio (z) = -0.05124 0.23992
#
# Static dielectric constant tensor:
#      x y z
#    x 1.793400 0.000000 0.000000 
#    y 0.000000 1.803110 0.000000 
#    z 0.000000 0.000000 1.733560 
# 
# From -- ./inp_files/6658.got.cif
#   From: 2010.05.17/outbox.cif.g08.bks.cpg/sg18_4_cif.got.tgz:6658.got - 2010.06.03 22:40:56.
