data_PCOD9312618
_publ_section_title
;
Structure prediction by ZEFSAII (Michael W. Deem and Ramdas Pophale) SiO2 
 PCOD9312618
Probable space group: P 21 21 2
;
_chemical_formula_sum "Si O2"
_cell_formula_units_Z 24
_cell_length_a 9.228802
_cell_length_b 14.362415
_cell_length_c 7.999016
_cell_angle_alpha 90.000000
_cell_angle_beta 90.000000
_cell_angle_gamma 90.000000
_cell_volume 1060.252647
_symmetry_space_group_name_H-M "P 21 21 2"
_symmetry_group_IT_number 18
_symmetry_cell_setting 'orthorhombic'
loop_
_space_group_symop_operation_xyz
x,y,z
-x,-y,z
1/2+x,1/2-y,-z
1/2-x,1/2+y,-z
loop_
_atom_site_type_symbol
_atom_site_label
_atom_site_fract_x
_atom_site_fract_y
_atom_site_fract_z
Si Si1 0.093851 0.180270 0.328868
Si Si2 0.577653 0.709917 0.016454
Si Si3 0.701950 0.332249 0.165197
Si Si4 0.126259 0.687188 0.510809
Si Si5 0.500000 0.500000 0.498382
Si Si6 0.213041 0.954926 0.786477
Si Si7 0.000000 0.500000 0.408126
O O1 0.261428 0.211765 0.342323
O O2 0.015479 0.186642 0.150884
O O3 0.998123 0.242326 0.455524
O O4 0.084595 0.074263 0.391177
O O5 0.680004 0.794028 0.963857
O O6 0.448070 0.723051 0.148029
O O7 0.675311 0.624284 0.081173
O O8 0.769628 0.319306 0.347442
O O9 0.677547 0.442280 0.141408
O O10 0.059566 0.584047 0.520074
O O11 0.610642 0.553254 0.376245
O O12 0.375506 0.958801 0.713939
#
# Coordination Sequence:
#
# PCOD9312618 Si02
#       7
#     4   4   4   4   2   4   2
#     4  11  25  39  66 102 133 172 221 276 328 388
#     4  11  24  39  69  98 134 165 224 277 323 389
#     4  10  22  42  61  98 124 175 212 264 329 390
#     4  10  23  44  65  94 133 174 222 264 330 396
#     4  12  22  42  70  88 128 184 216 264 330 402
#     4  11  22  43  69  90 128 179 219 262 325 401
#     4  10  22  42  70  94 124 180 226 254 324 406
#
# _framework density 22.636112000000001
#
# number of rings (size 3 to 8) (size 9 to 14) (size 15 to 20)
#    0.000    1.333    5.000    0.000   11.667    1.333 
#    0.000    0.000    0.000    2.000    0.000    0.000 
#    0.000    0.000    0.000    0.000    0.000    0.000 
#
# Total GULP energy -134266.125665 kJ/mol
# GULP energy per Si atom -5594.421903 kJ/mol
# Density = 2.258459 g / cm^3
# Si number density = 22.636112 Si / 1000 Ang^3
#
#
#
# Elastic Constant Matrix: (Units=GPa)
#
#
# Indices 1 2 3 4 5 6 
#
# 1 116.2150 11.8798 4.8654 0.0000 0.0000 0.0000
# 2 11.8798 63.2931 9.9109 0.0000 0.0000 0.0000
# 3 4.8654 9.9109 63.2627 0.0000 0.0000 0.0000
# 4 0.0000 0.0000 0.0000 27.4083 0.0000 0.0000
# 5 0.0000 0.0000 0.0000 0.0000 37.9367 0.0000
# 6 0.0000 0.0000 0.0000 0.0000 0.0000 40.8714
#
#
#
# Elastic Compliance Matrix: (Units=1/GPa)
#
#
# Indices 1 2 3 4 5 6 
#
# 1 0.008784 -0.001582 -0.000428 0.000000 0.000000 0.000000
# 2 -0.001582 0.016482 -0.002460 0.000000 0.000000 0.000000
# 3 -0.000428 -0.002460 0.016225 0.000000 0.000000 0.000000
# 4 0.000000 0.000000 0.000000 0.036485 0.000000 0.000000
# 5 0.000000 0.000000 0.000000 0.000000 0.026360 0.000000
# 6 0.000000 0.000000 0.000000 0.000000 0.000000 0.024467
#
#
# Mechanical properties :
#
#
# Convention : Reuss Voigt Hill
#
# Bulk Modulus (GPa) = 30.72052 32.89809 31.80930
# Shear Modulus (GPa) = 33.64876 35.65094 34.64985
#
# Velocity S-wave (km/s) = 3.85971 3.97288 3.91670
# Velocity P-wave (km/s) = 5.78481 5.96741 5.87682
#
# Compressibility (1/GPa) = 0.03255154
#
# Stress axis : x y z
#
# Youngs Moduli (GPa) = 113.83891 60.67342 61.63153
#
# Poissons Ratio (x) = 0.09597 0.02636
# Poissons Ratio (y) = 0.18007 0.15164
# Poissons Ratio (z) = 0.04870 0.14928
#
# Static dielectric constant tensor:
#      x y z
#    x 1.882530 0.000000 0.000000 
#    y 0.000000 1.820300 0.000000 
#    z 0.000000 0.000000 1.880800 
# 
# From -- ./inp_files/3192.got.cif
#   From: 2010.05.17/outbox.cif.g08.bks.cpg/sg18_2_cif.got.tgz:3192.got - 2010.06.03 22:40:56.
