data_PCOD9312195
_publ_section_title
;
Structure prediction by ZEFSAII (Michael W. Deem and Ramdas Pophale) SiO2 
 PCOD9312195
Probable space group: P 21 21 2
;
_chemical_formula_sum "Si O2"
_cell_formula_units_Z 30
_cell_length_a 4.903096
_cell_length_b 16.941368
_cell_length_c 15.060714
_cell_angle_alpha 90.000000
_cell_angle_beta 90.000000
_cell_angle_gamma 90.000000
_cell_volume 1251.020523
_symmetry_space_group_name_H-M "P 21 21 2"
_symmetry_group_IT_number 18
_symmetry_cell_setting 'orthorhombic'
loop_
_space_group_symop_operation_xyz
x,y,z
-x,-y,z
1/2+x,1/2-y,-z
1/2-x,1/2+y,-z
loop_
_atom_site_type_symbol
_atom_site_label
_atom_site_fract_x
_atom_site_fract_y
_atom_site_fract_z
Si Si1 0.907344 0.908013 0.795623
Si Si2 0.230137 0.287278 0.963500
Si Si3 0.930746 0.140389 0.263460
Si Si4 0.446089 0.238062 0.223519
Si Si5 0.500000 0.500000 0.870606
Si Si6 0.756886 0.441254 0.387067
Si Si7 0.868720 0.423869 0.024488
Si Si8 0.757050 0.941302 0.425826
O O1 0.095349 0.832502 0.770885
O O2 0.709893 0.902882 0.709622
O O3 0.795509 0.888137 0.893400
O O4 0.000000 0.000000 0.802688
O O5 0.113503 0.277933 0.866215
O O6 0.548008 0.272442 0.976460
O O7 0.122860 0.370751 0.996823
O O8 0.153146 0.198462 0.220940
O O9 0.108606 0.106641 0.345568
O O10 0.656275 0.189370 0.288403
O O11 0.875432 0.066805 0.195736
O O12 0.705335 0.454339 0.937837
O O13 0.500000 0.500000 0.376384
O O14 0.767637 0.393714 0.480364
O O15 0.000000 0.500000 0.401284
O O16 0.000000 0.500000 0.068856
O O17 0.500000 0.000000 0.403120
O O18 0.000000 0.000000 0.448961
#
# Coordination Sequence:
#
# PCOD9312195 Si02
#       8
#     4   4   4   4   2   4   4   4
#     4  11  25  45  69  95 134 180 238 289 339 408
#     4  12  26  45  66  91 134 183 227 280 343 404
#     4  12  26  44  69 101 141 173 226 279 347 415
#     4  12  27  44  65  99 137 181 225 285 346 400
#     4  12  26  42  64 100 138 176 222 286 340 412
#     4   9  20  40  67 100 132 172 224 278 338 404
#     4  12  26  39  68  94 130 176 233 278 335 400
#     4  10  20  40  72 103 134 177 221 270 341 415
#
# _framework density 23.980422000000001
#
# number of rings (size 3 to 8) (size 9 to 14) (size 15 to 20)
#    0.000    0.800    4.000    2.800    3.733    2.133 
#    0.000    1.333    0.000    0.000    0.000    0.000 
#    0.000    0.000    0.000    0.000    0.000    0.000 
#
# Total GULP energy -167273.749251 kJ/mol
# GULP energy per Si atom -5575.791642 kJ/mol
# Density = 2.392584 g / cm^3
# Si number density = 23.980422 Si / 1000 Ang^3
#
#
#
# Elastic Constant Matrix: (Units=GPa)
#
#
# Indices 1 2 3 4 5 6 
#
# 1 98.8059 12.3634 3.7495 0.0000 0.0000 0.0000
# 2 12.3634 120.3724 5.6885 0.0000 0.0000 0.0000
# 3 3.7495 5.6885 128.5879 0.0000 0.0000 0.0000
# 4 0.0000 0.0000 0.0000 19.3317 0.0000 0.0000
# 5 0.0000 0.0000 0.0000 0.0000 15.5830 0.0000
# 6 0.0000 0.0000 0.0000 0.0000 0.0000 33.5200
#
#
#
# Elastic Compliance Matrix: (Units=1/GPa)
#
#
# Indices 1 2 3 4 5 6 
#
# 1 0.010261 -0.001042 -0.000253 0.000000 0.000000 0.000000
# 2 -0.001042 0.008431 -0.000343 0.000000 0.000000 0.000000
# 3 -0.000253 -0.000343 0.007799 0.000000 0.000000 0.000000
# 4 0.000000 0.000000 0.000000 0.051729 0.000000 0.000000
# 5 0.000000 0.000000 0.000000 0.000000 0.064173 0.000000
# 6 0.000000 0.000000 0.000000 0.000000 0.000000 0.029833
#
#
# Mechanical properties :
#
#
# Convention : Reuss Voigt Hill
#
# Bulk Modulus (GPa) = 43.07432 43.48545 43.27988
# Shear Modulus (GPa) = 27.28681 35.41792 31.35236
#
# Velocity S-wave (km/s) = 3.37691 3.84728 3.61974
# Velocity P-wave (km/s) = 5.76246 6.15699 5.96299
#
# Compressibility (1/GPa) = 0.02321569
#
# Stress axis : x y z
#
# Youngs Moduli (GPa) = 97.45797 118.61326 128.21635
#
# Poissons Ratio (x) = 0.12359 0.03245
# Poissons Ratio (y) = 0.10154 0.04392
# Poissons Ratio (z) = 0.02467 0.04063
#
# Static dielectric constant tensor:
#      x y z
#    x 1.924280 0.000000 0.000000 
#    y 0.000000 2.004040 0.000000 
#    z 0.000000 0.000000 2.088300 
# 
# From -- ./inp_files/6540.got.cif
#   From: 2010.05.17/outbox.cif.g08.bks.cpg/sg18_4_cif.got.tgz:6540.got - 2010.06.03 22:40:56.
