data_PCOD9312201
_publ_section_title
;
Structure prediction by ZEFSAII (Michael W. Deem and Ramdas Pophale) SiO2 
 PCOD9312201
Probable space group: P 21 21 2
;
_chemical_formula_sum "Si O2"
_cell_formula_units_Z 30
_cell_length_a 18.664763
_cell_length_b 13.249376
_cell_length_c 5.719104
_cell_angle_alpha 90.000000
_cell_angle_beta 90.000000
_cell_angle_gamma 90.000000
_cell_volume 1414.314190
_symmetry_space_group_name_H-M "P 21 21 2"
_symmetry_group_IT_number 18
_symmetry_cell_setting 'orthorhombic'
loop_
_space_group_symop_operation_xyz
x,y,z
-x,-y,z
1/2+x,1/2-y,-z
1/2-x,1/2+y,-z
loop_
_atom_site_type_symbol
_atom_site_label
_atom_site_fract_x
_atom_site_fract_y
_atom_site_fract_z
Si Si1 0.825240 0.848783 0.944737
Si Si2 0.000000 0.500000 0.387176
Si Si3 0.806681 0.260221 0.323675
Si Si4 0.733095 0.548361 0.912062
Si Si5 0.876954 0.569456 0.670278
Si Si6 0.281261 0.815061 0.702807
Si Si7 0.463104 0.737380 0.230269
Si Si8 0.473005 0.219160 0.740378
O O1 0.825495 0.753478 0.119023
O O2 0.751776 0.831025 0.801724
O O3 0.817528 0.952397 0.083799
O O4 0.895534 0.838670 0.786593
O O5 0.928803 0.491256 0.545236
O O6 0.004401 0.394784 0.253076
O O7 0.780189 0.254064 0.589880
O O8 0.887407 0.288591 0.277603
O O9 0.795075 0.145141 0.230923
O O10 0.743586 0.591954 0.170712
O O11 0.813500 0.523632 0.823768
O O12 0.834859 0.639305 0.484778
O O13 0.929585 0.650067 0.787014
O O14 0.499807 0.734153 0.489035
O O15 0.507288 0.726097 0.986478
#
# Coordination Sequence:
#
# PCOD9312201 Si02
#       8
#     4   2   4   4   4   4   4   4
#     4  11  22  38  71  95 123 179 228 272 341 396
#     4  10  24  36  62 100 136 174 212 264 356 424
#     4  10  24  42  63  98 129 175 222 283 332 398
#     4  10  23  38  68  92 129 167 239 276 324 400
#     4  10  21  41  57  98 133 171 207 278 335 412
#     4  10  20  41  64  89 136 163 221 281 327 394
#     4  11  23  45  65  93 136 180 212 274 348 400
#     4  11  27  42  68  96 142 176 220 277 346 406
#
# _framework density 21.211693
#
# number of rings (size 3 to 8) (size 9 to 14) (size 15 to 20)
#    0.000    1.600    4.000    1.600    7.467    4.267 
#    0.000    0.667    0.000    0.000    0.000    0.000 
#    0.000    0.000    0.000    0.000    0.000    0.000 
#
# Total GULP energy -167358.189306 kJ/mol
# GULP energy per Si atom -5578.606310 kJ/mol
# Density = 2.116341 g / cm^3
# Si number density = 21.211693 Si / 1000 Ang^3
#
#
#
# Elastic Constant Matrix: (Units=GPa)
#
#
# Indices 1 2 3 4 5 6 
#
# 1 84.3634 -8.2745 36.0969 0.0000 0.0000 0.0000
# 2 -8.2745 35.7908 -9.0063 0.0000 0.0000 0.0000
# 3 36.0969 -9.0063 94.9986 0.0000 0.0000 0.0000
# 4 0.0000 0.0000 0.0000 -2.1502 0.0000 0.0000
# 5 0.0000 0.0000 0.0000 0.0000 28.7798 0.0000
# 6 0.0000 0.0000 0.0000 0.0000 0.0000 26.1569
#
#
#
# Elastic Compliance Matrix: (Units=1/GPa)
#
#
# Indices 1 2 3 4 5 6 
#
# 1 0.014291 0.001985 -0.005242 0.000000 0.000000 0.000000
# 2 0.001985 0.028899 0.001986 0.000000 0.000000 0.000000
# 3 -0.005242 0.001986 0.012707 0.000000 0.000000 0.000000
# 4 0.000000 0.000000 0.000000 -0.465084 0.000000 0.000000
# 5 0.000000 0.000000 0.000000 0.000000 0.034747 0.000000
# 6 0.000000 0.000000 0.000000 0.000000 0.000000 0.038231
#
#
# Mechanical properties :
#
#
# Convention : Reuss Voigt Hill
#
# Bulk Modulus (GPa) = 18.74308 28.08721 23.41515
# Shear Modulus (GPa) = -15.82869 23.64642 3.90886
#
# Velocity S-wave (km/s) = -2.73467 3.34246 1.35897
# Velocity P-wave (km/s) = 1.05635 5.30718 3.67765
#
# Compressibility (1/GPa) = 0.05335303
#
# Stress axis : x y z
#
# Youngs Moduli (GPa) = 69.97364 34.60364 78.69953
#
# Poissons Ratio (x) = -0.06868 0.41255
# Poissons Ratio (y) = -0.13889 -0.15626
# Poissons Ratio (z) = 0.36681 -0.06871
#
# Static dielectric constant tensor:
#      x y z
#    x 1.809830 0.000000 0.000000 
#    y 0.000000 1.760270 0.000000 
#    z 0.000000 0.000000 1.872100 
# 
# From -- ./inp_files/1618.got.cif
#   From: 2010.05.17/outbox.cif.g08.bks.cpg/sg18_1_cif.got.tgz:1618.got - 2010.06.03 22:40:56.
