data_PCOD9312984
_publ_section_title
;
Structure prediction by ZEFSAII (Michael W. Deem and Ramdas Pophale) SiO2 
 PCOD9312984
Probable space group: P 21 21 2
;
_chemical_formula_sum "Si O2"
_cell_formula_units_Z 24
_cell_length_a 19.973542
_cell_length_b 8.759632
_cell_length_c 5.375462
_cell_angle_alpha 90.000000
_cell_angle_beta 90.000000
_cell_angle_gamma 90.000000
_cell_volume 940.495549
_symmetry_space_group_name_H-M "P 21 21 2"
_symmetry_group_IT_number 18
_symmetry_cell_setting 'orthorhombic'
loop_
_space_group_symop_operation_xyz
x,y,z
-x,-y,z
1/2+x,1/2-y,-z
1/2-x,1/2+y,-z
loop_
_atom_site_type_symbol
_atom_site_label
_atom_site_fract_x
_atom_site_fract_y
_atom_site_fract_z
Si Si1 0.500000 0.000000 0.387002
Si Si2 0.736066 0.043401 0.265064
Si Si3 0.131722 0.656061 0.524187
Si Si4 0.573852 0.257550 0.078800
Si Si5 0.370136 0.511075 0.481145
Si Si6 0.500000 0.500000 0.822406
Si Si7 0.813433 0.603047 0.232335
O O1 0.555150 0.895702 0.520573
O O2 0.454090 0.884223 0.232299
O O3 0.804243 0.964824 0.350011
O O4 0.715514 0.150609 0.498705
O O5 0.671897 0.931708 0.258506
O O6 0.737948 0.116675 0.994657
O O7 0.135133 0.832462 0.584498
O O8 0.170698 0.576266 0.293210
O O9 0.616497 0.374391 0.252411
O O10 0.508708 0.351376 0.991527
O O11 0.619960 0.190396 0.857332
O O12 0.435214 0.512076 0.653723
#
# Coordination Sequence:
#
# PCOD9312984 Si02
#       7
#     2   4   4   4   4   2   4
#     4  12  24  50  82 104 166 210 288 330 418 506
#     4  10  26  51  79 116 157 214 270 339 412 499
#     4  10  26  46  79 113 155 214 273 332 418 487
#     4  12  28  49  79 119 165 221 281 349 416 505
#     4  12  29  51  77 120 169 207 281 352 418 493
#     4  12  30  44  78 118 166 218 274 348 432 472
#     4  10  25  50  80 117 154 216 277 322 422 492
#
# _framework density 25.518462
#
# number of rings (size 3 to 8) (size 9 to 14) (size 15 to 20)
#    1.000    0.000    1.667    2.500   14.000    1.333 
#    0.000    0.000    0.000    0.000    0.000    0.000 
#    0.000    0.000    0.000    0.000    0.000    0.000 
#
# Total GULP energy -134118.769363 kJ/mol
# GULP energy per Si atom -5588.282057 kJ/mol
# Density = 2.546038 g / cm^3
# Si number density = 25.518462 Si / 1000 Ang^3
#
#
#
# Elastic Constant Matrix: (Units=GPa)
#
#
# Indices 1 2 3 4 5 6 
#
# 1 119.8726 27.5118 21.8018 0.0000 0.0000 0.0000
# 2 27.5118 127.0498 38.1539 0.0000 0.0000 0.0000
# 3 21.8018 38.1539 138.3049 0.0000 0.0000 0.0000
# 4 0.0000 0.0000 0.0000 24.0955 0.0000 0.0000
# 5 0.0000 0.0000 0.0000 0.0000 28.6145 0.0000
# 6 0.0000 0.0000 0.0000 0.0000 0.0000 41.4403
#
#
#
# Elastic Compliance Matrix: (Units=1/GPa)
#
#
# Indices 1 2 3 4 5 6 
#
# 1 0.008891 -0.001640 -0.000949 0.000000 0.000000 0.000000
# 2 -0.001640 0.008885 -0.002192 0.000000 0.000000 0.000000
# 3 -0.000949 -0.002192 0.007985 0.000000 0.000000 0.000000
# 4 0.000000 0.000000 0.000000 0.041502 0.000000 0.000000
# 5 0.000000 0.000000 0.000000 0.000000 0.034947 0.000000
# 6 0.000000 0.000000 0.000000 0.000000 0.000000 0.024131
#
#
# Mechanical properties :
#
#
# Convention : Reuss Voigt Hill
#
# Bulk Modulus (GPa) = 61.73965 62.24025 61.98995
# Shear Modulus (GPa) = 35.38491 38.68070 37.03281
#
# Velocity S-wave (km/s) = 3.72780 3.89754 3.81362
# Velocity P-wave (km/s) = 6.54028 6.68563 6.61336
#
# Compressibility (1/GPa) = 0.01619705
#
# Stress axis : x y z
#
# Youngs Moduli (GPa) = 112.46980 112.55530 125.23769
#
# Poissons Ratio (x) = 0.18463 0.11886
# Poissons Ratio (y) = 0.18449 0.27457
# Poissons Ratio (z) = 0.10674 0.24676
#
# Static dielectric constant tensor:
#      x y z
#    x 1.997100 0.000000 0.000000 
#    y 0.000000 2.119220 0.000000 
#    z 0.000000 0.000000 2.088650 
# 
# From -- ./inp_files/2085.got.cif
#   From: 2010.05.17/outbox.cif.g08.bks.cpg/sg18_2_cif.got.tgz:2085.got - 2010.06.03 22:40:56.
