data_PCOD9312767
_publ_section_title
;
Structure prediction by ZEFSAII (Michael W. Deem and Ramdas Pophale) SiO2 
 PCOD9312767
Probable space group: P 21 21 2
;
_chemical_formula_sum "Si O2"
_cell_formula_units_Z 20
_cell_length_a 9.089527
_cell_length_b 8.235323
_cell_length_c 12.383010
_cell_angle_alpha 90.000000
_cell_angle_beta 90.000000
_cell_angle_gamma 90.000000
_cell_volume 926.932576
_symmetry_space_group_name_H-M "P 21 21 2"
_symmetry_group_IT_number 18
_symmetry_cell_setting 'orthorhombic'
loop_
_space_group_symop_operation_xyz
x,y,z
-x,-y,z
1/2+x,1/2-y,-z
1/2-x,1/2+y,-z
loop_
_atom_site_type_symbol
_atom_site_label
_atom_site_fract_x
_atom_site_fract_y
_atom_site_fract_z
Si Si1 0.593336 0.659085 0.694028
Si Si2 0.825972 0.486738 0.568605
Si Si3 0.309754 0.851908 0.650802
Si Si4 0.576768 0.743961 0.935075
Si Si5 0.726862 0.088020 0.898130
O O1 0.500000 0.500000 0.663492
O O2 0.745313 0.631948 0.633419
O O3 0.483672 0.806015 0.664366
O O4 0.616350 0.658474 0.822202
O O5 0.770744 0.314331 0.614012
O O6 0.786017 0.519246 0.443797
O O7 0.000000 0.500000 0.580731
O O8 0.256908 0.906012 0.768892
O O9 0.404701 0.786825 0.929066
O O10 0.664710 0.913878 0.932825
O O11 0.630169 0.641325 0.036485
#
# Coordination Sequence:
#
# PCOD9312767 Si02
#       5
#     4   4   4   4   4
#     4   9  21  41  64  88 127 170 205 250 318 369
#     4  11  23  38  66  90 126 160 212 255 301 365
#     4  10  23  41  64  92 125 166 205 250 317 375
#     4  10  23  41  66  90 125 163 209 259 310 375
#     4  10  24  41  65  93 123 164 211 252 319 374
#
# _framework density 21.576542
#
# number of rings (size 3 to 8) (size 9 to 14) (size 15 to 20)
#    0.000    2.000    0.000    1.200   16.800    1.600 
#    0.000    0.000    4.400    0.000    0.000    0.000 
#    0.000    0.000    0.000    0.000    0.000    0.000 
#
# Total GULP energy -111823.267962 kJ/mol
# GULP energy per Si atom -5591.163398 kJ/mol
# Density = 2.152743 g / cm^3
# Si number density = 21.576542 Si / 1000 Ang^3
#
#
#
# Elastic Constant Matrix: (Units=GPa)
#
#
# Indices 1 2 3 4 5 6 
#
# 1 78.1878 14.6539 52.3670 0.0000 0.0000 0.0000
# 2 14.6539 47.5671 11.8284 0.0000 0.0000 0.0000
# 3 52.3670 11.8284 103.0511 0.0000 0.0000 0.0000
# 4 0.0000 0.0000 0.0000 38.1988 0.0000 0.0000
# 5 0.0000 0.0000 0.0000 0.0000 28.8295 0.0000
# 6 0.0000 0.0000 0.0000 0.0000 0.0000 26.5407
#
#
#
# Elastic Compliance Matrix: (Units=1/GPa)
#
#
# Indices 1 2 3 4 5 6 
#
# 1 0.020016 -0.003744 -0.009742 0.000000 0.000000 0.000000
# 2 -0.003744 0.022341 -0.000662 0.000000 0.000000 0.000000
# 3 -0.009742 -0.000662 0.014730 0.000000 0.000000 0.000000
# 4 0.000000 0.000000 0.000000 0.026179 0.000000 0.000000
# 5 0.000000 0.000000 0.000000 0.000000 0.034687 0.000000
# 6 0.000000 0.000000 0.000000 0.000000 0.000000 0.037678
#
#
# Mechanical properties :
#
#
# Convention : Reuss Voigt Hill
#
# Bulk Modulus (GPa) = 34.73140 42.94494 38.83817
# Shear Modulus (GPa) = 25.83676 28.71092 27.27384
#
# Velocity S-wave (km/s) = 3.46417 3.65177 3.55921
# Velocity P-wave (km/s) = 5.66854 6.14226 5.91015
#
# Compressibility (1/GPa) = 0.02879239
#
# Stress axis : x y z
#
# Youngs Moduli (GPa) = 49.96013 44.76104 67.88736
#
# Poissons Ratio (x) = 0.16758 0.66134
# Poissons Ratio (y) = 0.18704 0.04493
# Poissons Ratio (z) = 0.48670 0.02962
#
# Static dielectric constant tensor:
#      x y z
#    x 1.775380 0.000000 0.000000 
#    y 0.000000 1.820960 0.000000 
#    z 0.000000 0.000000 1.753240 
# 
# From -- ./inp_files/5396.got.cif
#   From: 2010.05.17/outbox.cif.g08.bks.cpg/sg18_3_cif.got.tgz:5396.got - 2010.06.03 22:40:56.
