data_PCOD9312873
_publ_section_title
;
Structure prediction by ZEFSAII (Michael W. Deem and Ramdas Pophale) SiO2 
 PCOD9312873
Probable space group: P 21 21 2
;
_chemical_formula_sum "Si O2"
_cell_formula_units_Z 24
_cell_length_a 12.090096
_cell_length_b 8.419711
_cell_length_c 10.620367
_cell_angle_alpha 90.000000
_cell_angle_beta 90.000000
_cell_angle_gamma 90.000000
_cell_volume 1081.101472
_symmetry_space_group_name_H-M "P 21 21 2"
_symmetry_group_IT_number 18
_symmetry_cell_setting 'orthorhombic'
loop_
_space_group_symop_operation_xyz
x,y,z
-x,-y,z
1/2+x,1/2-y,-z
1/2-x,1/2+y,-z
loop_
_atom_site_type_symbol
_atom_site_label
_atom_site_fract_x
_atom_site_fract_y
_atom_site_fract_z
Si Si1 0.371643 0.537291 0.530128
Si Si2 0.631863 0.015885 0.105113
Si Si3 0.927243 0.738302 0.691105
Si Si4 0.000000 0.000000 0.886308
Si Si5 0.000000 0.500000 0.502653
Si Si6 0.284781 0.342908 0.095595
Si Si7 0.787234 0.651527 0.376582
O O1 0.500000 0.500000 0.557630
O O2 0.367881 0.643346 0.402989
O O3 0.300519 0.386472 0.487741
O O4 0.320342 0.662253 0.627485
O O5 0.646641 0.108934 0.237205
O O6 0.500000 0.000000 0.092061
O O7 0.682730 0.841332 0.097308
O O8 0.682783 0.121910 0.994952
O O9 0.013495 0.645932 0.601039
O O10 0.980264 0.848187 0.796917
O O11 0.887687 0.049963 0.954681
O O12 0.104389 0.449659 0.418484
O O13 0.257035 0.392442 0.238807
#
# Coordination Sequence:
#
# PCOD9312873 Si02
#       7
#     4   4   4   2   2   4   4
#     4  11  25  42  71 104 142 188 245 295 364 437
#     4  12  27  46  76 101 142 194 251 303 364 428
#     4  11  20  42  72 101 134 184 245 291 353 443
#     4  12  20  42  74 100 142 182 246 290 352 442
#     4  10  24  42  66 102 144 192 232 294 364 422
#     4  12  27  47  71 108 147 197 247 308 363 430
#     4  11  27  42  72 102 151 185 244 303 368 427
#
# _framework density 22.199580999999998
#
# number of rings (size 3 to 8) (size 9 to 14) (size 15 to 20)
#    0.000    0.667    5.000    1.000   12.833    0.000 
#    0.000    1.667    0.000    0.000    0.000    0.000 
#    0.000    0.000    0.000    0.000    0.000    0.000 
#
# Total GULP energy -134092.849966 kJ/mol
# GULP energy per Si atom -5587.202082 kJ/mol
# Density = 2.214905 g / cm^3
# Si number density = 22.199581 Si / 1000 Ang^3
#
#
#
# Elastic Constant Matrix: (Units=GPa)
#
#
# Indices 1 2 3 4 5 6 
#
# 1 69.3223 27.7406 -0.0175 0.0000 0.0000 0.0000
# 2 27.7406 117.9346 10.6859 0.0000 0.0000 0.0000
# 3 -0.0175 10.6859 36.4489 0.0000 0.0000 0.0000
# 4 0.0000 0.0000 0.0000 34.4362 0.0000 0.0000
# 5 0.0000 0.0000 0.0000 0.0000 22.3605 0.0000
# 6 0.0000 0.0000 0.0000 0.0000 0.0000 47.4989
#
#
#
# Elastic Compliance Matrix: (Units=1/GPa)
#
#
# Indices 1 2 3 4 5 6 
#
# 1 0.015970 -0.003860 0.001139 0.000000 0.000000 0.000000
# 2 -0.003860 0.009644 -0.002829 0.000000 0.000000 0.000000
# 3 0.001139 -0.002829 0.028266 0.000000 0.000000 0.000000
# 4 0.000000 0.000000 0.000000 0.029039 0.000000 0.000000
# 5 0.000000 0.000000 0.000000 0.000000 0.044722 0.000000
# 6 0.000000 0.000000 0.000000 0.000000 0.000000 0.021053
#
#
# Mechanical properties :
#
#
# Convention : Reuss Voigt Hill
#
# Bulk Modulus (GPa) = 23.37532 33.39154 28.38343
# Shear Modulus (GPa) = 28.72696 33.21224 30.96960
#
# Velocity S-wave (km/s) = 3.60117 3.87211 3.73909
# Velocity P-wave (km/s) = 5.27671 5.92158 5.60842
#
# Compressibility (1/GPa) = 0.04278016
#
# Stress axis : x y z
#
# Youngs Moduli (GPa) = 62.61656 103.69666 35.37868
#
# Poissons Ratio (x) = 0.40024 -0.04031
# Poissons Ratio (y) = 0.24168 0.10009
# Poissons Ratio (z) = -0.07134 0.29337
#
# Static dielectric constant tensor:
#      x y z
#    x 1.851570 0.000000 0.000000 
#    y 0.000000 1.894170 0.000000 
#    z 0.000000 0.000000 1.788510 
# 
# From -- ./inp_files/5854.got.cif
#   From: 2010.05.17/outbox.cif.g08.bks.cpg/sg18_3_cif.got.tgz:5854.got - 2010.06.03 22:40:56.
