data_PCOD9312914
_publ_section_title
;
Structure prediction by ZEFSAII (Michael W. Deem and Ramdas Pophale) SiO2 
 PCOD9312914
Probable space group: P 21 21 2
;
_chemical_formula_sum "Si O2"
_cell_formula_units_Z 28
_cell_length_a 13.890196
_cell_length_b 10.782618
_cell_length_c 7.756324
_cell_angle_alpha 90.000000
_cell_angle_beta 90.000000
_cell_angle_gamma 90.000000
_cell_volume 1161.685412
_symmetry_space_group_name_H-M "P 21 21 2"
_symmetry_group_IT_number 18
_symmetry_cell_setting 'orthorhombic'
loop_
_space_group_symop_operation_xyz
x,y,z
-x,-y,z
1/2+x,1/2-y,-z
1/2-x,1/2+y,-z
loop_
_atom_site_type_symbol
_atom_site_label
_atom_site_fract_x
_atom_site_fract_y
_atom_site_fract_z
Si Si1 0.943764 0.876462 0.083936
Si Si2 0.756236 0.867713 0.868604
Si Si3 0.488048 0.313143 0.537571
Si Si4 0.821926 0.111661 0.688197
Si Si5 0.590192 0.927895 0.443958
Si Si6 0.318724 0.815677 0.411663
Si Si7 0.415510 0.195404 0.078584
O O1 0.970749 0.863858 0.284633
O O2 0.988973 0.754239 0.997314
O O3 0.000000 0.000000 0.020718
O O4 0.833610 0.880355 0.024021
O O5 0.773293 0.741559 0.760445
O O6 0.778554 0.980553 0.739776
O O7 0.649726 0.876692 0.943992
O O8 0.419316 0.402753 0.425844
O O9 0.413368 0.196512 0.557908
O O10 0.580645 0.257023 0.438747
O O11 0.746641 0.196342 0.582221
O O12 0.851185 0.187967 0.857250
O O13 0.567010 0.880426 0.251623
O O14 0.500000 0.000000 0.520807
O O15 0.668038 0.034915 0.412069
#
# Coordination Sequence:
#
# PCOD9312914 Si02
#       7
#     4   4   4   4   4   4   4
#     4  12  25  45  70 107 143 187 239 302 370 427
#     4  12  27  44  74 107 145 188 242 306 368 429
#     4  10  24  45  71  99 138 188 240 293 358 440
#     4  11  25  45  71 105 143 186 243 296 358 443
#     4   9  21  45  69  99 136 184 233 291 357 436
#     4  11  25  43  72  98 139 191 236 293 362 429
#     4  11  25  45  69 100 146 181 236 301 366 426
#
# _framework density 24.102913000000001
#
# number of rings (size 3 to 8) (size 9 to 14) (size 15 to 20)
#    0.000    1.143    1.429    4.286   10.000    1.143 
#    2.571    0.000    0.000    0.000    0.000    0.000 
#    0.000    0.000    0.000    0.000    0.000    0.000 
#
# Total GULP energy -156465.319929 kJ/mol
# GULP energy per Si atom -5588.047140 kJ/mol
# Density = 2.404805 g / cm^3
# Si number density = 24.102913 Si / 1000 Ang^3
#
#
#
# Elastic Constant Matrix: (Units=GPa)
#
#
# Indices 1 2 3 4 5 6 
#
# 1 68.4264 5.2665 20.0290 0.0000 0.0000 0.0000
# 2 5.2665 63.9853 9.7929 0.0000 0.0000 0.0000
# 3 20.0290 9.7929 91.8322 0.0000 0.0000 0.0000
# 4 0.0000 0.0000 0.0000 23.7771 0.0000 0.0000
# 5 0.0000 0.0000 0.0000 0.0000 47.0252 0.0000
# 6 0.0000 0.0000 0.0000 0.0000 0.0000 35.3332
#
#
#
# Elastic Compliance Matrix: (Units=1/GPa)
#
#
# Indices 1 2 3 4 5 6 
#
# 1 0.015649 -0.000778 -0.003330 0.000000 0.000000 0.000000
# 2 -0.000778 0.015927 -0.001529 0.000000 0.000000 0.000000
# 3 -0.003330 -0.001529 0.011779 0.000000 0.000000 0.000000
# 4 0.000000 0.000000 0.000000 0.042057 0.000000 0.000000
# 5 0.000000 0.000000 0.000000 0.000000 0.021265 0.000000
# 6 0.000000 0.000000 0.000000 0.000000 0.000000 0.028302
#
#
# Mechanical properties :
#
#
# Convention : Reuss Voigt Hill
#
# Bulk Modulus (GPa) = 31.17201 32.71343 31.94272
# Shear Modulus (GPa) = 31.85801 33.83744 32.84772
#
# Velocity S-wave (km/s) = 3.63953 3.75089 3.69563
# Velocity P-wave (km/s) = 5.53376 5.68866 5.61174
#
# Compressibility (1/GPa) = 0.03208006
#
# Stress axis : x y z
#
# Youngs Moduli (GPa) = 63.90222 62.78799 84.89863
#
# Poissons Ratio (x) = 0.04887 0.28272
# Poissons Ratio (y) = 0.04974 0.12978
# Poissons Ratio (z) = 0.21280 0.09598
#
# Static dielectric constant tensor:
#      x y z
#    x 1.950730 0.000000 0.000000 
#    y 0.000000 2.008350 0.000000 
#    z 0.000000 0.000000 1.903390 
# 
# From -- ./inp_files/4231.got.cif
#   From: 2010.05.17/outbox.cif.g08.bks.cpg/sg18_3_cif.got.tgz:4231.got - 2010.06.03 22:40:56.
