data_PCOD9312506
_publ_section_title
;
Structure prediction by ZEFSAII (Michael W. Deem and Ramdas Pophale) SiO2 
 PCOD9312506
Probable space group: P 21 21 2
;
_chemical_formula_sum "Si O2"
_cell_formula_units_Z 32
_cell_length_a 5.225536
_cell_length_b 31.378001
_cell_length_c 9.802518
_cell_angle_alpha 90.000000
_cell_angle_beta 90.000000
_cell_angle_gamma 90.000000
_cell_volume 1607.288232
_symmetry_space_group_name_H-M "P 21 21 2"
_symmetry_group_IT_number 18
_symmetry_cell_setting 'orthorhombic'
loop_
_space_group_symop_operation_xyz
x,y,z
-x,-y,z
1/2+x,1/2-y,-z
1/2-x,1/2+y,-z
loop_
_atom_site_type_symbol
_atom_site_label
_atom_site_fract_x
_atom_site_fract_y
_atom_site_fract_z
Si Si1 0.194586 0.353480 0.788033
Si Si2 0.371043 0.039297 0.372886
Si Si3 0.305829 0.353514 0.204953
Si Si4 0.750187 0.610285 0.496552
Si Si5 0.320906 0.094791 0.857773
Si Si6 0.871290 0.960696 0.633854
Si Si7 0.179326 0.094729 0.148949
Si Si8 0.271040 0.778498 0.001850
O O1 0.279367 0.358922 0.628905
O O2 0.409897 0.382119 0.860815
O O3 0.910375 0.372548 0.812639
O O4 0.210107 0.308249 0.863322
O O5 0.538580 0.077325 0.441216
O O6 0.249964 0.017022 0.503400
O O7 0.174459 0.061211 0.270978
O O8 0.500000 0.000000 0.295255
O O9 0.220585 0.358992 0.364034
O O10 0.590732 0.372269 0.180517
O O11 0.284581 0.308299 0.130046
O O12 0.091358 0.382379 0.132097
O O13 0.538971 0.577301 0.434482
O O14 0.325032 0.061307 0.735669
O O15 0.249633 0.075504 0.003260
O O16 0.000000 0.000000 0.711551
O O17 0.537540 0.754134 0.983240
#
# Coordination Sequence:
#
# PCOD9312506 Si02
#       8
#     4   4   4   4   4   4   4   4
#     4  11  22  40  65  93 122 161 210 253 301 391
#     4  11  21  36  58  90 128 167 215 266 310 351
#     4  11  22  40  65  93 122 161 210 253 301 391
#     4  10  22  38  62  88 120 170 214 248 304 364
#     4  11  21  39  62  90 123 170 215 255 303 366
#     4  11  21  36  58  90 128 167 215 266 310 351
#     4  11  21  39  62  90 123 170 215 255 303 366
#     4  12  24  42  66  98 126 158 196 258 328 380
#
# _framework density 19.909310999999999
#
# number of rings (size 3 to 8) (size 9 to 14) (size 15 to 20)
#    0.000    1.000    6.250    1.500    0.000    0.000 
#    0.000    7.500    0.000    0.000    0.000    0.000 
#    0.000    0.000    0.000    0.000    0.000    0.000 
#
# Total GULP energy -178251.168697 kJ/mol
# GULP energy per Si atom -5570.349022 kJ/mol
# Density = 1.986400 g / cm^3
# Si number density = 19.909311 Si / 1000 Ang^3
#
#
#
# Elastic Constant Matrix: (Units=GPa)
#
#
# Indices 1 2 3 4 5 6 
#
# 1 61.0612 -1.2631 -5.4387 0.0000 0.0000 0.0000
# 2 -1.2631 56.1444 22.9081 0.0000 0.0000 0.0000
# 3 -5.4387 22.9081 120.1090 0.0000 0.0000 0.0000
# 4 0.0000 0.0000 0.0000 37.0815 0.0000 0.0000
# 5 0.0000 0.0000 0.0000 0.0000 28.4134 0.0000
# 6 0.0000 0.0000 0.0000 0.0000 0.0000 25.1796
#
#
#
# Elastic Compliance Matrix: (Units=1/GPa)
#
#
# Indices 1 2 3 4 5 6 
#
# 1 0.016444 0.000072 0.000731 0.000000 0.000000 0.000000
# 2 0.000072 0.019315 -0.003681 0.000000 0.000000 0.000000
# 3 0.000731 -0.003681 0.009061 0.000000 0.000000 0.000000
# 4 0.000000 0.000000 0.000000 0.026968 0.000000 0.000000
# 5 0.000000 0.000000 0.000000 0.000000 0.035195 0.000000
# 6 0.000000 0.000000 0.000000 0.000000 0.000000 0.039715
#
#
# Mechanical properties :
#
#
# Convention : Reuss Voigt Hill
#
# Bulk Modulus (GPa) = 25.59960 29.96969 27.78465
# Shear Modulus (GPa) = 30.21641 32.87545 31.54593
#
# Velocity S-wave (km/s) = 3.90000 4.06798 3.98487
# Velocity P-wave (km/s) = 5.75899 6.09511 5.92943
#
# Compressibility (1/GPa) = 0.03906311
#
# Stress axis : x y z
#
# Youngs Moduli (GPa) = 60.81395 51.77438 110.36486
#
# Poissons Ratio (x) = -0.00371 -0.08067
# Poissons Ratio (y) = -0.00436 0.40621
# Poissons Ratio (z) = -0.04445 0.19056
#
# Static dielectric constant tensor:
#      x y z
#    x 1.745650 0.000000 0.000000 
#    y 0.000000 1.670970 0.000000 
#    z 0.000000 0.000000 1.733780 
# 
# From -- ./inp_files/2691.got.cif
#   From: 2010.05.17/outbox.cif.g08.bks.cpg/sg18_2_cif.got.tgz:2691.got - 2010.06.03 22:40:56.
