data_PCOD9312683
_publ_section_title
;
Structure prediction by ZEFSAII (Michael W. Deem and Ramdas Pophale) SiO2 
 PCOD9312683
Probable space group: P 21 21 2
;
_chemical_formula_sum "Si O2"
_cell_formula_units_Z 28
_cell_length_a 10.183227
_cell_length_b 21.681570
_cell_length_c 5.257435
_cell_angle_alpha 90.000000
_cell_angle_beta 90.000000
_cell_angle_gamma 90.000000
_cell_volume 1160.780394
_symmetry_space_group_name_H-M "P 21 21 2"
_symmetry_group_IT_number 18
_symmetry_cell_setting 'orthorhombic'
loop_
_space_group_symop_operation_xyz
x,y,z
-x,-y,z
1/2+x,1/2-y,-z
1/2-x,1/2+y,-z
loop_
_atom_site_type_symbol
_atom_site_label
_atom_site_fract_x
_atom_site_fract_y
_atom_site_fract_z
Si Si1 0.363991 0.973783 0.900808
Si Si2 0.242535 0.766936 0.414850
Si Si3 0.120453 0.044137 0.153904
Si Si4 0.339493 0.827722 0.932393
Si Si5 0.696831 0.345491 0.113505
Si Si6 0.411645 0.187034 0.253901
Si Si7 0.835928 0.427927 0.472269
O O1 0.355669 0.901028 0.908969
O O2 0.500000 0.000000 0.016525
O O3 0.364977 0.003205 0.616193
O O4 0.235595 0.002684 0.029981
O O5 0.303634 0.803703 0.651764
O O6 0.325301 0.706481 0.322419
O O7 0.107766 0.736357 0.520384
O O8 0.237875 0.809115 0.160679
O O9 0.192060 0.070469 0.401760
O O10 0.091730 0.104444 0.979775
O O11 0.000000 0.000000 0.202965
O O12 0.475256 0.801324 0.051247
O O13 0.815404 0.388605 0.216904
O O14 0.768406 0.312275 0.879266
O O15 0.426432 0.117267 0.362917
#
# Coordination Sequence:
#
# PCOD9312683 Si02
#       7
#     4   4   4   4   4   4   4
#     4  11  25  44  71 109 146 192 249 317 374 443
#     4  11  25  45  68 104 145 184 247 298 366 441
#     4  10  22  43  69 102 148 190 242 303 374 445
#     4  12  27  43  74 110 144 189 246 316 372 436
#     4   9  19  44  68  95 132 191 240 287 354 447
#     4  10  22  46  72 100 145 196 249 300 374 450
#     4   9  20  37  72 100 140 188 240 290 370 437
#
# _framework density 24.121701000000002
#
# number of rings (size 3 to 8) (size 9 to 14) (size 15 to 20)
#    0.000    1.714    1.429    2.571    8.000    2.857 
#    2.571    4.286    0.000    0.000    0.000    0.000 
#    0.000    0.000    0.000    0.000    0.000    0.000 
#
# Total GULP energy -156199.755555 kJ/mol
# GULP energy per Si atom -5578.562698 kJ/mol
# Density = 2.406680 g / cm^3
# Si number density = 24.121701 Si / 1000 Ang^3
#
#
#
# Elastic Constant Matrix: (Units=GPa)
#
#
# Indices 1 2 3 4 5 6 
#
# 1 58.0191 21.9044 13.2279 0.0000 0.0000 0.0000
# 2 21.9044 162.1887 57.3523 0.0000 0.0000 0.0000
# 3 13.2279 57.3523 118.1759 0.0000 0.0000 0.0000
# 4 0.0000 0.0000 0.0000 38.6036 0.0000 0.0000
# 5 0.0000 0.0000 0.0000 0.0000 25.9683 0.0000
# 6 0.0000 0.0000 0.0000 0.0000 0.0000 28.9707
#
#
#
# Elastic Compliance Matrix: (Units=1/GPa)
#
#
# Indices 1 2 3 4 5 6 
#
# 1 0.018264 -0.002105 -0.001023 0.000000 0.000000 0.000000
# 2 -0.002105 0.007686 -0.003494 0.000000 0.000000 0.000000
# 3 -0.001023 -0.003494 0.010272 0.000000 0.000000 0.000000
# 4 0.000000 0.000000 0.000000 0.025904 0.000000 0.000000
# 5 0.000000 0.000000 0.000000 0.000000 0.038509 0.000000
# 6 0.000000 0.000000 0.000000 0.000000 0.000000 0.034518
#
#
# Mechanical properties :
#
#
# Convention : Reuss Voigt Hill
#
# Bulk Modulus (GPa) = 43.52092 58.15031 50.83561
# Shear Modulus (GPa) = 32.03999 35.10179 33.57089
#
# Velocity S-wave (km/s) = 3.64849 3.81884 3.73464
# Velocity P-wave (km/s) = 5.98582 6.60334 6.30215
#
# Compressibility (1/GPa) = 0.02297746
#
# Stress axis : x y z
#
# Youngs Moduli (GPa) = 54.75381 130.11397 97.34940
#
# Poissons Ratio (x) = 0.27388 0.09957
# Poissons Ratio (y) = 0.11525 0.34017
# Poissons Ratio (z) = 0.05600 0.45466
#
# Static dielectric constant tensor:
#      x y z
#    x 2.053070 0.000000 0.000000 
#    y 0.000000 2.042320 0.000000 
#    z 0.000000 0.000000 2.039250 
# 
# From -- ./inp_files/1218.got.cif
#   From: 2010.05.17/outbox.cif.g08.bks.cpg/sg18_1_cif.got.tgz:1218.got - 2010.06.03 22:40:56.
