data_PCOD9312402
_publ_section_title
;
Structure prediction by ZEFSAII (Michael W. Deem and Ramdas Pophale) SiO2 
 PCOD9312402
Probable space group: P 21 21 2
;
_chemical_formula_sum "Si O2"
_cell_formula_units_Z 24
_cell_length_a 10.637755
_cell_length_b 8.418684
_cell_length_c 12.136101
_cell_angle_alpha 90.000000
_cell_angle_beta 90.000000
_cell_angle_gamma 90.000000
_cell_volume 1086.859421
_symmetry_space_group_name_H-M "P 21 21 2"
_symmetry_group_IT_number 18
_symmetry_cell_setting 'orthorhombic'
loop_
_space_group_symop_operation_xyz
x,y,z
-x,-y,z
1/2+x,1/2-y,-z
1/2-x,1/2+y,-z
loop_
_atom_site_type_symbol
_atom_site_label
_atom_site_fract_x
_atom_site_fract_y
_atom_site_fract_z
Si Si1 0.291843 0.563949 0.709933
Si Si2 0.537021 0.751037 0.699009
Si Si3 0.853373 0.552183 0.917345
Si Si4 0.852993 0.990889 0.639365
Si Si5 0.816237 0.306296 0.504069
Si Si6 0.229695 0.607444 0.139849
O O1 0.391939 0.707918 0.710360
O O2 0.379930 0.410265 0.694068
O O3 0.217338 0.546470 0.822323
O O4 0.196314 0.579635 0.608903
O O5 0.570006 0.830039 0.581695
O O6 0.597544 0.838655 0.803798
O O7 0.814247 0.736450 0.891798
O O8 0.000000 0.500000 0.914945
O O9 0.796520 0.498909 0.034112
O O10 0.804161 0.837229 0.573698
O O11 0.796422 0.985492 0.760833
O O12 0.815457 0.136336 0.561713
O O13 0.000000 0.000000 0.648788
#
# Coordination Sequence:
#
# PCOD9312402 Si02
#       6
#     4   4   4   4   4   4
#     4  10  21  41  68  95 139 183 227 290 355 408
#     4   9  20  43  64  98 132 185 232 286 352 426
#     4  11  27  47  71 106 143 185 249 299 358 438
#     4  11  25  45  69 104 147 189 243 295 369 440
#     4  11  21  39  71 101 138 186 235 291 354 429
#     4  10  26  45  70 103 141 188 243 299 363 423
#
# _framework density 22.081973000000001
#
# number of rings (size 3 to 8) (size 9 to 14) (size 15 to 20)
#    0.000    1.667    1.667    1.000    7.000    0.000 
#    6.000    6.667    0.000    0.000    0.000    0.000 
#    0.000    0.000    0.000    0.000    0.000    0.000 
#
# Total GULP energy -134122.866485 kJ/mol
# GULP energy per Si atom -5588.452770 kJ/mol
# Density = 2.203171 g / cm^3
# Si number density = 22.081973 Si / 1000 Ang^3
#
#
#
# Elastic Constant Matrix: (Units=GPa)
#
#
# Indices 1 2 3 4 5 6 
#
# 1 88.4534 35.0764 57.1888 0.0000 0.0000 0.0000
# 2 35.0764 64.2173 45.8320 0.0000 0.0000 0.0000
# 3 57.1888 45.8320 205.8227 0.0000 0.0000 0.0000
# 4 0.0000 0.0000 0.0000 22.2558 0.0000 0.0000
# 5 0.0000 0.0000 0.0000 0.0000 11.6159 0.0000
# 6 0.0000 0.0000 0.0000 0.0000 0.0000 26.6083
#
#
#
# Elastic Compliance Matrix: (Units=1/GPa)
#
#
# Indices 1 2 3 4 5 6 
#
# 1 0.015792 -0.006532 -0.002933 0.000000 0.000000 0.000000
# 2 -0.006532 0.021217 -0.002909 0.000000 0.000000 0.000000
# 3 -0.002933 -0.002909 0.006321 0.000000 0.000000 0.000000
# 4 0.000000 0.000000 0.000000 0.044932 0.000000 0.000000
# 5 0.000000 0.000000 0.000000 0.000000 0.086089 0.000000
# 6 0.000000 0.000000 0.000000 0.000000 0.000000 0.037582
#
#
# Mechanical properties :
#
#
# Convention : Reuss Voigt Hill
#
# Bulk Modulus (GPa) = 53.82106 70.52084 62.17095
# Shear Modulus (GPa) = 20.58649 26.78908 23.68779
#
# Velocity S-wave (km/s) = 3.05663 3.48683 3.27879
# Velocity P-wave (km/s) = 6.07318 6.94377 6.52302
#
# Compressibility (1/GPa) = 0.01858009
#
# Stress axis : x y z
#
# Youngs Moduli (GPa) = 63.32158 47.13266 158.19150
#
# Poissons Ratio (x) = 0.30789 0.46403
# Poissons Ratio (y) = 0.41365 0.46024
# Poissons Ratio (z) = 0.18574 0.13713
#
# Static dielectric constant tensor:
#      x y z
#    x 1.799550 0.000000 0.000000 
#    y 0.000000 1.879330 0.000000 
#    z 0.000000 0.000000 1.763850 
# 
# From -- ./inp_files/5825.got.cif
#   From: 2010.05.17/outbox.cif.g08.bks.cpg/sg18_3_cif.got.tgz:5825.got - 2010.06.03 22:40:56.
