data_PCOD9312220
_publ_section_title
;
Structure prediction by ZEFSAII (Michael W. Deem and Ramdas Pophale) SiO2 
 PCOD9312220
Probable space group: P 21 21 2
;
_chemical_formula_sum "Si O2"
_cell_formula_units_Z 32
_cell_length_a 15.904668
_cell_length_b 15.146843
_cell_length_c 5.229484
_cell_angle_alpha 90.000000
_cell_angle_beta 90.000000
_cell_angle_gamma 90.000000
_cell_volume 1259.811506
_symmetry_space_group_name_H-M "P 21 21 2"
_symmetry_group_IT_number 18
_symmetry_cell_setting 'orthorhombic'
loop_
_space_group_symop_operation_xyz
x,y,z
-x,-y,z
1/2+x,1/2-y,-z
1/2-x,1/2+y,-z
loop_
_atom_site_type_symbol
_atom_site_label
_atom_site_fract_x
_atom_site_fract_y
_atom_site_fract_z
Si Si1 0.222791 0.470407 0.359361
Si Si2 0.646997 0.332780 0.015070
Si Si3 0.815950 0.344358 0.281015
Si Si4 0.090470 0.986431 0.862514
Si Si5 0.444649 0.912142 0.842281
Si Si6 0.031609 0.293756 0.666645
Si Si7 0.722607 0.211265 0.639638
Si Si8 0.886801 0.206032 0.941094
O O1 0.178574 0.562793 0.429176
O O2 0.154746 0.438589 0.144511
O O3 0.214901 0.379798 0.519548
O O4 0.322428 0.484362 0.304167
O O5 0.743530 0.360775 0.068202
O O6 0.603020 0.278836 0.248394
O O7 0.601581 0.425386 0.969160
O O8 0.649339 0.264246 0.783390
O O9 0.771267 0.279306 0.470241
O O10 0.886575 0.286255 0.142770
O O11 0.085418 0.893033 0.010253
O O12 0.000000 0.000000 0.725557
O O13 0.460984 0.851114 0.590879
O O14 0.500000 0.000000 0.816321
O O15 0.466061 0.864054 0.103964
O O16 0.945113 0.239069 0.707177
O O17 0.790522 0.191111 0.861310
#
# Coordination Sequence:
#
# PCOD9312220 Si02
#       8
#     4   4   4   4   4   4   4   4
#     4  10  22  42  66 102 141 192 248 314 375 461
#     4  10  21  40  66  98 135 187 238 302 369 450
#     4  10  22  40  66  95 138 185 245 300 380 438
#     4  10  20  42  68 101 145 189 251 307 385 449
#     4  12  27  46  72 109 146 197 251 311 376 445
#     4  12  25  45  73 102 149 189 245 308 377 444
#     4  10  21  41  64  96 132 184 244 302 373 445
#     4  10  23  39  67  97 136 189 237 310 364 454
#
# _framework density 25.400625999999999
#
# number of rings (size 3 to 8) (size 9 to 14) (size 15 to 20)
#    0.000    1.500    2.500    1.875    3.500    1.000 
#    4.500    0.000    0.000    3.000    0.000    0.000 
#    0.000    0.000    0.000    0.000    0.000    0.000 
#
# Total GULP energy -178256.101631 kJ/mol
# GULP energy per Si atom -5570.503176 kJ/mol
# Density = 2.534281 g / cm^3
# Si number density = 25.400626 Si / 1000 Ang^3
#
#
#
# Elastic Constant Matrix: (Units=GPa)
#
#
# Indices 1 2 3 4 5 6 
#
# 1 149.0142 29.7753 23.7790 0.0000 0.0000 0.0000
# 2 29.7753 209.8783 28.7771 0.0000 0.0000 0.0000
# 3 23.7790 28.7771 77.5037 0.0000 0.0000 0.0000
# 4 0.0000 0.0000 0.0000 24.2402 0.0000 0.0000
# 5 0.0000 0.0000 0.0000 0.0000 24.4844 0.0000
# 6 0.0000 0.0000 0.0000 0.0000 0.0000 38.1183
#
#
#
# Elastic Compliance Matrix: (Units=1/GPa)
#
#
# Indices 1 2 3 4 5 6 
#
# 1 0.007168 -0.000754 -0.001919 0.000000 0.000000 0.000000
# 2 -0.000754 0.005100 -0.001662 0.000000 0.000000 0.000000
# 3 -0.001919 -0.001662 0.014109 0.000000 0.000000 0.000000
# 4 0.000000 0.000000 0.000000 0.041254 0.000000 0.000000
# 5 0.000000 0.000000 0.000000 0.000000 0.040842 0.000000
# 6 0.000000 0.000000 0.000000 0.000000 0.000000 0.026234
#
#
# Mechanical properties :
#
#
# Convention : Reuss Voigt Hill
#
# Bulk Modulus (GPa) = 56.47980 66.78433 61.63207
# Shear Modulus (GPa) = 33.49450 40.97290 37.23370
#
# Velocity S-wave (km/s) = 3.63526 4.02066 3.83281
# Velocity P-wave (km/s) = 6.31696 6.92125 6.62600
#
# Compressibility (1/GPa) = 0.01770544
#
# Stress axis : x y z
#
# Youngs Moduli (GPa) = 139.51598 196.09756 70.87856
#
# Poissons Ratio (x) = 0.14780 0.13603
# Poissons Ratio (y) = 0.10515 0.11781
# Poissons Ratio (z) = 0.26777 0.32595
#
# Static dielectric constant tensor:
#      x y z
#    x 2.158150 0.000000 0.000000 
#    y 0.000000 2.106380 0.000000 
#    z 0.000000 0.000000 2.019210 
# 
# From -- ./inp_files/1879.got.cif
#   From: 2010.05.17/outbox.cif.g08.bks.cpg/sg18_1_cif.got.tgz:1879.got - 2010.06.03 22:40:56.
