data_PCOD9312173
_publ_section_title
;
Structure prediction by ZEFSAII (Michael W. Deem and Ramdas Pophale) SiO2 
 PCOD9312173
Probable space group: P 21 21 2
;
_chemical_formula_sum "Si O2"
_cell_formula_units_Z 24
_cell_length_a 19.344310
_cell_length_b 8.656591
_cell_length_c 7.897292
_cell_angle_alpha 90.000000
_cell_angle_beta 90.000000
_cell_angle_gamma 90.000000
_cell_volume 1322.447191
_symmetry_space_group_name_H-M "P 21 21 2"
_symmetry_group_IT_number 18
_symmetry_cell_setting 'orthorhombic'
loop_
_space_group_symop_operation_xyz
x,y,z
-x,-y,z
1/2+x,1/2-y,-z
1/2-x,1/2+y,-z
loop_
_atom_site_type_symbol
_atom_site_label
_atom_site_fract_x
_atom_site_fract_y
_atom_site_fract_z
Si Si1 0.422840 0.565404 0.750001
Si Si2 0.669621 0.553388 0.442659
Si Si3 0.687172 0.888323 0.558904
Si Si4 0.577110 0.065671 0.750006
Si Si5 0.687173 0.888322 0.941101
Si Si6 0.330381 0.446612 0.057344
O O1 0.500000 0.500000 0.749996
O O2 0.383498 0.505166 0.583018
O O3 0.422978 0.750685 0.750004
O O4 0.383501 0.505162 0.916987
O O5 0.673508 0.739103 0.448215
O O6 0.745309 0.485358 0.488129
O O7 0.652865 0.504907 0.250002
O O8 0.700554 0.825322 0.750002
O O9 0.621221 0.998797 0.590627
O O10 0.500000 0.000000 0.750009
O O11 0.621223 0.998800 0.909381
O O12 0.754694 0.985355 0.988132
O O13 0.673509 0.739103 0.051790
#
# Coordination Sequence:
#
# PCOD9312173 Si02
#       6
#     4   4   4   4   4   4
#     4  12  24  42  66  88 129 168 207 268 316 374
#     4  11  22  38  63  94 126 164 210 256 312 375
#     4   9  20  36  58  93 120 162 204 252 308 366
#     4  10  20  40  64  88 123 168 209 254 320 372
#     4   9  20  36  58  93 120 162 204 252 308 366
#     4  11  22  38  63  94 126 164 210 256 312 375
#
# _framework density 18.148171999999999
#
# number of rings (size 3 to 8) (size 9 to 14) (size 15 to 20)
#    1.000    0.667    1.667    4.000    2.333    0.667 
#    0.000    1.667    0.000    4.000    0.000    0.000 
#    0.000    0.000    0.000    0.000    0.000    0.000 
#
# Total GULP energy -133764.850168 kJ/mol
# GULP energy per Si atom -5573.535424 kJ/mol
# Density = 1.810687 g / cm^3
# Si number density = 18.148172 Si / 1000 Ang^3
#
#
#
# Elastic Constant Matrix: (Units=GPa)
#
#
# Indices 1 2 3 4 5 6 
#
# 1 184.7509 76.0097 71.7768 0.0000 0.0000 0.0000
# 2 76.0097 153.0482 51.3588 0.0000 0.0000 0.0000
# 3 71.7768 51.3588 93.2789 0.0000 0.0000 0.0000
# 4 0.0000 0.0000 0.0000 19.1794 0.0000 0.0000
# 5 0.0000 0.0000 0.0000 0.0000 34.0376 0.0000
# 6 0.0000 0.0000 0.0000 0.0000 0.0000 36.2855
#
#
#
# Elastic Compliance Matrix: (Units=1/GPa)
#
#
# Indices 1 2 3 4 5 6 
#
# 1 0.008414 -0.002461 -0.005120 0.000000 0.000000 0.000000
# 2 -0.002461 0.008734 -0.002916 0.000000 0.000000 0.000000
# 3 -0.005120 -0.002916 0.016265 0.000000 0.000000 0.000000
# 4 0.000000 0.000000 0.000000 0.052139 0.000000 0.000000
# 5 0.000000 0.000000 0.000000 0.000000 0.029379 0.000000
# 6 0.000000 0.000000 0.000000 0.000000 0.000000 0.027559
#
#
# Mechanical properties :
#
#
# Convention : Reuss Voigt Hill
#
# Bulk Modulus (GPa) = 80.50334 92.15206 86.32770
# Shear Modulus (GPa) = 29.82861 33.36268 31.59565
#
# Velocity S-wave (km/s) = 4.05855 4.29225 4.17703
# Velocity P-wave (km/s) = 8.14970 8.68633 8.42229
#
# Compressibility (1/GPa) = 0.01242184
#
# Stress axis : x y z
#
# Youngs Moduli (GPa) = 118.84804 114.49003 61.48037
#
# Poissons Ratio (x) = 0.28173 0.31476
# Poissons Ratio (y) = 0.29246 0.17925
# Poissons Ratio (z) = 0.60846 0.33381
#
# Static dielectric constant tensor:
#      x y z
#    x 1.601730 0.000000 0.000000 
#    y 0.000000 1.610490 0.000000 
#    z 0.000000 0.000000 1.705080 
# 
# From -- ./inp_files/4468.got.cif
#   From: 2010.05.17/outbox.cif.g08.bks.cpg/sg18_3_cif.got.tgz:4468.got - 2010.06.03 22:40:56.
