data_PCOD9312611
_publ_section_title
;
Structure prediction by ZEFSAII (Michael W. Deem and Ramdas Pophale) SiO2 
 PCOD9312611
Probable space group: P 21 21 2
;
_chemical_formula_sum "Si O2"
_cell_formula_units_Z 26
_cell_length_a 20.751065
_cell_length_b 8.560701
_cell_length_c 6.056590
_cell_angle_alpha 90.000000
_cell_angle_beta 90.000000
_cell_angle_gamma 90.000000
_cell_volume 1075.914832
_symmetry_space_group_name_H-M "P 21 21 2"
_symmetry_group_IT_number 18
_symmetry_cell_setting 'orthorhombic'
loop_
_space_group_symop_operation_xyz
x,y,z
-x,-y,z
1/2+x,1/2-y,-z
1/2-x,1/2+y,-z
loop_
_atom_site_type_symbol
_atom_site_label
_atom_site_fract_x
_atom_site_fract_y
_atom_site_fract_z
Si Si1 0.325059 0.389054 0.208776
Si Si2 0.934745 0.265307 0.521294
Si Si3 0.198283 0.356059 0.383627
Si Si4 0.000000 0.000000 0.293137
Si Si5 0.897955 0.559505 0.764108
Si Si6 0.163655 0.655348 0.141315
Si Si7 0.886236 0.842400 0.035477
O O1 0.393420 0.331855 0.302389
O O2 0.274232 0.324463 0.390477
O O3 0.304247 0.298984 0.984669
O O4 0.339740 0.564068 0.130987
O O5 0.939900 0.439046 0.619988
O O6 0.992475 0.154873 0.444299
O O7 0.892373 0.286720 0.301057
O O8 0.157933 0.375893 0.604270
O O9 0.203717 0.529046 0.275791
O O10 0.157971 0.241595 0.222440
O O11 0.062697 0.039771 0.146237
O O12 0.866524 0.449774 0.947928
O O13 0.924413 0.707705 0.899229
#
# Coordination Sequence:
#
# PCOD9312611 Si02
#       7
#     4   4   4   2   4   4   4
#     4  11  22  39  72 104 140 187 240 300 373 432
#     4  10  23  45  70  95 138 187 241 302 356 427
#     4  10  22  41  68 106 146 179 242 300 370 453
#     4  12  26  50  72 100 158 188 262 302 350 452
#     4   9  22  44  69 102 137 183 240 286 387 424
#     4   9  19  42  61  96 134 181 231 286 364 423
#     4  11  25  44  72 109 146 197 242 304 377 438
#
# _framework density 24.165479999999999
#
# number of rings (size 3 to 8) (size 9 to 14) (size 15 to 20)
#    0.000    1.846    1.538    0.923    2.154    6.769 
#    0.000    8.462    0.000    0.000    0.000    0.000 
#    0.000    0.000    0.000    0.000    0.000    0.000 
#
# Total GULP energy -145156.081250 kJ/mol
# GULP energy per Si atom -5582.926202 kJ/mol
# Density = 2.411048 g / cm^3
# Si number density = 24.165480 Si / 1000 Ang^3
#
#
#
# Elastic Constant Matrix: (Units=GPa)
#
#
# Indices 1 2 3 4 5 6 
#
# 1 68.3935 20.8686 8.3145 0.0000 0.0000 0.0000
# 2 20.8686 127.0200 34.5232 0.0000 0.0000 0.0000
# 3 8.3145 34.5232 81.1991 0.0000 0.0000 0.0000
# 4 0.0000 0.0000 0.0000 56.6175 0.0000 0.0000
# 5 0.0000 0.0000 0.0000 0.0000 2.7530 0.0000
# 6 0.0000 0.0000 0.0000 0.0000 0.0000 24.2100
#
#
#
# Elastic Compliance Matrix: (Units=1/GPa)
#
#
# Indices 1 2 3 4 5 6 
#
# 1 0.015416 -0.002379 -0.000567 0.000000 0.000000 0.000000
# 2 -0.002379 0.009268 -0.003697 0.000000 0.000000 0.000000
# 3 -0.000567 -0.003697 0.013945 0.000000 0.000000 0.000000
# 4 0.000000 0.000000 0.000000 0.017662 0.000000 0.000000
# 5 0.000000 0.000000 0.000000 0.000000 0.363238 0.000000
# 6 0.000000 0.000000 0.000000 0.000000 0.000000 0.041305
#
#
# Mechanical properties :
#
#
# Convention : Reuss Voigt Hill
#
# Bulk Modulus (GPa) = 39.45709 44.89167 42.17438
# Shear Modulus (GPa) = 10.36121 30.90987 20.63554
#
# Velocity S-wave (km/s) = 2.07290 3.58032 2.92537
# Velocity P-wave (km/s) = 4.70027 5.97567 5.37593
#
# Compressibility (1/GPa) = 0.02534399
#
# Stress axis : x y z
#
# Youngs Moduli (GPa) = 64.86769 107.89353 71.70845
#
# Poissons Ratio (x) = 0.25663 0.04068
# Poissons Ratio (y) = 0.15429 0.26511
# Poissons Ratio (z) = 0.03680 0.39889
#
# Static dielectric constant tensor:
#      x y z
#    x 2.013140 0.000000 0.000000 
#    y 0.000000 2.002770 0.000000 
#    z 0.000000 0.000000 1.904540 
# 
# From -- ./inp_files/2086.got.cif
#   From: 2010.05.17/outbox.cif.g08.bks.cpg/sg18_2_cif.got.tgz:2086.got - 2010.06.03 22:40:56.
