data_PCOD9312696
_publ_section_title
;
Structure prediction by ZEFSAII (Michael W. Deem and Ramdas Pophale) SiO2 
 PCOD9312696
Probable space group: P 21 21 2
;
_chemical_formula_sum "Si O2"
_cell_formula_units_Z 16
_cell_length_a 8.092272
_cell_length_b 8.123407
_cell_length_c 9.715344
_cell_angle_alpha 90.000000
_cell_angle_beta 90.000000
_cell_angle_gamma 90.000000
_cell_volume 638.655810
_symmetry_space_group_name_H-M "P 21 21 2"
_symmetry_group_IT_number 18
_symmetry_cell_setting 'orthorhombic'
loop_
_space_group_symop_operation_xyz
x,y,z
-x,-y,z
1/2+x,1/2-y,-z
1/2-x,1/2+y,-z
loop_
_atom_site_type_symbol
_atom_site_label
_atom_site_fract_x
_atom_site_fract_y
_atom_site_fract_z
Si Si1 0.818039 0.440926 0.428496
Si Si2 0.821126 0.074274 0.321676
Si Si3 0.405650 0.244470 0.927847
Si Si4 0.249212 0.900552 0.835355
O O1 0.796800 0.253371 0.387872
O O2 0.797646 0.460261 0.591057
O O3 0.712515 0.555265 0.323615
O O4 0.000000 0.500000 0.390390
O O5 0.816365 0.112231 0.160895
O O6 0.000000 0.000000 0.353449
O O7 0.587763 0.213194 0.864386
O O8 0.306115 0.075529 0.901535
O O9 0.396641 0.309163 0.083156
#
# Coordination Sequence:
#
# PCOD9312696 Si02
#       4
#     4   4   4   4
#     4  11  22  45  65  93 133 166 215 267 314 379
#     4  11  24  43  67  95 128 171 211 265 322 377
#     4  10  23  43  65  94 130 167 211 261 318 374
#     4  10  22  44  64  93 131 166 211 265 309 380
#
# _framework density 25.052617999999999
#
# number of rings (size 3 to 8) (size 9 to 14) (size 15 to 20)
#    0.000    1.500    5.000    1.500    3.500    0.000 
#   18.000    0.000    0.000    0.000    0.000    0.000 
#    0.000    0.000    0.000    0.000    0.000    0.000 
#
# Total GULP energy -89422.988548 kJ/mol
# GULP energy per Si atom -5588.936784 kJ/mol
# Density = 2.499560 g / cm^3
# Si number density = 25.052618 Si / 1000 Ang^3
#
#
#
# Elastic Constant Matrix: (Units=GPa)
#
#
# Indices 1 2 3 4 5 6 
#
# 1 32.7634 -2.3358 5.4215 0.0000 0.0000 0.0000
# 2 -2.3358 87.0903 28.8326 0.0000 0.0000 0.0000
# 3 5.4215 28.8326 96.8935 0.0000 0.0000 0.0000
# 4 0.0000 0.0000 0.0000 65.4666 0.0000 0.0000
# 5 0.0000 0.0000 0.0000 0.0000 27.3233 0.0000
# 6 0.0000 0.0000 0.0000 0.0000 0.0000 31.1562
#
#
#
# Elastic Compliance Matrix: (Units=1/GPa)
#
#
# Indices 1 2 3 4 5 6 
#
# 1 0.030997 0.001559 -0.002198 0.000000 0.000000 0.000000
# 2 0.001559 0.012816 -0.003901 0.000000 0.000000 0.000000
# 3 -0.002198 -0.003901 0.011604 0.000000 0.000000 0.000000
# 4 0.000000 0.000000 0.000000 0.015275 0.000000 0.000000
# 5 0.000000 0.000000 0.000000 0.000000 0.036599 0.000000
# 6 0.000000 0.000000 0.000000 0.000000 0.000000 0.032096
#
#
# Mechanical properties :
#
#
# Convention : Reuss Voigt Hill
#
# Bulk Modulus (GPa) = 21.58109 31.17595 26.37852
# Shear Modulus (GPa) = 30.50411 37.11114 33.80762
#
# Velocity S-wave (km/s) = 3.49320 3.85298 3.67749
# Velocity P-wave (km/s) = 4.99028 5.68024 5.34640
#
# Compressibility (1/GPa) = 0.04633686
#
# Stress axis : x y z
#
# Youngs Moduli (GPa) = 32.26140 78.03014 86.17453
#
# Poissons Ratio (x) = -0.12166 0.18944
# Poissons Ratio (y) = -0.05030 0.33615
# Poissons Ratio (z) = 0.07092 0.30438
#
# Static dielectric constant tensor:
#      x y z
#    x 1.561800 0.000000 0.000000 
#    y 0.000000 1.960030 0.000000 
#    z 0.000000 0.000000 2.003290 
# 
# From -- ./inp_files/2778.got.cif
#   From: 2010.05.17/outbox.cif.g08.bks.cpg/sg18_2_cif.got.tgz:2778.got - 2010.06.03 22:40:56.
