data_PCOD9312630
_publ_section_title
;
Structure prediction by ZEFSAII (Michael W. Deem and Ramdas Pophale) SiO2 
 PCOD9312630
Probable space group: P 21 21 2
;
_chemical_formula_sum "Si O2"
_cell_formula_units_Z 20
_cell_length_a 11.782680
_cell_length_b 11.195650
_cell_length_c 7.822303
_cell_angle_alpha 90.000000
_cell_angle_beta 90.000000
_cell_angle_gamma 90.000000
_cell_volume 1031.877233
_symmetry_space_group_name_H-M "P 21 21 2"
_symmetry_group_IT_number 18
_symmetry_cell_setting 'orthorhombic'
loop_
_space_group_symop_operation_xyz
x,y,z
-x,-y,z
1/2+x,1/2-y,-z
1/2-x,1/2+y,-z
loop_
_atom_site_type_symbol
_atom_site_label
_atom_site_fract_x
_atom_site_fract_y
_atom_site_fract_z
Si Si1 0.318236 0.983651 0.468029
Si Si2 0.069800 0.245371 0.660189
Si Si3 0.182992 0.662951 0.227022
Si Si4 0.409208 0.104876 0.134505
Si Si5 0.429447 0.392691 0.619144
O O1 0.397794 0.868209 0.439885
O O2 0.188296 0.940444 0.461112
O O3 0.345296 0.058743 0.636962
O O4 0.338124 0.065833 0.301023
O O5 0.186978 0.197358 0.735417
O O6 0.982079 0.281004 0.808102
O O7 0.010481 0.156214 0.530063
O O8 0.106985 0.780000 0.266032
O O9 0.163710 0.624288 0.033387
O O10 0.500000 0.000000 0.100113
O O11 0.500000 0.500000 0.705819
#
# Coordination Sequence:
#
# PCOD9312630 Si02
#       5
#     4   4   4   4   4
#     4  10  22  42  66  93 125 170 222 262 310 392
#     4  10  22  43  61  97 136 159 222 269 307 385
#     4  11  23  41  70  93 126 177 209 260 330 375
#     4  10  23  42  65  96 128 165 219 267 312 389
#     4  11  22  40  64  96 131 168 207 266 319 370
#
# _framework density 19.382151
#
# number of rings (size 3 to 8) (size 9 to 14) (size 15 to 20)
#    0.000    1.600    4.000    0.000    2.800    1.600 
#   10.800    1.000    0.000    0.000    0.000    0.000 
#    0.000    0.000    0.000    0.000    0.000    0.000 
#
# Total GULP energy -111724.313386 kJ/mol
# GULP energy per Si atom -5586.215669 kJ/mol
# Density = 1.933804 g / cm^3
# Si number density = 19.382151 Si / 1000 Ang^3
#
#
#
# Elastic Constant Matrix: (Units=GPa)
#
#
# Indices 1 2 3 4 5 6 
#
# 1 87.5602 27.3770 44.8536 0.0000 0.0000 0.0000
# 2 27.3770 47.3683 35.1222 0.0000 0.0000 0.0000
# 3 44.8536 35.1222 115.2028 0.0000 0.0000 0.0000
# 4 0.0000 0.0000 0.0000 11.1450 0.0000 0.0000
# 5 0.0000 0.0000 0.0000 0.0000 26.5755 0.0000
# 6 0.0000 0.0000 0.0000 0.0000 0.0000 22.8435
#
#
#
# Elastic Compliance Matrix: (Units=1/GPa)
#
#
# Indices 1 2 3 4 5 6 
#
# 1 0.015390 -0.005752 -0.004238 0.000000 0.000000 0.000000
# 2 -0.005752 0.029427 -0.006732 0.000000 0.000000 0.000000
# 3 -0.004238 -0.006732 0.012383 0.000000 0.000000 0.000000
# 4 0.000000 0.000000 0.000000 0.089727 0.000000 0.000000
# 5 0.000000 0.000000 0.000000 0.000000 0.037629 0.000000
# 6 0.000000 0.000000 0.000000 0.000000 0.000000 0.043776
#
#
# Mechanical properties :
#
#
# Convention : Reuss Voigt Hill
#
# Bulk Modulus (GPa) = 42.09603 51.64854 46.87229
# Shear Modulus (GPa) = 18.53937 21.63135 20.08536
#
# Velocity S-wave (km/s) = 3.09612 3.34435 3.22262
# Velocity P-wave (km/s) = 5.87770 6.45122 6.17113
#
# Compressibility (1/GPa) = 0.02375521
#
# Stress axis : x y z
#
# Youngs Moduli (GPa) = 64.97526 33.98202 80.75626
#
# Poissons Ratio (x) = 0.19548 0.34228
# Poissons Ratio (y) = 0.37376 0.54365
# Poissons Ratio (z) = 0.27539 0.22876
#
# Static dielectric constant tensor:
#      x y z
#    x 1.678850 0.000000 0.000000 
#    y 0.000000 1.716020 0.000000 
#    z 0.000000 0.000000 1.626470 
# 
# From -- ./inp_files/1409.got.cif
#   From: 2010.05.17/outbox.cif.g08.bks.cpg/sg18_1_cif.got.tgz:1409.got - 2010.06.03 22:40:56.
