data_PCOD9312322
_publ_section_title
;
Structure prediction by ZEFSAII (Michael W. Deem and Ramdas Pophale) SiO2 
 PCOD9312322
Probable space group: P 21 21 2
;
_chemical_formula_sum "Si O2"
_cell_formula_units_Z 24
_cell_length_a 14.919080
_cell_length_b 8.484513
_cell_length_c 7.656163
_cell_angle_alpha 90.000000
_cell_angle_beta 90.000000
_cell_angle_gamma 90.000000
_cell_volume 969.125750
_symmetry_space_group_name_H-M "P 21 21 2"
_symmetry_group_IT_number 18
_symmetry_cell_setting 'orthorhombic'
loop_
_space_group_symop_operation_xyz
x,y,z
-x,-y,z
1/2+x,1/2-y,-z
1/2-x,1/2+y,-z
loop_
_atom_site_type_symbol
_atom_site_label
_atom_site_fract_x
_atom_site_fract_y
_atom_site_fract_z
Si Si1 0.880755 0.191402 0.455525
Si Si2 0.792292 0.858931 0.961883
Si Si3 0.449103 0.850625 0.450559
Si Si4 0.449103 0.850625 0.049440
Si Si5 0.119244 0.808598 0.044475
Si Si6 0.292293 0.641069 0.461883
O O1 0.896608 0.212226 0.250000
O O2 0.808690 0.321491 0.518599
O O3 0.975867 0.213759 0.546016
O O4 0.833253 0.024189 0.481907
O O5 0.691310 0.821491 0.018599
O O6 0.792968 0.854536 0.750000
O O7 0.858625 0.720555 0.027899
O O8 0.833253 0.024189 0.018093
O O9 0.428708 0.893065 0.250000
O O10 0.358625 0.779445 0.527898
O O11 0.500000 0.000000 0.533026
O O12 0.500000 0.000000 0.966974
O O13 0.524133 0.713759 0.046015
#
# Coordination Sequence:
#
# PCOD9312322 Si02
#       6
#     4   4   4   4   4   4
#     4  11  23  38  59  87 115 146 189 239 283 327
#     4  10  22  39  58  82 114 152 189 227 281 344
#     4  10  21  39  61  83 113 154 192 227 278 343
#     4  10  21  39  61  83 113 154 192 227 278 343
#     4  11  23  38  59  87 115 146 189 239 283 327
#     4  10  22  39  58  82 114 152 189 227 281 344
#
# _framework density 24.764588
#
# number of rings (size 3 to 8) (size 9 to 14) (size 15 to 20)
#    0.000    1.667    0.000    4.000    0.000   11.333 
#    0.000    0.000    0.000    0.000    0.000    0.000 
#    0.000    0.000    0.000    0.000    0.000    0.000 
#
# Total GULP energy -134325.365779 kJ/mol
# GULP energy per Si atom -5596.890241 kJ/mol
# Density = 2.470822 g / cm^3
# Si number density = 24.764588 Si / 1000 Ang^3
#
#
#
# Elastic Constant Matrix: (Units=GPa)
#
#
# Indices 1 2 3 4 5 6 
#
# 1 96.6067 -14.6112 7.0681 0.0000 0.0000 0.0000
# 2 -14.6112 68.8213 -1.4844 0.0000 0.0000 0.0000
# 3 7.0681 -1.4844 71.3353 0.0000 0.0000 0.0000
# 4 0.0000 0.0000 0.0000 26.1380 0.0000 0.0000
# 5 0.0000 0.0000 0.0000 0.0000 1.4658 0.0000
# 6 0.0000 0.0000 0.0000 0.0000 0.0000 49.3639
#
#
#
# Elastic Compliance Matrix: (Units=1/GPa)
#
#
# Indices 1 2 3 4 5 6 
#
# 1 0.010768 0.002264 -0.001020 0.000000 0.000000 0.000000
# 2 0.002264 0.015013 0.000088 0.000000 0.000000 0.000000
# 3 -0.001020 0.000088 0.014121 0.000000 0.000000 0.000000
# 4 0.000000 0.000000 0.000000 0.038258 0.000000 0.000000
# 5 0.000000 0.000000 0.000000 0.000000 0.682220 0.000000
# 6 0.000000 0.000000 0.000000 0.000000 0.000000 0.020258
#
#
# Mechanical properties :
#
#
# Convention : Reuss Voigt Hill
#
# Bulk Modulus (GPa) = 23.49221 24.30092 23.89657
# Shear Modulus (GPa) = 6.31183 31.77960 19.04571
#
# Velocity S-wave (km/s) = 1.59821 3.58616 2.77622
# Velocity P-wave (km/s) = 3.59340 5.19437 4.46620
#
# Compressibility (1/GPa) = 0.04256730
#
# Stress axis : x y z
#
# Youngs Moduli (GPa) = 92.86511 66.60900 70.81554
#
# Poissons Ratio (x) = -0.15081 0.07222
# Poissons Ratio (y) = -0.21026 -0.00624
# Poissons Ratio (z) = 0.09471 -0.00587
#
# Static dielectric constant tensor:
#      x y z
#    x 1.918120 0.000000 0.000000 
#    y 0.000000 2.009410 0.000000 
#    z 0.000000 0.000000 1.907240 
# 
# From -- ./inp_files/3134.got.cif
#   From: 2010.05.17/outbox.cif.g08.bks.cpg/sg18_2_cif.got.tgz:3134.got - 2010.06.03 22:40:56.
