data_PCOD9312500
_publ_section_title
;
Structure prediction by ZEFSAII (Michael W. Deem and Ramdas Pophale) SiO2 
 PCOD9312500
Probable space group: P 21 21 2
;
_chemical_formula_sum "Si O2"
_cell_formula_units_Z 26
_cell_length_a 25.827395
_cell_length_b 9.316025
_cell_length_c 5.385491
_cell_angle_alpha 90.000000
_cell_angle_beta 90.000000
_cell_angle_gamma 90.000000
_cell_volume 1295.795760
_symmetry_space_group_name_H-M "P 21 21 2"
_symmetry_group_IT_number 18
_symmetry_cell_setting 'orthorhombic'
loop_
_space_group_symop_operation_xyz
x,y,z
-x,-y,z
1/2+x,1/2-y,-z
1/2-x,1/2+y,-z
loop_
_atom_site_type_symbol
_atom_site_label
_atom_site_fract_x
_atom_site_fract_y
_atom_site_fract_z
Si Si1 0.103603 0.545247 0.408386
Si Si2 0.835275 0.202640 0.175714
Si Si3 0.228626 0.975492 0.537560
Si Si4 0.652517 0.417764 0.084578
Si Si5 0.246234 0.708100 0.811279
Si Si6 0.000000 0.500000 0.652635
Si Si7 0.904784 0.624653 0.892209
O O1 0.131428 0.694466 0.348045
O O2 0.043457 0.573144 0.481002
O O3 0.121946 0.455527 0.653218
O O4 0.106245 0.450981 0.156162
O O5 0.787445 0.130487 0.319128
O O6 0.806855 0.293515 0.962581
O O7 0.863653 0.064383 0.054768
O O8 0.174883 0.033928 0.649909
O O9 0.259357 0.107187 0.428216
O O10 0.255569 0.874106 0.738244
O O11 0.612268 0.289395 0.098243
O O12 0.704102 0.352447 0.953824
O O13 0.034580 0.395908 0.823637
#
# Coordination Sequence:
#
# PCOD9312500 Si02
#       7
#     4   4   4   4   4   2   4
#     4  10  23  41  68  99 124 168 220 273 329 393
#     4  10  23  40  60  90 132 173 219 270 325 386
#     4  10  22  40  57  83 126 175 213 272 308 384
#     4  10  23  40  60  90 132 173 219 270 325 386
#     4  10  22  38  56  86 126 172 222 258 316 372
#     4   8  22  40  72  94 130 152 220 278 334 390
#     4  10  23  41  68  99 124 168 220 273 329 393
#
# _framework density 20.064889999999998
#
# number of rings (size 3 to 8) (size 9 to 14) (size 15 to 20)
#    0.923    1.231    0.000    1.385    8.615    6.154 
#    2.769    0.000    0.000   13.846    0.000    0.000 
#    0.000    0.000    0.000    0.000    0.000    0.000 
#
# Total GULP energy -144931.735592 kJ/mol
# GULP energy per Si atom -5574.297523 kJ/mol
# Density = 2.001922 g / cm^3
# Si number density = 20.064890 Si / 1000 Ang^3
#
#
#
# Elastic Constant Matrix: (Units=GPa)
#
#
# Indices 1 2 3 4 5 6 
#
# 1 48.0716 30.5157 5.8186 0.0000 0.0000 0.0000
# 2 30.5157 78.1388 23.9058 0.0000 0.0000 0.0000
# 3 5.8186 23.9058 88.7871 0.0000 0.0000 0.0000
# 4 0.0000 0.0000 0.0000 38.1321 0.0000 0.0000
# 5 0.0000 0.0000 0.0000 0.0000 20.1769 0.0000
# 6 0.0000 0.0000 0.0000 0.0000 0.0000 30.1260
#
#
#
# Elastic Compliance Matrix: (Units=1/GPa)
#
#
# Indices 1 2 3 4 5 6 
#
# 1 0.027776 -0.011214 0.001199 0.000000 0.000000 0.000000
# 2 -0.011214 0.018474 -0.004239 0.000000 0.000000 0.000000
# 3 0.001199 -0.004239 0.012326 0.000000 0.000000 0.000000
# 4 0.000000 0.000000 0.000000 0.026225 0.000000 0.000000
# 5 0.000000 0.000000 0.000000 0.000000 0.049562 0.000000
# 6 0.000000 0.000000 0.000000 0.000000 0.000000 0.033194
#
#
# Mechanical properties :
#
#
# Convention : Reuss Voigt Hill
#
# Bulk Modulus (GPa) = 33.25884 37.27528 35.26706
# Shear Modulus (GPa) = 24.26158 28.00416 26.13287
#
# Velocity S-wave (km/s) = 3.48106 3.73993 3.61282
# Velocity P-wave (km/s) = 5.72440 6.10468 5.91760
#
# Compressibility (1/GPa) = 0.03006720
#
# Stress axis : x y z
#
# Youngs Moduli (GPa) = 36.00238 54.12948 81.13112
#
# Poissons Ratio (x) = 0.60702 -0.09729
# Poissons Ratio (y) = 0.40374 0.34393
# Poissons Ratio (z) = -0.04317 0.22947
#
# Static dielectric constant tensor:
#      x y z
#    x 1.700700 0.000000 0.000000 
#    y 0.000000 1.719860 0.000000 
#    z 0.000000 0.000000 1.785340 
# 
# From -- ./inp_files/695.got.cif
#   From: 2010.05.17/outbox.cif.g08.bks.cpg/sg18_1_cif.got.tgz:695.got - 2010.06.03 22:40:56.
