data_PCOD9312967
_publ_section_title
;
Structure prediction by ZEFSAII (Michael W. Deem and Ramdas Pophale) SiO2 
 PCOD9312967
Probable space group: P 21 21 2
;
_chemical_formula_sum "Si O2"
_cell_formula_units_Z 20
_cell_length_a 8.212703
_cell_length_b 16.860388
_cell_length_c 5.514199
_cell_angle_alpha 90.000000
_cell_angle_beta 90.000000
_cell_angle_gamma 90.000000
_cell_volume 763.547602
_symmetry_space_group_name_H-M "P 21 21 2"
_symmetry_group_IT_number 18
_symmetry_cell_setting 'orthorhombic'
loop_
_space_group_symop_operation_xyz
x,y,z
-x,-y,z
1/2+x,1/2-y,-z
1/2-x,1/2+y,-z
loop_
_atom_site_type_symbol
_atom_site_label
_atom_site_fract_x
_atom_site_fract_y
_atom_site_fract_z
Si Si1 0.500000 0.500000 0.899190
Si Si2 0.000000 0.500000 0.585307
Si Si3 0.359979 0.839079 0.256006
Si Si4 0.463424 0.345458 0.581990
Si Si5 0.893705 0.256546 0.005853
Si Si6 0.258533 0.588426 0.242521
O O1 0.350776 0.528980 0.063515
O O2 0.449955 0.427947 0.730434
O O3 0.925959 0.572191 0.739627
O O4 0.862281 0.459075 0.418155
O O5 0.227907 0.828369 0.470559
O O6 0.248803 0.808918 0.030393
O O7 0.513371 0.779230 0.240840
O O8 0.511218 0.281182 0.786066
O O9 0.598393 0.367220 0.388900
O O10 0.833392 0.341307 0.103156
#
# Coordination Sequence:
#
# PCOD9312967 Si02
#       6
#     2   2   4   4   4   4
#     4  12  24  48  78 100 154 200 256 296 394 446
#     4  12  28  42  78 110 162 184 272 316 382 456
#     4  10  25  46  74 109 147 204 245 321 376 459
#     4  10  26  49  73 106 151 199 246 322 365 464
#     4  10  26  45  77 108 150 197 258 304 388 453
#     4  12  28  47  74 114 147 206 249 320 378 459
#
# _framework density 26.193521
#
# number of rings (size 3 to 8) (size 9 to 14) (size 15 to 20)
#    1.200    0.000    0.000    4.200   14.000    0.000 
#    3.600    0.000    0.000    0.000    0.000    0.000 
#    0.000    0.000    0.000    0.000    0.000    0.000 
#
# Total GULP energy -111820.176027 kJ/mol
# GULP energy per Si atom -5591.008801 kJ/mol
# Density = 2.613390 g / cm^3
# Si number density = 26.193521 Si / 1000 Ang^3
#
#
#
# Elastic Constant Matrix: (Units=GPa)
#
#
# Indices 1 2 3 4 5 6 
#
# 1 97.7687 82.8974 38.9783 0.0000 0.0000 0.0000
# 2 82.8974 165.9844 44.7595 0.0000 0.0000 0.0000
# 3 38.9783 44.7595 70.5577 0.0000 0.0000 0.0000
# 4 0.0000 0.0000 0.0000 45.9763 0.0000 0.0000
# 5 0.0000 0.0000 0.0000 0.0000 30.6147 0.0000
# 6 0.0000 0.0000 0.0000 0.0000 0.0000 75.4084
#
#
#
# Elastic Compliance Matrix: (Units=1/GPa)
#
#
# Indices 1 2 3 4 5 6 
#
# 1 0.019364 -0.008187 -0.005504 0.000000 0.000000 0.000000
# 2 -0.008187 0.010729 -0.002284 0.000000 0.000000 0.000000
# 3 -0.005504 -0.002284 0.018662 0.000000 0.000000 0.000000
# 4 0.000000 0.000000 0.000000 0.021750 0.000000 0.000000
# 5 0.000000 0.000000 0.000000 0.000000 0.032664 0.000000
# 6 0.000000 0.000000 0.000000 0.000000 0.000000 0.013261
#
#
# Mechanical properties :
#
#
# Convention : Reuss Voigt Hill
#
# Bulk Modulus (GPa) = 59.50031 74.17571 66.83801
# Shear Modulus (GPa) = 32.47149 41.57826 37.02487
#
# Velocity S-wave (km/s) = 3.52472 3.98848 3.76375
# Velocity P-wave (km/s) = 6.27135 7.04205 6.66784
#
# Compressibility (1/GPa) = 0.01680663
#
# Stress axis : x y z
#
# Youngs Moduli (GPa) = 51.64228 93.20391 53.58499
#
# Poissons Ratio (x) = 0.76304 0.29492
# Poissons Ratio (y) = 0.42278 0.12237
# Poissons Ratio (z) = 0.28423 0.21284
#
# Static dielectric constant tensor:
#      x y z
#    x 2.148100 0.000000 0.000000 
#    y 0.000000 2.030460 0.000000 
#    z 0.000000 0.000000 2.037790 
# 
# From -- ./inp_files/561.got.cif
#   From: 2010.05.17/outbox.cif.g08.bks.cpg/sg18_1_cif.got.tgz:561.got - 2010.06.03 22:40:56.
