data_PCOD9312650
_publ_section_title
;
Structure prediction by ZEFSAII (Michael W. Deem and Ramdas Pophale) SiO2 
 PCOD9312650
Probable space group: P 21 21 2
;
_chemical_formula_sum "Si O2"
_cell_formula_units_Z 20
_cell_length_a 9.439358
_cell_length_b 9.465451
_cell_length_c 9.242861
_cell_angle_alpha 90.000000
_cell_angle_beta 90.000000
_cell_angle_gamma 90.000000
_cell_volume 825.829117
_symmetry_space_group_name_H-M "P 21 21 2"
_symmetry_group_IT_number 18
_symmetry_cell_setting 'orthorhombic'
loop_
_space_group_symop_operation_xyz
x,y,z
-x,-y,z
1/2+x,1/2-y,-z
1/2-x,1/2+y,-z
loop_
_atom_site_type_symbol
_atom_site_label
_atom_site_fract_x
_atom_site_fract_y
_atom_site_fract_z
Si Si1 0.808622 0.428401 0.700261
Si Si2 0.084241 0.694414 0.406840
Si Si3 0.000000 0.000000 0.392818
Si Si4 0.000000 0.500000 0.176408
Si Si5 0.086778 0.739393 0.957150
Si Si6 0.302777 0.787287 0.170555
O O1 0.866892 0.395951 0.542017
O O2 0.641180 0.460025 0.693192
O O3 0.838617 0.301933 0.808966
O O4 0.871420 0.574831 0.759467
O O5 0.039428 0.849382 0.463967
O O6 0.221379 0.710595 0.301148
O O7 0.968192 0.622315 0.298952
O O8 0.918238 0.401449 0.059780
O O9 0.928792 0.788218 0.916931
O O10 0.186445 0.836917 0.053247
#
# Coordination Sequence:
#
# PCOD9312650 Si02
#       6
#     4   4   2   2   4   4
#     4  11  24  43  76 101 152 195 252 317 380 452
#     4  10  25  44  75 106 153 198 257 319 383 449
#     4  10  26  46  68 116 146 194 258 320 370 458
#     4  10  22  42  70 108 142 200 250 310 384 446
#     4  11  23  44  74 105 146 200 254 307 389 455
#     4  10  24  45  67 109 144 198 253 314 381 455
#
# _framework density 24.218086
#
# number of rings (size 3 to 8) (size 9 to 14) (size 15 to 20)
#    0.000    1.600    2.000    0.000   14.000    1.600 
#    0.000    0.000    0.000    0.000    0.000    0.000 
#    0.000    0.000    0.000    0.000    0.000    0.000 
#
# Total GULP energy -111438.959501 kJ/mol
# GULP energy per Si atom -5571.947975 kJ/mol
# Density = 2.416296 g / cm^3
# Si number density = 24.218086 Si / 1000 Ang^3
#
#
#
# Elastic Constant Matrix: (Units=GPa)
#
#
# Indices 1 2 3 4 5 6 
#
# 1 91.8384 6.5563 36.4508 0.0000 0.0000 0.0000
# 2 6.5563 51.0478 16.1233 0.0000 0.0000 0.0000
# 3 36.4508 16.1233 156.5646 0.0000 0.0000 0.0000
# 4 0.0000 0.0000 0.0000 31.0208 0.0000 0.0000
# 5 0.0000 0.0000 0.0000 0.0000 12.1710 0.0000
# 6 0.0000 0.0000 0.0000 0.0000 0.0000 30.9415
#
#
#
# Elastic Compliance Matrix: (Units=1/GPa)
#
#
# Indices 1 2 3 4 5 6 
#
# 1 0.012020 -0.000682 -0.002728 0.000000 0.000000 0.000000
# 2 -0.000682 0.020287 -0.001930 0.000000 0.000000 0.000000
# 3 -0.002728 -0.001930 0.007221 0.000000 0.000000 0.000000
# 4 0.000000 0.000000 0.000000 0.032236 0.000000 0.000000
# 5 0.000000 0.000000 0.000000 0.000000 0.082162 0.000000
# 6 0.000000 0.000000 0.000000 0.000000 0.000000 0.032319
#
#
# Mechanical properties :
#
#
# Convention : Reuss Voigt Hill
#
# Bulk Modulus (GPa) = 34.66603 46.41241 40.53922
# Shear Modulus (GPa) = 24.20804 30.84803 27.52804
#
# Velocity S-wave (km/s) = 3.16505 3.57285 3.37512
# Velocity P-wave (km/s) = 5.26326 6.01883 5.65368
#
# Compressibility (1/GPa) = 0.02884669
#
# Stress axis : x y z
#
# Youngs Moduli (GPa) = 83.19302 49.29317 138.48278
#
# Poissons Ratio (x) = 0.03362 0.37782
# Poissons Ratio (y) = 0.05675 0.26732
# Poissons Ratio (z) = 0.22697 0.09515
#
# Static dielectric constant tensor:
#      x y z
#    x 2.029050 0.000000 0.000000 
#    y 0.000000 2.002870 0.000000 
#    z 0.000000 0.000000 1.870790 
# 
# From -- ./inp_files/3673.got.cif
#   From: 2010.05.17/outbox.cif.g08.bks.cpg/sg18_2_cif.got.tgz:3673.got - 2010.06.03 22:40:56.
