data_PCOD9312415
_publ_section_title
;
Structure prediction by ZEFSAII (Michael W. Deem and Ramdas Pophale) SiO2 
 PCOD9312415
Probable space group: P 21 21 2
;
_chemical_formula_sum "Si O2"
_cell_formula_units_Z 20
_cell_length_a 18.402652
_cell_length_b 6.587254
_cell_length_c 8.228254
_cell_angle_alpha 90.000000
_cell_angle_beta 90.000000
_cell_angle_gamma 90.000000
_cell_volume 997.453166
_symmetry_space_group_name_H-M "P 21 21 2"
_symmetry_group_IT_number 18
_symmetry_cell_setting 'orthorhombic'
loop_
_space_group_symop_operation_xyz
x,y,z
-x,-y,z
1/2+x,1/2-y,-z
1/2-x,1/2+y,-z
loop_
_atom_site_type_symbol
_atom_site_label
_atom_site_fract_x
_atom_site_fract_y
_atom_site_fract_z
Si Si1 0.922444 0.889227 0.936767
Si Si2 0.679021 0.666783 0.853722
Si Si3 0.700006 0.411528 0.267621
Si Si4 0.790442 0.783476 0.368409
Si Si5 0.419260 0.948993 0.781122
O O1 0.884280 0.857574 0.762806
O O2 0.924635 0.693019 0.055634
O O3 0.000000 0.000000 0.932550
O O4 0.862182 0.045752 0.006285
O O5 0.753164 0.794024 0.870776
O O6 0.698510 0.494962 0.723268
O O7 0.621227 0.838814 0.807187
O O8 0.728237 0.643660 0.285508
O O9 0.723328 0.322923 0.443069
O O10 0.867033 0.669539 0.341706
O O11 0.500000 0.000000 0.724818
#
# Coordination Sequence:
#
# PCOD9312415 Si02
#       5
#     4   4   4   4   4
#     4  11  24  41  62  94 129 164 209 267 323 378
#     4  10  22  40  66  88 121 166 209 258 316 376
#     4  11  23  41  63  92 126 165 214 266 313 375
#     4  10  22  41  63  91 125 166 213 259 310 380
#     4  10  21  42  64  88 125 169 210 256 316 381
#
# _framework density 20.051068999999998
#
# number of rings (size 3 to 8) (size 9 to 14) (size 15 to 20)
#    0.000    1.600    4.000    0.000    8.400    0.000 
#    3.600    1.000    0.000    0.000    0.000    0.000 
#    0.000    0.000    0.000    0.000    0.000    0.000 
#
# Total GULP energy -111426.033850 kJ/mol
# GULP energy per Si atom -5571.301693 kJ/mol
# Density = 2.000543 g / cm^3
# Si number density = 20.051069 Si / 1000 Ang^3
#
#
#
# Elastic Constant Matrix: (Units=GPa)
#
#
# Indices 1 2 3 4 5 6 
#
# 1 116.3567 30.6396 12.2173 0.0000 0.0000 0.0000
# 2 30.6396 104.1182 6.9887 0.0000 0.0000 0.0000
# 3 12.2173 6.9887 32.6637 0.0000 0.0000 0.0000
# 4 0.0000 0.0000 0.0000 16.9436 0.0000 0.0000
# 5 0.0000 0.0000 0.0000 0.0000 20.3222 0.0000
# 6 0.0000 0.0000 0.0000 0.0000 0.0000 30.1308
#
#
#
# Elastic Compliance Matrix: (Units=1/GPa)
#
#
# Indices 1 2 3 4 5 6 
#
# 1 0.009603 -0.002623 -0.003031 0.000000 0.000000 0.000000
# 2 -0.002623 0.010461 -0.001257 0.000000 0.000000 0.000000
# 3 -0.003031 -0.001257 0.032018 0.000000 0.000000 0.000000
# 4 0.000000 0.000000 0.000000 0.059019 0.000000 0.000000
# 5 0.000000 0.000000 0.000000 0.000000 0.049207 0.000000
# 6 0.000000 0.000000 0.000000 0.000000 0.000000 0.033189
#
#
# Mechanical properties :
#
#
# Convention : Reuss Voigt Hill
#
# Bulk Modulus (GPa) = 26.13678 39.20330 32.67004
# Shear Modulus (GPa) = 22.71996 27.03219 24.87607
#
# Velocity S-wave (km/s) = 3.36981 3.67572 3.52609
# Velocity P-wave (km/s) = 5.31077 6.13260 5.73642
#
# Compressibility (1/GPa) = 0.03826027
#
# Stress axis : x y z
#
# Youngs Moduli (GPa) = 104.13344 95.59673 31.23284
#
# Poissons Ratio (x) = 0.25071 0.09466
# Poissons Ratio (y) = 0.27309 0.03927
# Poissons Ratio (z) = 0.31560 0.12019
#
# Static dielectric constant tensor:
#      x y z
#    x 1.720880 0.000000 0.000000 
#    y 0.000000 1.788600 0.000000 
#    z 0.000000 0.000000 1.817950 
# 
# From -- ./inp_files/2461.got.cif
#   From: 2010.05.17/outbox.cif.g08.bks.cpg/sg18_2_cif.got.tgz:2461.got - 2010.06.03 22:40:56.
