data_PCOD9312869
_publ_section_title
;
Structure prediction by ZEFSAII (Michael W. Deem and Ramdas Pophale) SiO2 
 PCOD9312869
Probable space group: P 21 21 2
;
_chemical_formula_sum "Si O2"
_cell_formula_units_Z 28
_cell_length_a 24.336904
_cell_length_b 7.853894
_cell_length_c 6.498271
_cell_angle_alpha 90.000000
_cell_angle_beta 90.000000
_cell_angle_gamma 90.000000
_cell_volume 1242.076038
_symmetry_space_group_name_H-M "P 21 21 2"
_symmetry_group_IT_number 18
_symmetry_cell_setting 'orthorhombic'
loop_
_space_group_symop_operation_xyz
x,y,z
-x,-y,z
1/2+x,1/2-y,-z
1/2-x,1/2+y,-z
loop_
_atom_site_type_symbol
_atom_site_label
_atom_site_fract_x
_atom_site_fract_y
_atom_site_fract_z
Si Si1 0.412256 0.326372 0.339897
Si Si2 0.649660 0.436797 0.028764
Si Si3 0.500000 0.000000 0.683804
Si Si4 0.083735 0.448627 0.677312
Si Si5 0.552937 0.265357 0.946287
Si Si6 0.196737 0.251623 0.617342
Si Si7 0.000000 0.000000 0.367714
Si Si8 0.314195 0.417799 0.629576
O O1 0.396799 0.473485 0.174976
O O2 0.465404 0.380031 0.474719
O O3 0.360715 0.324135 0.496770
O O4 0.415918 0.141115 0.236025
O O5 0.696377 0.364169 0.176259
O O6 0.619340 0.271684 0.931597
O O7 0.670783 0.573476 0.868535
O O8 0.552042 0.024716 0.537100
O O9 0.505795 0.157036 0.835384
O O10 0.144469 0.376149 0.637586
O O11 0.051182 0.313476 0.821191
O O12 0.543769 0.430383 0.798612
O O13 0.254276 0.343174 0.591213
O O14 0.186088 0.114122 0.441203
#
# Coordination Sequence:
#
# PCOD9312869 Si02
#       8
#     4   4   2   4   4   4   2   4
#     4  11  25  44  72 102 140 186 243 292 359 424
#     4  10  24  43  70 101 140 181 236 295 356 430
#     4  12  24  42  66  96 140 184 226 284 344 422
#     4  11  25  44  66 103 141 181 233 297 347 429
#     4  11  25  42  67 100 140 185 232 283 361 413
#     4  10  24  41  70 100 139 182 236 294 357 424
#     4  12  24  46  72 104 140 198 236 294 354 434
#     4  11  22  46  70 102 139 185 234 297 357 430
#
# _framework density 22.542902999999999
#
# number of rings (size 3 to 8) (size 9 to 14) (size 15 to 20)
#    0.000    1.143    2.857    2.143    4.000    8.571 
#    0.000    2.857    0.000    0.000    0.000    0.000 
#    0.000    0.000    0.000    0.000    0.000    0.000 
#
# Total GULP energy -155871.730641 kJ/mol
# GULP energy per Si atom -5566.847523 kJ/mol
# Density = 2.249159 g / cm^3
# Si number density = 22.542903 Si / 1000 Ang^3
#
#
#
# Elastic Constant Matrix: (Units=GPa)
#
#
# Indices 1 2 3 4 5 6 
#
# 1 97.4608 12.5270 39.8058 0.0000 0.0000 0.0000
# 2 12.5270 79.6776 18.9957 0.0000 0.0000 0.0000
# 3 39.8058 18.9957 78.4323 0.0000 0.0000 0.0000
# 4 0.0000 0.0000 0.0000 19.4995 0.0000 0.0000
# 5 0.0000 0.0000 0.0000 0.0000 20.7730 0.0000
# 6 0.0000 0.0000 0.0000 0.0000 0.0000 33.4921
#
#
#
# Elastic Compliance Matrix: (Units=1/GPa)
#
#
# Indices 1 2 3 4 5 6 
#
# 1 0.012962 -0.000498 -0.006458 0.000000 0.000000 0.000000
# 2 -0.000498 0.013339 -0.002978 0.000000 0.000000 0.000000
# 3 -0.006458 -0.002978 0.016748 0.000000 0.000000 0.000000
# 4 0.000000 0.000000 0.000000 0.051283 0.000000 0.000000
# 5 0.000000 0.000000 0.000000 0.000000 0.048139 0.000000
# 6 0.000000 0.000000 0.000000 0.000000 0.000000 0.029858
#
#
# Mechanical properties :
#
#
# Convention : Reuss Voigt Hill
#
# Bulk Modulus (GPa) = 43.13725 44.24753 43.69239
# Shear Modulus (GPa) = 25.00939 27.03574 26.02256
#
# Velocity S-wave (km/s) = 3.33440 3.46685 3.40127
# Velocity P-wave (km/s) = 5.83108 5.97463 5.90329
#
# Compressibility (1/GPa) = 0.02318182
#
# Stress axis : x y z
#
# Youngs Moduli (GPa) = 77.14761 74.96918 59.70687
#
# Poissons Ratio (x) = 0.03736 0.38558
# Poissons Ratio (y) = 0.03845 0.17779
# Poissons Ratio (z) = 0.49821 0.22323
#
# Static dielectric constant tensor:
#      x y z
#    x 1.849410 0.000000 0.000000 
#    y 0.000000 1.982660 0.000000 
#    z 0.000000 0.000000 1.911680 
# 
# From -- ./inp_files/2217.got.cif
#   From: 2010.05.17/outbox.cif.g08.bks.cpg/sg18_2_cif.got.tgz:2217.got - 2010.06.03 22:40:56.
