data_PCOD9312824
_publ_section_title
;
Structure prediction by ZEFSAII (Michael W. Deem and Ramdas Pophale) SiO2 
 PCOD9312824
Probable space group: P 21 21 2
;
_chemical_formula_sum "Si O2"
_cell_formula_units_Z 28
_cell_length_a 14.048640
_cell_length_b 11.472811
_cell_length_c 7.846000
_cell_angle_alpha 90.000000
_cell_angle_beta 90.000000
_cell_angle_gamma 90.000000
_cell_volume 1264.597814
_symmetry_space_group_name_H-M "P 21 21 2"
_symmetry_group_IT_number 18
_symmetry_cell_setting 'orthorhombic'
loop_
_space_group_symop_operation_xyz
x,y,z
-x,-y,z
1/2+x,1/2-y,-z
1/2-x,1/2+y,-z
loop_
_atom_site_type_symbol
_atom_site_label
_atom_site_fract_x
_atom_site_fract_y
_atom_site_fract_z
Si Si1 0.555314 0.899415 0.640266
Si Si2 0.881718 0.204356 0.593733
Si Si3 0.594833 0.179679 0.905316
Si Si4 0.968968 0.130204 0.925105
Si Si5 0.715279 0.355367 0.689876
Si Si6 0.718944 0.548067 0.979091
Si Si7 0.272405 0.521753 0.355787
O O1 0.568035 0.771359 0.559166
O O2 0.491174 0.883443 0.807986
O O3 0.660547 0.951720 0.658756
O O4 0.500000 0.000000 0.534016
O O5 0.953510 0.144360 0.723771
O O6 0.822998 0.307182 0.686787
O O7 0.803410 0.103115 0.564417
O O8 0.651118 0.253129 0.762928
O O9 0.544590 0.274097 0.023432
O O10 0.676157 0.103276 0.998093
O O11 0.865357 0.144413 0.016663
O O12 0.000000 0.000000 0.973541
O O13 0.710468 0.464891 0.817164
O O14 0.689537 0.387737 0.495523
O O15 0.697216 0.479728 0.157964
#
# Coordination Sequence:
#
# PCOD9312824 Si02
#       7
#     4   4   4   4   4   4   4
#     4  11  23  41  70  99 139 177 238 290 339 431
#     4  10  24  44  66 101 140 178 235 286 356 416
#     4  12  25  44  69 106 139 186 235 290 358 426
#     4  11  24  42  68 102 136 179 240 286 345 432
#     4  11  23  45  70  97 141 182 234 287 350 421
#     4  11  24  47  68 100 147 179 234 295 347 419
#     4  10  23  45  67 101 138 184 231 291 354 415
#
# _framework density 22.141428000000001
#
# number of rings (size 3 to 8) (size 9 to 14) (size 15 to 20)
#    0.000    1.143    5.714    0.000    4.000    4.571 
#    2.571    0.000    0.000    0.000    0.000    0.000 
#    0.000    0.000    0.000    0.000    0.000    0.000 
#
# Total GULP energy -156204.667453 kJ/mol
# GULP energy per Si atom -5578.738123 kJ/mol
# Density = 2.209103 g / cm^3
# Si number density = 22.141428 Si / 1000 Ang^3
#
#
#
# Elastic Constant Matrix: (Units=GPa)
#
#
# Indices 1 2 3 4 5 6 
#
# 1 76.7830 19.5205 18.2825 0.0000 0.0000 0.0000
# 2 19.5205 71.5623 18.1679 0.0000 0.0000 0.0000
# 3 18.2825 18.1679 48.5354 0.0000 0.0000 0.0000
# 4 0.0000 0.0000 0.0000 30.1237 0.0000 0.0000
# 5 0.0000 0.0000 0.0000 0.0000 24.5433 0.0000
# 6 0.0000 0.0000 0.0000 0.0000 0.0000 40.3229
#
#
#
# Elastic Compliance Matrix: (Units=1/GPa)
#
#
# Indices 1 2 3 4 5 6 
#
# 1 0.014834 -0.002904 -0.004501 0.000000 0.000000 0.000000
# 2 -0.002904 0.016010 -0.004899 0.000000 0.000000 0.000000
# 3 -0.004501 -0.004899 0.024133 0.000000 0.000000 0.000000
# 4 0.000000 0.000000 0.000000 0.033196 0.000000 0.000000
# 5 0.000000 0.000000 0.000000 0.000000 0.040744 0.000000
# 6 0.000000 0.000000 0.000000 0.000000 0.000000 0.024800
#
#
# Mechanical properties :
#
#
# Convention : Reuss Voigt Hill
#
# Bulk Modulus (GPa) = 32.92810 34.31362 33.62086
# Shear Modulus (GPa) = 26.53280 28.39198 27.46239
#
# Velocity S-wave (km/s) = 3.46545 3.58481 3.52563
# Velocity P-wave (km/s) = 5.56026 5.71538 5.63835
#
# Compressibility (1/GPa) = 0.03036920
#
# Stress axis : x y z
#
# Youngs Moduli (GPa) = 67.41477 62.46247 41.43763
#
# Poissons Ratio (x) = 0.18137 0.18650
# Poissons Ratio (y) = 0.19575 0.20300
# Poissons Ratio (z) = 0.30341 0.30600
#
# Static dielectric constant tensor:
#      x y z
#    x 1.870430 0.000000 0.000000 
#    y 0.000000 1.872750 0.000000 
#    z 0.000000 0.000000 1.823670 
# 
# From -- ./inp_files/4243.got.cif
#   From: 2010.05.17/outbox.cif.g08.bks.cpg/sg18_3_cif.got.tgz:4243.got - 2010.06.03 22:40:56.
