data_PCOD9312577
_publ_section_title
;
Structure prediction by ZEFSAII (Michael W. Deem and Ramdas Pophale) SiO2 
 PCOD9312577
Probable space group: P 21 21 2
;
_chemical_formula_sum "Si O2"
_cell_formula_units_Z 32
_cell_length_a 16.431823
_cell_length_b 5.428917
_cell_length_c 17.062644
_cell_angle_alpha 90.000000
_cell_angle_beta 90.000000
_cell_angle_gamma 90.000000
_cell_volume 1522.107338
_symmetry_space_group_name_H-M "P 21 21 2"
_symmetry_group_IT_number 18
_symmetry_cell_setting 'orthorhombic'
loop_
_space_group_symop_operation_xyz
x,y,z
-x,-y,z
1/2+x,1/2-y,-z
1/2-x,1/2+y,-z
loop_
_atom_site_type_symbol
_atom_site_label
_atom_site_fract_x
_atom_site_fract_y
_atom_site_fract_z
Si Si1 0.290667 0.270638 0.483848
Si Si2 0.409580 0.461699 0.605342
Si Si3 0.836726 0.071604 0.926865
Si Si4 0.824367 0.280548 0.093467
Si Si5 0.301677 0.021861 0.196967
Si Si6 0.912740 0.368175 0.247104
Si Si7 0.550495 0.255090 0.165837
Si Si8 0.219012 0.312331 0.332522
O O1 0.232176 0.482054 0.522125
O O2 0.366271 0.286284 0.542633
O O3 0.289238 0.377906 0.394963
O O4 0.500000 0.500000 0.577064
O O5 0.415678 0.362058 0.694273
O O6 0.353480 0.700881 0.614147
O O7 0.842165 0.259786 0.854130
O O8 0.741915 0.991718 0.925870
O O9 0.899919 0.849730 0.911040
O O10 0.855533 0.187104 0.010461
O O11 0.895310 0.336006 0.155240
O O12 0.767095 0.087475 0.139825
O O13 0.258494 0.119147 0.273792
O O14 0.371529 0.824523 0.217943
O O15 0.829816 0.498503 0.278379
O O16 0.000000 0.500000 0.258211
O O17 0.500000 0.500000 0.190793
O O18 0.500000 0.000000 0.155996
#
# Coordination Sequence:
#
# PCOD9312577 Si02
#       8
#     4   4   4   4   4   4   4   4
#     4  10  22  40  67 102 132 179 229 274 329 414
#     4  11  22  40  67  97 142 185 218 281 350 422
#     4  11  22  40  68  94 131 187 235 291 350 413
#     4  11  23  39  63  98 137 177 243 287 343 420
#     4  11  22  40  71  95 130 184 232 290 347 412
#     4  12  23  39  63 101 145 187 225 289 363 417
#     4  11  24  46  68  95 127 175 237 288 359 415
#     4  11  22  40  67 100 137 178 235 280 340 424
#
# _framework density 21.023485000000001
#
# number of rings (size 3 to 8) (size 9 to 14) (size 15 to 20)
#    0.000    1.000    7.500    0.000    0.000    0.000 
#    2.250    0.625    2.750    0.750    0.000    0.000 
#    0.000    0.000    0.000    0.000    0.000    0.000 
#
# Total GULP energy -178189.959840 kJ/mol
# GULP energy per Si atom -5568.436245 kJ/mol
# Density = 2.097563 g / cm^3
# Si number density = 21.023485 Si / 1000 Ang^3
#
#
#
# Elastic Constant Matrix: (Units=GPa)
#
#
# Indices 1 2 3 4 5 6 
#
# 1 51.1166 19.8987 23.4990 0.0000 0.0000 0.0000
# 2 19.8987 66.3019 8.0599 0.0000 0.0000 0.0000
# 3 23.4990 8.0599 88.7521 0.0000 0.0000 0.0000
# 4 0.0000 0.0000 0.0000 51.4382 0.0000 0.0000
# 5 0.0000 0.0000 0.0000 0.0000 3.8421 0.0000
# 6 0.0000 0.0000 0.0000 0.0000 0.0000 -12.8769
#
#
#
# Elastic Compliance Matrix: (Units=1/GPa)
#
#
# Indices 1 2 3 4 5 6 
#
# 1 0.024949 -0.006759 -0.005992 0.000000 0.000000 0.000000
# 2 -0.006759 0.017082 0.000238 0.000000 0.000000 0.000000
# 3 -0.005992 0.000238 0.012832 0.000000 0.000000 0.000000
# 4 0.000000 0.000000 0.000000 0.019441 0.000000 0.000000
# 5 0.000000 0.000000 0.000000 0.000000 0.260277 0.000000
# 6 0.000000 0.000000 0.000000 0.000000 0.000000 -0.077658
#
#
# Mechanical properties :
#
#
# Convention : Reuss Voigt Hill
#
# Bulk Modulus (GPa) = 33.51481 34.34286 33.92883
# Shear Modulus (GPa) = 17.12946 18.79487 17.96216
#
# Velocity S-wave (km/s) = 2.85753 2.99322 2.92616
# Velocity P-wave (km/s) = 5.18300 5.32135 5.25263
#
# Compressibility (1/GPa) = 0.02983756
#
# Stress axis : x y z
#
# Youngs Moduli (GPa) = 40.08181 58.54055 77.92900
#
# Poissons Ratio (x) = 0.39570 0.46695
# Poissons Ratio (y) = 0.27093 -0.01858
# Poissons Ratio (z) = 0.24017 -0.01396
#
# Static dielectric constant tensor:
#      x y z
#    x 1.765170 0.000000 0.000000 
#    y 0.000000 1.864760 0.000000 
#    z 0.000000 0.000000 1.769410 
# 
# From -- ./inp_files/7426.got.cif
#   From: 2010.05.17/outbox.cif.g08.bks.cpg/sg18_4_cif.got.tgz:7426.got - 2010.06.03 22:40:56.
