data_PCOD9312626
_publ_section_title
;
Structure prediction by ZEFSAII (Michael W. Deem and Ramdas Pophale) SiO2 
 PCOD9312626
Probable space group: P 21 21 2
;
_chemical_formula_sum "Si O2"
_cell_formula_units_Z 30
_cell_length_a 14.988810
_cell_length_b 9.379673
_cell_length_c 10.386445
_cell_angle_alpha 90.000000
_cell_angle_beta 90.000000
_cell_angle_gamma 90.000000
_cell_volume 1460.231720
_symmetry_space_group_name_H-M "P 21 21 2"
_symmetry_group_IT_number 18
_symmetry_cell_setting 'orthorhombic'
loop_
_space_group_symop_operation_xyz
x,y,z
-x,-y,z
1/2+x,1/2-y,-z
1/2-x,1/2+y,-z
loop_
_atom_site_type_symbol
_atom_site_label
_atom_site_fract_x
_atom_site_fract_y
_atom_site_fract_z
Si Si1 0.750059 0.217480 0.842038
Si Si2 0.677629 0.503832 0.491926
Si Si3 0.592925 0.747785 0.364756
Si Si4 0.900427 0.816490 0.734734
Si Si5 0.589903 0.269340 0.669108
Si Si6 0.000000 0.000000 0.174981
Si Si7 0.381028 0.936924 0.442508
Si Si8 0.166826 0.045157 0.991930
O O1 0.824812 0.243201 0.734071
O O2 0.654979 0.194422 0.771746
O O3 0.782558 0.085909 0.926936
O O4 0.734337 0.356389 0.928588
O O5 0.622183 0.649866 0.484531
O O6 0.652099 0.424162 0.359405
O O7 0.646342 0.397569 0.603078
O O8 0.781287 0.535431 0.505076
O O9 0.505704 0.680770 0.298098
O O10 0.579742 0.910531 0.405549
O O11 0.873052 0.659911 0.685347
O O12 0.877774 0.859374 0.879006
O O13 0.511825 0.356343 0.739924
O O14 0.572181 0.158937 0.553665
O O15 0.087847 0.994044 0.086249
#
# Coordination Sequence:
#
# PCOD9312626 Si02
#       8
#     4   4   4   4   4   2   4   4
#     4  11  23  41  69  93 131 174 227 271 322 400
#     4  11  21  39  70  94 130 177 218 262 330 410
#     4  12  22  39  65 104 132 172 218 275 336 391
#     4  11  24  39  66  98 133 172 223 276 327 395
#     4  10  22  42  65  97 130 173 216 267 334 399
#     4  10  24  42  68  92 130 174 226 266 314 404
#     4  11  22  40  63 101 133 170 208 282 334 392
#     4  11  24  44  69  95 127 180 229 271 325 389
#
# _framework density 20.544685999999999
#
# number of rings (size 3 to 8) (size 9 to 14) (size 15 to 20)
#    0.000    1.067    4.000    2.400    5.600    0.000 
#    0.000    0.000    2.933    0.000    0.000    0.000 
#    0.000    0.000    0.000    0.000    0.000    0.000 
#
# Total GULP energy -167733.372225 kJ/mol
# GULP energy per Si atom -5591.112408 kJ/mol
# Density = 2.049792 g / cm^3
# Si number density = 20.544686 Si / 1000 Ang^3
#
#
#
# Elastic Constant Matrix: (Units=GPa)
#
#
# Indices 1 2 3 4 5 6 
#
# 1 97.2482 37.0181 38.3790 0.0000 0.0000 0.0000
# 2 37.0181 128.8852 44.6703 0.0000 0.0000 0.0000
# 3 38.3790 44.6703 91.5431 0.0000 0.0000 0.0000
# 4 0.0000 0.0000 0.0000 30.9342 0.0000 0.0000
# 5 0.0000 0.0000 0.0000 0.0000 29.6160 0.0000
# 6 0.0000 0.0000 0.0000 0.0000 0.0000 35.1962
#
#
#
# Elastic Compliance Matrix: (Units=1/GPa)
#
#
# Indices 1 2 3 4 5 6 
#
# 1 0.012815 -0.002189 -0.004305 0.000000 0.000000 0.000000
# 2 -0.002189 0.009712 -0.003822 0.000000 0.000000 0.000000
# 3 -0.004305 -0.003822 0.014593 0.000000 0.000000 0.000000
# 4 0.000000 0.000000 0.000000 0.032327 0.000000 0.000000
# 5 0.000000 0.000000 0.000000 0.000000 0.033766 0.000000
# 6 0.000000 0.000000 0.000000 0.000000 0.000000 0.028412
#
#
# Mechanical properties :
#
#
# Convention : Reuss Voigt Hill
#
# Bulk Modulus (GPa) = 60.64094 61.97903 61.30998
# Shear Modulus (GPa) = 31.69551 32.32322 32.00936
#
# Velocity S-wave (km/s) = 3.93206 3.97080 3.95148
# Velocity P-wave (km/s) = 7.08488 7.15936 7.12222
#
# Compressibility (1/GPa) = 0.01649051
#
# Stress axis : x y z
#
# Youngs Moduli (GPa) = 78.03401 102.96540 68.52468
#
# Poissons Ratio (x) = 0.22537 0.29497
# Poissons Ratio (y) = 0.17080 0.26187
# Poissons Ratio (z) = 0.33590 0.39349
#
# Static dielectric constant tensor:
#      x y z
#    x 1.745380 0.000000 0.000000 
#    y 0.000000 1.742230 0.000000 
#    z 0.000000 0.000000 1.727180 
# 
# From -- ./inp_files/6099.got.cif
#   From: 2010.05.17/outbox.cif.g08.bks.cpg/sg18_4_cif.got.tgz:6099.got - 2010.06.03 22:40:56.
