data_PCOD9312707
_publ_section_title
;
Structure prediction by ZEFSAII (Michael W. Deem and Ramdas Pophale) SiO2 
 PCOD9312707
Probable space group: P 21 21 2
;
_chemical_formula_sum "Si O2"
_cell_formula_units_Z 32
_cell_length_a 6.174230
_cell_length_b 17.998184
_cell_length_c 14.714150
_cell_angle_alpha 90.000000
_cell_angle_beta 90.000000
_cell_angle_gamma 90.000000
_cell_volume 1635.108853
_symmetry_space_group_name_H-M "P 21 21 2"
_symmetry_group_IT_number 18
_symmetry_cell_setting 'orthorhombic'
loop_
_space_group_symop_operation_xyz
x,y,z
-x,-y,z
1/2+x,1/2-y,-z
1/2-x,1/2+y,-z
loop_
_atom_site_type_symbol
_atom_site_label
_atom_site_fract_x
_atom_site_fract_y
_atom_site_fract_z
Si Si1 0.586070 0.916825 0.085539
Si Si2 0.446720 0.579560 0.414430
Si Si3 0.661358 0.187345 0.536810
Si Si4 0.397154 0.578785 0.750284
Si Si5 0.729746 0.189520 0.204478
Si Si6 0.648633 0.777936 0.968131
Si Si7 0.867676 0.424551 0.578355
Si Si8 0.225133 0.716294 0.366904
O O1 0.793465 0.927336 0.150104
O O2 0.424384 0.866407 0.148301
O O3 0.500000 0.000000 0.065595
O O4 0.634151 0.863834 0.999527
O O5 0.500000 0.500000 0.372950
O O6 0.645362 0.634830 0.431259
O O7 0.333474 0.563180 0.510934
O O8 0.283850 0.630186 0.357111
O O9 0.516684 0.133421 0.474129
O O10 0.717768 0.253335 0.467703
O O11 0.534807 0.218762 0.624409
O O12 0.500000 0.500000 0.723629
O O13 0.583278 0.638802 0.754165
O O14 0.218139 0.599288 0.676072
O O15 0.824610 0.250327 0.134662
O O16 0.652735 0.236072 0.291586
O O17 0.397519 0.747412 0.994092
O O18 0.000000 0.500000 0.590203
#
# Coordination Sequence:
#
# PCOD9312707 Si02
#       8
#     4   4   4   4   4   4   4   4
#     4  11  22  41  67  98 133 168 205 266 340 416
#     4  11  22  41  60  80 118 172 220 275 318 374
#     4  11  22  39  57  87 122 166 219 273 317 384
#     4  12  23  34  57  97 132 165 204 262 337 406
#     4  11  24  41  63  94 134 172 214 274 330 406
#     4  10  22  44  70  98 132 174 221 265 332 411
#     4  11  23  34  57  87 125 165 211 266 332 397
#     4  11  24  37  60  89 123 170 224 265 329 383
#
# _framework density 19.570564000000001
#
# number of rings (size 3 to 8) (size 9 to 14) (size 15 to 20)
#    0.000    1.000    5.000    2.250    3.500    1.000 
#    0.000    0.000    2.750    0.750    0.000    0.000 
#    0.000    0.000    0.000    0.000    0.000    0.000 
#
# Total GULP energy -178207.114039 kJ/mol
# GULP energy per Si atom -5568.972314 kJ/mol
# Density = 1.952602 g / cm^3
# Si number density = 19.570564 Si / 1000 Ang^3
#
#
#
# Elastic Constant Matrix: (Units=GPa)
#
#
# Indices 1 2 3 4 5 6 
#
# 1 55.9110 23.7572 2.1862 0.0000 0.0000 0.0000
# 2 23.7572 81.7123 22.7023 0.0000 0.0000 0.0000
# 3 2.1862 22.7023 43.0286 0.0000 0.0000 0.0000
# 4 0.0000 0.0000 0.0000 -7.8840 0.0000 0.0000
# 5 0.0000 0.0000 0.0000 0.0000 15.6242 0.0000
# 6 0.0000 0.0000 0.0000 0.0000 0.0000 36.8910
#
#
#
# Elastic Compliance Matrix: (Units=1/GPa)
#
#
# Indices 1 2 3 4 5 6 
#
# 1 0.020630 -0.006687 0.002480 0.000000 0.000000 0.000000
# 2 -0.006687 0.016508 -0.008370 0.000000 0.000000 0.000000
# 3 0.002480 -0.008370 0.027530 0.000000 0.000000 0.000000
# 4 0.000000 0.000000 0.000000 -0.126840 0.000000 0.000000
# 5 0.000000 0.000000 0.000000 0.000000 0.064003 0.000000
# 6 0.000000 0.000000 0.000000 0.000000 0.000000 0.027107
#
#
# Mechanical properties :
#
#
# Convention : Reuss Voigt Hill
#
# Bulk Modulus (GPa) = 25.30736 30.88260 28.09498
# Shear Modulus (GPa) = 74.33441 17.72665 46.03053
#
# Velocity S-wave (km/s) = 6.16970 3.01289 4.85503
# Velocity P-wave (km/s) = 7.98204 5.28372 6.76870
#
# Compressibility (1/GPa) = 0.03951419
#
# Stress axis : x y z
#
# Youngs Moduli (GPa) = 48.47316 60.57792 36.32356
#
# Poissons Ratio (x) = 0.40509 -0.09008
# Poissons Ratio (y) = 0.32414 0.30402
# Poissons Ratio (z) = -0.12021 0.50703
#
# Static dielectric constant tensor:
#      x y z
#    x 1.812030 0.000000 0.000000 
#    y 0.000000 1.710400 0.000000 
#    z 0.000000 0.000000 1.664130 
# 
# From -- ./inp_files/6562.got.cif
#   From: 2010.05.17/outbox.cif.g08.bks.cpg/sg18_4_cif.got.tgz:6562.got - 2010.06.03 22:40:56.
