data_PCOD9312235
_publ_section_title
;
Structure prediction by ZEFSAII (Michael W. Deem and Ramdas Pophale) SiO2 
 PCOD9312235
Probable space group: P 21 21 2
;
_chemical_formula_sum "Si O2"
_cell_formula_units_Z 22
_cell_length_a 7.513980
_cell_length_b 15.849829
_cell_length_c 7.858531
_cell_angle_alpha 90.000000
_cell_angle_beta 90.000000
_cell_angle_gamma 90.000000
_cell_volume 935.914092
_symmetry_space_group_name_H-M "P 21 21 2"
_symmetry_group_IT_number 18
_symmetry_cell_setting 'orthorhombic'
loop_
_space_group_symop_operation_xyz
x,y,z
-x,-y,z
1/2+x,1/2-y,-z
1/2-x,1/2+y,-z
loop_
_atom_site_type_symbol
_atom_site_label
_atom_site_fract_x
_atom_site_fract_y
_atom_site_fract_z
Si Si1 0.069017 0.331243 0.937421
Si Si2 0.124005 0.100072 0.441883
Si Si3 0.548504 0.674186 0.844359
Si Si4 0.500000 0.000000 0.898957
Si Si5 0.248420 0.445599 0.399241
Si Si6 0.662282 0.217107 0.418101
O O1 0.965728 0.414620 0.994302
O O2 0.043173 0.249563 0.055420
O O3 0.278445 0.356422 0.946038
O O4 0.033662 0.299276 0.744261
O O5 0.174882 0.193629 0.493811
O O6 0.069717 0.102982 0.243383
O O7 0.954762 0.081155 0.568645
O O8 0.263859 0.026153 0.475408
O O9 0.647800 0.711378 0.678166
O O10 0.666814 0.021553 0.775763
O O11 0.145250 0.361819 0.456767
#
# Coordination Sequence:
#
# PCOD9312235 Si02
#       6
#     4   4   4   2   4   4
#     4  10  23  42  62  95 134 168 216 262 347 385
#     4  10  20  43  69  91 129 174 225 271 315 397
#     4   9  21  42  62  94 122 174 212 262 329 389
#     4  12  24  40  60 100 136 160 214 282 326 394
#     4  10  23  41  66  98 127 171 227 263 331 383
#     4   9  21  40  66  92 127 170 223 264 324 387
#
# _framework density 23.506430999999999
#
# number of rings (size 3 to 8) (size 9 to 14) (size 15 to 20)
#    1.091    1.091    0.000    2.182    2.545    2.182 
#    6.545    0.000    0.000    0.000    0.000    0.000 
#    0.000    0.000    0.000    0.000    0.000    0.000 
#
# Total GULP energy -122564.599410 kJ/mol
# GULP energy per Si atom -5571.118155 kJ/mol
# Density = 2.345293 g / cm^3
# Si number density = 23.506431 Si / 1000 Ang^3
#
#
#
# Elastic Constant Matrix: (Units=GPa)
#
#
# Indices 1 2 3 4 5 6 
#
# 1 31.9866 16.8582 14.2606 0.0000 0.0000 0.0000
# 2 16.8582 171.8144 43.0804 0.0000 0.0000 0.0000
# 3 14.2606 43.0804 35.0180 0.0000 0.0000 0.0000
# 4 0.0000 0.0000 0.0000 23.6266 0.0000 0.0000
# 5 0.0000 0.0000 0.0000 0.0000 18.7364 0.0000
# 6 0.0000 0.0000 0.0000 0.0000 0.0000 32.3168
#
#
#
# Elastic Compliance Matrix: (Units=1/GPa)
#
#
# Indices 1 2 3 4 5 6 
#
# 1 0.038204 0.000221 -0.015829 0.000000 0.000000 0.000000
# 2 0.000221 0.008418 -0.010446 0.000000 0.000000 0.000000
# 3 -0.015829 -0.010446 0.047854 0.000000 0.000000 0.000000
# 4 0.000000 0.000000 0.000000 0.042325 0.000000 0.000000
# 5 0.000000 0.000000 0.000000 0.000000 0.053372 0.000000
# 6 0.000000 0.000000 0.000000 0.000000 0.000000 0.030944
#
#
# Mechanical properties :
#
#
# Convention : Reuss Voigt Hill
#
# Bulk Modulus (GPa) = 23.60355 43.02415 33.31385
# Shear Modulus (GPa) = 17.40054 25.91061 21.65558
#
# Velocity S-wave (km/s) = 2.72370 3.32366 3.03852
# Velocity P-wave (km/s) = 4.46704 5.75081 5.14909
#
# Compressibility (1/GPa) = 0.04236651
#
# Stress axis : x y z
#
# Youngs Moduli (GPa) = 26.17516 118.79733 20.89707
#
# Poissons Ratio (x) = -0.02619 0.33079
# Poissons Ratio (y) = -0.00577 0.21828
# Poissons Ratio (z) = 0.41434 1.24090
#
# Static dielectric constant tensor:
#      x y z
#    x 2.075980 0.000000 0.000000 
#    y 0.000000 1.897760 0.000000 
#    z 0.000000 0.000000 1.905640 
# 
# From -- ./inp_files/3094.got.cif
#   From: 2010.05.17/outbox.cif.g08.bks.cpg/sg18_2_cif.got.tgz:3094.got - 2010.06.03 22:40:56.
