data_PCOD9312853
_publ_section_title
;
Structure prediction by ZEFSAII (Michael W. Deem and Ramdas Pophale) SiO2 
 PCOD9312853
Probable space group: P 21 21 2
;
_chemical_formula_sum "Si O2"
_cell_formula_units_Z 30
_cell_length_a 7.839855
_cell_length_b 26.541187
_cell_length_c 5.509236
_cell_angle_alpha 90.000000
_cell_angle_beta 90.000000
_cell_angle_gamma 90.000000
_cell_volume 1146.356635
_symmetry_space_group_name_H-M "P 21 21 2"
_symmetry_group_IT_number 18
_symmetry_cell_setting 'orthorhombic'
loop_
_space_group_symop_operation_xyz
x,y,z
-x,-y,z
1/2+x,1/2-y,-z
1/2-x,1/2+y,-z
loop_
_atom_site_type_symbol
_atom_site_label
_atom_site_fract_x
_atom_site_fract_y
_atom_site_fract_z
Si Si1 0.132098 0.735972 0.507109
Si Si2 0.516049 0.105117 0.626864
Si Si3 0.585161 0.576241 0.340447
Si Si4 0.575339 0.146715 0.126176
Si Si5 0.048906 0.180329 0.724649
Si Si6 0.500000 0.000000 0.398487
Si Si7 0.318645 0.448007 0.837178
Si Si8 0.632653 0.250541 0.890326
O O1 0.100641 0.796283 0.556621
O O2 0.278664 0.708186 0.357317
O O3 0.193602 0.725542 0.784867
O O4 0.964523 0.728060 0.344031
O O5 0.721829 0.098667 0.639584
O O6 0.481945 0.138702 0.385937
O O7 0.454198 0.048572 0.563136
O O8 0.469333 0.126646 0.891201
O O9 0.454327 0.621286 0.295258
O O10 0.557817 0.552777 0.604929
O O11 0.600046 0.543369 0.098533
O O12 0.734295 0.107961 0.140906
O O13 0.640849 0.203032 0.071070
O O14 0.031663 0.202933 0.993248
O O15 0.340402 0.983623 0.232888
#
# Coordination Sequence:
#
# PCOD9312853 Si02
#       8
#     4   4   4   4   4   2   4   4
#     4  10  24  36  54  80 101 154 197 252 285 339
#     4   9  18  31  52  81 112 150 175 238 285 372
#     4   9  19  30  48  74 108 146 183 221 290 328
#     4   9  19  31  51  74 107 148 184 224 293 326
#     4  11  23  37  57  78 113 154 206 250 292 345
#     4   8  16  30  50  80 118 144 182 212 310 362
#     4   9  18  30  51  79 111 149 174 237 282 369
#     4  11  23  39  56  77 113 155 208 251 290 344
#
# _framework density 26.169868000000001
#
# number of rings (size 3 to 8) (size 9 to 14) (size 15 to 20)
#    0.000    2.667    0.000    2.400   11.200    8.533 
#    0.000    0.000    0.000    0.000    0.000    0.000 
#    0.000   25.600    0.000    0.000    0.000    0.000 
#
# Total GULP energy -167345.431644 kJ/mol
# GULP energy per Si atom -5578.181055 kJ/mol
# Density = 2.611030 g / cm^3
# Si number density = 26.169868 Si / 1000 Ang^3
#
#
#
# Elastic Constant Matrix: (Units=GPa)
#
#
# Indices 1 2 3 4 5 6 
#
# 1 81.5188 43.0398 24.7598 0.0000 0.0000 0.0000
# 2 43.0398 121.5006 61.8900 0.0000 0.0000 0.0000
# 3 24.7598 61.8900 234.7077 0.0000 0.0000 0.0000
# 4 0.0000 0.0000 0.0000 -35.7795 0.0000 0.0000
# 5 0.0000 0.0000 0.0000 0.0000 110.6340 0.0000
# 6 0.0000 0.0000 0.0000 0.0000 0.0000 35.2479
#
#
#
# Elastic Compliance Matrix: (Units=1/GPa)
#
#
# Indices 1 2 3 4 5 6 
#
# 1 0.015098 -0.005241 -0.000211 0.000000 0.000000 0.000000
# 2 -0.005241 0.011327 -0.002434 0.000000 0.000000 0.000000
# 3 -0.000211 -0.002434 0.004925 0.000000 0.000000 0.000000
# 4 0.000000 0.000000 0.000000 -0.027949 0.000000 0.000000
# 5 0.000000 0.000000 0.000000 0.000000 0.009039 0.000000
# 6 0.000000 0.000000 0.000000 0.000000 0.000000 0.028371
#
#
# Mechanical properties :
#
#
# Convention : Reuss Voigt Hill
#
# Bulk Modulus (GPa) = 64.19146 77.45628 70.82387
# Shear Modulus (GPa) = 80.94043 42.55632 61.74838
#
# Velocity S-wave (km/s) = 5.56741 4.03694 4.86276
# Velocity P-wave (km/s) = 8.11850 7.16875 7.65836
#
# Compressibility (1/GPa) = 0.01557840
#
# Stress axis : x y z
#
# Youngs Moduli (GPa) = 66.23301 88.28697 203.06087
#
# Poissons Ratio (x) = 0.46271 0.04280
# Poissons Ratio (y) = 0.34712 0.49422
# Poissons Ratio (z) = 0.01396 0.21488
#
# Static dielectric constant tensor:
#      x y z
#    x 2.145560 0.000000 0.000000 
#    y 0.000000 2.026040 0.000000 
#    z 0.000000 0.000000 2.189370 
# 
# From -- ./inp_files/765.got.cif
#   From: 2010.05.17/outbox.cif.g08.bks.cpg/sg18_1_cif.got.tgz:765.got - 2010.06.03 22:40:56.
