data_PCOD9312831
_publ_section_title
;
Structure prediction by ZEFSAII (Michael W. Deem and Ramdas Pophale) SiO2 
 PCOD9312831
Probable space group: P 21 21 2
;
_chemical_formula_sum "Si O2"
_cell_formula_units_Z 24
_cell_length_a 22.337909
_cell_length_b 8.196566
_cell_length_c 4.770844
_cell_angle_alpha 90.000000
_cell_angle_beta 90.000000
_cell_angle_gamma 90.000000
_cell_volume 873.513605
_symmetry_space_group_name_H-M "P 21 21 2"
_symmetry_group_IT_number 18
_symmetry_cell_setting 'orthorhombic'
loop_
_space_group_symop_operation_xyz
x,y,z
-x,-y,z
1/2+x,1/2-y,-z
1/2-x,1/2+y,-z
loop_
_atom_site_type_symbol
_atom_site_label
_atom_site_fract_x
_atom_site_fract_y
_atom_site_fract_z
Si Si1 0.626838 0.012575 0.622814
Si Si2 0.859615 0.194565 0.767337
Si Si3 0.940302 0.940561 0.047230
Si Si4 0.691762 0.281028 0.897114
Si Si5 0.776886 0.118943 0.277457
Si Si6 0.553713 0.101378 0.156020
O O1 0.599140 0.138376 0.402028
O O2 0.627842 0.855292 0.419228
O O3 0.684763 0.105969 0.742012
O O4 0.583450 0.004901 0.894074
O O5 0.827116 0.203063 0.069986
O O6 0.916215 0.077739 0.828533
O O7 0.808499 0.114108 0.575977
O O8 0.874180 0.865692 0.130939
O O9 0.968641 0.774823 0.935674
O O10 0.000000 0.000000 0.217805
O O11 0.733419 0.428526 0.793477
O O12 0.719155 0.225657 0.195622
O O13 0.500000 0.000000 0.279807
#
# Coordination Sequence:
#
# PCOD9312831 Si02
#       6
#     4   4   4   4   4   4
#     4  11  23  42  67  98 137 178 240 297 361 435
#     4  11  24  43  70 103 139 190 239 302 367 433
#     4  10  23  45  71 104 149 194 245 303 370 449
#     4  10  24  44  71 106 143 191 241 308 375 439
#     4  11  24  43  68 101 142 182 241 300 365 439
#     4  11  23  41  66  98 137 187 238 294 354 431
#
# _framework density 27.475248000000001
#
# number of rings (size 3 to 8) (size 9 to 14) (size 15 to 20)
#    0.000    1.333    0.000    4.500    0.000    9.333 
#    0.000   10.000    0.000    0.000    0.000    0.000 
#    0.000    0.000    0.000    0.000    0.000    0.000 
#
# Total GULP energy -133811.034213 kJ/mol
# GULP energy per Si atom -5575.459759 kJ/mol
# Density = 2.741271 g / cm^3
# Si number density = 27.475248 Si / 1000 Ang^3
#
#
#
# Elastic Constant Matrix: (Units=GPa)
#
#
# Indices 1 2 3 4 5 6 
#
# 1 147.8170 41.2869 29.6259 0.0000 0.0000 0.0000
# 2 41.2869 114.7683 16.6640 0.0000 0.0000 0.0000
# 3 29.6259 16.6640 111.7326 0.0000 0.0000 0.0000
# 4 0.0000 0.0000 0.0000 38.1538 0.0000 0.0000
# 5 0.0000 0.0000 0.0000 0.0000 24.6765 0.0000
# 6 0.0000 0.0000 0.0000 0.0000 0.0000 49.4231
#
#
#
# Elastic Compliance Matrix: (Units=1/GPa)
#
#
# Indices 1 2 3 4 5 6 
#
# 1 0.007821 -0.002568 -0.001691 0.000000 0.000000 0.000000
# 2 -0.002568 0.009749 -0.000773 0.000000 0.000000 0.000000
# 3 -0.001691 -0.000773 0.009514 0.000000 0.000000 0.000000
# 4 0.000000 0.000000 0.000000 0.026210 0.000000 0.000000
# 5 0.000000 0.000000 0.000000 0.000000 0.040524 0.000000
# 6 0.000000 0.000000 0.000000 0.000000 0.000000 0.020233
#
#
# Mechanical properties :
#
#
# Convention : Reuss Voigt Hill
#
# Bulk Modulus (GPa) = 58.75403 61.05241 59.90322
# Shear Modulus (GPa) = 38.52403 41.56677 40.04540
#
# Velocity S-wave (km/s) = 3.74857 3.89380 3.82187
# Velocity P-wave (km/s) = 6.33771 6.51802 6.42850
#
# Compressibility (1/GPa) = 0.01702011
#
# Stress axis : x y z
#
# Youngs Moduli (GPa) = 127.85583 102.57120 105.11321
#
# Poissons Ratio (x) = 0.26342 0.17773
# Poissons Ratio (y) = 0.32835 0.08126
# Poissons Ratio (z) = 0.21618 0.07930
#
# Static dielectric constant tensor:
#      x y z
#    x 2.273800 0.000000 0.000000 
#    y 0.000000 2.228930 0.000000 
#    z 0.000000 0.000000 2.154210 
# 
# From -- ./inp_files/2078.got.cif
#   From: 2010.05.17/outbox.cif.g08.bks.cpg/sg18_2_cif.got.tgz:2078.got - 2010.06.03 22:40:56.
