data_PCOD9312609
_publ_section_title
;
Structure prediction by ZEFSAII (Michael W. Deem and Ramdas Pophale) SiO2 
 PCOD9312609
Probable space group: P 21 21 2
;
_chemical_formula_sum "Si O2"
_cell_formula_units_Z 20
_cell_length_a 10.517623
_cell_length_b 9.426762
_cell_length_c 9.631050
_cell_angle_alpha 90.000000
_cell_angle_beta 90.000000
_cell_angle_gamma 90.000000
_cell_volume 954.890955
_symmetry_space_group_name_H-M "P 21 21 2"
_symmetry_group_IT_number 18
_symmetry_cell_setting 'orthorhombic'
loop_
_space_group_symop_operation_xyz
x,y,z
-x,-y,z
1/2+x,1/2-y,-z
1/2-x,1/2+y,-z
loop_
_atom_site_type_symbol
_atom_site_label
_atom_site_fract_x
_atom_site_fract_y
_atom_site_fract_z
Si Si1 0.928543 0.224165 0.791421
Si Si2 0.292562 0.200832 0.460389
Si Si3 0.468635 0.830822 0.625228
Si Si4 0.314195 0.584200 0.270778
Si Si5 0.433928 0.146801 0.911548
O O1 0.854792 0.333073 0.689447
O O2 0.075932 0.200989 0.752193
O O3 0.866851 0.070835 0.762175
O O4 0.916999 0.261546 0.952031
O O5 0.419060 0.251622 0.543729
O O6 0.169999 0.297035 0.430693
O O7 0.233097 0.091451 0.570571
O O8 0.478003 0.791921 0.787925
O O9 0.500000 0.000000 0.614007
O O10 0.198028 0.616675 0.167605
O O11 0.500000 0.000000 0.955176
#
# Coordination Sequence:
#
# PCOD9312609 Si02
#       5
#     4   4   4   4   4
#     4  11  23  42  69  95 138 175 221 284 340 397
#     4  11  20  42  67  94 130 178 222 274 340 405
#     4  10  22  41  67  97 134 176 224 282 340 410
#     4  10  24  43  65  97 136 175 224 279 337 402
#     4  10  23  42  69  98 130 179 223 275 345 406
#
# _framework density 20.944800999999998
#
# number of rings (size 3 to 8) (size 9 to 14) (size 15 to 20)
#    0.000    1.600    2.000    3.600    5.600    0.800 
#    3.600    0.000    0.000    0.000    0.000    0.000 
#    0.000    0.000    0.000    0.000    0.000    0.000 
#
# Total GULP energy -111515.985871 kJ/mol
# GULP energy per Si atom -5575.799294 kJ/mol
# Density = 2.089713 g / cm^3
# Si number density = 20.944801 Si / 1000 Ang^3
#
#
#
# Elastic Constant Matrix: (Units=GPa)
#
#
# Indices 1 2 3 4 5 6 
#
# 1 152.5313 51.4094 64.1363 0.0000 0.0000 0.0000
# 2 51.4094 41.2380 61.2147 0.0000 0.0000 0.0000
# 3 64.1363 61.2147 170.4891 0.0000 0.0000 0.0000
# 4 0.0000 0.0000 0.0000 28.1783 0.0000 0.0000
# 5 0.0000 0.0000 0.0000 0.0000 38.7582 0.0000
# 6 0.0000 0.0000 0.0000 0.0000 0.0000 33.5022
#
#
#
# Elastic Compliance Matrix: (Units=1/GPa)
#
#
# Indices 1 2 3 4 5 6 
#
# 1 0.011550 -0.017021 0.001766 0.000000 0.000000 0.000000
# 2 -0.017021 0.077009 -0.021247 0.000000 0.000000 0.000000
# 3 0.001766 -0.021247 0.012830 0.000000 0.000000 0.000000
# 4 0.000000 0.000000 0.000000 0.035488 0.000000 0.000000
# 5 0.000000 0.000000 0.000000 0.000000 0.025801 0.000000
# 6 0.000000 0.000000 0.000000 0.000000 0.000000 0.029849
#
#
# Mechanical properties :
#
#
# Convention : Reuss Voigt Hill
#
# Bulk Modulus (GPa) = 35.22983 79.75324 57.49153
# Shear Modulus (GPa) = 18.18238 32.58760 25.38499
#
# Velocity S-wave (km/s) = 2.94957 3.94874 3.48515
# Velocity P-wave (km/s) = 5.33449 7.67793 6.61088
#
# Compressibility (1/GPa) = 0.02838504
#
# Stress axis : x y z
#
# Youngs Moduli (GPa) = 86.57922 12.98558 77.94391
#
# Poissons Ratio (x) = 0.22103 -0.13769
# Poissons Ratio (y) = 1.47368 1.65607
# Poissons Ratio (z) = -0.15294 0.27590
#
# Static dielectric constant tensor:
#      x y z
#    x 1.791630 0.000000 0.000000 
#    y 0.000000 1.788730 0.000000 
#    z 0.000000 0.000000 1.757120 
# 
# From -- ./inp_files/3690.got.cif
#   From: 2010.05.17/outbox.cif.g08.bks.cpg/sg18_2_cif.got.tgz:3690.got - 2010.06.03 22:40:56.
