data_PCOD9312631
_publ_section_title
;
Structure prediction by ZEFSAII (Michael W. Deem and Ramdas Pophale) SiO2 
 PCOD9312631
Probable space group: P 21 21 2
;
_chemical_formula_sum "Si O2"
_cell_formula_units_Z 18
_cell_length_a 12.834654
_cell_length_b 8.189884
_cell_length_c 8.515024
_cell_angle_alpha 90.000000
_cell_angle_beta 90.000000
_cell_angle_gamma 90.000000
_cell_volume 895.051021
_symmetry_space_group_name_H-M "P 21 21 2"
_symmetry_group_IT_number 18
_symmetry_cell_setting 'orthorhombic'
loop_
_space_group_symop_operation_xyz
x,y,z
-x,-y,z
1/2+x,1/2-y,-z
1/2-x,1/2+y,-z
loop_
_atom_site_type_symbol
_atom_site_label
_atom_site_fract_x
_atom_site_fract_y
_atom_site_fract_z
Si Si1 0.946679 0.674313 0.399639
Si Si2 0.261879 0.334972 0.211878
Si Si3 0.853749 0.880491 0.964888
Si Si4 0.000000 0.000000 0.215949
Si Si5 0.012471 0.686172 0.757000
O O1 0.826948 0.670127 0.343652
O O2 0.000000 0.500000 0.356704
O O3 0.960363 0.695846 0.585540
O O4 0.996252 0.833374 0.315740
O O5 0.291239 0.517629 0.162884
O O6 0.367808 0.241367 0.256332
O O7 0.214367 0.251347 0.056358
O O8 0.951549 0.798633 0.878921
O O9 0.899783 0.995364 0.102256
O O10 0.000000 0.500000 0.811352
#
# Coordination Sequence:
#
# PCOD9312631 Si02
#       5
#     4   4   4   2   4
#     4  10  26  45  67 100 141 178 229 286 341 418
#     4  11  24  42  68 102 130 188 225 280 361 397
#     4  11  23  41  68  99 133 176 233 283 337 411
#     4  10  22  42  66  94 134 176 216 290 330 402
#     4  11  24  46  65 100 143 175 232 287 340 418
#
# _framework density 20.110583999999999
#
# number of rings (size 3 to 8) (size 9 to 14) (size 15 to 20)
#    0.000    1.333    2.222    1.333    6.222    7.111 
#    8.000    0.000    0.000    0.000    0.000    0.000 
#    0.000    0.000    0.000    0.000    0.000    0.000 
#
# Total GULP energy -100588.213935 kJ/mol
# GULP energy per Si atom -5588.234107 kJ/mol
# Density = 2.006481 g / cm^3
# Si number density = 20.110584 Si / 1000 Ang^3
#
#
#
# Elastic Constant Matrix: (Units=GPa)
#
#
# Indices 1 2 3 4 5 6 
#
# 1 101.2025 34.7418 12.3199 0.0000 0.0000 0.0000
# 2 34.7418 98.3618 33.2933 0.0000 0.0000 0.0000
# 3 12.3199 33.2933 35.2739 0.0000 0.0000 0.0000
# 4 0.0000 0.0000 0.0000 25.5551 0.0000 0.0000
# 5 0.0000 0.0000 0.0000 0.0000 7.0589 0.0000
# 6 0.0000 0.0000 0.0000 0.0000 0.0000 21.2266
#
#
#
# Elastic Compliance Matrix: (Units=1/GPa)
#
#
# Indices 1 2 3 4 5 6 
#
# 1 0.011246 -0.003883 -0.000263 0.000000 0.000000 0.000000
# 2 -0.003883 0.016280 -0.014010 0.000000 0.000000 0.000000
# 3 -0.000263 -0.014010 0.041664 0.000000 0.000000 0.000000
# 4 0.000000 0.000000 0.000000 0.039131 0.000000 0.000000
# 5 0.000000 0.000000 0.000000 0.000000 0.141664 0.000000
# 6 0.000000 0.000000 0.000000 0.000000 0.000000 0.047111
#
#
# Mechanical properties :
#
#
# Convention : Reuss Voigt Hill
#
# Bulk Modulus (GPa) = 30.41418 43.94981 37.18200
# Shear Modulus (GPa) = 14.51935 21.06702 17.79318
#
# Velocity S-wave (km/s) = 2.68988 3.24011 2.97773
# Velocity P-wave (km/s) = 4.98032 5.99160 5.50921
#
# Compressibility (1/GPa) = 0.03287940
#
# Stress axis : x y z
#
# Youngs Moduli (GPa) = 88.91847 61.42466 24.00136
#
# Poissons Ratio (x) = 0.23853 0.00630
# Poissons Ratio (y) = 0.34530 0.33625
# Poissons Ratio (z) = 0.02335 0.86054
#
# Static dielectric constant tensor:
#      x y z
#    x 1.697890 0.000000 0.000000 
#    y 0.000000 1.735250 0.000000 
#    z 0.000000 0.000000 1.685670 
# 
# From -- ./inp_files/2805.got.cif
#   From: 2010.05.17/outbox.cif.g08.bks.cpg/sg18_2_cif.got.tgz:2805.got - 2010.06.03 22:40:56.
