data_PCOD9312214
_publ_section_title
;
Structure prediction by ZEFSAII (Michael W. Deem and Ramdas Pophale) SiO2 
 PCOD9312214
Probable space group: P 21 21 2
;
_chemical_formula_sum "Si O2"
_cell_formula_units_Z 20
_cell_length_a 8.615144
_cell_length_b 15.193786
_cell_length_c 7.252292
_cell_angle_alpha 90.000000
_cell_angle_beta 90.000000
_cell_angle_gamma 90.000000
_cell_volume 949.300759
_symmetry_space_group_name_H-M "P 21 21 2"
_symmetry_group_IT_number 18
_symmetry_cell_setting 'orthorhombic'
loop_
_space_group_symop_operation_xyz
x,y,z
-x,-y,z
1/2+x,1/2-y,-z
1/2-x,1/2+y,-z
loop_
_atom_site_type_symbol
_atom_site_label
_atom_site_fract_x
_atom_site_fract_y
_atom_site_fract_z
Si Si1 0.733413 0.114258 0.027294
Si Si2 0.305283 0.246799 0.690223
Si Si3 0.500000 0.000000 0.261049
Si Si4 0.000000 0.000000 0.202222
Si Si5 0.169663 0.299026 0.338676
Si Si6 0.764214 0.884297 0.418323
O O1 0.766245 0.210422 0.116051
O O2 0.879131 0.053383 0.077810
O O3 0.589307 0.068284 0.128859
O O4 0.703774 0.128684 0.812440
O O5 0.237820 0.317982 0.541728
O O6 0.487218 0.225948 0.662229
O O7 0.221641 0.156749 0.623278
O O8 0.620205 0.947582 0.388029
O O9 0.089183 0.067130 0.335157
O O10 0.256932 0.205999 0.301208
#
# Coordination Sequence:
#
# PCOD9312214 Si02
#       6
#     4   4   2   2   4   4
#     4  11  22  41  68  86 133 161 211 253 318 365
#     4  10  21  42  66  93 116 169 218 247 302 381
#     4  10  22  36  62  98 132 160 194 278 314 354
#     4  10  20  42  62 100 124 164 196 276 314 354
#     4  10  23  39  68  89 119 167 214 250 298 383
#     4   9  21  39  66  87 130 161 208 253 320 355
#
# _framework density 21.06814
#
# number of rings (size 3 to 8) (size 9 to 14) (size 15 to 20)
#    1.200    0.800    2.000    1.200    2.800    0.000 
#    0.000    7.000    4.400    0.000    0.000    0.000 
#    0.000    0.000    0.000    0.000    0.000    0.000 
#
# Total GULP energy -111476.887493 kJ/mol
# GULP energy per Si atom -5573.844375 kJ/mol
# Density = 2.102019 g / cm^3
# Si number density = 21.068140 Si / 1000 Ang^3
#
#
#
# Elastic Constant Matrix: (Units=GPa)
#
#
# Indices 1 2 3 4 5 6 
#
# 1 67.8699 0.7842 7.9017 0.0000 0.0000 0.0000
# 2 0.7842 52.9949 2.5603 0.0000 0.0000 0.0000
# 3 7.9017 2.5603 50.0676 0.0000 0.0000 0.0000
# 4 0.0000 0.0000 0.0000 6.0924 0.0000 0.0000
# 5 0.0000 0.0000 0.0000 0.0000 6.4008 0.0000
# 6 0.0000 0.0000 0.0000 0.0000 0.0000 16.2917
#
#
#
# Elastic Compliance Matrix: (Units=1/GPa)
#
#
# Indices 1 2 3 4 5 6 
#
# 1 0.015010 -0.000108 -0.002363 0.000000 0.000000 0.000000
# 2 -0.000108 0.018917 -0.000950 0.000000 0.000000 0.000000
# 3 -0.002363 -0.000950 0.020395 0.000000 0.000000 0.000000
# 4 0.000000 0.000000 0.000000 0.164138 0.000000 0.000000
# 5 0.000000 0.000000 0.000000 0.000000 0.156232 0.000000
# 6 0.000000 0.000000 0.000000 0.000000 0.000000 0.061381
#
#
# Mechanical properties :
#
#
# Convention : Reuss Voigt Hill
#
# Bulk Modulus (GPa) = 21.06199 21.49165 21.27682
# Shear Modulus (GPa) = 10.89936 16.40272 13.65104
#
# Velocity S-wave (km/s) = 2.27698 2.79329 2.54824
# Velocity P-wave (km/s) = 4.11480 4.54163 4.33348
#
# Compressibility (1/GPa) = 0.04747889
#
# Stress axis : x y z
#
# Youngs Moduli (GPa) = 66.62010 52.86181 49.03263
#
# Poissons Ratio (x) = 0.00571 0.11589
# Poissons Ratio (y) = 0.00719 0.04660
# Poissons Ratio (z) = 0.15745 0.05024
#
# Static dielectric constant tensor:
#      x y z
#    x 1.755490 0.000000 0.000000 
#    y 0.000000 1.774340 0.000000 
#    z 0.000000 0.000000 1.755110 
# 
# From -- ./inp_files/3052.got.cif
#   From: 2010.05.17/outbox.cif.g08.bks.cpg/sg18_2_cif.got.tgz:3052.got - 2010.06.03 22:40:56.
