data_PCOD9312655
_publ_section_title
;
Structure prediction by ZEFSAII (Michael W. Deem and Ramdas Pophale) SiO2 
 PCOD9312655
Probable space group: P 21 21 2
;
_chemical_formula_sum "Si O2"
_cell_formula_units_Z 28
_cell_length_a 11.129794
_cell_length_b 19.119672
_cell_length_c 5.007233
_cell_angle_alpha 90.000000
_cell_angle_beta 90.000000
_cell_angle_gamma 90.000000
_cell_volume 1065.529222
_symmetry_space_group_name_H-M "P 21 21 2"
_symmetry_group_IT_number 18
_symmetry_cell_setting 'orthorhombic'
loop_
_space_group_symop_operation_xyz
x,y,z
-x,-y,z
1/2+x,1/2-y,-z
1/2-x,1/2+y,-z
loop_
_atom_site_type_symbol
_atom_site_label
_atom_site_fract_x
_atom_site_fract_y
_atom_site_fract_z
Si Si1 0.663134 0.181119 0.001061
Si Si2 0.514532 0.798670 0.489111
Si Si3 0.190695 0.168864 0.922413
Si Si4 0.000000 0.000000 0.239341
Si Si5 0.255841 0.971050 0.158264
Si Si6 0.522685 0.350830 0.581084
Si Si7 0.500000 0.000000 0.846787
Si Si8 0.832210 0.416502 0.412615
O O1 0.558548 0.190468 0.219029
O O2 0.737694 0.253437 0.024304
O O3 0.740851 0.113613 0.097895
O O4 0.587161 0.184796 0.721769
O O5 0.555368 0.718114 0.537344
O O6 0.636956 0.843168 0.451761
O O7 0.124330 0.159515 0.639930
O O8 0.285653 0.107555 0.879288
O O9 0.089434 0.154648 0.137903
O O10 0.020172 0.930635 0.420478
O O11 0.123452 0.997346 0.070334
O O12 0.270721 0.018442 0.434898
O O13 0.383199 0.985457 0.016285
O O14 0.468495 0.060831 0.644183
#
# Coordination Sequence:
#
# PCOD9312655 Si02
#       8
#     4   4   4   2   4   4   2   4
#     4  10  22  45  68 105 142 190 252 305 372 445
#     4  10  22  42  74 101 142 189 250 313 365 441
#     4  10  23  44  72  99 145 194 250 308 371 446
#     4  12  26  48  72 108 160 194 248 304 386 466
#     4  12  26  45  73 110 148 199 243 314 379 454
#     4  10  23  47  67 104 144 200 241 302 380 449
#     4  12  24  44  74 104 144 188 252 312 372 438
#     4  12  24  41  71 106 143 193 250 315 370 445
#
# _framework density 26.278020999999999
#
# number of rings (size 3 to 8) (size 9 to 14) (size 15 to 20)
#    0.000    1.143    2.857    3.000    2.000    0.571 
#    2.571    0.000    0.000    0.000    0.000    0.000 
#    0.000    0.000    0.000    0.000    0.000    0.000 
#
# Total GULP energy -155991.887039 kJ/mol
# GULP energy per Si atom -5571.138823 kJ/mol
# Density = 2.621821 g / cm^3
# Si number density = 26.278021 Si / 1000 Ang^3
#
#
#
# Elastic Constant Matrix: (Units=GPa)
#
#
# Indices 1 2 3 4 5 6 
#
# 1 -17.9011 96.5100 173.3410 0.0000 0.0000 0.0000
# 2 96.5100 153.0827 -86.6987 0.0000 0.0000 0.0000
# 3 173.3410 -86.6987 -142.3579 0.0000 0.0000 0.0000
# 4 0.0000 0.0000 0.0000 23.6250 0.0000 0.0000
# 5 0.0000 0.0000 0.0000 0.0000 24.8244 0.0000
# 6 0.0000 0.0000 0.0000 0.0000 0.0000 6.6475
#
#
#
# Elastic Compliance Matrix: (Units=1/GPa)
#
#
# Indices 1 2 3 4 5 6 
#
# 1 0.005188 0.000228 0.006178 0.000000 0.000000 0.000000
# 2 0.000228 0.004867 -0.002686 0.000000 0.000000 0.000000
# 3 0.006178 -0.002686 0.002134 0.000000 0.000000 0.000000
# 4 0.000000 0.000000 0.000000 0.042328 0.000000 0.000000
# 5 0.000000 0.000000 0.000000 0.000000 0.040283 0.000000
# 6 0.000000 0.000000 0.000000 0.000000 0.000000 0.150433
#
#
# Mechanical properties :
#
#
# Convention : Reuss Voigt Hill
#
# Bulk Modulus (GPa) = 50.94890 39.90313 45.42601
# Shear Modulus (GPa) = 20.46365 -1.66919 9.39723
#
# Velocity S-wave (km/s) = 2.79361 -0.79786 1.89310
# Velocity P-wave (km/s) = 5.46225 3.79067 4.70135
#
# Compressibility (1/GPa) = 0.01962751
#
# Stress axis : x y z
#
# Youngs Moduli (GPa) = 192.76760 205.45914 468.69224
#
# Poissons Ratio (x) = -0.04689 -2.89541
# Poissons Ratio (y) = -0.04400 1.25904
# Poissons Ratio (z) = -1.19085 0.55192
#
# Static dielectric constant tensor:
#      x y z
#    x 2.244870 0.000000 0.000000 
#    y 0.000000 2.636930 0.000000 
#    z 0.000000 0.000000 3.700700 
# 
# From -- ./inp_files/1247.got.cif
#   From: 2010.05.17/outbox.cif.g08.bks.cpg/sg18_1_cif.got.tgz:1247.got - 2010.06.03 22:40:56.
