data_PCOD9312166
_publ_section_title
;
Structure prediction by ZEFSAII (Michael W. Deem and Ramdas Pophale) SiO2 
 PCOD9312166
Probable space group: P 21 21 2
;
_chemical_formula_sum "Si O2"
_cell_formula_units_Z 24
_cell_length_a 7.577584
_cell_length_b 13.985332
_cell_length_c 9.270838
_cell_angle_alpha 90.000000
_cell_angle_beta 90.000000
_cell_angle_gamma 90.000000
_cell_volume 982.477317
_symmetry_space_group_name_H-M "P 21 21 2"
_symmetry_group_IT_number 18
_symmetry_cell_setting 'orthorhombic'
loop_
_space_group_symop_operation_xyz
x,y,z
-x,-y,z
1/2+x,1/2-y,-z
1/2-x,1/2+y,-z
loop_
_atom_site_type_symbol
_atom_site_label
_atom_site_fract_x
_atom_site_fract_y
_atom_site_fract_z
Si Si1 0.678467 0.116903 0.668962
Si Si2 0.894124 0.358487 0.554728
Si Si3 0.500000 0.000000 0.921110
Si Si4 0.500000 0.500000 0.271157
Si Si5 0.909749 0.839405 0.268517
Si Si6 0.727590 0.227839 0.303182
Si Si7 0.295823 0.634584 0.047093
O O1 0.545605 0.092538 0.540753
O O2 0.611287 0.068222 0.815309
O O3 0.867207 0.068595 0.642918
O O4 0.658655 0.230951 0.691798
O O5 0.027465 0.301575 0.662980
O O6 0.737252 0.402615 0.649939
O O7 0.787238 0.303087 0.426878
O O8 0.373364 0.072722 0.001754
O O9 0.396125 0.570521 0.164544
O O10 0.113024 0.848537 0.314514
O O11 0.901549 0.847674 0.097174
O O12 0.746055 0.272778 0.143504
#
# Coordination Sequence:
#
# PCOD9312166 Si02
#       7
#     4   4   2   2   4   4   4
#     4  10  21  39  64  98 124 176 218 276 328 395
#     4  11  21  40  66  97 127 161 215 281 328 384
#     4  10  20  40  62  90 134 172 214 260 338 410
#     4  10  24  40  68  92 140 176 228 274 336 418
#     4  11  24  41  69 100 130 170 230 281 328 385
#     4  11  22  38  68  98 128 163 221 278 327 391
#     4  11  24  42  67  97 130 180 226 274 339 400
#
# _framework density 24.428045999999998
#
# number of rings (size 3 to 8) (size 9 to 14) (size 15 to 20)
#    0.000    1.333    6.667    1.000    4.667    0.000 
#    3.000    0.833    0.000    1.000    0.000    0.000 
#    0.000    0.000    0.000    0.000    0.000    0.000 
#
# Total GULP energy -133949.092824 kJ/mol
# GULP energy per Si atom -5581.212201 kJ/mol
# Density = 2.437245 g / cm^3
# Si number density = 24.428046 Si / 1000 Ang^3
#
#
#
# Elastic Constant Matrix: (Units=GPa)
#
#
# Indices 1 2 3 4 5 6 
#
# 1 98.7822 -4.5106 -7.5748 0.0000 0.0000 0.0000
# 2 -4.5106 39.1468 -9.3750 0.0000 0.0000 0.0000
# 3 -7.5748 -9.3750 88.7146 0.0000 0.0000 0.0000
# 4 0.0000 0.0000 0.0000 -21.7884 0.0000 0.0000
# 5 0.0000 0.0000 0.0000 0.0000 33.2231 0.0000
# 6 0.0000 0.0000 0.0000 0.0000 0.0000 33.9694
#
#
#
# Elastic Compliance Matrix: (Units=1/GPa)
#
#
# Indices 1 2 3 4 5 6 
#
# 1 0.010267 0.001429 0.001028 0.000000 0.000000 0.000000
# 2 0.001429 0.026407 0.002913 0.000000 0.000000 0.000000
# 3 0.001028 0.002913 0.011668 0.000000 0.000000 0.000000
# 4 0.000000 0.000000 0.000000 -0.045896 0.000000 0.000000
# 5 0.000000 0.000000 0.000000 0.000000 0.030100 0.000000
# 6 0.000000 0.000000 0.000000 0.000000 0.000000 0.029438
#
#
# Mechanical properties :
#
#
# Convention : Reuss Voigt Hill
#
# Bulk Modulus (GPa) = 16.92594 20.41366 18.66980
# Shear Modulus (GPa) = 70.48365 25.62111 48.05238
#
# Velocity S-wave (km/s) = 5.37738 3.24209 4.44001
# Velocity P-wave (km/s) = 6.74529 4.73177 5.82617
#
# Compressibility (1/GPa) = 0.05908092
#
# Stress axis : x y z
#
# Youngs Moduli (GPa) = 97.39622 37.86869 85.70708
#
# Poissons Ratio (x) = -0.05412 -0.08808
# Poissons Ratio (y) = -0.13919 -0.24963
# Poissons Ratio (z) = -0.10009 -0.11030
#
# Static dielectric constant tensor:
#      x y z
#    x 2.008520 0.000000 0.000000 
#    y 0.000000 2.062170 0.000000 
#    z 0.000000 0.000000 1.871370 
# 
# From -- ./inp_files/3338.got.cif
#   From: 2010.05.17/outbox.cif.g08.bks.cpg/sg18_2_cif.got.tgz:3338.got - 2010.06.03 22:40:56.
