data_PCOD9312638
_publ_section_title
;
Structure prediction by ZEFSAII (Michael W. Deem and Ramdas Pophale) SiO2 
 PCOD9312638
Probable space group: P 21 21 2
;
_chemical_formula_sum "Si O2"
_cell_formula_units_Z 16
_cell_length_a 7.552136
_cell_length_b 15.802110
_cell_length_c 6.006342
_cell_angle_alpha 90.000000
_cell_angle_beta 90.000000
_cell_angle_gamma 90.000000
_cell_volume 716.794955
_symmetry_space_group_name_H-M "P 21 21 2"
_symmetry_group_IT_number 18
_symmetry_cell_setting 'orthorhombic'
loop_
_space_group_symop_operation_xyz
x,y,z
-x,-y,z
1/2+x,1/2-y,-z
1/2-x,1/2+y,-z
loop_
_atom_site_type_symbol
_atom_site_label
_atom_site_fract_x
_atom_site_fract_y
_atom_site_fract_z
Si Si1 0.462931 0.906332 0.203086
Si Si2 0.066798 0.909560 0.281453
Si Si3 0.269826 0.674551 0.504019
Si Si4 0.491612 0.765736 0.834190
O O1 0.274190 0.912314 0.323268
O O2 0.622732 0.878568 0.362358
O O3 0.500000 0.000000 0.107636
O O4 0.450117 0.832656 0.021035
O O5 0.947926 0.881459 0.494157
O O6 0.022731 0.833235 0.108769
O O7 0.000000 0.000000 0.201949
O O8 0.335559 0.754881 0.650948
O O9 0.173427 0.704462 0.283495
#
# Coordination Sequence:
#
# PCOD9312638 Si02
#       4
#     4   4   4   4
#     4  12  22  42  69  97 136 175 223 278 330 395
#     4  10  22  42  67  95 132 177 216 274 339 391
#     4  10  23  42  65  93 138 174 216 279 336 379
#     4  10  23  42  67  97 130 176 225 267 333 403
#
# _framework density 22.321587000000001
#
# number of rings (size 3 to 8) (size 9 to 14) (size 15 to 20)
#    1.500    0.000    2.500    3.000    0.000    1.000 
#    4.500    0.000    0.000    0.000    0.000    0.000 
#    0.000    0.000    0.000    0.000    0.000    0.000 
#
# Total GULP energy -89211.568629 kJ/mol
# GULP energy per Si atom -5575.723039 kJ/mol
# Density = 2.227078 g / cm^3
# Si number density = 22.321587 Si / 1000 Ang^3
#
#
#
# Elastic Constant Matrix: (Units=GPa)
#
#
# Indices 1 2 3 4 5 6 
#
# 1 175.4971 38.7795 27.1527 0.0000 0.0000 0.0000
# 2 38.7795 182.9395 35.8093 0.0000 0.0000 0.0000
# 3 27.1527 35.8093 25.1127 0.0000 0.0000 0.0000
# 4 0.0000 0.0000 0.0000 13.0794 0.0000 0.0000
# 5 0.0000 0.0000 0.0000 0.0000 24.7018 0.0000
# 6 0.0000 0.0000 0.0000 0.0000 0.0000 43.2949
#
#
#
# Elastic Compliance Matrix: (Units=1/GPa)
#
#
# Indices 1 2 3 4 5 6 
#
# 1 0.006843 -0.000003 -0.007394 0.000000 0.000000 0.000000
# 2 -0.000003 0.007583 -0.010809 0.000000 0.000000 0.000000
# 3 -0.007394 -0.010809 0.063229 0.000000 0.000000 0.000000
# 4 0.000000 0.000000 0.000000 0.076456 0.000000 0.000000
# 5 0.000000 0.000000 0.000000 0.000000 0.040483 0.000000
# 6 0.000000 0.000000 0.000000 0.000000 0.000000 0.023097
#
#
# Mechanical properties :
#
#
# Convention : Reuss Voigt Hill
#
# Bulk Modulus (GPa) = 24.24762 65.22581 44.73671
# Shear Modulus (GPa) = 18.66709 35.00239 26.83474
#
# Velocity S-wave (km/s) = 2.89499 3.96421 3.47102
# Velocity P-wave (km/s) = 4.69692 7.08786 6.01244
#
# Compressibility (1/GPa) = 0.04124116
#
# Stress axis : x y z
#
# Youngs Moduli (GPa) = 146.13857 131.87755 15.81563
#
# Poissons Ratio (x) = 0.00042 0.11694
# Poissons Ratio (y) = 0.00047 0.17095
# Poissons Ratio (z) = 1.08057 1.42549
#
# Static dielectric constant tensor:
#      x y z
#    x 1.842910 0.000000 0.000000 
#    y 0.000000 1.848810 0.000000 
#    z 0.000000 0.000000 1.808980 
# 
# From -- ./inp_files/462.got.cif
#   From: 2010.05.17/outbox.cif.g08.bks.cpg/sg18_1_cif.got.tgz:462.got - 2010.06.03 22:40:56.
