data_PCOD9312684
_publ_section_title
;
Structure prediction by ZEFSAII (Michael W. Deem and Ramdas Pophale) SiO2 
 PCOD9312684
Probable space group: P 21 21 2
;
_chemical_formula_sum "Si O2"
_cell_formula_units_Z 16
_cell_length_a 4.786074
_cell_length_b 20.764405
_cell_length_c 5.473477
_cell_angle_alpha 90.000000
_cell_angle_beta 90.000000
_cell_angle_gamma 90.000000
_cell_volume 543.954029
_symmetry_space_group_name_H-M "P 21 21 2"
_symmetry_group_IT_number 18
_symmetry_cell_setting 'orthorhombic'
loop_
_space_group_symop_operation_xyz
x,y,z
-x,-y,z
1/2+x,1/2-y,-z
1/2-x,1/2+y,-z
loop_
_atom_site_type_symbol
_atom_site_label
_atom_site_fract_x
_atom_site_fract_y
_atom_site_fract_z
Si Si1 0.500000 0.500000 0.002787
Si Si2 0.626790 0.671052 0.245403
Si Si3 0.691394 0.394269 0.619876
Si Si4 0.000000 0.500000 0.373514
Si Si5 0.271146 0.293808 0.750129
O O1 0.244767 0.489604 0.182983
O O2 0.552347 0.440429 0.819180
O O3 0.451496 0.612792 0.353671
O O4 0.827845 0.689156 0.474789
O O5 0.393502 0.727342 0.204806
O O6 0.802067 0.667560 0.997723
O O7 0.595370 0.321978 0.716172
O O8 0.959340 0.437487 0.547671
#
# Coordination Sequence:
#
# PCOD9312684 Si02
#       5
#     2   4   4   2   4
#     4  12  26  52  80 116 164 214 272 336 406 478
#     4  10  22  43  69 106 149 198 258 323 398 473
#     4  10  26  46  74 114 158 204 272 328 402 480
#     4  12  26  52  80 116 164 214 272 336 406 478
#     4  10  22  43  69 106 149 198 258 323 398 473
#
# _framework density 29.414248000000001
#
# number of rings (size 3 to 8) (size 9 to 14) (size 15 to 20)
#    1.500    0.000    0.000    4.500    0.000    2.000 
#   13.500    0.000    0.000    0.000    0.000    0.000 
#    0.000    0.000    0.000    0.000    0.000    0.000 
#
# Total GULP energy -89085.997926 kJ/mol
# GULP energy per Si atom -5567.874870 kJ/mol
# Density = 2.934730 g / cm^3
# Si number density = 29.414248 Si / 1000 Ang^3
#
#
#
# Elastic Constant Matrix: (Units=GPa)
#
#
# Indices 1 2 3 4 5 6 
#
# 1 129.0824 42.4403 33.8482 0.0000 0.0000 0.0000
# 2 42.4403 167.3000 32.3811 0.0000 0.0000 0.0000
# 3 33.8482 32.3811 235.1102 0.0000 0.0000 0.0000
# 4 0.0000 0.0000 0.0000 70.6077 0.0000 0.0000
# 5 0.0000 0.0000 0.0000 0.0000 41.7613 0.0000
# 6 0.0000 0.0000 0.0000 0.0000 0.0000 57.1199
#
#
#
# Elastic Compliance Matrix: (Units=1/GPa)
#
#
# Indices 1 2 3 4 5 6 
#
# 1 0.008662 -0.002010 -0.000970 0.000000 0.000000 0.000000
# 2 -0.002010 0.006607 -0.000621 0.000000 0.000000 0.000000
# 3 -0.000970 -0.000621 0.004478 0.000000 0.000000 0.000000
# 4 0.000000 0.000000 0.000000 0.014163 0.000000 0.000000
# 5 0.000000 0.000000 0.000000 0.000000 0.023946 0.000000
# 6 0.000000 0.000000 0.000000 0.000000 0.000000 0.017507
#
#
# Mechanical properties :
#
#
# Convention : Reuss Voigt Hill
#
# Bulk Modulus (GPa) = 79.70206 83.20354 81.45280
# Shear Modulus (GPa) = 57.63913 62.08598 59.86256
#
# Velocity S-wave (km/s) = 4.43150 4.59927 4.51616
# Velocity P-wave (km/s) = 7.30339 7.52015 7.41256
#
# Compressibility (1/GPa) = 0.01254673
#
# Stress axis : x y z
#
# Youngs Moduli (GPa) = 115.44487 151.34986 223.28906
#
# Poissons Ratio (x) = 0.30415 0.21666
# Poissons Ratio (y) = 0.23200 0.13859
# Poissons Ratio (z) = 0.11202 0.09394
#
# Static dielectric constant tensor:
#      x y z
#    x 2.553510 0.000000 0.000000 
#    y 0.000000 2.401710 0.000000 
#    z 0.000000 0.000000 2.239440 
# 
# From -- ./inp_files/160.got.cif
#   From: 2010.05.17/outbox.cif.g08.bks.cpg/sg18_1_cif.got.tgz:160.got - 2010.06.03 22:40:56.
