data_PCOD9312475
_publ_section_title
;
Structure prediction by ZEFSAII (Michael W. Deem and Ramdas Pophale) SiO2 
 PCOD9312475
Probable space group: P 21 21 2
;
_chemical_formula_sum "Si O2"
_cell_formula_units_Z 18
_cell_length_a 8.389749
_cell_length_b 16.365214
_cell_length_c 4.911458
_cell_angle_alpha 90.000000
_cell_angle_beta 90.000000
_cell_angle_gamma 90.000000
_cell_volume 674.343369
_symmetry_space_group_name_H-M "P 21 21 2"
_symmetry_group_IT_number 18
_symmetry_cell_setting 'orthorhombic'
loop_
_space_group_symop_operation_xyz
x,y,z
-x,-y,z
1/2+x,1/2-y,-z
1/2-x,1/2+y,-z
loop_
_atom_site_type_symbol
_atom_site_label
_atom_site_fract_x
_atom_site_fract_y
_atom_site_fract_z
Si Si1 0.193133 0.946275 0.420323
Si Si2 0.500000 0.500000 0.106021
Si Si3 0.472397 0.125912 0.486795
Si Si4 0.279496 0.161346 0.005739
Si Si5 0.957418 0.201748 0.743980
O O1 0.136953 0.009275 0.654410
O O2 0.381619 0.932494 0.427559
O O3 0.175060 0.756109 0.934599
O O4 0.118736 0.862047 0.540806
O O5 0.380615 0.460646 0.876125
O O6 0.406403 0.129105 0.789022
O O7 0.526984 0.219383 0.413462
O O8 0.321879 0.115719 0.284108
O O9 0.098230 0.158964 0.912278
#
# Coordination Sequence:
#
# PCOD9312475 Si02
#       5
#     4   2   4   4   4
#     4  11  22  43  65  89 134 162 234 254 313 390
#     4  10  26  40  64  90 116 198 216 262 286 378
#     4  10  22  36  61  95 131 165 194 278 330 376
#     4  10  22  33  57 102 127 165 192 246 364 369
#     4  10  23  35  65  97 139 159 202 271 338 391
#
# _framework density 26.692633000000001
#
# number of rings (size 3 to 8) (size 9 to 14) (size 15 to 20)
#    1.333    0.444    0.000    4.000    9.333    0.000 
#    0.000    0.000    0.000   20.000    0.000    0.000 
#    0.000    0.000    0.000    0.000    0.000    0.000 
#
# Total GULP energy -100610.990271 kJ/mol
# GULP energy per Si atom -5589.499459 kJ/mol
# Density = 2.663188 g / cm^3
# Si number density = 26.692633 Si / 1000 Ang^3
#
#
#
# Elastic Constant Matrix: (Units=GPa)
#
#
# Indices 1 2 3 4 5 6 
#
# 1 140.2879 51.2852 68.0987 0.0000 0.0000 0.0000
# 2 51.2852 89.9988 40.3290 0.0000 0.0000 0.0000
# 3 68.0987 40.3290 195.1242 0.0000 0.0000 0.0000
# 4 0.0000 0.0000 0.0000 45.6532 0.0000 0.0000
# 5 0.0000 0.0000 0.0000 0.0000 34.9425 0.0000
# 6 0.0000 0.0000 0.0000 0.0000 0.0000 51.0439
#
#
#
# Elastic Compliance Matrix: (Units=1/GPa)
#
#
# Indices 1 2 3 4 5 6 
#
# 1 0.010044 -0.004576 -0.002559 0.000000 0.000000 0.000000
# 2 -0.004576 0.014331 -0.001365 0.000000 0.000000 0.000000
# 3 -0.002559 -0.001365 0.006300 0.000000 0.000000 0.000000
# 4 0.000000 0.000000 0.000000 0.021904 0.000000 0.000000
# 5 0.000000 0.000000 0.000000 0.000000 0.028618 0.000000
# 6 0.000000 0.000000 0.000000 0.000000 0.000000 0.019591
#
#
# Mechanical properties :
#
#
# Convention : Reuss Voigt Hill
#
# Bulk Modulus (GPa) = 73.13444 82.75964 77.94704
# Shear Modulus (GPa) = 40.86741 44.04112 42.45426
#
# Velocity S-wave (km/s) = 3.91709 4.06635 3.99242
# Velocity P-wave (km/s) = 6.92216 7.28827 7.10757
#
# Compressibility (1/GPa) = 0.01367345
#
# Stress axis : x y z
#
# Youngs Moduli (GPa) = 99.56631 69.78054 158.72433
#
# Poissons Ratio (x) = 0.31934 0.40623
# Poissons Ratio (y) = 0.45565 0.21662
# Poissons Ratio (z) = 0.25483 0.09523
#
# Static dielectric constant tensor:
#      x y z
#    x 2.073940 0.000000 0.000000 
#    y 0.000000 2.750850 0.000000 
#    z 0.000000 0.000000 1.981440 
# 
# From -- ./inp_files/469.got.cif
#   From: 2010.05.17/outbox.cif.g08.bks.cpg/sg18_1_cif.got.tgz:469.got - 2010.06.03 22:40:56.
