data_PCOD9312513
_publ_section_title
;
Structure prediction by ZEFSAII (Michael W. Deem and Ramdas Pophale) SiO2 
 PCOD9312513
Probable space group: P 21 21 2
;
_chemical_formula_sum "Si O2"
_cell_formula_units_Z 32
_cell_length_a 12.056022
_cell_length_b 9.422448
_cell_length_c 10.760098
_cell_angle_alpha 90.000000
_cell_angle_beta 90.000000
_cell_angle_gamma 90.000000
_cell_volume 1222.317439
_symmetry_space_group_name_H-M "P 21 21 2"
_symmetry_group_IT_number 18
_symmetry_cell_setting 'orthorhombic'
loop_
_space_group_symop_operation_xyz
x,y,z
-x,-y,z
1/2+x,1/2-y,-z
1/2-x,1/2+y,-z
loop_
_atom_site_type_symbol
_atom_site_label
_atom_site_fract_x
_atom_site_fract_y
_atom_site_fract_z
Si Si1 0.137276 0.391346 0.096382
Si Si2 0.070362 0.869386 0.403590
Si Si3 0.392201 0.654735 0.252640
Si Si4 0.703282 0.042030 0.642636
Si Si5 0.173531 0.450203 0.635587
Si Si6 0.033610 0.835882 0.127308
Si Si7 0.109067 0.748476 0.659233
Si Si8 0.267262 0.173227 0.972359
O O1 0.132538 0.463507 0.231994
O O2 0.172093 0.522849 0.009579
O O3 0.031400 0.296242 0.065959
O O4 0.228678 0.265182 0.089394
O O5 0.015390 0.821557 0.275282
O O6 0.069929 0.759519 0.515382
O O7 0.193220 0.925460 0.368569
O O8 0.000000 0.000000 0.453461
O O9 0.306267 0.568231 0.340971
O O10 0.526550 0.649230 0.261980
O O11 0.337642 0.637044 0.117115
O O12 0.377224 0.814619 0.300157
O O13 0.767692 0.189923 0.647018
O O14 0.645984 0.033783 0.510795
O O15 0.125755 0.588936 0.700832
O O16 0.158738 0.789819 0.099963
O O17 0.000000 0.000000 0.096147
#
# Coordination Sequence:
#
# PCOD9312513 Si02
#       8
#     4   4   4   4   4   4   4   4
#     4  11  26  44  75 103 134 192 235 305 353 428
#     4  10  22  38  64  95 141 183 232 282 350 423
#     4  11  23  43  60  95 139 182 218 293 349 420
#     4  10  23  40  66  94 139 177 239 280 356 416
#     4  11  22  39  62 100 135 179 223 292 343 418
#     4  11  24  44  72 101 136 185 238 293 357 424
#     4  11  23  37  65  99 137 184 228 279 352 432
#     4  11  25  49  70 101 144 178 243 299 366 429
#
# _framework density 26.179779
#
# number of rings (size 3 to 8) (size 9 to 14) (size 15 to 20)
#    0.000    1.250    1.250    4.875    7.000    2.000 
#    0.000    2.500    0.000    0.000    0.000    0.000 
#    0.000    0.000    0.000    0.000    0.000    0.000 
#
# Total GULP energy -178867.135680 kJ/mol
# GULP energy per Si atom -5589.597990 kJ/mol
# Density = 2.612019 g / cm^3
# Si number density = 26.179779 Si / 1000 Ang^3
#
#
#
# Elastic Constant Matrix: (Units=GPa)
#
#
# Indices 1 2 3 4 5 6 
#
# 1 76.7317 16.4795 5.1857 0.0000 0.0000 0.0000
# 2 16.4795 120.5299 12.6888 0.0000 0.0000 0.0000
# 3 5.1857 12.6888 59.2914 0.0000 0.0000 0.0000
# 4 0.0000 0.0000 0.0000 22.8950 0.0000 0.0000
# 5 0.0000 0.0000 0.0000 0.0000 17.6603 0.0000
# 6 0.0000 0.0000 0.0000 0.0000 0.0000 40.9347
#
#
#
# Elastic Compliance Matrix: (Units=1/GPa)
#
#
# Indices 1 2 3 4 5 6 
#
# 1 0.013464 -0.001756 -0.000802 0.000000 0.000000 0.000000
# 2 -0.001756 0.008717 -0.001712 0.000000 0.000000 0.000000
# 3 -0.000802 -0.001712 0.017302 0.000000 0.000000 0.000000
# 4 0.000000 0.000000 0.000000 0.043678 0.000000 0.000000
# 5 0.000000 0.000000 0.000000 0.000000 0.056624 0.000000
# 6 0.000000 0.000000 0.000000 0.000000 0.000000 0.024429
#
#
# Mechanical properties :
#
#
# Convention : Reuss Voigt Hill
#
# Bulk Modulus (GPa) = 32.31726 36.14010 34.22868
# Shear Modulus (GPa) = 27.31215 31.11126 29.21171
#
# Velocity S-wave (km/s) = 3.23345 3.45101 3.34400
# Velocity P-wave (km/s) = 5.12946 5.45104 5.29270
#
# Compressibility (1/GPa) = 0.03094321
#
# Stress axis : x y z
#
# Youngs Moduli (GPa) = 74.27301 114.71751 57.79568
#
# Poissons Ratio (x) = 0.20150 0.04633
# Poissons Ratio (y) = 0.13046 0.09894
# Poissons Ratio (z) = 0.05954 0.19638
#
# Static dielectric constant tensor:
#      x y z
#    x 2.242410 0.000000 0.000000 
#    y 0.000000 2.011890 0.000000 
#    z 0.000000 0.000000 2.027600 
# 
# From -- ./inp_files/6124.got.cif
#   From: 2010.05.17/outbox.cif.g08.bks.cpg/sg18_4_cif.got.tgz:6124.got - 2010.06.03 22:40:56.
