data_PCOD9312062
_publ_section_title
;
Structure prediction by ZEFSAII (Michael W. Deem and Ramdas Pophale) SiO2 
 PCOD9312062
Probable space group: P 21 21 2
;
_chemical_formula_sum "Si O2"
_cell_formula_units_Z 16
_cell_length_a 5.045447
_cell_length_b 8.042833
_cell_length_c 19.676840
_cell_angle_alpha 90.000000
_cell_angle_beta 90.000000
_cell_angle_gamma 90.000000
_cell_volume 798.480021
_symmetry_space_group_name_H-M "P 21 21 2"
_symmetry_group_IT_number 18
_symmetry_cell_setting 'orthorhombic'
loop_
_space_group_symop_operation_xyz
x,y,z
-x,-y,z
1/2+x,1/2-y,-z
1/2-x,1/2+y,-z
loop_
_atom_site_type_symbol
_atom_site_label
_atom_site_fract_x
_atom_site_fract_y
_atom_site_fract_z
Si Si1 0.118612 0.816162 0.962997
Si Si2 0.892543 0.311116 0.537916
Si Si3 0.246382 0.120192 0.168423
Si Si4 0.252733 0.619577 0.679938
O O1 0.211342 0.757077 0.888866
O O2 0.376325 0.798313 0.010644
O O3 0.000000 0.000000 0.963318
O O4 0.635373 0.295607 0.490626
O O5 0.803561 0.266756 0.614784
O O6 0.000000 0.500000 0.538726
O O7 0.205064 0.192024 0.244689
O O8 0.500000 0.000000 0.168497
O O9 0.000000 0.000000 0.152419
O O10 0.500000 0.500000 0.663618
O O11 0.000000 0.500000 0.686297
#
# Coordination Sequence:
#
# PCOD9312062 Si02
#       4
#     4   4   4   4
#     4  12  24  39  59  86 118 152 189 235 284 339
#     4  11  21  36  57  84 115 151 192 236 285 340
#     4  10  20  37  61  84 109 147 194 237 281 336
#     4   9  18  34  57  82 110 148 191 232 280 343
#
# _framework density 20.038073000000001
#
# number of rings (size 3 to 8) (size 9 to 14) (size 15 to 20)
#    0.000    1.500    0.000    8.250    0.000    0.000 
#    0.000    2.500    0.000    0.000    0.000    0.000 
#    0.000    0.000    0.000    0.000    0.000    0.000 
#
# Total GULP energy -89366.817588 kJ/mol
# GULP energy per Si atom -5585.426099 kJ/mol
# Density = 1.999247 g / cm^3
# Si number density = 20.038073 Si / 1000 Ang^3
#
#
#
# Elastic Constant Matrix: (Units=GPa)
#
#
# Indices 1 2 3 4 5 6 
#
# 1 147.9247 21.4826 44.9791 0.0000 0.0000 0.0000
# 2 21.4826 53.9833 51.0490 0.0000 0.0000 0.0000
# 3 44.9791 51.0490 175.8997 0.0000 0.0000 0.0000
# 4 0.0000 0.0000 0.0000 29.7672 0.0000 0.0000
# 5 0.0000 0.0000 0.0000 0.0000 55.0172 0.0000
# 6 0.0000 0.0000 0.0000 0.0000 0.0000 31.6942
#
#
#
# Elastic Compliance Matrix: (Units=1/GPa)
#
#
# Indices 1 2 3 4 5 6 
#
# 1 0.007429 -0.001599 -0.001436 0.000000 0.000000 0.000000
# 2 -0.001599 0.025875 -0.007101 0.000000 0.000000 0.000000
# 3 -0.001436 -0.007101 0.008113 0.000000 0.000000 0.000000
# 4 0.000000 0.000000 0.000000 0.033594 0.000000 0.000000
# 5 0.000000 0.000000 0.000000 0.000000 0.018176 0.000000
# 6 0.000000 0.000000 0.000000 0.000000 0.000000 0.031551
#
#
# Mechanical properties :
#
#
# Convention : Reuss Voigt Hill
#
# Bulk Modulus (GPa) = 47.28808 68.09211 57.69009
# Shear Modulus (GPa) = 32.88235 40.64887 36.76561
#
# Velocity S-wave (km/s) = 4.05531 4.50886 4.28809
# Velocity P-wave (km/s) = 6.75113 7.82059 7.30546
#
# Compressibility (1/GPa) = 0.02114698
#
# Stress axis : x y z
#
# Youngs Moduli (GPa) = 134.60927 38.64728 123.26094
#
# Poissons Ratio (x) = 0.06178 0.17696
# Poissons Ratio (y) = 0.21520 0.87522
# Poissons Ratio (z) = 0.19325 0.27442
#
# Static dielectric constant tensor:
#      x y z
#    x 1.668300 0.000000 0.000000 
#    y 0.000000 1.672770 0.000000 
#    z 0.000000 0.000000 1.784410 
# 
# From -- ./inp_files/7056.got.cif
#   From: 2010.05.17/outbox.cif.g08.bks.cpg/sg18_4_cif.got.tgz:7056.got - 2010.06.03 22:40:56.
