data_PCOD9312645
_publ_section_title
;
Structure prediction by ZEFSAII (Michael W. Deem and Ramdas Pophale) SiO2 
 PCOD9312645
Probable space group: P 21 21 2
;
_chemical_formula_sum "Si O2"
_cell_formula_units_Z 20
_cell_length_a 13.497379
_cell_length_b 9.270537
_cell_length_c 6.136618
_cell_angle_alpha 90.000000
_cell_angle_beta 90.000000
_cell_angle_gamma 90.000000
_cell_volume 767.862439
_symmetry_space_group_name_H-M "P 21 21 2"
_symmetry_group_IT_number 18
_symmetry_cell_setting 'orthorhombic'
loop_
_space_group_symop_operation_xyz
x,y,z
-x,-y,z
1/2+x,1/2-y,-z
1/2-x,1/2+y,-z
loop_
_atom_site_type_symbol
_atom_site_label
_atom_site_fract_x
_atom_site_fract_y
_atom_site_fract_z
Si Si1 0.851694 0.665274 0.702062
Si Si2 0.000000 0.750000 0.072214
Si Si3 0.750000 0.938691 0.500000
Si Si4 0.148306 0.834726 0.702062
Si Si5 0.000000 0.500000 0.380080
Si Si6 0.500000 0.500000 0.619920
O O1 0.912721 0.688088 0.921201
O O2 0.825101 0.820261 0.602909
O O3 0.756488 0.559055 0.697271
O O4 0.924021 0.582891 0.534384
O O5 0.087279 0.811912 0.921202
O O6 0.042631 0.622484 0.221302
O O7 0.957369 0.877516 0.221302
O O8 0.674898 0.820261 0.397092
O O9 0.756487 0.059055 0.697270
O O10 0.075979 0.917109 0.534384
#
# Coordination Sequence:
#
# PCOD9312645 Si02
#       6
#     4   4   4   4   2   2
#     4  11  23  44  67  97 136 170 218 275 321 388
#     4  12  24  42  72 100 126 174 226 268 320 388
#     4  10  22  42  68  94 136 178 204 270 344 374
#     4  11  23  44  67  97 136 170 218 275 321 388
#     4  12  24  42  72 100 126 174 226 268 320 388
#     4  12  24  42  72 100 126 174 226 268 320 388
#
# _framework density 26.046334000000002
#
# number of rings (size 3 to 8) (size 9 to 14) (size 15 to 20)
#    0.000    0.800    0.000    9.600    0.000    0.000 
#    0.000   30.000    0.000    0.000    0.000    0.000 
#    0.000    0.000    0.000    0.000    0.000    0.000 
#
# Total GULP energy -111631.961739 kJ/mol
# GULP energy per Si atom -5581.598087 kJ/mol
# Density = 2.598705 g / cm^3
# Si number density = 26.046334 Si / 1000 Ang^3
#
#
#
# Elastic Constant Matrix: (Units=GPa)
#
#
# Indices 1 2 3 4 5 6 
#
# 1 42.2957 12.4207 20.2403 0.0000 0.0000 0.0000
# 2 12.4207 232.3780 63.3333 0.0000 0.0000 0.0000
# 3 20.2403 63.3333 123.8148 0.0000 0.0000 0.0000
# 4 0.0000 0.0000 0.0000 44.3763 0.0000 0.0000
# 5 0.0000 0.0000 0.0000 0.0000 6.8127 0.0000
# 6 0.0000 0.0000 0.0000 0.0000 0.0000 71.7936
#
#
#
# Elastic Compliance Matrix: (Units=1/GPa)
#
#
# Indices 1 2 3 4 5 6 
#
# 1 0.025664 -0.000265 -0.004060 0.000000 0.000000 0.000000
# 2 -0.000265 0.005003 -0.002516 0.000000 0.000000 0.000000
# 3 -0.004060 -0.002516 0.010027 0.000000 0.000000 0.000000
# 4 0.000000 0.000000 0.000000 0.022535 0.000000 0.000000
# 5 0.000000 0.000000 0.000000 0.000000 0.146784 0.000000
# 6 0.000000 0.000000 0.000000 0.000000 0.000000 0.013929
#
#
# Mechanical properties :
#
#
# Convention : Reuss Voigt Hill
#
# Bulk Modulus (GPa) = 37.01992 65.60856 51.31424
# Shear Modulus (GPa) = 20.27354 44.76282 32.51818
#
# Velocity S-wave (km/s) = 2.79294 4.15008 3.53721
# Velocity P-wave (km/s) = 4.96434 6.94320 6.03543
#
# Compressibility (1/GPa) = 0.02701248
#
# Stress axis : x y z
#
# Youngs Moduli (GPa) = 38.96555 199.87238 99.72965
#
# Poissons Ratio (x) = 0.05303 0.40486
# Poissons Ratio (y) = 0.01034 0.25090
# Poissons Ratio (z) = 0.15818 0.50285
#
# Static dielectric constant tensor:
#      x y z
#    x 2.761770 0.000000 0.000000 
#    y 0.000000 1.984410 0.000000 
#    z 0.000000 0.000000 2.004390 
# 
# From -- ./inp_files/569.got.cif
#   From: 2010.05.17/outbox.cif.g08.bks.cpg/sg18_1_cif.got.tgz:569.got - 2010.06.03 22:40:56.
