data_PCOD9312291
_publ_section_title
;
Structure prediction by ZEFSAII (Michael W. Deem and Ramdas Pophale) SiO2 
 PCOD9312291
Probable space group: P 21 21 2
;
_chemical_formula_sum "Si O2"
_cell_formula_units_Z 32
_cell_length_a 13.669246
_cell_length_b 8.825326
_cell_length_c 13.185432
_cell_angle_alpha 90.000000
_cell_angle_beta 90.000000
_cell_angle_gamma 90.000000
_cell_volume 1590.631869
_symmetry_space_group_name_H-M "P 21 21 2"
_symmetry_group_IT_number 18
_symmetry_cell_setting 'orthorhombic'
loop_
_space_group_symop_operation_xyz
x,y,z
-x,-y,z
1/2+x,1/2-y,-z
1/2-x,1/2+y,-z
loop_
_atom_site_type_symbol
_atom_site_label
_atom_site_fract_x
_atom_site_fract_y
_atom_site_fract_z
Si Si1 0.908076 0.400176 0.574253
Si Si2 0.900602 0.062170 0.959361
Si Si3 0.282434 0.923519 0.809122
Si Si4 0.196274 0.377417 0.721460
Si Si5 0.752041 0.390275 0.396508
Si Si6 0.217799 0.087638 0.126234
Si Si7 0.403352 0.097542 0.979282
Si Si8 0.046328 0.151593 0.663307
O O1 0.859514 0.482212 0.670904
O O2 0.824225 0.403545 0.490021
O O3 0.960152 0.247098 0.610993
O O4 0.000000 0.500000 0.537576
O O5 0.819134 0.070866 0.871910
O O6 0.862358 0.942324 0.041706
O O7 0.918744 0.221772 0.017137
O O8 0.000000 0.000000 0.916999
O O9 0.304351 0.743325 0.814495
O O10 0.273445 0.994078 0.696691
O O11 0.357394 0.024549 0.876651
O O12 0.261664 0.281508 0.644056
O O13 0.267657 0.440612 0.805017
O O14 0.107756 0.257217 0.742231
O O15 0.634458 0.394628 0.414438
O O16 0.320841 0.085692 0.066161
O O17 0.500000 0.000000 0.003218
O O18 0.000000 0.000000 0.703219
#
# Coordination Sequence:
#
# PCOD9312291 Si02
#       8
#     4   4   4   4   4   4   4   4
#     4  10  22  43  62  89 122 160 207 252 320 368
#     4  10  21  39  62  86 122 163 206 255 305 372
#     4  10  22  39  59  91 121 161 203 256 308 365
#     4   9  22  37  60  85 121 159 195 259 299 365
#     4  10  23  38  63  88 123 165 198 263 309 369
#     4  10  21  40  61  88 125 160 206 254 311 364
#     4  10  21  37  61  87 121 162 205 253 308 366
#     4   9  22  38  61  91 118 159 206 257 303 377
#
# _framework density 20.117792000000001
#
# number of rings (size 3 to 8) (size 9 to 14) (size 15 to 20)
#    0.750    1.500    0.000    1.500    3.500    5.500 
#    4.500    1.250    0.000    0.000    0.000    0.000 
#    0.000    0.000    0.000    0.000    0.000    0.000 
#
# Total GULP energy -178197.789351 kJ/mol
# GULP energy per Si atom -5568.680917 kJ/mol
# Density = 2.007200 g / cm^3
# Si number density = 20.117792 Si / 1000 Ang^3
#
#
#
# Elastic Constant Matrix: (Units=GPa)
#
#
# Indices 1 2 3 4 5 6 
#
# 1 67.3639 31.4196 21.8490 0.0000 0.0000 0.0000
# 2 31.4196 95.4385 25.0251 0.0000 0.0000 0.0000
# 3 21.8490 25.0251 42.5821 0.0000 0.0000 0.0000
# 4 0.0000 0.0000 0.0000 -6.4191 0.0000 0.0000
# 5 0.0000 0.0000 0.0000 0.0000 -2.2727 0.0000
# 6 0.0000 0.0000 0.0000 0.0000 0.0000 27.3707
#
#
#
# Elastic Compliance Matrix: (Units=1/GPa)
#
#
# Indices 1 2 3 4 5 6 
#
# 1 0.019276 -0.004436 -0.007284 0.000000 0.000000 0.000000
# 2 -0.004436 0.013408 -0.005603 0.000000 0.000000 0.000000
# 3 -0.007284 -0.005603 0.030514 0.000000 0.000000 0.000000
# 4 0.000000 0.000000 0.000000 -0.155785 0.000000 0.000000
# 5 0.000000 0.000000 0.000000 0.000000 -0.440004 0.000000
# 6 0.000000 0.000000 0.000000 0.000000 0.000000 0.036535
#
#
# Mechanical properties :
#
#
# Convention : Reuss Voigt Hill
#
# Bulk Modulus (GPa) = 35.02380 40.21910 37.62145
# Shear Modulus (GPa) = -11.06459 12.20849 0.57195
#
# Velocity S-wave (km/s) = -2.34773 2.46611 0.53378
# Velocity P-wave (km/s) = 3.17774 5.30510 4.37276
#
# Compressibility (1/GPa) = 0.02855202
#
# Stress axis : x y z
#
# Youngs Moduli (GPa) = 51.87738 74.58421 32.77146
#
# Poissons Ratio (x) = 0.33087 0.23869
# Poissons Ratio (y) = 0.23014 0.18363
# Poissons Ratio (z) = 0.37785 0.41792
#
# Static dielectric constant tensor:
#      x y z
#    x 1.734420 0.000000 0.000000 
#    y 0.000000 1.764540 0.000000 
#    z 0.000000 0.000000 1.725110 
# 
# From -- ./inp_files/6110.got.cif
#   From: 2010.05.17/outbox.cif.g08.bks.cpg/sg18_4_cif.got.tgz:6110.got - 2010.06.03 22:40:56.
