data_PCOD9312399
_publ_section_title
;
Structure prediction by ZEFSAII (Michael W. Deem and Ramdas Pophale) SiO2 
 PCOD9312399
Probable space group: P 21 21 2
;
_chemical_formula_sum "Si O2"
_cell_formula_units_Z 20
_cell_length_a 10.299589
_cell_length_b 13.643467
_cell_length_c 4.917595
_cell_angle_alpha 90.000000
_cell_angle_beta 90.000000
_cell_angle_gamma 90.000000
_cell_volume 691.030789
_symmetry_space_group_name_H-M "P 21 21 2"
_symmetry_group_IT_number 18
_symmetry_cell_setting 'orthorhombic'
loop_
_space_group_symop_operation_xyz
x,y,z
-x,-y,z
1/2+x,1/2-y,-z
1/2-x,1/2+y,-z
loop_
_atom_site_type_symbol
_atom_site_label
_atom_site_fract_x
_atom_site_fract_y
_atom_site_fract_z
Si Si1 0.165084 0.281897 0.693620
Si Si2 0.100529 0.735350 0.951778
Si Si3 0.759725 0.909366 0.384628
Si Si4 0.114832 0.456229 0.265429
Si Si5 0.117114 0.939914 0.732003
O O1 0.163419 0.176760 0.543373
O O2 0.128608 0.364270 0.470236
O O3 0.053678 0.292038 0.933714
O O4 0.314401 0.280815 0.803106
O O5 0.197907 0.648646 0.865261
O O6 0.098724 0.824973 0.738568
O O7 0.630867 0.947148 0.541198
O O8 0.850699 0.003530 0.449535
O O9 0.249158 0.455877 0.102794
O O10 0.000000 0.500000 0.086574
O O11 0.000000 0.000000 0.858509
#
# Coordination Sequence:
#
# PCOD9312399 Si02
#       5
#     4   4   4   4   4
#     4  12  25  43  67 100 133 172 221 270 325 392
#     4  12  25  43  67 100 133 172 221 270 325 392
#     4  10  22  44  70  90 128 174 218 270 320 388
#     4  10  21  41  67  91 128 169 216 266 323 381
#     4  10  21  41  67  91 128 169 216 266 323 381
#
# _framework density 28.942267999999999
#
# number of rings (size 3 to 8) (size 9 to 14) (size 15 to 20)
#    1.200    0.000    6.000    0.000    0.000    6.400 
#    0.000    0.000    0.000    0.000    0.000    0.000 
#    0.000    0.000    0.000    0.000    0.000    0.000 
#
# Total GULP energy -111378.671615 kJ/mol
# GULP energy per Si atom -5568.933581 kJ/mol
# Density = 2.887639 g / cm^3
# Si number density = 28.942268 Si / 1000 Ang^3
#
#
#
# Elastic Constant Matrix: (Units=GPa)
#
#
# Indices 1 2 3 4 5 6 
#
# 1 160.9734 14.6223 45.2711 0.0000 0.0000 0.0000
# 2 14.6223 180.1635 42.6770 0.0000 0.0000 0.0000
# 3 45.2711 42.6770 94.2251 0.0000 0.0000 0.0000
# 4 0.0000 0.0000 0.0000 32.8009 0.0000 0.0000
# 5 0.0000 0.0000 0.0000 0.0000 33.1013 0.0000
# 6 0.0000 0.0000 0.0000 0.0000 0.0000 40.2841
#
#
#
# Elastic Compliance Matrix: (Units=1/GPa)
#
#
# Indices 1 2 3 4 5 6 
#
# 1 0.007194 0.000263 -0.003576 0.000000 0.000000 0.000000
# 2 0.000263 0.006227 -0.002947 0.000000 0.000000 0.000000
# 3 -0.003576 -0.002947 0.013665 0.000000 0.000000 0.000000
# 4 0.000000 0.000000 0.000000 0.030487 0.000000 0.000000
# 5 0.000000 0.000000 0.000000 0.000000 0.030210 0.000000
# 6 0.000000 0.000000 0.000000 0.000000 0.000000 0.024824
#
#
# Mechanical properties :
#
#
# Convention : Reuss Voigt Hill
#
# Bulk Modulus (GPa) = 68.64367 71.16700 69.90533
# Shear Modulus (GPa) = 38.46683 43.42336 40.94509
#
# Velocity S-wave (km/s) = 3.64962 3.87763 3.76535
# Velocity P-wave (km/s) = 6.44427 6.68511 6.56579
#
# Compressibility (1/GPa) = 0.01456799
#
# Stress axis : x y z
#
# Youngs Moduli (GPa) = 139.00745 160.58540 73.17707
#
# Poissons Ratio (x) = -0.04225 0.26165
# Poissons Ratio (y) = -0.03657 0.21564
# Poissons Ratio (z) = 0.49702 0.47323
#
# Static dielectric constant tensor:
#      x y z
#    x 2.628860 0.000000 0.000000 
#    y 0.000000 2.281880 0.000000 
#    z 0.000000 0.000000 2.213600 
# 
# From -- ./inp_files/1025.got.cif
#   From: 2010.05.17/outbox.cif.g08.bks.cpg/sg18_1_cif.got.tgz:1025.got - 2010.06.03 22:40:56.
