data_PCOD9312164
_publ_section_title
;
Structure prediction by ZEFSAII (Michael W. Deem and Ramdas Pophale) SiO2 
 PCOD9312164
Probable space group: P 21 21 2
;
_chemical_formula_sum "Si O2"
_cell_formula_units_Z 22
_cell_length_a 13.086616
_cell_length_b 10.219647
_cell_length_c 8.800464
_cell_angle_alpha 90.000000
_cell_angle_beta 90.000000
_cell_angle_gamma 90.000000
_cell_volume 1176.979300
_symmetry_space_group_name_H-M "P 21 21 2"
_symmetry_group_IT_number 18
_symmetry_cell_setting 'orthorhombic'
loop_
_space_group_symop_operation_xyz
x,y,z
-x,-y,z
1/2+x,1/2-y,-z
1/2-x,1/2+y,-z
loop_
_atom_site_type_symbol
_atom_site_label
_atom_site_fract_x
_atom_site_fract_y
_atom_site_fract_z
Si Si1 0.305024 0.914177 0.811394
Si Si2 0.682506 0.370241 0.332040
Si Si3 0.499466 0.804189 0.357820
Si Si4 0.765154 0.346899 0.671102
Si Si5 0.500000 0.000000 0.634787
Si Si6 0.686533 0.108513 0.171605
O O1 0.301036 0.768887 0.742318
O O2 0.207148 0.996564 0.754247
O O3 0.400692 0.990825 0.739375
O O4 0.311831 0.904217 0.991858
O O5 0.563687 0.331617 0.358088
O O6 0.736410 0.367429 0.495611
O O7 0.726374 0.248888 0.231659
O O8 0.616933 0.801757 0.312800
O O9 0.427837 0.887668 0.242817
O O10 0.496152 0.876362 0.520565
O O11 0.756220 0.485809 0.754531
#
# Coordination Sequence:
#
# PCOD9312164 Si02
#       6
#     4   4   4   4   2   4
#     4  12  24  36  64  94 124 160 210 267 309 367
#     4  10  21  40  61  90 123 166 207 252 313 379
#     4  10  20  40  62  87 122 165 210 247 310 386
#     4  12  20  39  66  88 121 167 212 253 306 385
#     4  12  20  38  62  92 116 162 224 236 308 390
#     4  10  23  40  58  92 126 159 202 264 315 362
#
# _framework density 18.691917
#
# number of rings (size 3 to 8) (size 9 to 14) (size 15 to 20)
#    1.091    0.000    5.455    2.182    2.545    0.727 
#    0.000    0.000    0.000    1.091    0.000    0.000 
#    0.000    0.000    0.000    0.000    0.000    0.000 
#
# Total GULP energy -122629.307803 kJ/mol
# GULP energy per Si atom -5574.059446 kJ/mol
# Density = 1.864937 g / cm^3
# Si number density = 18.691917 Si / 1000 Ang^3
#
#
#
# Elastic Constant Matrix: (Units=GPa)
#
#
# Indices 1 2 3 4 5 6 
#
# 1 15.4508 -9.8541 1.8764 0.0000 0.0000 0.0000
# 2 -9.8541 64.4799 37.0147 0.0000 0.0000 0.0000
# 3 1.8764 37.0147 162.5145 0.0000 0.0000 0.0000
# 4 0.0000 0.0000 0.0000 18.9215 0.0000 0.0000
# 5 0.0000 0.0000 0.0000 0.0000 14.8493 0.0000
# 6 0.0000 0.0000 0.0000 0.0000 0.0000 23.6294
#
#
#
# Elastic Compliance Matrix: (Units=1/GPa)
#
#
# Indices 1 2 3 4 5 6 
#
# 1 0.073838 0.013545 -0.003938 0.000000 0.000000 0.000000
# 2 0.013545 0.020326 -0.004786 0.000000 0.000000 0.000000
# 3 -0.003938 -0.004786 0.007289 0.000000 0.000000 0.000000
# 4 0.000000 0.000000 0.000000 0.052850 0.000000 0.000000
# 5 0.000000 0.000000 0.000000 0.000000 0.067343 0.000000
# 6 0.000000 0.000000 0.000000 0.000000 0.000000 0.042320
#
#
# Mechanical properties :
#
#
# Convention : Reuss Voigt Hill
#
# Bulk Modulus (GPa) = 9.00128 33.39103 21.19615
# Shear Modulus (GPa) = 17.16114 25.70723 21.43418
#
# Velocity S-wave (km/s) = 3.03331 3.71254 3.38998
# Velocity P-wave (km/s) = 4.13449 6.02329 5.16595
#
# Compressibility (1/GPa) = 0.11109534
#
# Stress axis : x y z
#
# Youngs Moduli (GPa) = 13.54314 49.19802 137.19657
#
# Poissons Ratio (x) = -0.66637 0.54021
# Poissons Ratio (y) = -0.18344 0.65661
# Poissons Ratio (z) = 0.05333 0.23546
#
# Static dielectric constant tensor:
#      x y z
#    x 1.673140 0.000000 0.000000 
#    y 0.000000 1.676460 0.000000 
#    z 0.000000 0.000000 1.602890 
# 
# From -- ./inp_files/4165.got.cif
#   From: 2010.05.17/outbox.cif.g08.bks.cpg/sg18_3_cif.got.tgz:4165.got - 2010.06.03 22:40:56.
