data_PCOD9312886
_publ_section_title
;
Structure prediction by ZEFSAII (Michael W. Deem and Ramdas Pophale) SiO2 
 PCOD9312886
Probable space group: P 21 21 2
;
_chemical_formula_sum "Si O2"
_cell_formula_units_Z 30
_cell_length_a 9.710990
_cell_length_b 14.072183
_cell_length_c 11.445563
_cell_angle_alpha 90.000000
_cell_angle_beta 90.000000
_cell_angle_gamma 90.000000
_cell_volume 1564.091448
_symmetry_space_group_name_H-M "P 21 21 2"
_symmetry_group_IT_number 18
_symmetry_cell_setting 'orthorhombic'
loop_
_space_group_symop_operation_xyz
x,y,z
-x,-y,z
1/2+x,1/2-y,-z
1/2-x,1/2+y,-z
loop_
_atom_site_type_symbol
_atom_site_label
_atom_site_fract_x
_atom_site_fract_y
_atom_site_fract_z
Si Si1 0.751546 0.362104 0.005828
Si Si2 0.753043 0.384099 0.287033
Si Si3 0.500000 0.000000 0.997033
Si Si4 0.496872 0.390019 0.455402
Si Si5 0.976962 0.098942 0.128645
Si Si6 0.737381 0.100925 0.695201
Si Si7 0.747958 0.138675 0.947207
Si Si8 0.005868 0.749921 0.331992
O O1 0.755960 0.369106 0.146957
O O2 0.752903 0.252205 0.964987
O O3 0.877749 0.427733 0.956393
O O4 0.603326 0.396291 0.961622
O O5 0.605051 0.379172 0.349125
O O6 0.805483 0.490979 0.311334
O O7 0.851822 0.306551 0.344577
O O8 0.601181 0.082371 0.943360
O O9 0.500000 0.500000 0.494762
O O10 0.345157 0.374529 0.404818
O O11 0.526052 0.317116 0.558746
O O12 0.836889 0.101356 0.055376
O O13 0.983374 0.185474 0.217102
O O14 0.000000 0.000000 0.194778
O O15 0.611227 0.172158 0.688005
O O16 0.810146 0.114143 0.821196
#
# Coordination Sequence:
#
# PCOD9312886 Si02
#       8
#     4   4   2   4   4   4   4   4
#     4  12  23  40  65  98 130 168 215 263 328 389
#     4  11  22  40  67  91 124 164 216 267 315 374
#     4  12  24  40  64  94 138 164 216 270 304 394
#     4  10  24  43  62  90 121 162 214 269 315 377
#     4  12  23  40  60  90 133 174 203 253 325 394
#     4  11  22  40  67  91 124 164 216 267 315 374
#     4  12  23  40  65  98 130 168 215 263 328 389
#     4  12  23  40  64  92 124 167 215 261 320 379
#
# _framework density 19.180465000000002
#
# number of rings (size 3 to 8) (size 9 to 14) (size 15 to 20)
#    0.000    0.533    5.333    4.000    0.000    1.067 
#    0.000    0.000    0.000    0.000    0.000    0.000 
#    0.000    0.000    0.000    0.000    0.000    0.000 
#
# Total GULP energy -167288.449832 kJ/mol
# GULP energy per Si atom -5576.281661 kJ/mol
# Density = 1.913681 g / cm^3
# Si number density = 19.180465 Si / 1000 Ang^3
#
#
#
# Elastic Constant Matrix: (Units=GPa)
#
#
# Indices 1 2 3 4 5 6 
#
# 1 79.4350 38.9467 16.1439 0.0000 0.0000 0.0000
# 2 38.9467 127.4904 14.6362 0.0000 0.0000 0.0000
# 3 16.1439 14.6362 55.2952 0.0000 0.0000 0.0000
# 4 0.0000 0.0000 0.0000 22.5927 0.0000 0.0000
# 5 0.0000 0.0000 0.0000 0.0000 15.7385 0.0000
# 6 0.0000 0.0000 0.0000 0.0000 0.0000 32.2829
#
#
#
# Elastic Compliance Matrix: (Units=1/GPa)
#
#
# Indices 1 2 3 4 5 6 
#
# 1 0.015386 -0.004316 -0.003350 0.000000 0.000000 0.000000
# 2 -0.004316 0.009300 -0.001202 0.000000 0.000000 0.000000
# 3 -0.003350 -0.001202 0.019381 0.000000 0.000000 0.000000
# 4 0.000000 0.000000 0.000000 0.044262 0.000000 0.000000
# 5 0.000000 0.000000 0.000000 0.000000 0.063539 0.000000
# 6 0.000000 0.000000 0.000000 0.000000 0.000000 0.030976
#
#
# Mechanical properties :
#
#
# Convention : Reuss Voigt Hill
#
# Bulk Modulus (GPa) = 37.97569 44.63045 41.30307
# Shear Modulus (GPa) = 23.88295 26.95575 25.41935
#
# Velocity S-wave (km/s) = 3.53253 3.75290 3.64438
# Velocity P-wave (km/s) = 6.03990 6.48832 6.26812
#
# Compressibility (1/GPa) = 0.02633263
#
# Stress axis : x y z
#
# Youngs Moduli (GPa) = 64.99601 107.52656 51.59747
#
# Poissons Ratio (x) = 0.46404 0.17283
# Poissons Ratio (y) = 0.28049 0.06200
# Poissons Ratio (z) = 0.21771 0.12921
#
# Static dielectric constant tensor:
#      x y z
#    x 1.659560 0.000000 0.000000 
#    y 0.000000 1.710430 0.000000 
#    z 0.000000 0.000000 1.627820 
# 
# From -- ./inp_files/5649.got.cif
#   From: 2010.05.17/outbox.cif.g08.bks.cpg/sg18_3_cif.got.tgz:5649.got - 2010.06.03 22:40:56.
