data_PCOD9312902
_publ_section_title
;
Structure prediction by ZEFSAII (Michael W. Deem and Ramdas Pophale) SiO2 
 PCOD9312902
Probable space group: P 21 21 2
;
_chemical_formula_sum "Si O2"
_cell_formula_units_Z 32
_cell_length_a 8.520518
_cell_length_b 12.033128
_cell_length_c 15.013877
_cell_angle_alpha 90.000000
_cell_angle_beta 90.000000
_cell_angle_gamma 90.000000
_cell_volume 1539.350044
_symmetry_space_group_name_H-M "P 21 21 2"
_symmetry_group_IT_number 18
_symmetry_cell_setting 'orthorhombic'
loop_
_space_group_symop_operation_xyz
x,y,z
-x,-y,z
1/2+x,1/2-y,-z
1/2-x,1/2+y,-z
loop_
_atom_site_type_symbol
_atom_site_label
_atom_site_fract_x
_atom_site_fract_y
_atom_site_fract_z
Si Si1 0.670602 0.163441 0.735065
Si Si2 0.177593 0.602031 0.762535
Si Si3 0.678126 0.814638 0.681919
Si Si4 0.687102 0.514605 0.419643
Si Si5 0.170933 0.941725 0.377114
Si Si6 0.887135 0.729014 0.826391
Si Si7 0.325098 0.458839 0.904830
Si Si8 0.386455 0.404408 0.107338
O O1 0.712477 0.293527 0.739309
O O2 0.486357 0.148183 0.723455
O O3 0.744818 0.115529 0.825357
O O4 0.754549 0.105132 0.651449
O O5 0.217122 0.509672 0.689429
O O6 0.216678 0.551963 0.859847
O O7 0.003429 0.649928 0.770471
O O8 0.729535 0.898914 0.605303
O O9 0.662763 0.687446 0.649462
O O10 0.810057 0.814669 0.757991
O O11 0.500000 0.500000 0.412185
O O12 0.723752 0.548297 0.520716
O O13 0.000000 0.000000 0.369629
O O14 0.745863 0.656451 0.867251
O O15 0.001619 0.794740 0.894214
O O16 0.500000 0.500000 0.877485
O O17 0.329323 0.443567 0.010654
O O18 0.500000 0.500000 0.142999
#
# Coordination Sequence:
#
# PCOD9312902 Si02
#       8
#     4   4   4   4   4   4   4   4
#     4  11  23  45  72  99 140 185 234 289 353 421
#     4  11  22  44  70 101 138 178 228 290 359 415
#     4  12  24  43  71 102 139 188 237 287 356 417
#     4  11  26  45  66 101 145 185 238 289 350 424
#     4  11  24  44  71 105 141 179 232 298 352 417
#     4  11  24  42  69 100 137 183 233 281 359 419
#     4  11  23  42  66 101 137 176 229 291 345 420
#     4  10  24  44  69  98 140 183 229 288 354 421
#
# _framework density 20.787994999999999
#
# number of rings (size 3 to 8) (size 9 to 14) (size 15 to 20)
#    0.000    1.000    2.500    4.500    1.750    5.000 
#    4.500    5.000    0.000    0.000    0.000    0.000 
#    0.000    0.000    0.000    0.000    0.000    0.000 
#
# Total GULP energy -178872.106606 kJ/mol
# GULP energy per Si atom -5589.753331 kJ/mol
# Density = 2.074068 g / cm^3
# Si number density = 20.787995 Si / 1000 Ang^3
#
#
#
# Elastic Constant Matrix: (Units=GPa)
#
#
# Indices 1 2 3 4 5 6 
#
# 1 98.6252 18.1316 52.7917 0.0000 0.0000 0.0000
# 2 18.1316 107.3460 48.6672 0.0000 0.0000 0.0000
# 3 52.7917 48.6672 118.9069 0.0000 0.0000 0.0000
# 4 0.0000 0.0000 0.0000 35.9970 0.0000 0.0000
# 5 0.0000 0.0000 0.0000 0.0000 19.4350 0.0000
# 6 0.0000 0.0000 0.0000 0.0000 0.0000 36.4887
#
#
#
# Elastic Compliance Matrix: (Units=1/GPa)
#
#
# Indices 1 2 3 4 5 6 
#
# 1 0.013325 0.000530 -0.006133 0.000000 0.000000 0.000000
# 2 0.000530 0.011459 -0.004925 0.000000 0.000000 0.000000
# 3 -0.006133 -0.004925 0.013149 0.000000 0.000000 0.000000
# 4 0.000000 0.000000 0.000000 0.027780 0.000000 0.000000
# 5 0.000000 0.000000 0.000000 0.000000 0.051454 0.000000
# 6 0.000000 0.000000 0.000000 0.000000 0.000000 0.027406
#
#
# Mechanical properties :
#
#
# Convention : Reuss Voigt Hill
#
# Bulk Modulus (GPa) = 59.25590 62.67324 60.96457
# Shear Modulus (GPa) = 29.19649 32.06998 30.63324
#
# Velocity S-wave (km/s) = 3.75172 3.93200 3.84292
# Velocity P-wave (km/s) = 6.87996 7.12941 7.00580
#
# Compressibility (1/GPa) = 0.01687596
#
# Stress axis : x y z
#
# Youngs Moduli (GPa) = 75.04876 87.26645 76.05408
#
# Poissons Ratio (x) = -0.04622 0.46641
# Poissons Ratio (y) = -0.03975 0.37459
# Poissons Ratio (z) = 0.46025 0.42981
#
# Static dielectric constant tensor:
#      x y z
#    x 1.745880 0.000000 0.000000 
#    y 0.000000 1.766270 0.000000 
#    z 0.000000 0.000000 1.712660 
# 
# From -- ./inp_files/6807.got.cif
#   From: 2010.05.17/outbox.cif.g08.bks.cpg/sg18_4_cif.got.tgz:6807.got - 2010.06.03 22:40:56.
