data_PCOD9312690
_publ_section_title
;
Structure prediction by ZEFSAII (Michael W. Deem and Ramdas Pophale) SiO2 
 PCOD9312690
Probable space group: P 21 21 2
;
_chemical_formula_sum "Si O2"
_cell_formula_units_Z 24
_cell_length_a 16.963048
_cell_length_b 10.678466
_cell_length_c 5.404034
_cell_angle_alpha 90.000000
_cell_angle_beta 90.000000
_cell_angle_gamma 90.000000
_cell_volume 978.883105
_symmetry_space_group_name_H-M "P 21 21 2"
_symmetry_group_IT_number 18
_symmetry_cell_setting 'orthorhombic'
loop_
_space_group_symop_operation_xyz
x,y,z
-x,-y,z
1/2+x,1/2-y,-z
1/2-x,1/2+y,-z
loop_
_atom_site_type_symbol
_atom_site_label
_atom_site_fract_x
_atom_site_fract_y
_atom_site_fract_z
Si Si1 0.565403 0.216356 0.426426
Si Si2 0.145798 0.912798 0.313887
Si Si3 0.098252 0.138828 0.057254
Si Si4 0.202848 0.454851 0.435453
Si Si5 0.105712 0.671360 0.559047
Si Si6 0.734472 0.757236 0.064261
O O1 0.573898 0.280682 0.698614
O O2 0.641849 0.126446 0.396219
O O3 0.484920 0.138189 0.412591
O O4 0.561564 0.313074 0.197295
O O5 0.212375 0.994763 0.452073
O O6 0.100409 0.819036 0.491840
O O7 0.091283 0.995277 0.140117
O O8 0.197415 0.814637 0.162505
O O9 0.192129 0.155057 0.008193
O O10 0.150471 0.576104 0.373012
O O11 0.229245 0.355325 0.230457
O O12 0.164855 0.671636 0.791120
#
# Coordination Sequence:
#
# PCOD9312690 Si02
#       6
#     4   4   4   4   4   4
#     4  11  26  48  69 106 143 187 224 302 358 420
#     4  11  24  41  69 101 133 194 234 294 340 428
#     4  11  25  47  71  97 145 180 239 282 356 424
#     4  10  22  43  71 102 138 182 242 294 354 416
#     4  11  25  43  68 103 144 184 239 292 366 424
#     4  10  23  40  70 102 128 188 236 291 342 423
#
# _framework density 24.517737
#
# number of rings (size 3 to 8) (size 9 to 14) (size 15 to 20)
#    0.000    1.333    3.333    0.500    9.333    0.667 
#    0.000    1.667    0.000    0.000    0.000    0.000 
#    0.000    0.000    0.000    0.000    0.000    0.000 
#
# Total GULP energy -134065.783671 kJ/mol
# GULP energy per Si atom -5586.074320 kJ/mol
# Density = 2.446193 g / cm^3
# Si number density = 24.517737 Si / 1000 Ang^3
#
#
#
# Elastic Constant Matrix: (Units=GPa)
#
#
# Indices 1 2 3 4 5 6 
#
# 1 123.7874 16.3415 26.9307 0.0000 0.0000 0.0000
# 2 16.3415 76.4125 11.5307 0.0000 0.0000 0.0000
# 3 26.9307 11.5307 81.2018 0.0000 0.0000 0.0000
# 4 0.0000 0.0000 0.0000 32.3921 0.0000 0.0000
# 5 0.0000 0.0000 0.0000 0.0000 15.2438 0.0000
# 6 0.0000 0.0000 0.0000 0.0000 0.0000 20.9069
#
#
#
# Elastic Compliance Matrix: (Units=1/GPa)
#
#
# Indices 1 2 3 4 5 6 
#
# 1 0.008868 -0.001485 -0.002730 0.000000 0.000000 0.000000
# 2 -0.001485 0.013622 -0.001442 0.000000 0.000000 0.000000
# 3 -0.002730 -0.001442 0.013425 0.000000 0.000000 0.000000
# 4 0.000000 0.000000 0.000000 0.030872 0.000000 0.000000
# 5 0.000000 0.000000 0.000000 0.000000 0.065601 0.000000
# 6 0.000000 0.000000 0.000000 0.000000 0.000000 0.047831
#
#
# Mechanical properties :
#
#
# Convention : Reuss Voigt Hill
#
# Bulk Modulus (GPa) = 40.64750 43.44528 42.04639
# Shear Modulus (GPa) = 25.03337 28.81514 26.92425
#
# Velocity S-wave (km/s) = 3.19882 3.43195 3.31744
# Velocity P-wave (km/s) = 5.50074 5.78470 5.64451
#
# Compressibility (1/GPa) = 0.02460176
#
# Stress axis : x y z
#
# Youngs Moduli (GPa) = 112.76042 73.41091 74.48623
#
# Poissons Ratio (x) = 0.10898 0.20338
# Poissons Ratio (y) = 0.16740 0.10741
# Poissons Ratio (z) = 0.30788 0.10586
#
# Static dielectric constant tensor:
#      x y z
#    x 1.993360 0.000000 0.000000 
#    y 0.000000 2.056140 0.000000 
#    z 0.000000 0.000000 1.998270 
# 
# From -- ./inp_files/1113.got.cif
#   From: 2010.05.17/outbox.cif.g08.bks.cpg/sg18_1_cif.got.tgz:1113.got - 2010.06.03 22:40:56.
