data_PCOD9312713
_publ_section_title
;
Structure prediction by ZEFSAII (Michael W. Deem and Ramdas Pophale) SiO2 
 PCOD9312713
Probable space group: P 21 21 2
;
_chemical_formula_sum "Si O2"
_cell_formula_units_Z 16
_cell_length_a 20.535246
_cell_length_b 4.939086
_cell_length_c 4.556760
_cell_angle_alpha 90.000000
_cell_angle_beta 90.000000
_cell_angle_gamma 90.000000
_cell_volume 462.170960
_symmetry_space_group_name_H-M "P 21 21 2"
_symmetry_group_IT_number 18
_symmetry_cell_setting 'orthorhombic'
loop_
_space_group_symop_operation_xyz
x,y,z
-x,-y,z
1/2+x,1/2-y,-z
1/2-x,1/2+y,-z
loop_
_atom_site_type_symbol
_atom_site_label
_atom_site_fract_x
_atom_site_fract_y
_atom_site_fract_z
Si Si1 0.962353 0.301356 0.739467
Si Si2 0.037647 0.198644 0.260533
Si Si3 0.820308 0.183927 0.701902
Si Si4 0.179692 0.316073 0.298098
O O1 0.888813 0.253250 0.849392
O O2 0.000000 0.500000 0.043302
O O3 0.042589 0.371824 0.585215
O O4 0.957411 0.128176 0.414785
O O5 0.111187 0.246750 0.150608
O O6 0.000000 0.000000 0.956698
O O7 0.820736 0.383980 0.423134
O O8 0.750000 0.235358 0.846031
O O9 0.820736 0.883980 0.576866
#
# Coordination Sequence:
#
# PCOD9312713 Si02
#       4
#     4   4   4   4
#     4  12  25  44  73 108 147 193 247 303 367 437
#     4  12  25  44  73 108 147 193 247 303 367 437
#     4  10  22  44  72 106 147 193 244 303 369 437
#     4  10  22  44  72 106 147 193 244 303 369 437
#
# _framework density 34.619219999999999
#
# number of rings (size 3 to 8) (size 9 to 14) (size 15 to 20)
#    0.000    1.000    5.000    1.500    0.000    0.000 
#    0.000    5.000    0.000    0.000    0.000    0.000 
#    0.000    0.000    0.000    0.000    0.000    0.000 
#
# Total GULP energy -89333.018765 kJ/mol
# GULP energy per Si atom -5583.313673 kJ/mol
# Density = 3.454043 g / cm^3
# Si number density = 34.619220 Si / 1000 Ang^3
#
#
#
# Elastic Constant Matrix: (Units=GPa)
#
#
# Indices 1 2 3 4 5 6 
#
# 1 462.6034 76.4382 108.3796 0.0000 0.0000 0.0000
# 2 76.4382 175.1408 115.0309 0.0000 0.0000 0.0000
# 3 108.3796 115.0309 291.2931 0.0000 0.0000 0.0000
# 4 0.0000 0.0000 0.0000 68.5067 0.0000 0.0000
# 5 0.0000 0.0000 0.0000 0.0000 60.0020 0.0000
# 6 0.0000 0.0000 0.0000 0.0000 0.0000 52.5870
#
#
#
# Elastic Compliance Matrix: (Units=1/GPa)
#
#
# Indices 1 2 3 4 5 6 
#
# 1 0.002418 -0.000627 -0.000652 0.000000 0.000000 0.000000
# 2 -0.000627 0.007872 -0.002875 0.000000 0.000000 0.000000
# 3 -0.000652 -0.002875 0.004811 0.000000 0.000000 0.000000
# 4 0.000000 0.000000 0.000000 0.014597 0.000000 0.000000
# 5 0.000000 0.000000 0.000000 0.000000 0.016666 0.000000
# 6 0.000000 0.000000 0.000000 0.000000 0.000000 0.019016
#
#
# Mechanical properties :
#
#
# Convention : Reuss Voigt Hill
#
# Bulk Modulus (GPa) = 147.22911 169.85941 158.54426
# Shear Modulus (GPa) = 65.83021 78.16503 71.99762
#
# Velocity S-wave (km/s) = 4.36541 4.75684 4.56532
# Velocity P-wave (km/s) = 8.24800 8.90739 8.58403
#
# Compressibility (1/GPa) = 0.00679213
#
# Stress axis : x y z
#
# Youngs Moduli (GPa) = 413.55548 127.03558 207.85718
#
# Poissons Ratio (x) = 0.07966 0.13553
# Poissons Ratio (y) = 0.25933 0.59764
# Poissons Ratio (z) = 0.26965 0.36526
#
# Static dielectric constant tensor:
#      x y z
#    x 2.591900 0.000000 0.000000 
#    y 0.000000 4.982650 0.000000 
#    z 0.000000 0.000000 3.053520 
# 
# From -- ./inp_files/1934.got.cif
#   From: 2010.05.17/outbox.cif.g08.bks.cpg/sg18_1_cif.got.tgz:1934.got - 2010.06.03 22:40:56.
