data_PCOD9312991
_publ_section_title
;
Structure prediction by ZEFSAII (Michael W. Deem and Ramdas Pophale) SiO2 
 PCOD9312991
Probable space group: P 21 21 2
;
_chemical_formula_sum "Si O2"
_cell_formula_units_Z 32
_cell_length_a 7.854889
_cell_length_b 11.818133
_cell_length_c 14.916192
_cell_angle_alpha 90.000000
_cell_angle_beta 90.000000
_cell_angle_gamma 90.000000
_cell_volume 1384.671937
_symmetry_space_group_name_H-M "P 21 21 2"
_symmetry_group_IT_number 18
_symmetry_cell_setting 'orthorhombic'
loop_
_space_group_symop_operation_xyz
x,y,z
-x,-y,z
1/2+x,1/2-y,-z
1/2-x,1/2+y,-z
loop_
_atom_site_type_symbol
_atom_site_label
_atom_site_fract_x
_atom_site_fract_y
_atom_site_fract_z
Si Si1 0.652730 0.125989 0.714381
Si Si2 0.213492 0.647740 0.795914
Si Si3 0.721693 0.800596 0.665001
Si Si4 0.796251 0.488690 0.459812
Si Si5 0.190463 0.968798 0.339856
Si Si6 0.866104 0.759488 0.842275
Si Si7 0.202797 0.468705 0.921935
Si Si8 0.299187 0.506545 0.117211
O O1 0.698297 0.254159 0.739869
O O2 0.452091 0.137132 0.694745
O O3 0.737958 0.074707 0.623835
O O4 0.700032 0.050457 0.800678
O O5 0.185676 0.546817 0.721995
O O6 0.296590 0.575479 0.876359
O O7 0.059361 0.716153 0.843970
O O8 0.708976 0.666138 0.662957
O O9 0.855444 0.815472 0.743910
O O10 0.761247 0.864652 0.573961
O O11 0.712850 0.506130 0.555318
O O12 0.000000 0.500000 0.474600
O O13 0.000000 0.000000 0.310200
O O14 0.767037 0.643901 0.863754
O O15 0.778568 0.858706 0.898939
O O16 0.000000 0.500000 0.918241
O O17 0.251778 0.448018 0.024034
O O18 0.500000 0.500000 0.134594
#
# Coordination Sequence:
#
# PCOD9312991 Si02
#       8
#     4   4   4   4   4   4   4   4
#     4  11  24  46  66  99 139 178 231 291 341 421
#     4  11  24  46  66  99 139 178 231 291 341 421
#     4  11  24  44  70  97 136 182 227 284 358 410
#     4  10  26  43  65 102 138 176 230 290 347 415
#     4  12  26  43  70 103 134 185 232 283 356 417
#     4  11  24  44  70  97 136 182 227 284 358 410
#     4  10  26  43  65 102 138 176 230 290 347 415
#     4  12  26  43  70 103 134 185 232 283 356 417
#
# _framework density 23.110167000000001
#
# number of rings (size 3 to 8) (size 9 to 14) (size 15 to 20)
#    0.000    1.000    5.000    0.000    7.000    3.000 
#    0.000    0.000    0.000    0.000    0.000    0.000 
#    0.000    0.000    0.000    0.000    0.000    0.000 
#
# Total GULP energy -178475.029133 kJ/mol
# GULP energy per Si atom -5577.344660 kJ/mol
# Density = 2.305757 g / cm^3
# Si number density = 23.110167 Si / 1000 Ang^3
#
#
#
# Elastic Constant Matrix: (Units=GPa)
#
#
# Indices 1 2 3 4 5 6 
#
# 1 18.5690 7.7091 1.4435 0.0000 0.0000 0.0000
# 2 7.7091 138.7114 32.7572 0.0000 0.0000 0.0000
# 3 1.4435 32.7572 123.0208 0.0000 0.0000 0.0000
# 4 0.0000 0.0000 0.0000 32.6995 0.0000 0.0000
# 5 0.0000 0.0000 0.0000 0.0000 21.5483 0.0000
# 6 0.0000 0.0000 0.0000 0.0000 0.0000 30.7290
#
#
#
# Elastic Compliance Matrix: (Units=1/GPa)
#
#
# Indices 1 2 3 4 5 6 
#
# 1 0.055129 -0.003106 0.000180 0.000000 0.000000 0.000000
# 2 -0.003106 0.007868 -0.002059 0.000000 0.000000 0.000000
# 3 0.000180 -0.002059 0.008675 0.000000 0.000000 0.000000
# 4 0.000000 0.000000 0.000000 0.030581 0.000000 0.000000
# 5 0.000000 0.000000 0.000000 0.000000 0.046407 0.000000
# 6 0.000000 0.000000 0.000000 0.000000 0.000000 0.032543
#
#
# Mechanical properties :
#
#
# Convention : Reuss Voigt Hill
#
# Bulk Modulus (GPa) = 16.20689 40.45784 28.33237
# Shear Modulus (GPa) = 23.61387 32.88812 28.25099
#
# Velocity S-wave (km/s) = 3.20002 3.77649 3.50015
# Velocity P-wave (km/s) = 4.54771 6.04652 5.34986
#
# Compressibility (1/GPa) = 0.06170215
#
# Stress axis : x y z
#
# Youngs Moduli (GPa) = 18.13931 127.09705 115.27720
#
# Poissons Ratio (x) = 0.39482 -0.02079
# Poissons Ratio (y) = 0.05635 0.23731
# Poissons Ratio (z) = -0.00327 0.26164
#
# Static dielectric constant tensor:
#      x y z
#    x 1.927270 0.000000 0.000000 
#    y 0.000000 1.973360 0.000000 
#    z 0.000000 0.000000 1.851640 
# 
# From -- ./inp_files/6805.got.cif
#   From: 2010.05.17/outbox.cif.g08.bks.cpg/sg18_4_cif.got.tgz:6805.got - 2010.06.03 22:40:56.
