data_PCOD9312488
_publ_section_title
;
Structure prediction by ZEFSAII (Michael W. Deem and Ramdas Pophale) SiO2 
 PCOD9312488
Probable space group: P 21 21 2
;
_chemical_formula_sum "Si O2"
_cell_formula_units_Z 20
_cell_length_a 5.204792
_cell_length_b 28.989401
_cell_length_c 4.663994
_cell_angle_alpha 90.000000
_cell_angle_beta 90.000000
_cell_angle_gamma 90.000000
_cell_volume 703.721149
_symmetry_space_group_name_H-M "P 21 21 2"
_symmetry_group_IT_number 18
_symmetry_cell_setting 'orthorhombic'
loop_
_space_group_symop_operation_xyz
x,y,z
-x,-y,z
1/2+x,1/2-y,-z
1/2-x,1/2+y,-z
loop_
_atom_site_type_symbol
_atom_site_label
_atom_site_fract_x
_atom_site_fract_y
_atom_site_fract_z
Si Si1 0.500000 0.500000 0.599772
Si Si2 0.057350 0.238147 0.141126
Si Si3 0.733906 0.675990 0.249449
Si Si4 0.523805 0.901923 0.988120
Si Si5 0.018706 0.899590 0.384056
Si Si6 0.500000 0.000000 0.999810
O O1 0.503205 0.550529 0.453632
O O2 0.749768 0.499554 0.801242
O O3 0.894258 0.192552 0.052322
O O4 0.832688 0.271560 0.011054
O O5 0.174305 0.274280 0.381215
O O6 0.528985 0.645300 0.416488
O O7 0.964527 0.640379 0.217341
O O8 0.281335 0.900925 0.203440
O O9 0.509808 0.951754 0.835955
O O10 0.780399 0.897617 0.169204
#
# Coordination Sequence:
#
# PCOD9312488 Si02
#       6
#     2   4   4   4   4   2
#     4   8  16  36  52  82 124 152 194 256 298 356
#     4   8  20  36  60  82 120 160 194 270 316 336
#     4  10  22  40  64  84 126 158 210 254 314 372
#     4  10  22  36  62  89 121 164 203 249 312 372
#     4  10  22  36  62  89 121 164 203 249 312 372
#     4   8  16  36  52  82 124 152 194 256 298 356
#
# _framework density 28.420349000000002
#
# number of rings (size 3 to 8) (size 9 to 14) (size 15 to 20)
#    1.200    1.600    0.000    0.000    5.600    0.000 
#    0.000   16.000    0.000    0.000    0.000    0.000 
#    0.000    0.000    0.000    0.000    0.000    0.000 
#
# Total GULP energy -111451.872108 kJ/mol
# GULP energy per Si atom -5572.593605 kJ/mol
# Density = 2.835566 g / cm^3
# Si number density = 28.420349 Si / 1000 Ang^3
#
#
#
# Elastic Constant Matrix: (Units=GPa)
#
#
# Indices 1 2 3 4 5 6 
#
# 1 216.1434 4.5704 46.4547 0.0000 0.0000 0.0000
# 2 4.5704 156.2991 28.3864 0.0000 0.0000 0.0000
# 3 46.4547 28.3864 58.7254 0.0000 0.0000 0.0000
# 4 0.0000 0.0000 0.0000 92.3079 0.0000 0.0000
# 5 0.0000 0.0000 0.0000 0.0000 59.9185 0.0000
# 6 0.0000 0.0000 0.0000 0.0000 0.0000 33.3425
#
#
#
# Elastic Compliance Matrix: (Units=1/GPa)
#
#
# Indices 1 2 3 4 5 6 
#
# 1 0.005645 0.000708 -0.004808 0.000000 0.000000 0.000000
# 2 0.000708 0.007103 -0.003993 0.000000 0.000000 0.000000
# 3 -0.004808 -0.003993 0.022762 0.000000 0.000000 0.000000
# 4 0.000000 0.000000 0.000000 0.010833 0.000000 0.000000
# 5 0.000000 0.000000 0.000000 0.000000 0.016689 0.000000
# 6 0.000000 0.000000 0.000000 0.000000 0.000000 0.029992
#
#
# Mechanical properties :
#
#
# Convention : Reuss Voigt Hill
#
# Bulk Modulus (GPa) = 51.75066 65.55452 58.65259
# Shear Modulus (GPa) = 43.23373 60.56421 51.89897
#
# Velocity S-wave (km/s) = 3.90452 4.62130 4.27795
# Velocity P-wave (km/s) = 6.21092 7.18271 6.71442
#
# Compressibility (1/GPa) = 0.01932343
#
# Stress axis : x y z
#
# Youngs Moduli (GPa) = 177.15206 140.79482 43.93332
#
# Poissons Ratio (x) = -0.09969 0.21122
# Poissons Ratio (y) = -0.12544 0.17544
# Poissons Ratio (z) = 0.85168 0.56224
#
# Static dielectric constant tensor:
#      x y z
#    x 2.127990 0.000000 0.000000 
#    y 0.000000 2.321860 0.000000 
#    z 0.000000 0.000000 2.341580 
# 
# From -- ./inp_files/318.got.cif
#   From: 2010.05.17/outbox.cif.g08.bks.cpg/sg18_1_cif.got.tgz:318.got - 2010.06.03 22:40:56.
