data_PCOD9312917
_publ_section_title
;
Structure prediction by ZEFSAII (Michael W. Deem and Ramdas Pophale) SiO2 
 PCOD9312917
Probable space group: P 21 21 2
;
_chemical_formula_sum "Si O2"
_cell_formula_units_Z 20
_cell_length_a 7.903777
_cell_length_b 11.424896
_cell_length_c 10.602408
_cell_angle_alpha 90.000000
_cell_angle_beta 90.000000
_cell_angle_gamma 90.000000
_cell_volume 957.395642
_symmetry_space_group_name_H-M "P 21 21 2"
_symmetry_group_IT_number 18
_symmetry_cell_setting 'orthorhombic'
loop_
_space_group_symop_operation_xyz
x,y,z
-x,-y,z
1/2+x,1/2-y,-z
1/2-x,1/2+y,-z
loop_
_atom_site_type_symbol
_atom_site_label
_atom_site_fract_x
_atom_site_fract_y
_atom_site_fract_z
Si Si1 0.500000 0.500000 0.745335
Si Si2 0.155388 0.410445 0.143398
Si Si3 0.660251 0.087798 0.140792
Si Si4 0.041927 0.256256 0.636407
Si Si5 0.155082 0.223953 0.363797
Si Si6 0.000000 0.000000 0.741563
O O1 0.334450 0.478675 0.829860
O O2 0.539280 0.388115 0.659332
O O3 0.126760 0.312247 0.248540
O O4 0.332809 0.473034 0.176761
O O5 0.000000 0.500000 0.149232
O O6 0.163790 0.362402 0.000970
O O7 0.639528 0.185727 0.247635
O O8 0.500000 0.000000 0.148681
O O9 0.119559 0.279718 0.499800
O O10 0.031280 0.116801 0.659811
O O11 0.852742 0.307499 0.638816
#
# Coordination Sequence:
#
# PCOD9312917 Si02
#       6
#     2   4   4   4   4   2
#     4  12  24  44  70 102 134 184 218 282 342 396
#     4  10  25  44  68  98 132 177 225 278 339 397
#     4  11  24  45  68  98 136 174 226 279 333 404
#     4  11  24  45  69 101 138 176 229 281 332 406
#     4  11  25  43  68 101 136 179 226 278 340 398
#     4  10  24  46  66 102 132 178 224 282 334 402
#
# _framework density 20.890007000000001
#
# number of rings (size 3 to 8) (size 9 to 14) (size 15 to 20)
#    0.000    1.200    2.000    2.400    5.600    7.200 
#    0.000    0.000    0.000    0.000    0.000    0.000 
#    0.000    0.000    0.000    0.000    0.000    0.000 
#
# Total GULP energy -111868.955619 kJ/mol
# GULP energy per Si atom -5593.447781 kJ/mol
# Density = 2.084246 g / cm^3
# Si number density = 20.890007 Si / 1000 Ang^3
#
#
#
# Elastic Constant Matrix: (Units=GPa)
#
#
# Indices 1 2 3 4 5 6 
#
# 1 122.9810 34.8048 50.9015 0.0000 0.0000 0.0000
# 2 34.8048 59.8324 49.6229 0.0000 0.0000 0.0000
# 3 50.9015 49.6229 200.3164 0.0000 0.0000 0.0000
# 4 0.0000 0.0000 0.0000 70.4200 0.0000 0.0000
# 5 0.0000 0.0000 0.0000 0.0000 17.5499 0.0000
# 6 0.0000 0.0000 0.0000 0.0000 0.0000 27.3848
#
#
#
# Elastic Compliance Matrix: (Units=1/GPa)
#
#
# Indices 1 2 3 4 5 6 
#
# 1 0.010032 -0.004684 -0.001389 0.000000 0.000000 0.000000
# 2 -0.004684 0.023222 -0.004562 0.000000 0.000000 0.000000
# 3 -0.001389 -0.004562 0.006475 0.000000 0.000000 0.000000
# 4 0.000000 0.000000 0.000000 0.014201 0.000000 0.000000
# 5 0.000000 0.000000 0.000000 0.000000 0.056980 0.000000
# 6 0.000000 0.000000 0.000000 0.000000 0.000000 0.036517
#
#
# Mechanical properties :
#
#
# Convention : Reuss Voigt Hill
#
# Bulk Modulus (GPa) = 54.17448 72.64313 63.40880
# Shear Modulus (GPa) = 28.59612 39.59098 34.09355
#
# Velocity S-wave (km/s) = 3.70387 4.35813 4.04425
# Velocity P-wave (km/s) = 6.65440 7.75719 7.22686
#
# Compressibility (1/GPa) = 0.01845888
#
# Stress axis : x y z
#
# Youngs Moduli (GPa) = 99.68404 43.06310 154.43447
#
# Poissons Ratio (x) = 0.20169 0.21449
# Poissons Ratio (y) = 0.46688 0.70459
# Poissons Ratio (z) = 0.13845 0.19647
#
# Static dielectric constant tensor:
#      x y z
#    x 1.744810 0.000000 0.000000 
#    y 0.000000 1.735200 0.000000 
#    z 0.000000 0.000000 1.737620 
# 
# From -- ./inp_files/2989.got.cif
#   From: 2010.05.17/outbox.cif.g08.bks.cpg/sg18_2_cif.got.tgz:2989.got - 2010.06.03 22:40:56.
