data_PCOD9312057
_publ_section_title
;
Structure prediction by ZEFSAII (Michael W. Deem and Ramdas Pophale) SiO2 
 PCOD9312057
Probable space group: P 21 21 2
;
_chemical_formula_sum "Si O2"
_cell_formula_units_Z 20
_cell_length_a 11.474809
_cell_length_b 8.100246
_cell_length_c 9.396442
_cell_angle_alpha 90.000000
_cell_angle_beta 90.000000
_cell_angle_gamma 90.000000
_cell_volume 873.387780
_symmetry_space_group_name_H-M "P 21 21 2"
_symmetry_group_IT_number 18
_symmetry_cell_setting 'orthorhombic'
loop_
_space_group_symop_operation_xyz
x,y,z
-x,-y,z
1/2+x,1/2-y,-z
1/2-x,1/2+y,-z
loop_
_atom_site_type_symbol
_atom_site_label
_atom_site_fract_x
_atom_site_fract_y
_atom_site_fract_z
Si Si1 0.620376 0.592994 0.843714
Si Si2 0.448536 0.818844 0.225092
Si Si3 0.309275 0.319543 0.298500
Si Si4 0.242606 0.459659 0.578973
Si Si5 0.733142 0.291235 0.987201
O O1 0.500000 0.500000 0.863566
O O2 0.651825 0.605834 0.678231
O O3 0.714778 0.468970 0.915580
O O4 0.645727 0.760201 0.928855
O O5 0.555239 0.697073 0.258485
O O6 0.369004 0.856654 0.364335
O O7 0.500000 0.000000 0.185307
O O8 0.367697 0.744587 0.101188
O O9 0.273561 0.452072 0.414293
O O10 0.237076 0.324346 0.152932
O O11 0.279963 0.147278 0.376608
#
# Coordination Sequence:
#
# PCOD9312057 Si02
#       5
#     4   4   4   4   4
#     4  10  21  38  58  85 121 158 199 250 301 355
#     4   9  19  39  60  80 116 157 192 243 300 350
#     4  10  20  37  59  85 118 153 192 244 297 351
#     4   9  21  37  56  84 116 151 194 236 290 362
#     4  10  21  37  60  88 115 151 203 249 295 358
#
# _framework density 22.899336000000002
#
# number of rings (size 3 to 8) (size 9 to 14) (size 15 to 20)
#    0.000    2.400    0.000    2.400    0.000    6.400 
#    0.000    6.000    0.000    0.000    0.000    0.000 
#    0.000    0.000    0.000    0.000    0.000    0.000 
#
# Total GULP energy -111721.616902 kJ/mol
# GULP energy per Si atom -5586.080845 kJ/mol
# Density = 2.284722 g / cm^3
# Si number density = 22.899336 Si / 1000 Ang^3
#
#
#
# Elastic Constant Matrix: (Units=GPa)
#
#
# Indices 1 2 3 4 5 6 
#
# 1 82.0826 4.1120 33.1216 0.0000 0.0000 0.0000
# 2 4.1120 23.9210 10.3744 0.0000 0.0000 0.0000
# 3 33.1216 10.3744 116.8589 0.0000 0.0000 0.0000
# 4 0.0000 0.0000 0.0000 40.3533 0.0000 0.0000
# 5 0.0000 0.0000 0.0000 0.0000 24.1736 0.0000
# 6 0.0000 0.0000 0.0000 0.0000 0.0000 28.4229
#
#
#
# Elastic Compliance Matrix: (Units=1/GPa)
#
#
# Indices 1 2 3 4 5 6 
#
# 1 0.013767 -0.000701 -0.003840 0.000000 0.000000 0.000000
# 2 -0.000701 0.043514 -0.003664 0.000000 0.000000 0.000000
# 3 -0.003840 -0.003664 0.009971 0.000000 0.000000 0.000000
# 4 0.000000 0.000000 0.000000 0.024781 0.000000 0.000000
# 5 0.000000 0.000000 0.000000 0.000000 0.041367 0.000000
# 6 0.000000 0.000000 0.000000 0.000000 0.000000 0.035183
#
#
# Mechanical properties :
#
#
# Convention : Reuss Voigt Hill
#
# Bulk Modulus (GPa) = 19.66897 35.34204 27.50551
# Shear Modulus (GPa) = 24.75960 30.27359 27.51660
#
# Velocity S-wave (km/s) = 3.29178 3.63992 3.47022
# Velocity P-wave (km/s) = 4.80164 5.75608 5.30039
#
# Compressibility (1/GPa) = 0.05084151
#
# Stress axis : x y z
#
# Youngs Moduli (GPa) = 72.63520 22.98113 100.29104
#
# Poissons Ratio (x) = 0.01612 0.38511
# Poissons Ratio (y) = 0.05094 0.36750
# Poissons Ratio (z) = 0.27891 0.08421
#
# Static dielectric constant tensor:
#      x y z
#    x 1.889570 0.000000 0.000000 
#    y 0.000000 1.942870 0.000000 
#    z 0.000000 0.000000 1.853370 
# 
# From -- ./inp_files/2933.got.cif
#   From: 2010.05.17/outbox.cif.g08.bks.cpg/sg18_2_cif.got.tgz:2933.got - 2010.06.03 22:40:56.
