data_PCOD9312783
_publ_section_title
;
Structure prediction by ZEFSAII (Michael W. Deem and Ramdas Pophale) SiO2 
 PCOD9312783
Probable space group: P 21 21 2
;
_chemical_formula_sum "Si O2"
_cell_formula_units_Z 24
_cell_length_a 8.597036
_cell_length_b 19.275901
_cell_length_c 6.664341
_cell_angle_alpha 90.000000
_cell_angle_beta 90.000000
_cell_angle_gamma 90.000000
_cell_volume 1104.385366
_symmetry_space_group_name_H-M "P 21 21 2"
_symmetry_group_IT_number 18
_symmetry_cell_setting 'orthorhombic'
loop_
_space_group_symop_operation_xyz
x,y,z
-x,-y,z
1/2+x,1/2-y,-z
1/2-x,1/2+y,-z
loop_
_atom_site_type_symbol
_atom_site_label
_atom_site_fract_x
_atom_site_fract_y
_atom_site_fract_z
Si Si1 0.308879 0.325281 0.672630
Si Si2 0.601048 0.888462 0.302928
Si Si3 0.865298 0.776636 0.386673
Si Si4 0.886560 0.554395 0.325280
Si Si5 0.130222 0.323019 0.028163
Si Si6 0.682129 0.512908 0.654328
O O1 0.185174 0.283798 0.537823
O O2 0.473075 0.314070 0.564500
O O3 0.290504 0.407225 0.710387
O O4 0.274833 0.297921 0.894606
O O5 0.725329 0.831311 0.376626
O O6 0.492662 0.914902 0.489231
O O7 0.705767 0.955912 0.242753
O O8 0.501850 0.852694 0.124227
O O9 0.904375 0.740450 0.175215
O O10 0.833057 0.613870 0.177703
O O11 0.741487 0.514433 0.423592
O O12 0.000000 0.500000 0.219105
O O13 0.500000 0.500000 0.678518
#
# Coordination Sequence:
#
# PCOD9312783 Si02
#       6
#     4   4   4   4   4   4
#     4  12  25  43  71  95 140 180 227 287 336 411
#     4  11  24  43  73  96 142 181 222 286 346 407
#     4  12  25  45  68 102 136 184 228 280 343 412
#     4  10  23  42  69  98 132 178 224 276 346 407
#     4  12  23  42  67 102 132 177 226 277 339 411
#     4  11  22  47  70  98 132 183 229 283 346 399
#
# _framework density 21.731542000000001
#
# number of rings (size 3 to 8) (size 9 to 14) (size 15 to 20)
#    0.000    0.667    5.000    3.000    2.333    0.000 
#    0.000    4.167    0.000    0.000    0.000    0.000 
#    0.000    0.000    0.000    0.000    0.000    0.000 
#
# Total GULP energy -133832.420529 kJ/mol
# GULP energy per Si atom -5576.350855 kJ/mol
# Density = 2.168208 g / cm^3
# Si number density = 21.731542 Si / 1000 Ang^3
#
#
#
# Elastic Constant Matrix: (Units=GPa)
#
#
# Indices 1 2 3 4 5 6 
#
# 1 93.2172 25.8273 20.9748 0.0000 0.0000 0.0000
# 2 25.8273 106.4045 18.0862 0.0000 0.0000 0.0000
# 3 20.9748 18.0862 61.3065 0.0000 0.0000 0.0000
# 4 0.0000 0.0000 0.0000 24.0130 0.0000 0.0000
# 5 0.0000 0.0000 0.0000 0.0000 17.0720 0.0000
# 6 0.0000 0.0000 0.0000 0.0000 0.0000 43.1166
#
#
#
# Elastic Compliance Matrix: (Units=1/GPa)
#
#
# Indices 1 2 3 4 5 6 
#
# 1 0.012162 -0.002363 -0.003464 0.000000 0.000000 0.000000
# 2 -0.002363 0.010353 -0.002246 0.000000 0.000000 0.000000
# 3 -0.003464 -0.002246 0.018159 0.000000 0.000000 0.000000
# 4 0.000000 0.000000 0.000000 0.041644 0.000000 0.000000
# 5 0.000000 0.000000 0.000000 0.000000 0.058575 0.000000
# 6 0.000000 0.000000 0.000000 0.000000 0.000000 0.023193
#
#
# Mechanical properties :
#
#
# Convention : Reuss Voigt Hill
#
# Bulk Modulus (GPa) = 40.76862 43.41163 42.09012
# Shear Modulus (GPa) = 26.53806 29.90965 28.22385
#
# Velocity S-wave (km/s) = 3.49833 3.71391 3.60773
# Velocity P-wave (km/s) = 5.92609 6.19762 6.06338
#
# Compressibility (1/GPa) = 0.02452867
#
# Stress axis : x y z
#
# Youngs Moduli (GPa) = 82.22482 96.58601 55.06885
#
# Poissons Ratio (x) = 0.22826 0.19074
# Poissons Ratio (y) = 0.19432 0.12368
# Poissons Ratio (z) = 0.28480 0.21692
#
# Static dielectric constant tensor:
#      x y z
#    x 1.830790 0.000000 0.000000 
#    y 0.000000 1.832050 0.000000 
#    z 0.000000 0.000000 1.805750 
# 
# From -- ./inp_files/603.got.cif
#   From: 2010.05.17/outbox.cif.g08.bks.cpg/sg18_1_cif.got.tgz:603.got - 2010.06.03 22:40:56.
