data_PCOD9312040
_publ_section_title
;
Structure prediction by ZEFSAII (Michael W. Deem and Ramdas Pophale) SiO2 
 PCOD9312040
Probable space group: P 21 21 2
;
_chemical_formula_sum "Si O2"
_cell_formula_units_Z 32
_cell_length_a 13.728448
_cell_length_b 7.057808
_cell_length_c 13.214557
_cell_angle_alpha 90.000000
_cell_angle_beta 90.000000
_cell_angle_gamma 90.000000
_cell_volume 1280.394769
_symmetry_space_group_name_H-M "P 21 21 2"
_symmetry_group_IT_number 18
_symmetry_cell_setting 'orthorhombic'
loop_
_space_group_symop_operation_xyz
x,y,z
-x,-y,z
1/2+x,1/2-y,-z
1/2-x,1/2+y,-z
loop_
_atom_site_type_symbol
_atom_site_label
_atom_site_fract_x
_atom_site_fract_y
_atom_site_fract_z
Si Si1 0.305634 0.740019 0.176627
Si Si2 0.814048 0.704042 0.596176
Si Si3 0.823720 0.211770 0.771268
Si Si4 0.911391 0.309563 0.136341
Si Si5 0.047516 0.320067 0.440237
Si Si6 0.005368 0.770991 0.921516
Si Si7 0.108971 0.267036 0.228616
Si Si8 0.364894 0.362093 0.457759
O O1 0.319242 0.834184 0.286276
O O2 0.315926 0.514084 0.201536
O O3 0.196506 0.778778 0.138837
O O4 0.394885 0.789536 0.103288
O O5 0.885240 0.585190 0.525449
O O6 0.709055 0.684823 0.547817
O O7 0.850538 0.916648 0.569967
O O8 0.920405 0.274363 0.830270
O O9 0.718135 0.294738 0.804251
O O10 0.840211 0.230748 0.650928
O O11 0.895333 0.513927 0.189209
O O12 0.001492 0.204217 0.191774
O O13 0.948252 0.315279 0.021783
O O14 0.108362 0.230449 0.349386
O O15 0.000000 0.500000 0.385805
O O16 0.967920 0.195060 0.495802
O O17 0.000000 0.000000 0.934505
#
# Coordination Sequence:
#
# PCOD9312040 Si02
#       8
#     4   4   4   4   4   4   4   4
#     4   9  20  38  61  90 124 165 212 261 333 400
#     4  11  22  39  63  96 131 176 216 264 327 401
#     4   9  19  38  63  90 124 163 214 261 329 399
#     4  10  20  36  65  85 115 161 213 264 324 393
#     4  12  22  38  65  90 130 175 219 265 320 394
#     4  10  21  38  63  92 120 161 212 275 326 390
#     4  10  20  39  62  87 114 167 216 257 328 400
#     4  11  22  37  66  96 133 175 216 261 329 398
#
# _framework density 24.992291000000002
#
# number of rings (size 3 to 8) (size 9 to 14) (size 15 to 20)
#    0.000    1.750    2.500    2.625    3.500    2.000 
#    0.000    2.500   16.500    0.000    0.000    0.000 
#    0.000    0.000    0.000    0.000    0.000    0.000 
#
# Total GULP energy -178842.081698 kJ/mol
# GULP energy per Si atom -5588.815053 kJ/mol
# Density = 2.493541 g / cm^3
# Si number density = 24.992291 Si / 1000 Ang^3
#
#
#
# Elastic Constant Matrix: (Units=GPa)
#
#
# Indices 1 2 3 4 5 6 
#
# 1 206.7395 17.0715 70.5493 0.0000 0.0000 0.0000
# 2 17.0715 90.6321 7.3888 0.0000 0.0000 0.0000
# 3 70.5493 7.3888 149.3665 0.0000 0.0000 0.0000
# 4 0.0000 0.0000 0.0000 18.7427 0.0000 0.0000
# 5 0.0000 0.0000 0.0000 0.0000 31.1614 0.0000
# 6 0.0000 0.0000 0.0000 0.0000 0.0000 3.8856
#
#
#
# Elastic Compliance Matrix: (Units=1/GPa)
#
#
# Indices 1 2 3 4 5 6 
#
# 1 0.005835 -0.000878 -0.002713 0.000000 0.000000 0.000000
# 2 -0.000878 0.011210 -0.000140 0.000000 0.000000 0.000000
# 3 -0.002713 -0.000140 0.007983 0.000000 0.000000 0.000000
# 4 0.000000 0.000000 0.000000 0.053354 0.000000 0.000000
# 5 0.000000 0.000000 0.000000 0.000000 0.032091 0.000000
# 6 0.000000 0.000000 0.000000 0.000000 0.000000 0.257360
#
#
# Mechanical properties :
#
#
# Convention : Reuss Voigt Hill
#
# Bulk Modulus (GPa) = 56.92267 70.75082 63.83674
# Shear Modulus (GPa) = 13.11817 34.20650 23.66234
#
# Velocity S-wave (km/s) = 2.29353 3.70358 3.08033
# Velocity P-wave (km/s) = 5.46253 6.83076 6.18460
#
# Compressibility (1/GPa) = 0.01756769
#
# Stress axis : x y z
#
# Youngs Moduli (GPa) = 171.37391 89.20295 125.26433
#
# Poissons Ratio (x) = 0.07832 0.33980
# Poissons Ratio (y) = 0.15046 0.01752
# Poissons Ratio (z) = 0.46488 0.01248
#
# Static dielectric constant tensor:
#      x y z
#    x 1.977650 0.000000 0.000000 
#    y 0.000000 2.160460 0.000000 
#    z 0.000000 0.000000 1.905110 
# 
# From -- ./inp_files/6145.got.cif
#   From: 2010.05.17/outbox.cif.g08.bks.cpg/sg18_4_cif.got.tgz:6145.got - 2010.06.03 22:40:56.
