data_PCOD9312289
_publ_section_title
;
Structure prediction by ZEFSAII (Michael W. Deem and Ramdas Pophale) SiO2 
 PCOD9312289
Probable space group: P 21 21 2
;
_chemical_formula_sum "Si O2"
_cell_formula_units_Z 26
_cell_length_a 9.334746
_cell_length_b 13.086648
_cell_length_c 8.652196
_cell_angle_alpha 90.000000
_cell_angle_beta 90.000000
_cell_angle_gamma 90.000000
_cell_volume 1056.956893
_symmetry_space_group_name_H-M "P 21 21 2"
_symmetry_group_IT_number 18
_symmetry_cell_setting 'orthorhombic'
loop_
_space_group_symop_operation_xyz
x,y,z
-x,-y,z
1/2+x,1/2-y,-z
1/2-x,1/2+y,-z
loop_
_atom_site_type_symbol
_atom_site_label
_atom_site_fract_x
_atom_site_fract_y
_atom_site_fract_z
Si Si1 0.284936 0.742367 0.008546
Si Si2 0.781585 0.030785 0.119172
Si Si3 0.000000 0.000000 0.855436
Si Si4 0.500000 0.000000 0.000471
Si Si5 0.030494 0.694639 0.169100
Si Si6 0.605111 0.274033 0.523725
Si Si7 0.000000 0.000000 0.388612
Si Si8 0.383979 0.291328 0.298746
O O1 0.258279 0.853632 0.081094
O O2 0.448274 0.729368 0.952225
O O3 0.196042 0.743147 0.848134
O O4 0.196922 0.679401 0.135103
O O5 0.873500 0.981510 0.980483
O O6 0.630710 0.973795 0.112260
O O7 0.871244 0.031988 0.274682
O O8 0.932759 0.093462 0.754252
O O9 0.540258 0.089037 0.881689
O O10 0.990141 0.727710 0.337706
O O11 0.570132 0.397279 0.534021
O O12 0.531444 0.242444 0.362187
O O13 0.762972 0.230194 0.566658
#
# Coordination Sequence:
#
# PCOD9312289 Si02
#       8
#     4   4   2   2   4   4   2   4
#     4   9  19  37  59  88 123 159 207 264 324 377
#     4   9  19  36  60  99 126 165 213 271 329 391
#     4   9  19  40  68  86 130 178 222 264 336 394
#     4  10  22  34  58  98 136 160 216 274 336 390
#     4  10  21  37  60  91 123 163 211 270 315 389
#     4  11  24  42  64  96 135 172 227 266 330 393
#     4  11  21  40  68  92 130 176 208 274 332 396
#     4  10  23  41  62  94 129 177 219 270 324 401
#
# _framework density 24.598922999999999
#
# number of rings (size 3 to 8) (size 9 to 14) (size 15 to 20)
#    0.000    2.154    1.538    1.385    4.308    2.462 
#    0.000    3.077    0.000    0.923    0.000    0.000 
#    0.000    0.000    0.000    0.000    0.000    0.000 
#
# Total GULP energy -144799.759521 kJ/mol
# GULP energy per Si atom -5569.221520 kJ/mol
# Density = 2.454294 g / cm^3
# Si number density = 24.598923 Si / 1000 Ang^3
#
#
#
# Elastic Constant Matrix: (Units=GPa)
#
#
# Indices 1 2 3 4 5 6 
#
# 1 147.5004 0.2344 31.3527 0.0000 0.0000 0.0000
# 2 0.2344 78.6397 -7.2918 0.0000 0.0000 0.0000
# 3 31.3527 -7.2918 28.5746 0.0000 0.0000 0.0000
# 4 0.0000 0.0000 0.0000 5.9260 0.0000 0.0000
# 5 0.0000 0.0000 0.0000 0.0000 38.9175 0.0000
# 6 0.0000 0.0000 0.0000 0.0000 0.0000 30.2522
#
#
#
# Elastic Compliance Matrix: (Units=1/GPa)
#
#
# Indices 1 2 3 4 5 6 
#
# 1 0.008911 -0.000956 -0.010022 0.000000 0.000000 0.000000
# 2 -0.000956 0.013127 0.004399 0.000000 0.000000 0.000000
# 3 -0.010022 0.004399 0.047115 0.000000 0.000000 0.000000
# 4 0.000000 0.000000 0.000000 0.168748 0.000000 0.000000
# 5 0.000000 0.000000 0.000000 0.000000 0.025695 0.000000
# 6 0.000000 0.000000 0.000000 0.000000 0.000000 0.033055
#
#
# Mechanical properties :
#
#
# Convention : Reuss Voigt Hill
#
# Bulk Modulus (GPa) = 17.85873 33.70058 25.77966
# Shear Modulus (GPa) = 15.22187 30.38042 22.80115
#
# Velocity S-wave (km/s) = 2.49027 3.51811 3.04783
# Velocity P-wave (km/s) = 3.94263 5.49842 4.78419
#
# Compressibility (1/GPa) = 0.05599502
#
# Stress axis : x y z
#
# Youngs Moduli (GPa) = 112.21609 76.17932 21.22482
#
# Poissons Ratio (x) = 0.07281 0.21271
# Poissons Ratio (y) = 0.10726 -0.09336
# Poissons Ratio (z) = 1.12460 -0.33508
#
# Static dielectric constant tensor:
#      x y z
#    x 2.083770 0.000000 0.000000 
#    y 0.000000 2.113370 0.000000 
#    z 0.000000 0.000000 1.964240 
# 
# From -- ./inp_files/5615.got.cif
#   From: 2010.05.17/outbox.cif.g08.bks.cpg/sg18_3_cif.got.tgz:5615.got - 2010.06.03 22:40:56.
