data_PCOD9312444
_publ_section_title
;
Structure prediction by ZEFSAII (Michael W. Deem and Ramdas Pophale) SiO2 
 PCOD9312444
Probable space group: P 21 21 2
;
_chemical_formula_sum "Si O2"
_cell_formula_units_Z 32
_cell_length_a 13.771254
_cell_length_b 9.010681
_cell_length_c 10.765209
_cell_angle_alpha 90.000000
_cell_angle_beta 90.000000
_cell_angle_gamma 90.000000
_cell_volume 1335.837310
_symmetry_space_group_name_H-M "P 21 21 2"
_symmetry_group_IT_number 18
_symmetry_cell_setting 'orthorhombic'
loop_
_space_group_symop_operation_xyz
x,y,z
-x,-y,z
1/2+x,1/2-y,-z
1/2-x,1/2+y,-z
loop_
_atom_site_type_symbol
_atom_site_label
_atom_site_fract_x
_atom_site_fract_y
_atom_site_fract_z
Si Si1 0.327297 0.172155 0.570831
Si Si2 0.753730 0.667691 0.887315
Si Si3 0.889541 0.648014 0.321143
Si Si4 0.602816 0.238582 0.403404
Si Si5 0.945869 0.162157 0.249284
Si Si6 0.584663 0.407691 0.186042
Si Si7 0.646449 0.939968 0.290356
Si Si8 0.204334 0.817970 0.828099
O O1 0.217007 0.216557 0.604301
O O2 0.392460 0.310216 0.617183
O O3 0.331026 0.135012 0.424569
O O4 0.366042 0.023237 0.642401
O O5 0.643734 0.700739 0.842323
O O6 0.846464 0.779885 0.872948
O O7 0.777250 0.527133 0.799530
O O8 0.740635 0.650792 0.033928
O O9 0.915118 0.722984 0.452510
O O10 0.795425 0.718151 0.258108
O O11 0.976512 0.704445 0.235025
O O12 0.544495 0.348163 0.316608
O O13 0.586064 0.080369 0.338391
O O14 0.000000 0.000000 0.238542
O O15 0.500000 0.500000 0.114937
O O16 0.662053 0.530998 0.220534
O O17 0.623279 0.807885 0.194601
#
# Coordination Sequence:
#
# PCOD9312444 Si02
#       8
#     4   4   4   4   4   4   4   4
#     4  11  21  43  70  97 149 186 227 313 381 448
#     4  11  25  49  68 104 152 196 251 319 362 446
#     4  11  24  39  70 109 140 195 243 304 383 457
#     4  10  21  43  67 102 154 180 240 316 382 448
#     4  12  26  43  72 105 149 194 254 315 383 455
#     4  11  25  46  71 103 144 196 252 306 378 461
#     4  10  22  40  70  97 141 188 230 301 379 430
#     4  12  23  41  74 104 140 200 254 300 381 441
#
# _framework density 23.955013999999998
#
# number of rings (size 3 to 8) (size 9 to 14) (size 15 to 20)
#    0.000    1.000    5.000    1.875    0.000    4.000 
#    0.000    6.250    0.000    4.500    0.000    0.000 
#    0.000    0.000    0.000    0.000    0.000    0.000 
#
# Total GULP energy -178181.479550 kJ/mol
# GULP energy per Si atom -5568.171236 kJ/mol
# Density = 2.390049 g / cm^3
# Si number density = 23.955014 Si / 1000 Ang^3
#
#
#
# Elastic Constant Matrix: (Units=GPa)
#
#
# Indices 1 2 3 4 5 6 
#
# 1 91.8304 23.0759 8.0956 0.0000 0.0000 0.0000
# 2 23.0759 81.8547 35.5529 0.0000 0.0000 0.0000
# 3 8.0956 35.5529 99.4208 0.0000 0.0000 0.0000
# 4 0.0000 0.0000 0.0000 -9.6696 0.0000 0.0000
# 5 0.0000 0.0000 0.0000 0.0000 5.0179 0.0000
# 6 0.0000 0.0000 0.0000 0.0000 0.0000 45.8806
#
#
#
# Elastic Compliance Matrix: (Units=1/GPa)
#
#
# Indices 1 2 3 4 5 6 
#
# 1 0.011726 -0.003423 0.000269 0.000000 0.000000 0.000000
# 2 -0.003423 0.015462 -0.005251 0.000000 0.000000 0.000000
# 3 0.000269 -0.005251 0.011914 0.000000 0.000000 0.000000
# 4 0.000000 0.000000 0.000000 -0.103417 0.000000 0.000000
# 5 0.000000 0.000000 0.000000 0.000000 0.199285 0.000000
# 6 0.000000 0.000000 0.000000 0.000000 0.000000 0.021796
#
#
# Mechanical properties :
#
#
# Convention : Reuss Voigt Hill
#
# Bulk Modulus (GPa) = 44.85518 45.17274 45.01396
# Shear Modulus (GPa) = 27.62360 22.00456 24.81408
#
# Velocity S-wave (km/s) = 3.39948 3.03409 3.22197
# Velocity P-wave (km/s) = 5.84586 5.58324 5.71606
#
# Compressibility (1/GPa) = 0.02229397
#
# Stress axis : x y z
#
# Youngs Moduli (GPa) = 85.28078 64.67387 83.93517
#
# Poissons Ratio (x) = 0.22135 -0.02259
# Poissons Ratio (y) = 0.29188 0.44071
# Poissons Ratio (z) = -0.02295 0.33958
#
# Static dielectric constant tensor:
#      x y z
#    x 2.000200 0.000000 0.000000 
#    y 0.000000 1.950370 0.000000 
#    z 0.000000 0.000000 1.926170 
# 
# From -- ./inp_files/6113.got.cif
#   From: 2010.05.17/outbox.cif.g08.bks.cpg/sg18_4_cif.got.tgz:6113.got - 2010.06.03 22:40:56.
