data_PCOD9312130
_publ_section_title
;
Structure prediction by ZEFSAII (Michael W. Deem and Ramdas Pophale) SiO2 
 PCOD9312130
Probable space group: P 21 21 2
;
_chemical_formula_sum "Si O2"
_cell_formula_units_Z 24
_cell_length_a 13.728537
_cell_length_b 7.513603
_cell_length_c 9.750994
_cell_angle_alpha 90.000000
_cell_angle_beta 90.000000
_cell_angle_gamma 90.000000
_cell_volume 1005.822606
_symmetry_space_group_name_H-M "P 21 21 2"
_symmetry_group_IT_number 18
_symmetry_cell_setting 'orthorhombic'
loop_
_space_group_symop_operation_xyz
x,y,z
-x,-y,z
1/2+x,1/2-y,-z
1/2-x,1/2+y,-z
loop_
_atom_site_type_symbol
_atom_site_label
_atom_site_fract_x
_atom_site_fract_y
_atom_site_fract_z
Si Si1 0.832436 0.870742 0.358328
Si Si2 0.858196 0.414509 0.066213
Si Si3 0.843056 0.616013 0.610892
Si Si4 0.036115 0.216854 0.125132
Si Si5 0.866177 0.286735 0.757591
Si Si6 0.632615 0.402954 0.152973
O O1 0.862350 0.742891 0.482888
O O2 0.771068 0.048707 0.398966
O O3 0.919615 0.885840 0.253052
O O4 0.748022 0.769243 0.274206
O O5 0.897110 0.426369 0.639023
O O6 0.874996 0.384648 0.903736
O O7 0.909552 0.592423 0.117670
O O8 0.921125 0.255128 0.131627
O O9 0.865046 0.738973 0.741956
O O10 0.069615 0.134639 0.981161
O O11 0.900631 0.085601 0.773091
O O12 0.744506 0.417965 0.099590
#
# Coordination Sequence:
#
# PCOD9312130 Si02
#       6
#     4   4   4   4   4   4
#     4  10  20  39  61  97 124 172 217 262 332 396
#     4  11  21  39  64  98 132 165 216 285 335 383
#     4  10  22  38  65  93 128 172 218 264 329 399
#     4  11  23  38  67  98 131 167 225 279 334 392
#     4  10  22  36  64  94 127 172 214 266 334 388
#     4  12  20  42  66  95 128 174 222 274 331 402
#
# _framework density 23.861069000000001
#
# number of rings (size 3 to 8) (size 9 to 14) (size 15 to 20)
#    1.000    0.333    5.000    1.000    2.333    0.667 
#    0.000    0.000   11.000    0.000    4.333    0.000 
#    0.000    0.000    0.000    0.000    0.000    0.000 
#
# Total GULP energy -133990.119294 kJ/mol
# GULP energy per Si atom -5582.921637 kJ/mol
# Density = 2.380676 g / cm^3
# Si number density = 23.861069 Si / 1000 Ang^3
#
#
#
# Elastic Constant Matrix: (Units=GPa)
#
#
# Indices 1 2 3 4 5 6 
#
# 1 97.5491 36.3812 28.4633 0.0000 0.0000 0.0000
# 2 36.3812 163.9606 54.2787 0.0000 0.0000 0.0000
# 3 28.4633 54.2787 97.5596 0.0000 0.0000 0.0000
# 4 0.0000 0.0000 0.0000 -13.4250 0.0000 0.0000
# 5 0.0000 0.0000 0.0000 0.0000 1.7359 0.0000
# 6 0.0000 0.0000 0.0000 0.0000 0.0000 32.3553
#
#
#
# Elastic Compliance Matrix: (Units=1/GPa)
#
#
# Indices 1 2 3 4 5 6 
#
# 1 0.011616 -0.001784 -0.002396 0.000000 0.000000 0.000000
# 2 -0.001784 0.007750 -0.003791 0.000000 0.000000 0.000000
# 3 -0.002396 -0.003791 0.013059 0.000000 0.000000 0.000000
# 4 0.000000 0.000000 0.000000 -0.074488 0.000000 0.000000
# 5 0.000000 0.000000 0.000000 0.000000 0.576068 0.000000
# 6 0.000000 0.000000 0.000000 0.000000 0.000000 0.030907
#
#
# Mechanical properties :
#
#
# Convention : Reuss Voigt Hill
#
# Bulk Modulus (GPa) = 60.67612 66.36842 63.52227
# Shear Modulus (GPa) = 8.52735 20.12964 14.32849
#
# Velocity S-wave (km/s) = 1.89249 2.90766 2.45316
# Velocity P-wave (km/s) = 5.50086 6.25680 5.89097
#
# Compressibility (1/GPa) = 0.01648095
#
# Stress axis : x y z
#
# Youngs Moduli (GPa) = 86.08924 129.03211 76.57776
#
# Poissons Ratio (x) = 0.23021 0.18351
# Poissons Ratio (y) = 0.15360 0.29033
# Poissons Ratio (z) = 0.20630 0.48920
#
# Static dielectric constant tensor:
#      x y z
#    x 1.933790 0.000000 0.000000 
#    y 0.000000 1.945830 0.000000 
#    z 0.000000 0.000000 1.875290 
# 
# From -- ./inp_files/4457.got.cif
#   From: 2010.05.17/outbox.cif.g08.bks.cpg/sg18_3_cif.got.tgz:4457.got - 2010.06.03 22:40:56.
