data_PCOD9312565
_publ_section_title
;
Structure prediction by ZEFSAII (Michael W. Deem and Ramdas Pophale) SiO2 
 PCOD9312565
Probable space group: P 21 21 2
;
_chemical_formula_sum "Si O2"
_cell_formula_units_Z 26
_cell_length_a 12.802467
_cell_length_b 8.877308
_cell_length_c 11.800024
_cell_angle_alpha 90.000000
_cell_angle_beta 90.000000
_cell_angle_gamma 90.000000
_cell_volume 1341.089752
_symmetry_space_group_name_H-M "P 21 21 2"
_symmetry_group_IT_number 18
_symmetry_cell_setting 'orthorhombic'
loop_
_space_group_symop_operation_xyz
x,y,z
-x,-y,z
1/2+x,1/2-y,-z
1/2-x,1/2+y,-z
loop_
_atom_site_type_symbol
_atom_site_label
_atom_site_fract_x
_atom_site_fract_y
_atom_site_fract_z
Si Si1 0.801314 0.381063 0.135703
Si Si2 0.031283 0.659828 0.323924
Si Si3 0.319816 0.651825 0.719110
Si Si4 0.886012 0.070145 0.458586
Si Si5 0.151448 0.911326 0.724475
Si Si6 0.500000 0.500000 0.106059
Si Si7 0.699030 0.539118 0.945724
O O1 0.905617 0.379431 0.209974
O O2 0.711299 0.444229 0.220837
O O3 0.789007 0.213519 0.086214
O O4 0.794570 0.489055 0.026323
O O5 0.104763 0.764467 0.402683
O O6 0.000000 0.500000 0.378426
O O7 0.927307 0.754064 0.294002
O O8 0.310239 0.539677 0.611807
O O9 0.228759 0.771724 0.732765
O O10 0.316508 0.549483 0.829826
O O11 0.867664 0.067819 0.591911
O O12 0.000000 0.000000 0.439621
O O13 0.048018 0.883303 0.800723
O O14 0.597675 0.493406 0.020641
#
# Coordination Sequence:
#
# PCOD9312565 Si02
#       7
#     4   4   4   4   4   2   4
#     4  11  23  39  65  95 133 168 223 275 332 398
#     4  11  22  41  63  99 126 167 221 278 324 396
#     4  11  23  37  66  95 126 172 224 266 339 397
#     4  10  23  42  65  92 132 172 220 275 337 399
#     4  11  23  42  63  98 128 175 221 274 337 404
#     4  10  22  40  64  84 132 174 210 274 330 390
#     4  11  22  41  63  94 128 173 218 272 333 405
#
# _framework density 19.387219000000002
#
# number of rings (size 3 to 8) (size 9 to 14) (size 15 to 20)
#    0.000    1.231    3.846    2.769    3.231    0.000 
#    0.000    1.538    0.000    0.000    0.000    0.000 
#    0.000    0.000    0.000    0.000    0.000    0.000 
#
# Total GULP energy -144867.160049 kJ/mol
# GULP energy per Si atom -5571.813848 kJ/mol
# Density = 1.934309 g / cm^3
# Si number density = 19.387219 Si / 1000 Ang^3
#
#
#
# Elastic Constant Matrix: (Units=GPa)
#
#
# Indices 1 2 3 4 5 6 
#
# 1 27.9216 45.7685 12.3601 0.0000 0.0000 0.0000
# 2 45.7685 122.6056 51.1360 0.0000 0.0000 0.0000
# 3 12.3601 51.1360 117.3785 0.0000 0.0000 0.0000
# 4 0.0000 0.0000 0.0000 13.3767 0.0000 0.0000
# 5 0.0000 0.0000 0.0000 0.0000 22.4755 0.0000
# 6 0.0000 0.0000 0.0000 0.0000 0.0000 11.6374
#
#
#
# Elastic Compliance Matrix: (Units=1/GPa)
#
#
# Indices 1 2 3 4 5 6 
#
# 1 0.096479 -0.038835 0.006759 0.000000 0.000000 0.000000
# 2 -0.038835 0.025599 -0.007063 0.000000 0.000000 0.000000
# 3 0.006759 -0.007063 0.010885 0.000000 0.000000 0.000000
# 4 0.000000 0.000000 0.000000 0.074757 0.000000 0.000000
# 5 0.000000 0.000000 0.000000 0.000000 0.044493 0.000000
# 6 0.000000 0.000000 0.000000 0.000000 0.000000 0.085930
#
#
# Mechanical properties :
#
#
# Convention : Reuss Voigt Hill
#
# Bulk Modulus (GPa) = 18.28627 54.04833 36.16730
# Shear Modulus (GPa) = 11.50356 20.07400 15.78878
#
# Velocity S-wave (km/s) = 2.43854 3.22129 2.85685
# Velocity P-wave (km/s) = 4.16908 6.46332 5.43855
#
# Compressibility (1/GPa) = 0.05468585
#
# Stress axis : x y z
#
# Youngs Moduli (GPa) = 10.36491 39.06425 91.87254
#
# Poissons Ratio (x) = 1.51704 -0.62096
# Poissons Ratio (y) = 0.40252 0.64888
# Poissons Ratio (z) = -0.07006 0.27590
#
# Static dielectric constant tensor:
#      x y z
#    x 1.720090 0.000000 0.000000 
#    y 0.000000 1.693330 0.000000 
#    z 0.000000 0.000000 1.695290 
# 
# From -- ./inp_files/6052.got.cif
#   From: 2010.05.17/outbox.cif.g08.bks.cpg/sg18_4_cif.got.tgz:6052.got - 2010.06.03 22:40:56.
