data_PCOD9312729
_publ_section_title
;
Structure prediction by ZEFSAII (Michael W. Deem and Ramdas Pophale) SiO2 
 PCOD9312729
Probable space group: P 21 21 2
;
_chemical_formula_sum "Si O2"
_cell_formula_units_Z 26
_cell_length_a 9.071938
_cell_length_b 10.610422
_cell_length_c 12.660018
_cell_angle_alpha 90.000000
_cell_angle_beta 90.000000
_cell_angle_gamma 90.000000
_cell_volume 1218.616499
_symmetry_space_group_name_H-M "P 21 21 2"
_symmetry_group_IT_number 18
_symmetry_cell_setting 'orthorhombic'
loop_
_space_group_symop_operation_xyz
x,y,z
-x,-y,z
1/2+x,1/2-y,-z
1/2-x,1/2+y,-z
loop_
_atom_site_type_symbol
_atom_site_label
_atom_site_fract_x
_atom_site_fract_y
_atom_site_fract_z
Si Si1 0.468131 0.817946 0.827816
Si Si2 0.468854 0.228703 0.383345
Si Si3 0.000000 0.000000 0.720835
Si Si4 0.759140 0.463624 0.113000
Si Si5 0.385595 0.751042 0.603904
Si Si6 0.197533 0.056711 0.123459
Si Si7 0.500000 0.000000 0.224623
Si Si8 0.000000 0.000000 0.297581
O O1 0.637340 0.841783 0.861892
O O2 0.441046 0.836015 0.702163
O O3 0.386128 0.687100 0.852105
O O4 0.372181 0.921073 0.887829
O O5 0.501031 0.371037 0.345309
O O6 0.551984 0.203124 0.492999
O O7 0.290451 0.228817 0.394948
O O8 0.520933 0.121687 0.300671
O O9 0.142477 0.009409 0.795703
O O10 0.679616 0.462912 0.000233
O O11 0.456780 0.615710 0.630113
O O12 0.368696 0.047460 0.149740
O O13 0.129410 0.966959 0.214243
#
# Coordination Sequence:
#
# PCOD9312729 Si02
#       8
#     4   4   2   4   4   4   2   2
#     4  10  23  47  65 103 146 184 236 298 357 439
#     4  12  28  45  75 105 143 185 245 301 368 433
#     4  12  26  48  72 112 142 180 246 302 354 444
#     4  11  24  43  74 101 144 188 235 298 363 423
#     4  11  25  48  69 102 142 187 236 298 367 428
#     4  11  24  43  71 106 144 191 241 285 364 433
#     4  12  24  46  70 108 146 186 248 298 344 454
#     4  10  22  46  68  98 148 182 236 294 352 438
#
# _framework density 21.335671000000001
#
# number of rings (size 3 to 8) (size 9 to 14) (size 15 to 20)
#    0.000    0.923    4.615    1.846    4.308    9.846 
#    0.000    0.000    0.000    0.000    0.000    0.000 
#    0.000    0.000    0.000    0.000    0.000    0.000 
#
# Total GULP energy -145123.945329 kJ/mol
# GULP energy per Si atom -5581.690205 kJ/mol
# Density = 2.128711 g / cm^3
# Si number density = 21.335671 Si / 1000 Ang^3
#
#
#
# Elastic Constant Matrix: (Units=GPa)
#
#
# Indices 1 2 3 4 5 6 
#
# 1 63.5387 2.1954 -8.8037 0.0000 0.0000 0.0000
# 2 2.1954 88.1029 5.5984 0.0000 0.0000 0.0000
# 3 -8.8037 5.5984 87.4878 0.0000 0.0000 0.0000
# 4 0.0000 0.0000 0.0000 18.9094 0.0000 0.0000
# 5 0.0000 0.0000 0.0000 0.0000 45.1315 0.0000
# 6 0.0000 0.0000 0.0000 0.0000 0.0000 35.4113
#
#
#
# Elastic Compliance Matrix: (Units=1/GPa)
#
#
# Indices 1 2 3 4 5 6 
#
# 1 0.015983 -0.000503 0.001641 0.000000 0.000000 0.000000
# 2 -0.000503 0.011413 -0.000781 0.000000 0.000000 0.000000
# 3 0.001641 -0.000781 0.011645 0.000000 0.000000 0.000000
# 4 0.000000 0.000000 0.000000 0.052884 0.000000 0.000000
# 5 0.000000 0.000000 0.000000 0.000000 0.022157 0.000000
# 6 0.000000 0.000000 0.000000 0.000000 0.000000 0.028240
#
#
# Mechanical properties :
#
#
# Convention : Reuss Voigt Hill
#
# Bulk Modulus (GPa) = 25.15404 26.34551 25.74977
# Shear Modulus (GPa) = 32.28740 35.89972 34.09356
#
# Velocity S-wave (km/s) = 3.89434 4.10642 4.00179
# Velocity P-wave (km/s) = 5.66008 5.90411 5.78338
#
# Compressibility (1/GPa) = 0.03975505
#
# Stress axis : x y z
#
# Youngs Moduli (GPa) = 62.56611 87.62313 85.87221
#
# Poissons Ratio (x) = 0.04403 -0.14087
# Poissons Ratio (y) = 0.03144 0.06705
# Poissons Ratio (z) = -0.10264 0.06842
#
# Static dielectric constant tensor:
#      x y z
#    x 1.853370 0.000000 0.000000 
#    y 0.000000 1.794470 0.000000 
#    z 0.000000 0.000000 1.763260 
# 
# From -- ./inp_files/5591.got.cif
#   From: 2010.05.17/outbox.cif.g08.bks.cpg/sg18_3_cif.got.tgz:5591.got - 2010.06.03 22:40:56.
