data_PCOD9312652
_publ_section_title
;
Structure prediction by ZEFSAII (Michael W. Deem and Ramdas Pophale) SiO2 
 PCOD9312652
Probable space group: P 21 21 2
;
_chemical_formula_sum "Si O2"
_cell_formula_units_Z 20
_cell_length_a 20.340941
_cell_length_b 7.711066
_cell_length_c 4.729566
_cell_angle_alpha 90.000000
_cell_angle_beta 90.000000
_cell_angle_gamma 90.000000
_cell_volume 741.834028
_symmetry_space_group_name_H-M "P 21 21 2"
_symmetry_group_IT_number 18
_symmetry_cell_setting 'orthorhombic'
loop_
_space_group_symop_operation_xyz
x,y,z
-x,-y,z
1/2+x,1/2-y,-z
1/2-x,1/2+y,-z
loop_
_atom_site_type_symbol
_atom_site_label
_atom_site_fract_x
_atom_site_fract_y
_atom_site_fract_z
Si Si1 0.294788 0.220951 0.121878
Si Si2 0.500000 0.000000 0.672436
Si Si3 0.000000 0.000000 0.232282
Si Si4 0.243807 0.392508 0.618058
Si Si5 0.554881 0.194710 0.138916
Si Si6 0.126811 0.007162 0.615315
O O1 0.238665 0.324604 0.302190
O O2 0.305211 0.030998 0.249286
O O3 0.356938 0.346194 0.177342
O O4 0.267196 0.230806 0.808843
O O5 0.479507 0.857959 0.433849
O O6 0.442492 0.963615 0.910934
O O7 0.937487 0.022576 0.431980
O O8 0.988530 0.835231 0.031211
O O9 0.312323 0.500539 0.597315
O O10 0.618148 0.309275 0.226689
#
# Coordination Sequence:
#
# PCOD9312652 Si02
#       6
#     4   2   2   4   4   4
#     4  10  22  42  71  98 130 176 224 281 347 397
#     4  10  24  40  66  92 140 176 224 276 336 386
#     4  12  22  44  74  98 138 194 232 274 334 436
#     4  10  22  42  72  98 133 172 227 285 339 402
#     4  11  22  43  67  95 135 189 223 274 330 410
#     4  10  24  41  75  98 137 181 232 274 350 400
#
# _framework density 26.960213
#
# number of rings (size 3 to 8) (size 9 to 14) (size 15 to 20)
#    1.200    0.400    2.000    3.000    0.000    0.000 
#    0.000    2.000    8.800    0.000    0.000    0.000 
#    0.000    0.000    0.000    0.000    0.000    0.000 
#
# Total GULP energy -111519.868570 kJ/mol
# GULP energy per Si atom -5575.993428 kJ/mol
# Density = 2.689885 g / cm^3
# Si number density = 26.960213 Si / 1000 Ang^3
#
#
#
# Elastic Constant Matrix: (Units=GPa)
#
#
# Indices 1 2 3 4 5 6 
#
# 1 40.6931 3.9859 4.6777 0.0000 0.0000 0.0000
# 2 3.9859 80.2742 10.2255 0.0000 0.0000 0.0000
# 3 4.6777 10.2255 152.4393 0.0000 0.0000 0.0000
# 4 0.0000 0.0000 0.0000 59.5879 0.0000 0.0000
# 5 0.0000 0.0000 0.0000 0.0000 19.3247 0.0000
# 6 0.0000 0.0000 0.0000 0.0000 0.0000 39.1876
#
#
#
# Elastic Compliance Matrix: (Units=1/GPa)
#
#
# Indices 1 2 3 4 5 6 
#
# 1 0.024765 -0.001143 -0.000683 0.000000 0.000000 0.000000
# 2 -0.001143 0.012617 -0.000811 0.000000 0.000000 0.000000
# 3 -0.000683 -0.000811 0.006635 0.000000 0.000000 0.000000
# 4 0.000000 0.000000 0.000000 0.016782 0.000000 0.000000
# 5 0.000000 0.000000 0.000000 0.000000 0.051747 0.000000
# 6 0.000000 0.000000 0.000000 0.000000 0.000000 0.025518
#
#
# Mechanical properties :
#
#
# Convention : Reuss Voigt Hill
#
# Bulk Modulus (GPa) = 25.81109 34.57610 30.19359
# Shear Modulus (GPa) = 31.99925 40.58786 36.29356
#
# Velocity S-wave (km/s) = 3.44889 3.88425 3.67303
# Velocity P-wave (km/s) = 5.04523 5.74189 5.40479
#
# Compressibility (1/GPa) = 0.03874303
#
# Stress axis : x y z
#
# Youngs Moduli (GPa) = 40.38011 79.25570 150.70735
#
# Poissons Ratio (x) = 0.09056 0.10298
# Poissons Ratio (y) = 0.04614 0.12227
# Poissons Ratio (z) = 0.02759 0.06430
#
# Static dielectric constant tensor:
#      x y z
#    x 2.182140 0.000000 0.000000 
#    y 0.000000 2.386560 0.000000 
#    z 0.000000 0.000000 2.028420 
# 
# From -- ./inp_files/2061.got.cif
#   From: 2010.05.17/outbox.cif.g08.bks.cpg/sg18_2_cif.got.tgz:2061.got - 2010.06.03 22:40:56.
