data_PCOD9312748
_publ_section_title
;
Structure prediction by ZEFSAII (Michael W. Deem and Ramdas Pophale) SiO2 
 PCOD9312748
Probable space group: P 21 21 2
;
_chemical_formula_sum "Si O2"
_cell_formula_units_Z 20
_cell_length_a 9.874077
_cell_length_b 7.226897
_cell_length_c 11.214413
_cell_angle_alpha 90.000000
_cell_angle_beta 90.000000
_cell_angle_gamma 90.000000
_cell_volume 800.248596
_symmetry_space_group_name_H-M "P 21 21 2"
_symmetry_group_IT_number 18
_symmetry_cell_setting 'orthorhombic'
loop_
_space_group_symop_operation_xyz
x,y,z
-x,-y,z
1/2+x,1/2-y,-z
1/2-x,1/2+y,-z
loop_
_atom_site_type_symbol
_atom_site_label
_atom_site_fract_x
_atom_site_fract_y
_atom_site_fract_z
Si Si1 0.527584 0.780006 0.108031
Si Si2 0.500000 0.000000 0.735722
Si Si3 0.214884 0.458742 0.434603
Si Si4 0.500000 0.500000 0.317413
Si Si5 0.661990 0.294858 0.897603
Si Si6 0.156584 0.046209 0.343331
O O1 0.509345 0.680172 0.234014
O O2 0.683783 0.746791 0.071590
O O3 0.500000 0.000000 0.110758
O O4 0.424250 0.685306 0.016087
O O5 0.390575 0.083455 0.641064
O O6 0.419046 0.864397 0.824104
O O7 0.364985 0.506429 0.393672
O O8 0.179182 0.256308 0.387588
O O9 0.226671 0.451702 0.577168
O O10 0.673414 0.459160 0.799833
O O11 0.000000 0.000000 0.365730
#
# Coordination Sequence:
#
# PCOD9312748 Si02
#       6
#     4   2   4   2   4   4
#     4  12  29  51  83 121 167 217 280 340 421 501
#     4  10  22  50  70 108 162 200 264 328 402 474
#     4  11  26  48  81 113 161 213 271 345 412 491
#     4  12  26  54  78 118 162 216 280 342 412 488
#     4  11  27  50  78 122 154 217 272 338 409 496
#     4  11  26  49  74 118 159 215 272 334 423 486
#
# _framework density 24.992235000000001
#
# number of rings (size 3 to 8) (size 9 to 14) (size 15 to 20)
#    0.000    0.800    6.000    0.000   12.600    1.600 
#    1.800    0.000    0.000    0.000    0.000    0.000 
#    0.000    0.000    0.000    0.000    0.000    0.000 
#
# Total GULP energy -111877.843395 kJ/mol
# GULP energy per Si atom -5593.892170 kJ/mol
# Density = 2.493535 g / cm^3
# Si number density = 24.992235 Si / 1000 Ang^3
#
#
#
# Elastic Constant Matrix: (Units=GPa)
#
#
# Indices 1 2 3 4 5 6 
#
# 1 187.3057 21.6825 30.4621 0.0000 0.0000 0.0000
# 2 21.6825 71.9705 7.6453 0.0000 0.0000 0.0000
# 3 30.4621 7.6453 87.0285 0.0000 0.0000 0.0000
# 4 0.0000 0.0000 0.0000 29.8188 0.0000 0.0000
# 5 0.0000 0.0000 0.0000 0.0000 -30.8075 0.0000
# 6 0.0000 0.0000 0.0000 0.0000 0.0000 40.8745
#
#
#
# Elastic Compliance Matrix: (Units=1/GPa)
#
#
# Indices 1 2 3 4 5 6 
#
# 1 0.005828 -0.001554 -0.001904 0.000000 0.000000 0.000000
# 2 -0.001554 0.014440 -0.000725 0.000000 0.000000 0.000000
# 3 -0.001904 -0.000725 0.012220 0.000000 0.000000 0.000000
# 4 0.000000 0.000000 0.000000 0.033536 0.000000 0.000000
# 5 0.000000 0.000000 0.000000 0.000000 -0.032460 0.000000
# 6 0.000000 0.000000 0.000000 0.000000 0.000000 0.024465
#
#
# Mechanical properties :
#
#
# Convention : Reuss Voigt Hill
#
# Bulk Modulus (GPa) = 41.45155 51.76495 46.60825
# Shear Modulus (GPa) = 67.17264 27.07815 47.12540
#
# Velocity S-wave (km/s) = 5.18997 3.29517 4.34706
# Velocity P-wave (km/s) = 7.24818 5.93590 6.62461
#
# Compressibility (1/GPa) = 0.02412455
#
# Stress axis : x y z
#
# Youngs Moduli (GPa) = 171.57657 69.25384 81.83009
#
# Poissons Ratio (x) = 0.10760 0.15577
# Poissons Ratio (y) = 0.26657 0.05930
# Poissons Ratio (z) = 0.32661 0.05019
#
# Static dielectric constant tensor:
#      x y z
#    x 2.008300 0.000000 0.000000 
#    y 0.000000 2.118720 0.000000 
#    z 0.000000 0.000000 2.028890 
# 
# From -- ./inp_files/5444.got.cif
#   From: 2010.05.17/outbox.cif.g08.bks.cpg/sg18_3_cif.got.tgz:5444.got - 2010.06.03 22:40:56.
