data_PCOD9312774
_publ_section_title
;
Structure prediction by ZEFSAII (Michael W. Deem and Ramdas Pophale) SiO2 
 PCOD9312774
Probable space group: P 21 21 2
;
_chemical_formula_sum "Si O2"
_cell_formula_units_Z 30
_cell_length_a 20.106021
_cell_length_b 5.739274
_cell_length_c 10.909292
_cell_angle_alpha 90.000000
_cell_angle_beta 90.000000
_cell_angle_gamma 90.000000
_cell_volume 1258.866444
_symmetry_space_group_name_H-M "P 21 21 2"
_symmetry_group_IT_number 18
_symmetry_cell_setting 'orthorhombic'
loop_
_space_group_symop_operation_xyz
x,y,z
-x,-y,z
1/2+x,1/2-y,-z
1/2-x,1/2+y,-z
loop_
_atom_site_type_symbol
_atom_site_label
_atom_site_fract_x
_atom_site_fract_y
_atom_site_fract_z
Si Si1 0.533591 0.747143 0.245653
Si Si2 0.086187 0.806702 0.493118
Si Si3 0.663998 0.907078 0.686291
Si Si4 0.726084 0.539631 0.445655
Si Si5 0.208128 0.942288 0.133566
Si Si6 0.850330 0.387544 0.918314
Si Si7 0.595847 0.182535 0.884891
Si Si8 0.000000 0.000000 0.268880
O O1 0.500000 0.500000 0.205922
O O2 0.538685 0.736113 0.393824
O O3 0.606818 0.754410 0.183353
O O4 0.500000 0.000000 0.220513
O O5 0.125015 0.579725 0.441937
O O6 0.052557 0.900638 0.368737
O O7 0.146883 0.961197 0.545175
O O8 0.732995 0.048196 0.681888
O O9 0.686057 0.654815 0.734265
O O10 0.611887 0.991022 0.784430
O O11 0.750111 0.784386 0.506394
O O12 0.286956 0.976190 0.134443
O O13 0.162654 0.164241 0.109593
O O14 0.184367 0.768168 0.024899
O O15 0.904302 0.553605 0.986023
O O16 0.535928 0.325399 0.825973
#
# Coordination Sequence:
#
# PCOD9312774 Si02
#       8
#     4   4   4   4   4   4   4   2
#     4  12  32  53  77 112 166 226 269 318 392 498
#     4  11  25  47  74 110 155 208 260 317 389 483
#     4  10  24  42  74 114 148 191 255 330 408 467
#     4  10  23  41  70 107 151 193 243 316 387 468
#     4  11  23  46  78 116 142 193 259 341 410 470
#     4  11  27  49  80 112 155 203 270 338 410 486
#     4  11  25  45  77 113 151 201 258 343 404 472
#     4  12  24  46  78 108 164 204 272 324 402 484
#
# _framework density 23.830964000000002
#
# number of rings (size 3 to 8) (size 9 to 14) (size 15 to 20)
#    0.000    1.067    3.333    0.800    7.467    6.400 
#    0.000    0.000    0.000    0.000    0.000    0.000 
#    0.000    0.000    0.000    0.000    0.000    0.000 
#
# Total GULP energy -167242.034995 kJ/mol
# GULP energy per Si atom -5574.734500 kJ/mol
# Density = 2.377672 g / cm^3
# Si number density = 23.830964 Si / 1000 Ang^3
#
#
#
# Elastic Constant Matrix: (Units=GPa)
#
#
# Indices 1 2 3 4 5 6 
#
# 1 130.7402 46.7419 51.7276 0.0000 0.0000 0.0000
# 2 46.7419 97.8894 31.2879 0.0000 0.0000 0.0000
# 3 51.7276 31.2879 78.4751 0.0000 0.0000 0.0000
# 4 0.0000 0.0000 0.0000 19.0142 0.0000 0.0000
# 5 0.0000 0.0000 0.0000 0.0000 29.2588 0.0000
# 6 0.0000 0.0000 0.0000 0.0000 0.0000 39.0927
#
#
#
# Elastic Compliance Matrix: (Units=1/GPa)
#
#
# Indices 1 2 3 4 5 6 
#
# 1 0.011279 -0.003449 -0.006060 0.000000 0.000000 0.000000
# 2 -0.003449 0.012762 -0.002815 0.000000 0.000000 0.000000
# 3 -0.006060 -0.002815 0.017860 0.000000 0.000000 0.000000
# 4 0.000000 0.000000 0.000000 0.052592 0.000000 0.000000
# 5 0.000000 0.000000 0.000000 0.000000 0.034178 0.000000
# 6 0.000000 0.000000 0.000000 0.000000 0.000000 0.025580
#
#
# Mechanical properties :
#
#
# Convention : Reuss Voigt Hill
#
# Bulk Modulus (GPa) = 57.95807 62.95774 60.45790
# Shear Modulus (GPa) = 27.07828 29.29631 28.18729
#
# Velocity S-wave (km/s) = 3.37451 3.51000 3.44292
# Velocity P-wave (km/s) = 6.28939 6.55001 6.42102
#
# Compressibility (1/GPa) = 0.01725385
#
# Stress axis : x y z
#
# Youngs Moduli (GPa) = 88.65699 78.35641 55.99249
#
# Poissons Ratio (x) = 0.27025 0.33930
# Poissons Ratio (y) = 0.30578 0.15761
# Poissons Ratio (z) = 0.53725 0.22056
#
# Static dielectric constant tensor:
#      x y z
#    x 1.988810 0.000000 0.000000 
#    y 0.000000 2.007290 0.000000 
#    z 0.000000 0.000000 1.975190 
# 
# From -- ./inp_files/6287.got.cif
#   From: 2010.05.17/outbox.cif.g08.bks.cpg/sg18_4_cif.got.tgz:6287.got - 2010.06.03 22:40:56.
