data_PCOD9312206
_publ_section_title
;
Structure prediction by ZEFSAII (Michael W. Deem and Ramdas Pophale) SiO2 
 PCOD9312206
Probable space group: P 21 21 2
;
_chemical_formula_sum "Si O2"
_cell_formula_units_Z 32
_cell_length_a 9.206726
_cell_length_b 14.958931
_cell_length_c 10.394309
_cell_angle_alpha 90.000000
_cell_angle_beta 90.000000
_cell_angle_gamma 90.000000
_cell_volume 1431.533121
_symmetry_space_group_name_H-M "P 21 21 2"
_symmetry_group_IT_number 18
_symmetry_cell_setting 'orthorhombic'
loop_
_space_group_symop_operation_xyz
x,y,z
-x,-y,z
1/2+x,1/2-y,-z
1/2-x,1/2+y,-z
loop_
_atom_site_type_symbol
_atom_site_label
_atom_site_fract_x
_atom_site_fract_y
_atom_site_fract_z
Si Si1 0.037481 0.130501 0.362938
Si Si2 0.288848 0.680143 0.120151
Si Si3 0.454112 0.666139 0.360797
Si Si4 0.644080 0.453320 0.898567
Si Si5 0.295261 0.817759 0.665954
Si Si6 0.807804 0.643884 0.606960
Si Si7 0.011074 0.397523 0.133969
Si Si8 0.368415 0.888179 0.128993
O O1 0.064481 0.104981 0.512801
O O2 0.108462 0.073493 0.249054
O O3 0.110496 0.227684 0.345509
O O4 0.861631 0.132988 0.353796
O O5 0.400926 0.635995 0.221567
O O6 0.306460 0.787151 0.114729
O O7 0.129907 0.657306 0.173950
O O8 0.316603 0.632909 0.983477
O O9 0.622417 0.695982 0.348268
O O10 0.352838 0.752179 0.386958
O O11 0.500000 0.500000 0.951919
O O12 0.762684 0.530863 0.904868
O O13 0.332103 0.880078 0.541784
O O14 0.344313 0.860057 0.800166
O O15 0.902900 0.600724 0.720286
O O16 0.000000 0.500000 0.171838
O O17 0.011007 0.391230 0.979605
#
# Coordination Sequence:
#
# PCOD9312206 Si02
#       8
#     4   4   4   4   4   4   4   4
#     4  10  20  41  68 100 134 169 219 281 338 404
#     4  11  26  45  69  94 137 180 224 284 343 401
#     4   9  21  39  69 102 128 175 224 272 333 413
#     4  12  25  41  67 103 130 176 228 282 341 407
#     4  10  21  39  70  96 131 177 221 265 343 407
#     4   9  19  40  66  98 131 168 220 279 334 404
#     4  12  26  46  62  96 136 177 222 283 336 404
#     4  11  24  43  68  93 133 174 228 277 337 403
#
# _framework density 22.353657999999999
#
# number of rings (size 3 to 8) (size 9 to 14) (size 15 to 20)
#    0.000    1.500    2.500    2.250    3.500    4.000 
#    2.250    1.250    0.000    0.000    0.000    0.000 
#    0.000    0.000    0.000    0.000    0.000    0.000 
#
# Total GULP energy -178525.873244 kJ/mol
# GULP energy per Si atom -5578.933539 kJ/mol
# Density = 2.230278 g / cm^3
# Si number density = 22.353658 Si / 1000 Ang^3
#
#
#
# Elastic Constant Matrix: (Units=GPa)
#
#
# Indices 1 2 3 4 5 6 
#
# 1 57.9956 26.3440 37.2243 0.0000 0.0000 0.0000
# 2 26.3440 85.3190 32.3049 0.0000 0.0000 0.0000
# 3 37.2243 32.3049 129.6707 0.0000 0.0000 0.0000
# 4 0.0000 0.0000 0.0000 11.6608 0.0000 0.0000
# 5 0.0000 0.0000 0.0000 0.0000 29.6561 0.0000
# 6 0.0000 0.0000 0.0000 0.0000 0.0000 21.2852
#
#
#
# Elastic Compliance Matrix: (Units=1/GPa)
#
#
# Indices 1 2 3 4 5 6 
#
# 1 0.022968 -0.005074 -0.005329 0.000000 0.000000 0.000000
# 2 -0.005074 0.014062 -0.002047 0.000000 0.000000 0.000000
# 3 -0.005329 -0.002047 0.009752 0.000000 0.000000 0.000000
# 4 0.000000 0.000000 0.000000 0.085758 0.000000 0.000000
# 5 0.000000 0.000000 0.000000 0.000000 0.033720 0.000000
# 6 0.000000 0.000000 0.000000 0.000000 0.000000 0.046981
#
#
# Mechanical properties :
#
#
# Convention : Reuss Voigt Hill
#
# Bulk Modulus (GPa) = 45.69978 51.63684 48.66831
# Shear Modulus (GPa) = 20.37200 24.32789 22.34995
#
# Velocity S-wave (km/s) = 3.02213 3.30255 3.16545
# Velocity P-wave (km/s) = 5.71542 6.13942 5.93121
#
# Compressibility (1/GPa) = 0.02188194
#
# Stress axis : x y z
#
# Youngs Moduli (GPa) = 43.53867 71.11163 102.54692
#
# Poissons Ratio (x) = 0.36082 0.54650
# Poissons Ratio (y) = 0.22091 0.20989
# Poissons Ratio (z) = 0.23203 0.14555
#
# Static dielectric constant tensor:
#      x y z
#    x 1.790720 0.000000 0.000000 
#    y 0.000000 1.815130 0.000000 
#    z 0.000000 0.000000 1.913200 
# 
# From -- ./inp_files/5687.got.cif
#   From: 2010.05.17/outbox.cif.g08.bks.cpg/sg18_3_cif.got.tgz:5687.got - 2010.06.03 22:40:56.
