data_PCOD9312085
_publ_section_title
;
Structure prediction by ZEFSAII (Michael W. Deem and Ramdas Pophale) SiO2 
 PCOD9312085
Probable space group: P 21 21 2
;
_chemical_formula_sum "Si O2"
_cell_formula_units_Z 28
_cell_length_a 9.474075
_cell_length_b 18.300375
_cell_length_c 8.360883
_cell_angle_alpha 90.000000
_cell_angle_beta 90.000000
_cell_angle_gamma 90.000000
_cell_volume 1449.602581
_symmetry_space_group_name_H-M "P 21 21 2"
_symmetry_group_IT_number 18
_symmetry_cell_setting 'orthorhombic'
loop_
_space_group_symop_operation_xyz
x,y,z
-x,-y,z
1/2+x,1/2-y,-z
1/2-x,1/2+y,-z
loop_
_atom_site_type_symbol
_atom_site_label
_atom_site_fract_x
_atom_site_fract_y
_atom_site_fract_z
Si Si1 0.078808 0.197626 0.044689
Si Si2 0.627184 0.451311 0.143683
Si Si3 0.049826 0.123991 0.542296
Si Si4 0.560018 0.226109 0.274791
Si Si5 0.216276 0.644832 0.715727
Si Si6 0.830769 0.503328 0.904306
Si Si7 0.829600 0.137517 0.267645
O O1 0.208600 0.204208 0.167733
O O2 0.941157 0.175985 0.147181
O O3 0.118683 0.127956 0.936318
O O4 0.058899 0.261973 0.917841
O O5 0.500000 0.500000 0.075636
O O6 0.594424 0.436806 0.328861
O O7 0.768367 0.490612 0.082744
O O8 0.922631 0.108510 0.417615
O O9 0.018347 0.198634 0.638686
O O10 0.187553 0.139757 0.438198
O O11 0.442462 0.167229 0.317682
O O12 0.714414 0.197319 0.321174
O O13 0.220005 0.566569 0.802103
O O14 0.758651 0.574338 0.823917
O O15 0.000000 0.500000 0.904184
#
# Coordination Sequence:
#
# PCOD9312085 Si02
#       7
#     4   4   4   4   4   4   4
#     4   9  20  35  60  87 111 158 202 245 286 345
#     4  10  20  38  60  84 117 148 203 242 292 352
#     4  10  24  37  59  87 119 163 191 247 300 360
#     4  11  20  38  58  88 122 154 200 244 298 353
#     4  10  21  37  59  86 122 155 200 246 294 358
#     4  11  22  40  61  89 115 157 200 253 303 344
#     4  11  21  38  62  87 120 156 202 244 300 361
#
# _framework density 19.315639999999998
#
# number of rings (size 3 to 8) (size 9 to 14) (size 15 to 20)
#    0.000    1.714    2.857    1.714    2.000    0.000 
#    0.000    2.143    0.000    0.000    0.000    0.000 
#    0.000    0.000    0.000    0.000    0.000    0.000 
#
# Total GULP energy -156134.612513 kJ/mol
# GULP energy per Si atom -5576.236161 kJ/mol
# Density = 1.927168 g / cm^3
# Si number density = 19.315640 Si / 1000 Ang^3
#
#
#
# Elastic Constant Matrix: (Units=GPa)
#
#
# Indices 1 2 3 4 5 6 
#
# 1 96.6832 1.1872 38.4434 0.0000 0.0000 0.0000
# 2 1.1872 36.1573 12.3268 0.0000 0.0000 0.0000
# 3 38.4434 12.3268 84.1103 0.0000 0.0000 0.0000
# 4 0.0000 0.0000 0.0000 0.0206 0.0000 0.0000
# 5 0.0000 0.0000 0.0000 0.0000 14.8219 0.0000
# 6 0.0000 0.0000 0.0000 0.0000 0.0000 21.6182
#
#
#
# Elastic Compliance Matrix: (Units=1/GPa)
#
#
# Indices 1 2 3 4 5 6 
#
# 1 0.012733 0.001648 -0.006061 0.000000 0.000000 0.000000
# 2 0.001648 0.029325 -0.005051 0.000000 0.000000 0.000000
# 3 -0.006061 -0.005051 0.015400 0.000000 0.000000 0.000000
# 4 0.000000 0.000000 0.000000 48.622918 0.000000 0.000000
# 5 0.000000 0.000000 0.000000 0.000000 0.067468 0.000000
# 6 0.000000 0.000000 0.000000 0.000000 0.000000 0.046257
#
#
# Mechanical properties :
#
#
# Convention : Reuss Voigt Hill
#
# Bulk Modulus (GPa) = 25.95415 35.65174 30.80294
# Shear Modulus (GPa) = 0.10240 18.29169 9.19705
#
# Velocity S-wave (km/s) = 0.23050 3.08066 2.18444
# Velocity P-wave (km/s) = 3.67925 5.58135 4.72696
#
# Compressibility (1/GPa) = 0.03852948
#
# Stress axis : x y z
#
# Youngs Moduli (GPa) = 78.53663 34.10074 64.93598
#
# Poissons Ratio (x) = -0.05621 0.39359
# Poissons Ratio (y) = -0.12945 0.32800
# Poissons Ratio (z) = 0.47603 0.17225
#
# Static dielectric constant tensor:
#      x y z
#    x 1.656790 0.000000 0.000000 
#    y 0.000000 1.874890 0.000000 
#    z 0.000000 0.000000 1.705400 
# 
# From -- ./inp_files/3464.got.cif
#   From: 2010.05.17/outbox.cif.g08.bks.cpg/sg18_2_cif.got.tgz:3464.got - 2010.06.03 22:40:56.
