data_PCOD9312922
_publ_section_title
;
Structure prediction by ZEFSAII (Michael W. Deem and Ramdas Pophale) SiO2 
 PCOD9312922
Probable space group: P 21 21 2
;
_chemical_formula_sum "Si O2"
_cell_formula_units_Z 30
_cell_length_a 7.634766
_cell_length_b 18.478627
_cell_length_c 8.136542
_cell_angle_alpha 90.000000
_cell_angle_beta 90.000000
_cell_angle_gamma 90.000000
_cell_volume 1147.903290
_symmetry_space_group_name_H-M "P 21 21 2"
_symmetry_group_IT_number 18
_symmetry_cell_setting 'orthorhombic'
loop_
_space_group_symop_operation_xyz
x,y,z
-x,-y,z
1/2+x,1/2-y,-z
1/2-x,1/2+y,-z
loop_
_atom_site_type_symbol
_atom_site_label
_atom_site_fract_x
_atom_site_fract_y
_atom_site_fract_z
Si Si1 0.917567 0.749492 0.019153
Si Si2 0.302889 0.490533 0.935140
Si Si3 0.732133 0.120758 0.813777
Si Si4 0.431909 0.806736 0.334648
Si Si5 0.811506 0.361873 0.919195
Si Si6 0.834065 0.956977 0.435814
Si Si7 0.927703 0.166116 0.512856
Si Si8 0.500000 0.000000 0.641369
O O1 0.875177 0.738546 0.826680
O O2 0.094590 0.701453 0.022509
O O3 0.809854 0.703981 0.152859
O O4 0.888267 0.831846 0.074211
O O5 0.500000 0.500000 0.997393
O O6 0.188071 0.558636 0.994846
O O7 0.304665 0.505128 0.741185
O O8 0.246723 0.414119 0.004856
O O9 0.894261 0.128217 0.690221
O O10 0.591123 0.067767 0.732161
O O11 0.576833 0.860003 0.250893
O O12 0.258359 0.839525 0.417570
O O13 0.522086 0.749794 0.458058
O O14 0.914324 0.876608 0.427653
O O15 0.659465 0.966254 0.537945
O O16 0.000000 0.000000 0.509900
#
# Coordination Sequence:
#
# PCOD9312922 Si02
#       8
#     4   4   4   4   4   4   4   2
#     4  10  24  46  74 107 159 204 265 341 396 500
#     4  11  29  45  83 112 161 216 271 346 412 510
#     4  12  26  47  77 119 160 212 282 338 417 493
#     4  10  28  47  76 114 162 212 273 337 430 488
#     4  10  24  46  73 113 152 207 272 340 410 505
#     4  11  28  52  75 114 162 213 273 329 427 498
#     4  12  27  51  79 121 163 215 271 355 413 509
#     4  12  28  46  80 114 166 218 262 360 402 508
#
# _framework density 26.134605000000001
#
# number of rings (size 3 to 8) (size 9 to 14) (size 15 to 20)
#    0.800    0.267    2.667    0.800   13.067    3.733 
#    0.000    0.000    0.000    0.000    0.000    0.000 
#    0.000    0.000    0.000    0.000    0.000    0.000 
#
# Total GULP energy -167554.372855 kJ/mol
# GULP energy per Si atom -5585.145762 kJ/mol
# Density = 2.607512 g / cm^3
# Si number density = 26.134605 Si / 1000 Ang^3
#
#
#
# Elastic Constant Matrix: (Units=GPa)
#
#
# Indices 1 2 3 4 5 6 
#
# 1 110.8555 31.2410 36.9291 0.0000 0.0000 0.0000
# 2 31.2410 75.7341 21.0002 0.0000 0.0000 0.0000
# 3 36.9291 21.0002 83.8649 0.0000 0.0000 0.0000
# 4 0.0000 0.0000 0.0000 33.1379 0.0000 0.0000
# 5 0.0000 0.0000 0.0000 0.0000 43.0594 0.0000
# 6 0.0000 0.0000 0.0000 0.0000 0.0000 45.8085
#
#
#
# Elastic Compliance Matrix: (Units=1/GPa)
#
#
# Indices 1 2 3 4 5 6 
#
# 1 0.011399 -0.003557 -0.004128 0.000000 0.000000 0.000000
# 2 -0.003557 0.015299 -0.002265 0.000000 0.000000 0.000000
# 3 -0.004128 -0.002265 0.014309 0.000000 0.000000 0.000000
# 4 0.000000 0.000000 0.000000 0.030177 0.000000 0.000000
# 5 0.000000 0.000000 0.000000 0.000000 0.023224 0.000000
# 6 0.000000 0.000000 0.000000 0.000000 0.000000 0.021830
#
#
# Mechanical properties :
#
#
# Convention : Reuss Voigt Hill
#
# Bulk Modulus (GPa) = 47.37946 49.86611 48.62279
# Shear Modulus (GPa) = 34.92260 36.48679 35.70470
#
# Velocity S-wave (km/s) = 3.65945 3.74051 3.70020
# Velocity P-wave (km/s) = 6.00199 6.14631 6.07458
#
# Compressibility (1/GPa) = 0.02110619
#
# Stress axis : x y z
#
# Youngs Moduli (GPa) = 87.73044 65.36183 69.88628
#
# Poissons Ratio (x) = 0.23251 0.28852
# Poissons Ratio (y) = 0.31208 0.15827
# Poissons Ratio (z) = 0.36219 0.14802
#
# Static dielectric constant tensor:
#      x y z
#    x 2.607710 0.000000 0.000000 
#    y 0.000000 2.059300 0.000000 
#    z 0.000000 0.000000 2.059600 
# 
# From -- ./inp_files/3498.got.cif
#   From: 2010.05.17/outbox.cif.g08.bks.cpg/sg18_2_cif.got.tgz:3498.got - 2010.06.03 22:40:56.
