data_PCOD9312971
_publ_section_title
;
Structure prediction by ZEFSAII (Michael W. Deem and Ramdas Pophale) SiO2 
 PCOD9312971
Probable space group: P 21 21 2
;
_chemical_formula_sum "Si O2"
_cell_formula_units_Z 20
_cell_length_a 7.701123
_cell_length_b 18.939026
_cell_length_c 5.437344
_cell_angle_alpha 90.000000
_cell_angle_beta 90.000000
_cell_angle_gamma 90.000000
_cell_volume 793.046240
_symmetry_space_group_name_H-M "P 21 21 2"
_symmetry_group_IT_number 18
_symmetry_cell_setting 'orthorhombic'
loop_
_space_group_symop_operation_xyz
x,y,z
-x,-y,z
1/2+x,1/2-y,-z
1/2-x,1/2+y,-z
loop_
_atom_site_type_symbol
_atom_site_label
_atom_site_fract_x
_atom_site_fract_y
_atom_site_fract_z
Si Si1 0.958661 0.260686 0.351008
Si Si2 0.767019 0.671368 0.977773
Si Si3 0.775625 0.546271 0.610991
Si Si4 0.975154 0.875306 0.656205
Si Si5 0.120822 0.595900 0.483634
O O1 0.034211 0.190715 0.471137
O O2 0.912833 0.322195 0.546078
O O3 0.089754 0.297494 0.160403
O O4 0.787808 0.232216 0.213356
O O5 0.589432 0.651673 0.119211
O O6 0.812607 0.599598 0.833801
O O7 0.595362 0.567770 0.486315
O O8 0.803836 0.463840 0.667871
O O9 0.929879 0.567067 0.420294
O O10 0.780340 0.901099 0.709380
#
# Coordination Sequence:
#
# PCOD9312971 Si02
#       5
#     4   4   4   4   4
#     4  11  24  40  75 104 144 183 244 299 368 420
#     4  11  24  44  71 114 140 186 250 305 349 452
#     4  10  25  47  66 102 145 186 242 289 361 444
#     4  11  23  45  71 103 143 184 238 302 365 421
#     4  11  23  46  72  95 145 195 223 301 366 422
#
# _framework density 25.219211000000001
#
# number of rings (size 3 to 8) (size 9 to 14) (size 15 to 20)
#    0.000    1.200    2.000    3.000    8.400    0.000 
#    7.200    4.000    0.000    0.000    0.000    0.000 
#    0.000    0.000    0.000    0.000    0.000    0.000 
#
# Total GULP energy -111692.232400 kJ/mol
# GULP energy per Si atom -5584.611620 kJ/mol
# Density = 2.516181 g / cm^3
# Si number density = 25.219211 Si / 1000 Ang^3
#
#
#
# Elastic Constant Matrix: (Units=GPa)
#
#
# Indices 1 2 3 4 5 6 
#
# 1 151.8370 45.1952 17.5583 0.0000 0.0000 0.0000
# 2 45.1952 178.4587 51.5122 0.0000 0.0000 0.0000
# 3 17.5583 51.5122 60.8890 0.0000 0.0000 0.0000
# 4 0.0000 0.0000 0.0000 12.0055 0.0000 0.0000
# 5 0.0000 0.0000 0.0000 0.0000 28.0670 0.0000
# 6 0.0000 0.0000 0.0000 0.0000 0.0000 43.2670
#
#
#
# Elastic Compliance Matrix: (Units=1/GPa)
#
#
# Indices 1 2 3 4 5 6 
#
# 1 0.007145 -0.001607 -0.000701 0.000000 0.000000 0.000000
# 2 -0.001607 0.007776 -0.006115 0.000000 0.000000 0.000000
# 3 -0.000701 -0.006115 0.021798 0.000000 0.000000 0.000000
# 4 0.000000 0.000000 0.000000 0.083295 0.000000 0.000000
# 5 0.000000 0.000000 0.000000 0.000000 0.035629 0.000000
# 6 0.000000 0.000000 0.000000 0.000000 0.000000 0.023112
#
#
# Mechanical properties :
#
#
# Convention : Reuss Voigt Hill
#
# Bulk Modulus (GPa) = 50.31682 68.85735 59.58708
# Shear Modulus (GPa) = 24.72484 35.12917 29.92701
#
# Velocity S-wave (km/s) = 3.13453 3.73628 3.44855
# Velocity P-wave (km/s) = 5.75286 6.78055 6.28774
#
# Compressibility (1/GPa) = 0.01987407
#
# Stress axis : x y z
#
# Youngs Moduli (GPa) = 139.94862 128.60725 45.87488
#
# Poissons Ratio (x) = 0.20672 0.03214
# Poissons Ratio (y) = 0.22495 0.28051
# Poissons Ratio (z) = 0.09806 0.78639
#
# Static dielectric constant tensor:
#      x y z
#    x 2.026460 0.000000 0.000000 
#    y 0.000000 2.001210 0.000000 
#    z 0.000000 0.000000 1.993890 
# 
# From -- ./inp_files/527.got.cif
#   From: 2010.05.17/outbox.cif.g08.bks.cpg/sg18_1_cif.got.tgz:527.got - 2010.06.03 22:40:56.
