data_PCOD9312424
_publ_section_title
;
Structure prediction by ZEFSAII (Michael W. Deem and Ramdas Pophale) SiO2 
 PCOD9312424
Probable space group: P 21 21 2
;
_chemical_formula_sum "Si O2"
_cell_formula_units_Z 32
_cell_length_a 22.008374
_cell_length_b 10.360772
_cell_length_c 5.536594
_cell_angle_alpha 90.000000
_cell_angle_beta 90.000000
_cell_angle_gamma 90.000000
_cell_volume 1262.474899
_symmetry_space_group_name_H-M "P 21 21 2"
_symmetry_group_IT_number 18
_symmetry_cell_setting 'orthorhombic'
loop_
_space_group_symop_operation_xyz
x,y,z
-x,-y,z
1/2+x,1/2-y,-z
1/2-x,1/2+y,-z
loop_
_atom_site_type_symbol
_atom_site_label
_atom_site_fract_x
_atom_site_fract_y
_atom_site_fract_z
Si Si1 0.552700 0.226230 0.038412
Si Si2 0.674397 0.785597 0.678295
Si Si3 0.923656 0.864273 0.445114
Si Si4 0.292503 0.738379 0.545500
Si Si5 0.888604 0.098438 0.698041
Si Si6 0.342390 0.948203 0.167496
Si Si7 0.273451 0.416919 0.063806
Si Si8 0.922521 0.343469 0.957545
O O1 0.548091 0.323689 0.810805
O O2 0.557386 0.282729 0.313305
O O3 0.613737 0.141657 0.003952
O O4 0.493519 0.136933 0.020408
O O5 0.736607 0.844171 0.569726
O O6 0.644611 0.698421 0.474371
O O7 0.699364 0.681126 0.868609
O O8 0.620614 0.862751 0.809478
O O9 0.850996 0.846732 0.397114
O O10 0.930789 0.009706 0.537456
O O11 0.318711 0.850250 0.369556
O O12 0.262081 0.821069 0.756923
O O13 0.833794 0.018988 0.825282
O O14 0.920365 0.191559 0.888829
O O15 0.387698 0.064521 0.233849
O O16 0.280215 0.001950 0.049108
#
# Coordination Sequence:
#
# PCOD9312424 Si02
#       8
#     4   4   4   4   4   4   4   4
#     4  11  26  48  71 105 133 199 237 297 346 423
#     4   9  21  41  62  97 142 172 233 284 361 421
#     4  11  25  46  75  95 143 181 247 286 347 424
#     4   9  19  41  66 100 133 179 226 289 364 418
#     4  10  24  43  63 101 133 187 232 296 356 428
#     4  10  21  42  68 100 142 180 234 296 359 431
#     4   9  18  40  63  99 135 175 230 285 363 427
#     4  11  25  43  66 101 140 185 241 295 359 426
#
# _framework density 25.34704
#
# number of rings (size 3 to 8) (size 9 to 14) (size 15 to 20)
#    0.000    2.000    1.250    0.375    7.000    1.500 
#   18.000    1.250    0.000    0.000    0.000    0.000 
#    0.000    0.000    0.000    0.000    0.000    0.000 
#
# Total GULP energy -178717.825747 kJ/mol
# GULP energy per Si atom -5584.932055 kJ/mol
# Density = 2.528935 g / cm^3
# Si number density = 25.347040 Si / 1000 Ang^3
#
#
#
# Elastic Constant Matrix: (Units=GPa)
#
#
# Indices 1 2 3 4 5 6 
#
# 1 93.5556 -6.8162 33.3610 0.0000 0.0000 0.0000
# 2 -6.8162 53.9880 9.4619 0.0000 0.0000 0.0000
# 3 33.3610 9.4619 87.4764 0.0000 0.0000 0.0000
# 4 0.0000 0.0000 0.0000 29.9948 0.0000 0.0000
# 5 0.0000 0.0000 0.0000 0.0000 21.5047 0.0000
# 6 0.0000 0.0000 0.0000 0.0000 0.0000 15.9771
#
#
#
# Elastic Compliance Matrix: (Units=1/GPa)
#
#
# Indices 1 2 3 4 5 6 
#
# 1 0.012693 0.002498 -0.005111 0.000000 0.000000 0.000000
# 2 0.002498 0.019372 -0.003048 0.000000 0.000000 0.000000
# 3 -0.005111 -0.003048 0.013711 0.000000 0.000000 0.000000
# 4 0.000000 0.000000 0.000000 0.033339 0.000000 0.000000
# 5 0.000000 0.000000 0.000000 0.000000 0.046501 0.000000
# 6 0.000000 0.000000 0.000000 0.000000 0.000000 0.062589
#
#
# Mechanical properties :
#
#
# Convention : Reuss Voigt Hill
#
# Bulk Modulus (GPa) = 29.02391 34.11482 31.56937
# Shear Modulus (GPa) = 23.69521 26.76288 25.22905
#
# Velocity S-wave (km/s) = 3.06082 3.25292 3.15833
# Velocity P-wave (km/s) = 4.89560 5.25328 5.07759
#
# Compressibility (1/GPa) = 0.03445435
#
# Stress axis : x y z
#
# Youngs Moduli (GPa) = 78.78086 51.62015 72.93616
#
# Poissons Ratio (x) = -0.12897 0.37279
# Poissons Ratio (y) = -0.19682 0.22232
# Poissons Ratio (z) = 0.40266 0.15735
#
# Static dielectric constant tensor:
#      x y z
#    x 2.015550 0.000000 0.000000 
#    y 0.000000 2.048730 0.000000 
#    z 0.000000 0.000000 2.069860 
# 
# From -- ./inp_files/1872.got.cif
#   From: 2010.05.17/outbox.cif.g08.bks.cpg/sg18_1_cif.got.tgz:1872.got - 2010.06.03 22:40:56.
