data_PCOD9312148
_publ_section_title
;
Structure prediction by ZEFSAII (Michael W. Deem and Ramdas Pophale) SiO2 
 PCOD9312148
Probable space group: P 21 21 2
;
_chemical_formula_sum "Si O2"
_cell_formula_units_Z 22
_cell_length_a 4.835845
_cell_length_b 12.115902
_cell_length_c 15.681296
_cell_angle_alpha 90.000000
_cell_angle_beta 90.000000
_cell_angle_gamma 90.000000
_cell_volume 918.776919
_symmetry_space_group_name_H-M "P 21 21 2"
_symmetry_group_IT_number 18
_symmetry_cell_setting 'orthorhombic'
loop_
_space_group_symop_operation_xyz
x,y,z
-x,-y,z
1/2+x,1/2-y,-z
1/2-x,1/2+y,-z
loop_
_atom_site_type_symbol
_atom_site_label
_atom_site_fract_x
_atom_site_fract_y
_atom_site_fract_z
Si Si1 0.265017 0.423294 0.396416
Si Si2 0.754509 0.670999 0.806598
Si Si3 0.000000 0.500000 0.119308
Si Si4 0.995115 0.325061 0.985674
Si Si5 0.500000 0.000000 0.326420
Si Si6 0.500000 0.500000 0.556878
Si Si7 0.755310 0.190313 0.769947
O O1 0.500000 0.500000 0.353328
O O2 0.386833 0.406290 0.491208
O O3 0.209969 0.326296 0.331041
O O4 0.000000 0.500000 0.406904
O O5 0.861463 0.631668 0.899188
O O6 0.850552 0.587375 0.734478
O O7 0.437338 0.706754 0.799015
O O8 0.928481 0.781734 0.788561
O O9 0.826515 0.579211 0.180664
O O10 0.130330 0.585676 0.050760
O O11 0.249479 0.261106 0.030592
O O12 0.253375 0.042106 0.386792
#
# Coordination Sequence:
#
# PCOD9312148 Si02
#       7
#     4   4   2   4   2   2   4
#     4  10  20  39  70  99 141 173 224 296 347 411
#     4  12  26  47  67 107 141 184 248 285 347 431
#     4  12  25  43  76  96 144 192 224 287 373 382
#     4  12  25  45  66 103 144 181 237 288 339 419
#     4  12  25  47  76  92 146 202 224 293 361 418
#     4  10  22  44  74 100 136 194 232 282 366 434
#     4  12  25  42  74 105 137 183 237 298 350 421
#
# _framework density 23.944877000000002
#
# number of rings (size 3 to 8) (size 9 to 14) (size 15 to 20)
#    0.545    0.000    5.455    2.727    0.000    2.182 
#    0.000    7.273    0.000    0.000    0.000    0.000 
#    0.000    0.000    0.000    0.000    0.000    0.000 
#
# Total GULP energy -122937.388844 kJ/mol
# GULP energy per Si atom -5588.063129 kJ/mol
# Density = 2.389038 g / cm^3
# Si number density = 23.944877 Si / 1000 Ang^3
#
#
#
# Elastic Constant Matrix: (Units=GPa)
#
#
# Indices 1 2 3 4 5 6 
#
# 1 97.2659 1.2551 28.2659 0.0000 0.0000 0.0000
# 2 1.2551 49.7833 30.2499 0.0000 0.0000 0.0000
# 3 28.2659 30.2499 174.4369 0.0000 0.0000 0.0000
# 4 0.0000 0.0000 0.0000 29.5457 0.0000 0.0000
# 5 0.0000 0.0000 0.0000 0.0000 46.9540 0.0000
# 6 0.0000 0.0000 0.0000 0.0000 0.0000 18.2328
#
#
#
# Elastic Compliance Matrix: (Units=1/GPa)
#
#
# Indices 1 2 3 4 5 6 
#
# 1 0.010824 0.000886 -0.001908 0.000000 0.000000 0.000000
# 2 0.000886 0.022526 -0.004050 0.000000 0.000000 0.000000
# 3 -0.001908 -0.004050 0.006744 0.000000 0.000000 0.000000
# 4 0.000000 0.000000 0.000000 0.033846 0.000000 0.000000
# 5 0.000000 0.000000 0.000000 0.000000 0.021297 0.000000
# 6 0.000000 0.000000 0.000000 0.000000 0.000000 0.054846
#
#
# Mechanical properties :
#
#
# Convention : Reuss Voigt Hill
#
# Bulk Modulus (GPa) = 33.38758 49.00306 41.19532
# Shear Modulus (GPa) = 29.37557 36.39418 32.88488
#
# Velocity S-wave (km/s) = 3.50637 3.90284 3.70990
# Velocity P-wave (km/s) = 5.51059 6.38897 5.96597
#
# Compressibility (1/GPa) = 0.02995126
#
# Stress axis : x y z
#
# Youngs Moduli (GPa) = 92.38708 44.39404 148.27667
#
# Poissons Ratio (x) = -0.03934 0.28286
# Poissons Ratio (y) = -0.08188 0.60050
# Poissons Ratio (z) = 0.17624 0.17979
#
# Static dielectric constant tensor:
#      x y z
#    x 1.732990 0.000000 0.000000 
#    y 0.000000 1.944110 0.000000 
#    z 0.000000 0.000000 1.957280 
# 
# From -- ./inp_files/6450.got.cif
#   From: 2010.05.17/outbox.cif.g08.bks.cpg/sg18_4_cif.got.tgz:6450.got - 2010.06.03 22:40:56.
