data_PCOD9312196
_publ_section_title
;
Structure prediction by ZEFSAII (Michael W. Deem and Ramdas Pophale) SiO2 
 PCOD9312196
Probable space group: P 21 21 2
;
_chemical_formula_sum "Si O2"
_cell_formula_units_Z 20
_cell_length_a 6.744620
_cell_length_b 17.509659
_cell_length_c 7.484350
_cell_angle_alpha 90.000000
_cell_angle_beta 90.000000
_cell_angle_gamma 90.000000
_cell_volume 883.871770
_symmetry_space_group_name_H-M "P 21 21 2"
_symmetry_group_IT_number 18
_symmetry_cell_setting 'orthorhombic'
loop_
_space_group_symop_operation_xyz
x,y,z
-x,-y,z
1/2+x,1/2-y,-z
1/2-x,1/2+y,-z
loop_
_atom_site_type_symbol
_atom_site_label
_atom_site_fract_x
_atom_site_fract_y
_atom_site_fract_z
Si Si1 0.220714 0.638489 0.416459
Si Si2 0.500000 0.000000 0.103503
Si Si3 0.521978 0.294592 0.097027
Si Si4 0.686361 0.845165 0.198112
Si Si5 0.500000 0.500000 0.419441
Si Si6 0.318709 0.903158 0.796266
O O1 0.331685 0.683691 0.259060
O O2 0.184846 0.684610 0.598559
O O3 0.368540 0.571315 0.489092
O O4 0.016179 0.610986 0.322182
O O5 0.381445 0.066479 0.203477
O O6 0.638389 0.047688 0.971640
O O7 0.477003 0.204846 0.091453
O O8 0.310273 0.330289 0.149034
O O9 0.614509 0.331193 0.917362
O O10 0.668373 0.544392 0.312812
#
# Coordination Sequence:
#
# PCOD9312196 Si02
#       6
#     4   2   4   4   2   4
#     4  11  25  45  73 108 149 200 250 309 379 445
#     4  12  22  44  74 108 142 184 242 308 374 442
#     4  11  27  50  70 107 147 201 249 313 375 454
#     4  12  28  46  76 109 147 198 253 311 381 453
#     4  10  20  40  72 106 142 188 246 296 372 438
#     4  11  21  46  75  99 155 193 240 307 376 435
#
# _framework density 22.627715999999999
#
# number of rings (size 3 to 8) (size 9 to 14) (size 15 to 20)
#    0.000    0.800    4.000    2.400    5.600    1.600 
#    7.200    0.000    0.000    0.000    0.000    0.000 
#    0.000    0.000    0.000    0.000    0.000    0.000 
#
# Total GULP energy -111578.929985 kJ/mol
# GULP energy per Si atom -5578.946499 kJ/mol
# Density = 2.257621 g / cm^3
# Si number density = 22.627716 Si / 1000 Ang^3
#
#
#
# Elastic Constant Matrix: (Units=GPa)
#
#
# Indices 1 2 3 4 5 6 
#
# 1 131.4719 23.5261 39.6176 0.0000 0.0000 0.0000
# 2 23.5261 87.2792 -2.3035 0.0000 0.0000 0.0000
# 3 39.6176 -2.3035 85.4525 0.0000 0.0000 0.0000
# 4 0.0000 0.0000 0.0000 29.4687 0.0000 0.0000
# 5 0.0000 0.0000 0.0000 0.0000 24.0117 0.0000
# 6 0.0000 0.0000 0.0000 0.0000 0.0000 42.6999
#
#
#
# Elastic Compliance Matrix: (Units=1/GPa)
#
#
# Indices 1 2 3 4 5 6 
#
# 1 0.009419 -0.002656 -0.004438 0.000000 0.000000 0.000000
# 2 -0.002656 0.012215 0.001561 0.000000 0.000000 0.000000
# 3 -0.004438 0.001561 0.013802 0.000000 0.000000 0.000000
# 4 0.000000 0.000000 0.000000 0.033934 0.000000 0.000000
# 5 0.000000 0.000000 0.000000 0.000000 0.041646 0.000000
# 6 0.000000 0.000000 0.000000 0.000000 0.000000 0.023419
#
#
# Mechanical properties :
#
#
# Convention : Reuss Voigt Hill
#
# Bulk Modulus (GPa) = 41.03713 47.32047 44.17880
# Shear Modulus (GPa) = 32.54659 35.46029 34.00344
#
# Velocity S-wave (km/s) = 3.79667 3.96298 3.88072
# Velocity P-wave (km/s) = 6.11513 6.47289 6.29655
#
# Compressibility (1/GPa) = 0.02436818
#
# Stress axis : x y z
#
# Youngs Moduli (GPa) = 106.16915 81.86929 72.45210
#
# Poissons Ratio (x) = 0.21745 0.32157
# Poissons Ratio (y) = 0.28199 -0.11307
# Poissons Ratio (z) = 0.47122 -0.12777
#
# Static dielectric constant tensor:
#      x y z
#    x 1.859070 0.000000 0.000000 
#    y 0.000000 1.991190 0.000000 
#    z 0.000000 0.000000 1.802790 
# 
# From -- ./inp_files/2492.got.cif
#   From: 2010.05.17/outbox.cif.g08.bks.cpg/sg18_2_cif.got.tgz:2492.got - 2010.06.03 22:40:56.
