data_PCOD9312715
_publ_section_title
;
Structure prediction by ZEFSAII (Michael W. Deem and Ramdas Pophale) SiO2 
 PCOD9312715
Probable space group: P 21 21 2
;
_chemical_formula_sum "Si O2"
_cell_formula_units_Z 24
_cell_length_a 11.602164
_cell_length_b 7.008400
_cell_length_c 11.889328
_cell_angle_alpha 90.000000
_cell_angle_beta 90.000000
_cell_angle_gamma 90.000000
_cell_volume 966.752245
_symmetry_space_group_name_H-M "P 21 21 2"
_symmetry_group_IT_number 18
_symmetry_cell_setting 'orthorhombic'
loop_
_space_group_symop_operation_xyz
x,y,z
-x,-y,z
1/2+x,1/2-y,-z
1/2-x,1/2+y,-z
loop_
_atom_site_type_symbol
_atom_site_label
_atom_site_fract_x
_atom_site_fract_y
_atom_site_fract_z
Si Si1 0.616545 0.911817 0.533668
Si Si2 0.144331 0.793401 0.822734
Si Si3 0.000000 0.000000 0.631643
Si Si4 0.325240 0.499161 0.812110
Si Si5 0.133477 0.545081 0.208715
Si Si6 0.645707 0.468111 0.567145
Si Si7 0.000000 0.000000 0.000903
O O1 0.639611 0.997959 0.657011
O O2 0.611825 0.688492 0.557342
O O3 0.500000 0.000000 0.490774
O O4 0.719877 0.948290 0.450402
O O5 0.196147 0.581230 0.819023
O O6 0.077528 0.865023 0.710811
O O7 0.259479 0.924364 0.840288
O O8 0.055532 0.838589 0.922294
O O9 0.912033 0.890291 0.547084
O O10 0.337903 0.269840 0.809230
O O11 0.378592 0.583556 0.695715
O O12 0.399541 0.570286 0.916834
O O13 0.000000 0.500000 0.174833
#
# Coordination Sequence:
#
# PCOD9312715 Si02
#       7
#     4   4   2   4   4   4   2
#     4  10  23  39  65 106 148 195 240 293 373 457
#     4  11  25  48  73 102 151 192 253 316 372 453
#     4  11  23  42  70 106 149 199 234 308 386 439
#     4  11  25  47  72 113 140 198 255 304 385 456
#     4  10  22  44  75 109 149 191 242 306 378 458
#     4  11  23  40  72 102 151 192 240 309 371 461
#     4  11  27  48  76 104 143 197 254 320 380 439
#
# _framework density 24.825389999999999
#
# number of rings (size 3 to 8) (size 9 to 14) (size 15 to 20)
#    0.000    1.333    1.667    2.500    4.667    1.333 
#    0.000    3.333    0.000    0.000    0.000    0.000 
#    0.000    0.000    0.000    0.000    0.000    0.000 
#
# Total GULP energy -134257.371849 kJ/mol
# GULP energy per Si atom -5594.057160 kJ/mol
# Density = 2.476889 g / cm^3
# Si number density = 24.825390 Si / 1000 Ang^3
#
#
#
# Elastic Constant Matrix: (Units=GPa)
#
#
# Indices 1 2 3 4 5 6 
#
# 1 118.5846 22.2827 52.9755 0.0000 0.0000 0.0000
# 2 22.2827 125.1438 15.8830 0.0000 0.0000 0.0000
# 3 52.9755 15.8830 143.2223 0.0000 0.0000 0.0000
# 4 0.0000 0.0000 0.0000 12.7827 0.0000 0.0000
# 5 0.0000 0.0000 0.0000 0.0000 46.0954 0.0000
# 6 0.0000 0.0000 0.0000 0.0000 0.0000 55.0340
#
#
#
# Elastic Compliance Matrix: (Units=1/GPa)
#
#
# Indices 1 2 3 4 5 6 
#
# 1 0.010330 -0.001374 -0.003668 0.000000 0.000000 0.000000
# 2 -0.001374 0.008288 -0.000411 0.000000 0.000000 0.000000
# 3 -0.003668 -0.000411 0.008385 0.000000 0.000000 0.000000
# 4 0.000000 0.000000 0.000000 0.078231 0.000000 0.000000
# 5 0.000000 0.000000 0.000000 0.000000 0.021694 0.000000
# 6 0.000000 0.000000 0.000000 0.000000 0.000000 0.018171
#
#
# Mechanical properties :
#
#
# Convention : Reuss Voigt Hill
#
# Bulk Modulus (GPa) = 62.12836 63.24812 62.68824
# Shear Modulus (GPa) = 30.98495 42.50307 36.74401
#
# Velocity S-wave (km/s) = 3.53670 4.14222 3.85138
# Velocity P-wave (km/s) = 6.46205 6.95771 6.71446
#
# Compressibility (1/GPa) = 0.01609571
#
# Stress axis : x y z
#
# Youngs Moduli (GPa) = 96.80792 120.66279 119.26589
#
# Poissons Ratio (x) = 0.16575 0.43752
# Poissons Ratio (y) = 0.13298 0.04901
# Poissons Ratio (z) = 0.35514 0.04959
#
# Static dielectric constant tensor:
#      x y z
#    x 1.961750 0.000000 0.000000 
#    y 0.000000 2.035760 0.000000 
#    z 0.000000 0.000000 1.963310 
# 
# From -- ./inp_files/5859.got.cif
#   From: 2010.05.17/outbox.cif.g08.bks.cpg/sg18_3_cif.got.tgz:5859.got - 2010.06.03 22:40:56.
