data_PCOD9312889
_publ_section_title
;
Structure prediction by ZEFSAII (Michael W. Deem and Ramdas Pophale) SiO2 
 PCOD9312889
Probable space group: P 21 21 2
;
_chemical_formula_sum "Si O2"
_cell_formula_units_Z 32
_cell_length_a 12.206125
_cell_length_b 8.339103
_cell_length_c 13.210066
_cell_angle_alpha 90.000000
_cell_angle_beta 90.000000
_cell_angle_gamma 90.000000
_cell_volume 1344.627963
_symmetry_space_group_name_H-M "P 21 21 2"
_symmetry_group_IT_number 18
_symmetry_cell_setting 'orthorhombic'
loop_
_space_group_symop_operation_xyz
x,y,z
-x,-y,z
1/2+x,1/2-y,-z
1/2-x,1/2+y,-z
loop_
_atom_site_type_symbol
_atom_site_label
_atom_site_fract_x
_atom_site_fract_y
_atom_site_fract_z
Si Si1 0.738740 0.662665 0.521837
Si Si2 0.598408 0.370855 0.571472
Si Si3 0.903738 0.891506 0.978824
Si Si4 0.557744 0.163174 0.197338
Si Si5 0.740484 0.014231 0.838644
Si Si6 0.120668 0.153465 0.203976
Si Si7 0.200802 0.796456 0.263491
Si Si8 0.903887 0.111835 0.674555
O O1 0.709201 0.480486 0.557216
O O2 0.862888 0.723299 0.500266
O O3 0.685522 0.752468 0.618709
O O4 0.673169 0.672678 0.415492
O O5 0.500000 0.500000 0.560298
O O6 0.577677 0.302603 0.684390
O O7 0.905372 0.737397 0.909135
O O8 0.791023 0.983056 0.950025
O O9 0.932697 0.855756 0.093815
O O10 0.000000 0.000000 0.935855
O O11 0.670294 0.158275 0.258768
O O12 0.465723 0.255558 0.260987
O O13 0.500000 0.000000 0.173163
O O14 0.700475 0.195256 0.820813
O O15 0.836202 0.005521 0.754193
O O16 0.670737 0.856652 0.806824
O O17 0.149180 0.964800 0.225865
O O18 0.000000 0.000000 0.633293
#
# Coordination Sequence:
#
# PCOD9312889 Si02
#       8
#     4   4   4   4   4   4   4   4
#     4  11  25  41  70 105 139 189 242 289 366 443
#     4  11  25  47  73 102 148 196 241 303 368 440
#     4  11  23  43  67  97 134 185 238 295 372 427
#     4  11  23  40  64  98 138 175 240 301 353 427
#     4  11  21  43  68  97 140 178 239 297 361 430
#     4  11  25  44  69 101 142 189 236 297 364 443
#     4  10  24  43  65 103 139 181 236 287 359 441
#     4  12  20  42  68 100 136 185 233 307 368 419
#
# _framework density 23.798404000000001
#
# number of rings (size 3 to 8) (size 9 to 14) (size 15 to 20)
#    0.000    1.000    5.000    2.250    7.000    0.000 
#    2.250    0.625    0.000    0.000    0.000    0.000 
#    0.000    0.000    0.000    0.000    0.000    0.000 
#
# Total GULP energy -178177.567249 kJ/mol
# GULP energy per Si atom -5568.048977 kJ/mol
# Density = 2.374424 g / cm^3
# Si number density = 23.798404 Si / 1000 Ang^3
#
#
#
# Elastic Constant Matrix: (Units=GPa)
#
#
# Indices 1 2 3 4 5 6 
#
# 1 43.4959 31.9011 20.6725 0.0000 0.0000 0.0000
# 2 31.9011 70.0970 16.7079 0.0000 0.0000 0.0000
# 3 20.6725 16.7079 120.3729 0.0000 0.0000 0.0000
# 4 0.0000 0.0000 0.0000 24.1463 0.0000 0.0000
# 5 0.0000 0.0000 0.0000 0.0000 16.5004 0.0000
# 6 0.0000 0.0000 0.0000 0.0000 0.0000 39.8493
#
#
#
# Elastic Compliance Matrix: (Units=1/GPa)
#
#
# Indices 1 2 3 4 5 6 
#
# 1 0.036350 -0.015570 -0.004082 0.000000 0.000000 0.000000
# 2 -0.015570 0.021423 -0.000300 0.000000 0.000000 0.000000
# 3 -0.004082 -0.000300 0.009050 0.000000 0.000000 0.000000
# 4 0.000000 0.000000 0.000000 0.041414 0.000000 0.000000
# 5 0.000000 0.000000 0.000000 0.000000 0.060605 0.000000
# 6 0.000000 0.000000 0.000000 0.000000 0.000000 0.025095
#
#
# Mechanical properties :
#
#
# Convention : Reuss Voigt Hill
#
# Bulk Modulus (GPa) = 37.14570 41.39209 39.26890
# Shear Modulus (GPa) = 20.59201 27.07814 23.83507
#
# Velocity S-wave (km/s) = 2.94474 3.37681 3.16815
# Velocity P-wave (km/s) = 5.21578 5.71265 5.46986
#
# Compressibility (1/GPa) = 0.02692102
#
# Stress axis : x y z
#
# Youngs Moduli (GPa) = 27.51034 46.67830 110.49658
#
# Poissons Ratio (x) = 0.72678 0.45099
# Poissons Ratio (y) = 0.42834 0.03311
# Poissons Ratio (z) = 0.11228 0.01399
#
# Static dielectric constant tensor:
#      x y z
#    x 1.987460 0.000000 0.000000 
#    y 0.000000 2.046730 0.000000 
#    z 0.000000 0.000000 1.914540 
# 
# From -- ./inp_files/6137.got.cif
#   From: 2010.05.17/outbox.cif.g08.bks.cpg/sg18_4_cif.got.tgz:6137.got - 2010.06.03 22:40:56.
