data_PCOD9312407
_publ_section_title
;
Structure prediction by ZEFSAII (Michael W. Deem and Ramdas Pophale) SiO2 
 PCOD9312407
Probable space group: P 21 21 2
;
_chemical_formula_sum "Si O2"
_cell_formula_units_Z 22
_cell_length_a 13.015588
_cell_length_b 5.041782
_cell_length_c 14.231139
_cell_angle_alpha 90.000000
_cell_angle_beta 90.000000
_cell_angle_gamma 90.000000
_cell_volume 933.872350
_symmetry_space_group_name_H-M "P 21 21 2"
_symmetry_group_IT_number 18
_symmetry_cell_setting 'orthorhombic'
loop_
_space_group_symop_operation_xyz
x,y,z
-x,-y,z
1/2+x,1/2-y,-z
1/2-x,1/2+y,-z
loop_
_atom_site_type_symbol
_atom_site_label
_atom_site_fract_x
_atom_site_fract_y
_atom_site_fract_z
Si Si1 0.600825 0.676899 0.242413
Si Si2 0.884131 0.102619 0.154879
Si Si3 0.500000 0.000000 0.401081
Si Si4 0.571506 0.757520 0.035083
Si Si5 0.179604 0.403830 0.265730
Si Si6 0.678816 0.235260 0.520630
O O1 0.500000 0.500000 0.240606
O O2 0.581677 0.865620 0.330562
O O3 0.610312 0.814524 0.140209
O O4 0.701705 0.506796 0.261476
O O5 0.883023 0.356863 0.221710
O O6 0.826307 0.858937 0.202169
O O7 0.850660 0.191371 0.049751
O O8 0.000000 0.000000 0.145772
O O9 0.572795 0.191631 0.463098
O O10 0.500000 0.500000 0.046037
O O11 0.500000 0.000000 0.003355
O O12 0.152588 0.325105 0.371039
O O13 0.766005 0.019321 0.490630
#
# Coordination Sequence:
#
# PCOD9312407 Si02
#       6
#     4   4   2   4   4   4
#     4  11  25  45  74 104 143 187 240 302 366 427
#     4  11  25  45  69 101 148 189 238 293 359 430
#     4  12  26  46  76 100 142 192 234 298 372 420
#     4  10  21  41  71 101 139 188 237 291 355 430
#     4  12  26  45  71 107 142 189 241 297 356 437
#     4  12  27  48  71 104 143 185 242 299 357 432
#
# _framework density 23.557825000000001
#
# number of rings (size 3 to 8) (size 9 to 14) (size 15 to 20)
#    0.000    0.727    2.727    4.909    5.091    1.455 
#    0.000    0.000    0.000    0.000    0.000    0.000 
#    0.000    0.000    0.000    0.000    0.000    0.000 
#
# Total GULP energy -123068.546766 kJ/mol
# GULP energy per Si atom -5594.024853 kJ/mol
# Density = 2.350421 g / cm^3
# Si number density = 23.557825 Si / 1000 Ang^3
#
#
#
# Elastic Constant Matrix: (Units=GPa)
#
#
# Indices 1 2 3 4 5 6 
#
# 1 56.0662 5.8617 44.6976 0.0000 0.0000 0.0000
# 2 5.8617 95.9446 17.4899 0.0000 0.0000 0.0000
# 3 44.6976 17.4899 144.5276 0.0000 0.0000 0.0000
# 4 0.0000 0.0000 0.0000 24.2586 0.0000 0.0000
# 5 0.0000 0.0000 0.0000 0.0000 21.2710 0.0000
# 6 0.0000 0.0000 0.0000 0.0000 0.0000 40.6157
#
#
#
# Elastic Compliance Matrix: (Units=1/GPa)
#
#
# Indices 1 2 3 4 5 6 
#
# 1 0.023674 -0.000114 -0.007308 0.000000 0.000000 0.000000
# 2 -0.000114 0.010658 -0.001254 0.000000 0.000000 0.000000
# 3 -0.007308 -0.001254 0.009331 0.000000 0.000000 0.000000
# 4 0.000000 0.000000 0.000000 0.041222 0.000000 0.000000
# 5 0.000000 0.000000 0.000000 0.000000 0.047012 0.000000
# 6 0.000000 0.000000 0.000000 0.000000 0.000000 0.024621
#
#
# Mechanical properties :
#
#
# Convention : Reuss Voigt Hill
#
# Bulk Modulus (GPa) = 38.00788 48.07077 43.03932
# Shear Modulus (GPa) = 27.37595 32.46169 29.91882
#
# Velocity S-wave (km/s) = 3.41262 3.71611 3.56759
# Velocity P-wave (km/s) = 5.63000 6.23397 5.93967
#
# Compressibility (1/GPa) = 0.02631033
#
# Stress axis : x y z
#
# Youngs Moduli (GPa) = 42.24053 93.82326 107.17025
#
# Poissons Ratio (x) = 0.01072 0.78317
# Poissons Ratio (y) = 0.00482 0.13444
# Poissons Ratio (z) = 0.30868 0.11770
#
# Static dielectric constant tensor:
#      x y z
#    x 1.907980 0.000000 0.000000 
#    y 0.000000 1.786590 0.000000 
#    z 0.000000 0.000000 1.952460 
# 
# From -- ./inp_files/6847.got.cif
#   From: 2010.05.17/outbox.cif.g08.bks.cpg/sg18_4_cif.got.tgz:6847.got - 2010.06.03 22:40:56.
