data_PCOD9312481
_publ_section_title
;
Structure prediction by ZEFSAII (Michael W. Deem and Ramdas Pophale) SiO2 
 PCOD9312481
Probable space group: P 21 21 2
;
_chemical_formula_sum "Si O2"
_cell_formula_units_Z 32
_cell_length_a 9.122755
_cell_length_b 16.022919
_cell_length_c 11.074822
_cell_angle_alpha 90.000000
_cell_angle_beta 90.000000
_cell_angle_gamma 90.000000
_cell_volume 1618.841777
_symmetry_space_group_name_H-M "P 21 21 2"
_symmetry_group_IT_number 18
_symmetry_cell_setting 'orthorhombic'
loop_
_space_group_symop_operation_xyz
x,y,z
-x,-y,z
1/2+x,1/2-y,-z
1/2-x,1/2+y,-z
loop_
_atom_site_type_symbol
_atom_site_label
_atom_site_fract_x
_atom_site_fract_y
_atom_site_fract_z
Si Si1 0.266645 0.201529 0.369442
Si Si2 0.102310 0.579620 0.468098
Si Si3 0.839928 0.745792 0.110995
Si Si4 0.654013 0.387375 0.091315
Si Si5 0.928497 0.175389 0.451113
Si Si6 0.376805 0.205535 0.741275
Si Si7 0.151051 0.967200 0.618500
Si Si8 0.689762 0.579323 0.124676
O O1 0.362569 0.120778 0.403682
O O2 0.246663 0.225218 0.231245
O O3 0.358564 0.271133 0.440455
O O4 0.102114 0.189011 0.425834
O O5 0.055530 0.647061 0.366347
O O6 0.254390 0.544928 0.419336
O O7 0.000000 0.500000 0.474890
O O8 0.777638 0.656453 0.066801
O O9 0.004622 0.726360 0.156604
O O10 0.829101 0.822326 0.018696
O O11 0.740438 0.342146 0.200403
O O12 0.712623 0.483554 0.079196
O O13 0.480704 0.397475 0.110974
O O14 0.846930 0.208774 0.331156
O O15 0.888755 0.084267 0.498911
O O16 0.227656 0.921959 0.731577
O O17 0.000000 0.000000 0.672230
#
# Coordination Sequence:
#
# PCOD9312481 Si02
#       8
#     4   4   4   4   4   4   4   4
#     4  10  22  38  57  89 125 158 199 245 309 374
#     4  11  22  36  60  92 122 154 198 257 308 369
#     4  11  23  41  64  87 127 166 204 257 313 363
#     4  11  23  41  64  91 121 162 215 258 302 368
#     4  10  22  35  59  91 123 158 193 248 316 366
#     4  10  22  40  60  92 123 157 206 255 309 367
#     4  12  19  37  62  91 121 155 204 251 306 369
#     4  11  22  39  64  93 114 162 213 260 300 366
#
# _framework density 19.767219000000001
#
# number of rings (size 3 to 8) (size 9 to 14) (size 15 to 20)
#    0.000    1.250    5.000    1.500    5.250    0.000 
#    0.000    6.250    2.750    0.000    0.000    0.000 
#    0.000    0.000    0.000    0.000    0.000    0.000 
#
# Total GULP energy -178329.612284 kJ/mol
# GULP energy per Si atom -5572.800384 kJ/mol
# Density = 1.972223 g / cm^3
# Si number density = 19.767219 Si / 1000 Ang^3
#
#
#
# Elastic Constant Matrix: (Units=GPa)
#
#
# Indices 1 2 3 4 5 6 
#
# 1 24.9094 28.5260 12.2007 0.0000 0.0000 0.0000
# 2 28.5260 124.4650 63.7581 0.0000 0.0000 0.0000
# 3 12.2007 63.7581 50.5730 0.0000 0.0000 0.0000
# 4 0.0000 0.0000 0.0000 47.6464 0.0000 0.0000
# 5 0.0000 0.0000 0.0000 0.0000 21.6510 0.0000
# 6 0.0000 0.0000 0.0000 0.0000 0.0000 25.9198
#
#
#
# Elastic Compliance Matrix: (Units=1/GPa)
#
#
# Indices 1 2 3 4 5 6 
#
# 1 0.055412 -0.016522 0.007461 0.000000 0.000000 0.000000
# 2 -0.016522 0.027610 -0.030822 0.000000 0.000000 0.000000
# 3 0.007461 -0.030822 0.056832 0.000000 0.000000 0.000000
# 4 0.000000 0.000000 0.000000 0.020988 0.000000 0.000000
# 5 0.000000 0.000000 0.000000 0.000000 0.046187 0.000000
# 6 0.000000 0.000000 0.000000 0.000000 0.000000 0.038581
#
#
# Mechanical properties :
#
#
# Convention : Reuss Voigt Hill
#
# Bulk Modulus (GPa) = 16.64244 45.43522 31.03883
# Shear Modulus (GPa) = 14.47581 25.40761 19.94171
#
# Velocity S-wave (km/s) = 2.70907 3.58905 3.17965
# Velocity P-wave (km/s) = 4.26883 6.34114 5.40523
#
# Compressibility (1/GPa) = 0.06008733
#
# Stress axis : x y z
#
# Youngs Moduli (GPa) = 18.04675 36.21876 17.59586
#
# Poissons Ratio (x) = 0.59840 -0.13129
# Poissons Ratio (y) = 0.29817 0.54235
# Poissons Ratio (z) = -0.13465 1.11635
#
# Static dielectric constant tensor:
#      x y z
#    x 1.685580 0.000000 0.000000 
#    y 0.000000 1.747600 0.000000 
#    z 0.000000 0.000000 1.695580 
# 
# From -- ./inp_files/5653.got.cif
#   From: 2010.05.17/outbox.cif.g08.bks.cpg/sg18_3_cif.got.tgz:5653.got - 2010.06.03 22:40:56.
