data_PCOD9312014
_publ_section_title
;
Structure prediction by ZEFSAII (Michael W. Deem and Ramdas Pophale) SiO2 
 PCOD9312014
Probable space group: P 21 21 2
;
_chemical_formula_sum "Si O2"
_cell_formula_units_Z 32
_cell_length_a 14.903171
_cell_length_b 5.537666
_cell_length_c 16.836666
_cell_angle_alpha 90.000000
_cell_angle_beta 90.000000
_cell_angle_gamma 90.000000
_cell_volume 1389.509560
_symmetry_space_group_name_H-M "P 21 21 2"
_symmetry_group_IT_number 18
_symmetry_cell_setting 'orthorhombic'
loop_
_space_group_symop_operation_xyz
x,y,z
-x,-y,z
1/2+x,1/2-y,-z
1/2-x,1/2+y,-z
loop_
_atom_site_type_symbol
_atom_site_label
_atom_site_fract_x
_atom_site_fract_y
_atom_site_fract_z
Si Si1 0.270340 0.074031 0.468300
Si Si2 0.450691 0.246542 0.426233
Si Si3 0.251719 0.679032 0.822221
Si Si4 0.167682 0.153884 0.003797
Si Si5 0.259125 0.809511 0.306632
Si Si6 0.397429 0.030435 0.766260
Si Si7 0.861593 0.343167 0.054314
Si Si8 0.598201 0.566941 0.264337
O O1 0.290883 0.804384 0.505003
O O2 0.252390 0.000234 0.377292
O O3 0.360840 0.231923 0.476210
O O4 0.500000 0.500000 0.438315
O O5 0.424200 0.239162 0.332617
O O6 0.500000 0.000000 0.444346
O O7 0.278227 0.651668 0.912362
O O8 0.227453 0.436066 0.777733
O O9 0.341621 0.785329 0.781428
O O10 0.167530 0.848570 0.802171
O O11 0.114753 0.406363 0.009066
O O12 0.114467 0.902779 0.008258
O O13 0.251473 0.151900 0.943642
O O14 0.165387 0.669437 0.296161
O O15 0.345048 0.634196 0.313900
O O16 0.500000 0.000000 0.742021
O O17 0.396499 0.151705 0.855158
O O18 0.500000 0.500000 0.232531
#
# Coordination Sequence:
#
# PCOD9312014 Si02
#       8
#     4   4   4   4   4   4   4   4
#     4  12  25  42  68  94 130 172 210 271 340 403
#     4  11  22  40  67  96 125 161 213 263 318 400
#     4  10  20  35  63  89 123 173 214 267 322 396
#     4   9  17  32  57  87 120 159 208 262 321 374
#     4  11  22  41  64  93 125 167 227 268 329 398
#     4  10  22  39  63  91 130 178 237 274 318 378
#     4   9  17  33  57  87 117 161 214 263 316 371
#     4  10  21  35  62  94 126 160 204 268 325 393
#
# _framework density 23.029710000000001
#
# number of rings (size 3 to 8) (size 9 to 14) (size 15 to 20)
#    0.000    1.750    2.500    3.000    1.750    0.500 
#    0.000    0.625    8.250    0.000    0.000    0.000 
#    0.000    0.000    0.000    0.000    0.000    0.000 
#
# Total GULP energy -178355.608454 kJ/mol
# GULP energy per Si atom -5573.612764 kJ/mol
# Density = 2.297729 g / cm^3
# Si number density = 23.029710 Si / 1000 Ang^3
#
#
#
# Elastic Constant Matrix: (Units=GPa)
#
#
# Indices 1 2 3 4 5 6 
#
# 1 114.3496 24.9877 3.9854 0.0000 0.0000 0.0000
# 2 24.9877 140.5340 13.5039 0.0000 0.0000 0.0000
# 3 3.9854 13.5039 34.6652 0.0000 0.0000 0.0000
# 4 0.0000 0.0000 0.0000 33.8408 0.0000 0.0000
# 5 0.0000 0.0000 0.0000 0.0000 7.3409 0.0000
# 6 0.0000 0.0000 0.0000 0.0000 0.0000 20.7697
#
#
#
# Elastic Compliance Matrix: (Units=1/GPa)
#
#
# Indices 1 2 3 4 5 6 
#
# 1 0.009105 -0.001577 -0.000432 0.000000 0.000000 0.000000
# 2 -0.001577 0.007666 -0.002805 0.000000 0.000000 0.000000
# 3 -0.000432 -0.002805 0.029990 0.000000 0.000000 0.000000
# 4 0.000000 0.000000 0.000000 0.029550 0.000000 0.000000
# 5 0.000000 0.000000 0.000000 0.000000 0.136223 0.000000
# 6 0.000000 0.000000 0.000000 0.000000 0.000000 0.048147
#
#
# Mechanical properties :
#
#
# Convention : Reuss Voigt Hill
#
# Bulk Modulus (GPa) = 26.93148 41.61141 34.27144
# Shear Modulus (GPa) = 17.68747 28.86175 23.27461
#
# Velocity S-wave (km/s) = 2.77434 3.54395 3.18250
# Velocity P-wave (km/s) = 4.68852 5.90372 5.33086
#
# Compressibility (1/GPa) = 0.03713127
#
# Stress axis : x y z
#
# Youngs Moduli (GPa) = 109.83141 130.45128 33.34478
#
# Poissons Ratio (x) = 0.20577 0.01441
# Poissons Ratio (y) = 0.17324 0.09353
# Poissons Ratio (z) = 0.04748 0.36590
#
# Static dielectric constant tensor:
#      x y z
#    x 1.907820 0.000000 0.000000 
#    y 0.000000 2.063890 0.000000 
#    z 0.000000 0.000000 1.921870 
# 
# From -- ./inp_files/7421.got.cif
#   From: 2010.05.17/outbox.cif.g08.bks.cpg/sg18_4_cif.got.tgz:7421.got - 2010.06.03 22:40:56.
