data_PCOD9312056
_publ_section_title
;
Structure prediction by ZEFSAII (Michael W. Deem and Ramdas Pophale) SiO2 
 PCOD9312056
Probable space group: P 21 21 2
;
_chemical_formula_sum "Si O2"
_cell_formula_units_Z 32
_cell_length_a 7.917230
_cell_length_b 12.735410
_cell_length_c 13.201873
_cell_angle_alpha 90.000000
_cell_angle_beta 90.000000
_cell_angle_gamma 90.000000
_cell_volume 1331.133899
_symmetry_space_group_name_H-M "P 21 21 2"
_symmetry_group_IT_number 18
_symmetry_cell_setting 'orthorhombic'
loop_
_space_group_symop_operation_xyz
x,y,z
-x,-y,z
1/2+x,1/2-y,-z
1/2-x,1/2+y,-z
loop_
_atom_site_type_symbol
_atom_site_label
_atom_site_fract_x
_atom_site_fract_y
_atom_site_fract_z
Si Si1 0.022784 0.244164 0.450287
Si Si2 0.839252 0.943760 0.310119
Si Si3 0.681906 0.361748 0.379894
Si Si4 0.839252 0.443760 0.189881
Si Si5 0.686208 0.547952 0.005063
Si Si6 0.681906 0.861748 0.120106
Si Si7 0.313792 0.952048 0.494937
Si Si8 0.477216 0.244164 0.950287
O O1 0.090230 0.151295 0.379026
O O2 0.028809 0.198126 0.565369
O O3 0.154489 0.339699 0.457088
O O4 0.849230 0.293287 0.409257
O O5 0.701272 0.891876 0.236838
O O6 0.763992 0.033262 0.383478
O O7 0.000000 0.000000 0.255458
O O8 0.701272 0.391876 0.263162
O O9 0.703117 0.473221 0.435053
O O10 0.763992 0.533262 0.116522
O O11 0.909770 0.348705 0.120974
O O12 0.000000 0.500000 0.244542
O O13 0.500000 0.500000 0.013017
O O14 0.796882 0.473221 0.935053
O O15 0.654489 0.660300 0.957088
O O16 0.849230 0.793287 0.090743
O O17 0.528810 0.801873 0.065369
O O18 0.500000 0.000000 0.486983
#
# Coordination Sequence:
#
# PCOD9312056 Si02
#       8
#     4   4   4   4   4   4   4   4
#     4  10  20  37  59  84 118 156 193 239 293 345
#     4  11  21  36  60  88 114 151 200 241 285 347
#     4  10  21  37  57  84 115 151 194 241 291 346
#     4  11  21  36  60  88 114 151 200 241 285 347
#     4   9  20  38  54  78 118 152 188 241 294 344
#     4  10  21  37  57  84 115 151 194 241 291 346
#     4   9  20  38  54  78 118 152 188 241 294 344
#     4  10  20  37  59  84 118 156 193 239 293 345
#
# _framework density 24.039653999999999
#
# number of rings (size 3 to 8) (size 9 to 14) (size 15 to 20)
#    0.000    2.000    0.000    4.500    0.000    2.000 
#    0.000   21.250    0.000    0.000    0.000    0.000 
#    0.000    0.000    0.000    0.000    0.000    0.000 
#
# Total GULP energy -178746.968837 kJ/mol
# GULP energy per Si atom -5585.842776 kJ/mol
# Density = 2.398494 g / cm^3
# Si number density = 24.039654 Si / 1000 Ang^3
#
#
#
# Elastic Constant Matrix: (Units=GPa)
#
#
# Indices 1 2 3 4 5 6 
#
# 1 68.3353 17.2139 7.7645 0.0000 0.0000 0.0000
# 2 17.2139 93.2502 5.0672 0.0000 0.0000 0.0000
# 3 7.7645 5.0672 87.5747 0.0000 0.0000 0.0000
# 4 0.0000 0.0000 0.0000 -1.5451 0.0000 0.0000
# 5 0.0000 0.0000 0.0000 0.0000 24.2954 0.0000
# 6 0.0000 0.0000 0.0000 0.0000 0.0000 37.6620
#
#
#
# Elastic Compliance Matrix: (Units=1/GPa)
#
#
# Indices 1 2 3 4 5 6 
#
# 1 0.015474 -0.002791 -0.001210 0.000000 0.000000 0.000000
# 2 -0.002791 0.011261 -0.000404 0.000000 0.000000 0.000000
# 3 -0.001210 -0.000404 0.011550 0.000000 0.000000 0.000000
# 4 0.000000 0.000000 0.000000 -0.647220 0.000000 0.000000
# 5 0.000000 0.000000 0.000000 0.000000 0.041160 0.000000
# 6 0.000000 0.000000 0.000000 0.000000 0.000000 0.026552
#
#
# Mechanical properties :
#
#
# Convention : Reuss Voigt Hill
#
# Bulk Modulus (GPa) = 33.92823 34.36126 34.14475
# Shear Modulus (GPa) = -9.56777 26.69012 8.56118
#
# Velocity S-wave (km/s) = -1.99716 3.33566 1.88918
# Velocity P-wave (km/s) = 2.97084 5.40001 4.35810
#
# Compressibility (1/GPa) = 0.02947398
#
# Stress axis : x y z
#
# Youngs Moduli (GPa) = 64.62344 88.80228 86.58363
#
# Poissons Ratio (x) = 0.24783 0.10481
# Poissons Ratio (y) = 0.18035 0.03499
# Poissons Ratio (z) = 0.07823 0.03589
#
# Static dielectric constant tensor:
#      x y z
#    x 1.944990 0.000000 0.000000 
#    y 0.000000 1.924100 0.000000 
#    z 0.000000 0.000000 1.930140 
# 
# From -- ./inp_files/6795.got.cif
#   From: 2010.05.17/outbox.cif.g08.bks.cpg/sg18_4_cif.got.tgz:6795.got - 2010.06.03 22:40:56.
