data_PCOD9312431
_publ_section_title
;
Structure prediction by ZEFSAII (Michael W. Deem and Ramdas Pophale) SiO2 
 PCOD9312431
Probable space group: P 21 21 2
;
_chemical_formula_sum "Si O2"
_cell_formula_units_Z 28
_cell_length_a 17.075993
_cell_length_b 9.216895
_cell_length_c 8.256215
_cell_angle_alpha 90.000000
_cell_angle_beta 90.000000
_cell_angle_gamma 90.000000
_cell_volume 1299.426149
_symmetry_space_group_name_H-M "P 21 21 2"
_symmetry_group_IT_number 18
_symmetry_cell_setting 'orthorhombic'
loop_
_space_group_symop_operation_xyz
x,y,z
-x,-y,z
1/2+x,1/2-y,-z
1/2-x,1/2+y,-z
loop_
_atom_site_type_symbol
_atom_site_label
_atom_site_fract_x
_atom_site_fract_y
_atom_site_fract_z
Si Si1 0.097617 0.161703 0.022035
Si Si2 0.644817 0.579026 0.739844
Si Si3 0.755701 0.334949 0.179757
Si Si4 0.086486 0.771235 0.567101
Si Si5 0.366336 0.904541 0.752131
Si Si6 0.500000 0.500000 0.229400
Si Si7 0.261991 0.668392 0.564422
Si Si8 0.500000 0.000000 0.510379
O O1 0.183449 0.159752 0.940684
O O2 0.037574 0.122018 0.883432
O O3 0.087546 0.312758 0.113584
O O4 0.096880 0.033719 0.154218
O O5 0.693390 0.690704 0.848776
O O6 0.592563 0.674253 0.618633
O O7 0.705881 0.484233 0.632262
O O8 0.811177 0.474680 0.169040
O O9 0.730071 0.328241 0.369665
O O10 0.064344 0.915310 0.665461
O O11 0.171428 0.702837 0.605148
O O12 0.021316 0.646341 0.585457
O O13 0.313175 0.790993 0.652236
O O14 0.425410 0.974081 0.624626
#
# Coordination Sequence:
#
# PCOD9312431 Si02
#       8
#     4   4   4   4   4   2   4   2
#     4  11  26  40  64  96 136 179 216 274 347 419
#     4  10  22  41  69  92 127 177 226 275 332 407
#     4  11  20  41  66  98 127 170 229 283 327 404
#     4  11  26  43  72  98 134 180 236 292 334 412
#     4  11  24  43  68  95 139 178 226 281 349 418
#     4  12  28  44  64 100 140 178 228 286 348 410
#     4  10  21  42  71  99 124 176 238 287 326 401
#     4  12  26  44  68 104 136 180 230 290 360 402
#
# _framework density 21.547972999999999
#
# number of rings (size 3 to 8) (size 9 to 14) (size 15 to 20)
#    0.000    1.143    2.857    4.286    8.000    1.143 
#    0.000    3.571    0.000    0.000    0.000    0.000 
#    0.000    0.000    0.000    0.000    0.000    0.000 
#
# Total GULP energy -156662.902691 kJ/mol
# GULP energy per Si atom -5595.103668 kJ/mol
# Density = 2.149893 g / cm^3
# Si number density = 21.547973 Si / 1000 Ang^3
#
#
#
# Elastic Constant Matrix: (Units=GPa)
#
#
# Indices 1 2 3 4 5 6 
#
# 1 30.6079 1.0706 10.6046 0.0000 0.0000 0.0000
# 2 1.0706 95.2948 10.2882 0.0000 0.0000 0.0000
# 3 10.6046 10.2882 37.5315 0.0000 0.0000 0.0000
# 4 0.0000 0.0000 0.0000 0.7516 0.0000 0.0000
# 5 0.0000 0.0000 0.0000 0.0000 21.9808 0.0000
# 6 0.0000 0.0000 0.0000 0.0000 0.0000 26.4894
#
#
#
# Elastic Compliance Matrix: (Units=1/GPa)
#
#
# Indices 1 2 3 4 5 6 
#
# 1 0.036265 0.000720 -0.010444 0.000000 0.000000 0.000000
# 2 0.000720 0.010828 -0.003172 0.000000 0.000000 0.000000
# 3 -0.010444 -0.003172 0.030465 0.000000 0.000000 0.000000
# 4 0.000000 0.000000 0.000000 1.330539 0.000000 0.000000
# 5 0.000000 0.000000 0.000000 0.000000 0.045494 0.000000
# 6 0.000000 0.000000 0.000000 0.000000 0.000000 0.037751
#
#
# Mechanical properties :
#
#
# Convention : Reuss Voigt Hill
#
# Bulk Modulus (GPa) = 19.31764 23.04013 21.17888
# Shear Modulus (GPa) = 3.25863 19.27574 11.26718
#
# Velocity S-wave (km/s) = 1.23108 2.99415 2.28916
# Velocity P-wave (km/s) = 3.31740 4.76119 4.10329
#
# Compressibility (1/GPa) = 0.05176617
#
# Stress axis : x y z
#
# Youngs Moduli (GPa) = 27.57509 92.35241 32.82491
#
# Poissons Ratio (x) = -0.06651 0.34282
# Poissons Ratio (y) = -0.01986 0.10411
# Poissons Ratio (z) = 0.28800 0.29291
#
# Static dielectric constant tensor:
#      x y z
#    x 1.787240 0.000000 0.000000 
#    y 0.000000 1.774190 0.000000 
#    z 0.000000 0.000000 1.770160 
# 
# From -- ./inp_files/4546.got.cif
#   From: 2010.05.17/outbox.cif.g08.bks.cpg/sg18_3_cif.got.tgz:4546.got - 2010.06.03 22:40:56.
