data_PCOD9312976
_publ_section_title
;
Structure prediction by ZEFSAII (Michael W. Deem and Ramdas Pophale) SiO2 
 PCOD9312976
Probable space group: P 21 21 2
;
_chemical_formula_sum "Si O2"
_cell_formula_units_Z 26
_cell_length_a 11.608070
_cell_length_b 7.874548
_cell_length_c 12.114349
_cell_angle_alpha 90.000000
_cell_angle_beta 90.000000
_cell_angle_gamma 90.000000
_cell_volume 1107.352101
_symmetry_space_group_name_H-M "P 21 21 2"
_symmetry_group_IT_number 18
_symmetry_cell_setting 'orthorhombic'
loop_
_space_group_symop_operation_xyz
x,y,z
-x,-y,z
1/2+x,1/2-y,-z
1/2-x,1/2+y,-z
loop_
_atom_site_type_symbol
_atom_site_label
_atom_site_fract_x
_atom_site_fract_y
_atom_site_fract_z
Si Si1 0.324762 0.386904 0.033592
Si Si2 0.267824 0.090615 0.410340
Si Si3 0.500000 0.000000 0.746676
Si Si4 0.179650 0.250334 0.209401
Si Si5 0.159270 0.254615 0.854372
Si Si6 0.500000 0.000000 0.274381
Si Si7 0.500000 0.500000 0.886667
Si Si8 0.325066 0.237233 0.642674
O O1 0.289750 0.261140 0.130925
O O2 0.348606 0.571188 0.087087
O O3 0.220517 0.372777 0.945993
O O4 0.437968 0.356409 0.960513
O O5 0.217507 0.242172 0.335727
O O6 0.279367 0.135385 0.537263
O O7 0.391336 0.047586 0.353262
O O8 0.182250 0.932127 0.394284
O O9 0.603808 0.083368 0.813096
O O10 0.446189 0.153959 0.676033
O O11 0.100562 0.089997 0.180489
O O12 0.243860 0.228194 0.749837
O O13 0.047984 0.346956 0.802599
#
# Coordination Sequence:
#
# PCOD9312976 Si02
#       8
#     4   4   2   4   4   2   2   4
#     4  12  26  44  71 105 147 193 246 302 365 435
#     4  11  25  47  74 107 145 189 241 311 370 444
#     4  12  23  43  72 100 144 189 243 292 370 436
#     4  12  26  44  71 104 144 192 242 303 364 447
#     4  11  25  47  73 109 149 197 246 309 365 445
#     4  10  25  47  76 104 152 189 245 300 384 436
#     4  12  26  44  70 104 148 188 248 296 374 440
#     4  11  24  45  75 106 148 188 250 301 371 439
#
# _framework density 23.479433
#
# number of rings (size 3 to 8) (size 9 to 14) (size 15 to 20)
#    0.000    0.615    3.077    5.077    2.154    1.846 
#    0.000    0.000    0.000    0.000    0.000    0.000 
#    0.000    0.000    0.000    0.000    0.000    0.000 
#
# Total GULP energy -145408.423650 kJ/mol
# GULP energy per Si atom -5592.631679 kJ/mol
# Density = 2.342599 g / cm^3
# Si number density = 23.479433 Si / 1000 Ang^3
#
#
#
# Elastic Constant Matrix: (Units=GPa)
#
#
# Indices 1 2 3 4 5 6 
#
# 1 82.0324 34.1910 29.6227 0.0000 0.0000 0.0000
# 2 34.1910 79.7751 34.1875 0.0000 0.0000 0.0000
# 3 29.6227 34.1875 137.5638 0.0000 0.0000 0.0000
# 4 0.0000 0.0000 0.0000 48.9369 0.0000 0.0000
# 5 0.0000 0.0000 0.0000 0.0000 19.6366 0.0000
# 6 0.0000 0.0000 0.0000 0.0000 0.0000 47.4306
#
#
#
# Elastic Compliance Matrix: (Units=1/GPa)
#
#
# Indices 1 2 3 4 5 6 
#
# 1 0.015254 -0.005742 -0.001858 0.000000 0.000000 0.000000
# 2 -0.005742 0.016191 -0.002787 0.000000 0.000000 0.000000
# 3 -0.001858 -0.002787 0.008362 0.000000 0.000000 0.000000
# 4 0.000000 0.000000 0.000000 0.020434 0.000000 0.000000
# 5 0.000000 0.000000 0.000000 0.000000 0.050925 0.000000
# 6 0.000000 0.000000 0.000000 0.000000 0.000000 0.021083
#
#
# Mechanical properties :
#
#
# Convention : Reuss Voigt Hill
#
# Bulk Modulus (GPa) = 52.53960 55.04152 53.79056
# Shear Modulus (GPa) = 31.37383 36.62550 33.99967
#
# Velocity S-wave (km/s) = 3.65941 3.95384 3.80947
# Velocity P-wave (km/s) = 6.34669 6.65861 6.50452
#
# Compressibility (1/GPa) = 0.01903326
#
# Stress axis : x y z
#
# Youngs Moduli (GPa) = 65.55511 61.76434 119.58673
#
# Poissons Ratio (x) = 0.35463 0.22218
# Poissons Ratio (y) = 0.37640 0.33332
# Poissons Ratio (z) = 0.12179 0.17216
#
# Static dielectric constant tensor:
#      x y z
#    x 1.873040 0.000000 0.000000 
#    y 0.000000 1.915910 0.000000 
#    z 0.000000 0.000000 1.858530 
# 
# From -- ./inp_files/5894.got.cif
#   From: 2010.05.17/outbox.cif.g08.bks.cpg/sg18_3_cif.got.tgz:5894.got - 2010.06.03 22:40:56.
