data_PCOD9312246
_publ_section_title
;
Structure prediction by ZEFSAII (Michael W. Deem and Ramdas Pophale) SiO2 
 PCOD9312246
Probable space group: P 21 21 2
;
_chemical_formula_sum "Si O2"
_cell_formula_units_Z 26
_cell_length_a 14.843140
_cell_length_b 13.530724
_cell_length_c 6.222446
_cell_angle_alpha 90.000000
_cell_angle_beta 90.000000
_cell_angle_gamma 90.000000
_cell_volume 1249.706289
_symmetry_space_group_name_H-M "P 21 21 2"
_symmetry_group_IT_number 18
_symmetry_cell_setting 'orthorhombic'
loop_
_space_group_symop_operation_xyz
x,y,z
-x,-y,z
1/2+x,1/2-y,-z
1/2-x,1/2+y,-z
loop_
_atom_site_type_symbol
_atom_site_label
_atom_site_fract_x
_atom_site_fract_y
_atom_site_fract_z
Si Si1 0.874267 0.922838 0.182401
Si Si2 0.000000 0.000000 0.849541
Si Si3 0.119660 0.682379 0.702644
Si Si4 0.534670 0.316839 0.467681
Si Si5 0.776368 0.322508 0.097784
Si Si6 0.776987 0.703493 0.538410
Si Si7 0.779197 0.478424 0.486352
O O1 0.957900 0.867028 0.297280
O O2 0.813202 0.967921 0.374071
O O3 0.808102 0.848426 0.055379
O O4 0.913690 0.997861 0.007068
O O5 0.011333 0.095763 0.699389
O O6 0.202985 0.748242 0.615686
O O7 0.141798 0.572184 0.624584
O O8 0.034224 0.730225 0.590442
O O9 0.132691 0.681648 0.958174
O O10 0.633250 0.268777 0.449392
O O11 0.763421 0.219922 0.223522
O O12 0.776571 0.411838 0.271927
O O13 0.795144 0.593647 0.461904
#
# Coordination Sequence:
#
# PCOD9312246 Si02
#       7
#     4   2   4   4   4   4   4
#     4  11  22  42  65 100 140 178 226 294 346 409
#     4  12  26  36  68 102 140 172 234 290 356 404
#     4  10  25  40  68  99 139 180 231 286 348 421
#     4  12  25  44  66 106 139 181 234 291 348 416
#     4  10  20  45  64 101 135 185 223 278 357 413
#     4  11  23  43  68  96 141 182 228 289 342 418
#     4  10  23  42  66  97 139 181 232 282 342 420
#
# _framework density 20.804888999999999
#
# number of rings (size 3 to 8) (size 9 to 14) (size 15 to 20)
#    0.000    1.231    6.154    0.462    8.615    3.077 
#    0.000    0.000    0.000    7.385    0.000    0.000 
#    0.000    0.000    0.000    0.000    0.000    0.000 
#
# Total GULP energy -145028.617018 kJ/mol
# GULP energy per Si atom -5578.023731 kJ/mol
# Density = 2.075754 g / cm^3
# Si number density = 20.804889 Si / 1000 Ang^3
#
#
#
# Elastic Constant Matrix: (Units=GPa)
#
#
# Indices 1 2 3 4 5 6 
#
# 1 36.8509 -3.7915 3.8536 0.0000 0.0000 0.0000
# 2 -3.7915 70.8607 5.4664 0.0000 0.0000 0.0000
# 3 3.8536 5.4664 85.9194 0.0000 0.0000 0.0000
# 4 0.0000 0.0000 0.0000 18.8966 0.0000 0.0000
# 5 0.0000 0.0000 0.0000 0.0000 17.5128 0.0000
# 6 0.0000 0.0000 0.0000 0.0000 0.0000 30.1095
#
#
#
# Elastic Compliance Matrix: (Units=1/GPa)
#
#
# Indices 1 2 3 4 5 6 
#
# 1 0.027437 0.001571 -0.001331 0.000000 0.000000 0.000000
# 2 0.001571 0.014272 -0.000978 0.000000 0.000000 0.000000
# 3 -0.001331 -0.000978 0.011761 0.000000 0.000000 0.000000
# 4 0.000000 0.000000 0.000000 0.052920 0.000000 0.000000
# 5 0.000000 0.000000 0.000000 0.000000 0.057101 0.000000
# 6 0.000000 0.000000 0.000000 0.000000 0.000000 0.033212
#
#
# Mechanical properties :
#
#
# Convention : Reuss Voigt Hill
#
# Bulk Modulus (GPa) = 19.23335 22.74313 20.98824
# Shear Modulus (GPa) = 23.20080 25.84395 24.52237
#
# Velocity S-wave (km/s) = 3.34303 3.52832 3.43692
# Velocity P-wave (km/s) = 4.91587 5.24920 5.08527
#
# Compressibility (1/GPa) = 0.05199301
#
# Stress axis : x y z
#
# Youngs Moduli (GPa) = 36.44696 70.06869 85.02862
#
# Poissons Ratio (x) = -0.11006 0.11313
# Poissons Ratio (y) = -0.05725 0.08320
# Poissons Ratio (z) = 0.04849 0.06856
#
# Static dielectric constant tensor:
#      x y z
#    x 1.770720 0.000000 0.000000 
#    y 0.000000 1.735240 0.000000 
#    z 0.000000 0.000000 1.822330 
# 
# From -- ./inp_files/1547.got.cif
#   From: 2010.05.17/outbox.cif.g08.bks.cpg/sg18_1_cif.got.tgz:1547.got - 2010.06.03 22:40:56.
