data_PCOD9312661
_publ_section_title
;
Structure prediction by ZEFSAII (Michael W. Deem and Ramdas Pophale) SiO2 
 PCOD9312661
Probable space group: P 21 21 2
;
_chemical_formula_sum "Si O2"
_cell_formula_units_Z 32
_cell_length_a 17.443664
_cell_length_b 8.234072
_cell_length_c 10.771842
_cell_angle_alpha 90.000000
_cell_angle_beta 90.000000
_cell_angle_gamma 90.000000
_cell_volume 1547.185361
_symmetry_space_group_name_H-M "P 21 21 2"
_symmetry_group_IT_number 18
_symmetry_cell_setting 'orthorhombic'
loop_
_space_group_symop_operation_xyz
x,y,z
-x,-y,z
1/2+x,1/2-y,-z
1/2-x,1/2+y,-z
loop_
_atom_site_type_symbol
_atom_site_label
_atom_site_fract_x
_atom_site_fract_y
_atom_site_fract_z
Si Si1 0.079812 0.080175 0.120929
Si Si2 0.335926 0.492002 0.630898
Si Si3 0.533600 0.836263 0.863924
Si Si4 0.671850 0.081175 0.272850
Si Si5 0.413504 0.164188 0.589610
Si Si6 0.410924 0.806662 0.500682
Si Si7 0.149239 0.635666 0.943786
Si Si8 0.697169 0.214022 0.016140
O O1 0.041643 0.240754 0.179524
O O2 0.123700 0.992277 0.232167
O O3 0.136803 0.146403 0.017954
O O4 0.000000 0.000000 0.079864
O O5 0.244972 0.486961 0.652740
O O6 0.362519 0.323891 0.566800
O O7 0.367380 0.653142 0.561961
O O8 0.579318 0.858023 0.737867
O O9 0.500000 0.000000 0.918992
O O10 0.585996 0.772305 0.976051
O O11 0.612696 0.180265 0.356329
O O12 0.706439 0.196136 0.163973
O O13 0.632889 0.934447 0.193329
O O14 0.498235 0.199428 0.531805
O O15 0.386258 0.988054 0.544533
O O16 0.168517 0.467183 0.017653
O O17 0.225613 0.741425 0.945819
#
# Coordination Sequence:
#
# PCOD9312661 Si02
#       8
#     4   4   4   4   4   4   4   4
#     4  12  21  37  67  96 127 163 227 285 331 393
#     4  12  22  44  72  98 135 176 229 287 339 393
#     4  12  19  37  63 102 117 168 225 280 334 395
#     4  10  25  44  64  96 145 177 216 286 341 420
#     4  11  23  41  70  97 133 179 224 287 328 402
#     4  11  24  43  65 100 135 178 234 272 341 400
#     4  10  23  39  65  90 136 171 215 275 345 402
#     4  10  22  43  60  92 130 176 208 275 346 404
#
# _framework density 20.682717
#
# number of rings (size 3 to 8) (size 9 to 14) (size 15 to 20)
#    0.750    0.250    6.250    1.125    3.500    0.000 
#    6.750    2.500    0.000    0.000    0.000    0.000 
#    0.000    0.000    0.000    0.000    0.000    0.000 
#
# Total GULP energy -178178.865288 kJ/mol
# GULP energy per Si atom -5568.089540 kJ/mol
# Density = 2.063564 g / cm^3
# Si number density = 20.682717 Si / 1000 Ang^3
#
#
#
# Elastic Constant Matrix: (Units=GPa)
#
#
# Indices 1 2 3 4 5 6 
#
# 1 57.7981 9.1402 24.5866 0.0000 0.0000 0.0000
# 2 9.1402 78.9175 16.2289 0.0000 0.0000 0.0000
# 3 24.5866 16.2289 69.5715 0.0000 0.0000 0.0000
# 4 0.0000 0.0000 0.0000 13.4524 0.0000 0.0000
# 5 0.0000 0.0000 0.0000 0.0000 28.6234 0.0000
# 6 0.0000 0.0000 0.0000 0.0000 0.0000 33.6149
#
#
#
# Elastic Compliance Matrix: (Units=1/GPa)
#
#
# Indices 1 2 3 4 5 6 
#
# 1 0.020427 -0.000926 -0.007003 0.000000 0.000000 0.000000
# 2 -0.000926 0.013352 -0.002787 0.000000 0.000000 0.000000
# 3 -0.007003 -0.002787 0.017499 0.000000 0.000000 0.000000
# 4 0.000000 0.000000 0.000000 0.074336 0.000000 0.000000
# 5 0.000000 0.000000 0.000000 0.000000 0.034936 0.000000
# 6 0.000000 0.000000 0.000000 0.000000 0.000000 0.029749
#
#
# Mechanical properties :
#
#
# Convention : Reuss Voigt Hill
#
# Bulk Modulus (GPa) = 33.50600 34.02205 33.76403
# Shear Modulus (GPa) = 22.55505 25.56023 24.05764
#
# Velocity S-wave (km/s) = 3.30589 3.51924 3.41424
# Velocity P-wave (km/s) = 5.55041 5.74445 5.64826
#
# Compressibility (1/GPa) = 0.02984540
#
# Stress axis : x y z
#
# Youngs Moduli (GPa) = 48.95488 74.89572 57.14693
#
# Poissons Ratio (x) = 0.06933 0.40020
# Poissons Ratio (y) = 0.04532 0.15929
# Poissons Ratio (z) = 0.34283 0.20877
#
# Static dielectric constant tensor:
#      x y z
#    x 1.864340 0.000000 0.000000 
#    y 0.000000 1.902830 0.000000 
#    z 0.000000 0.000000 1.742920 
# 
# From -- ./inp_files/6232.got.cif
#   From: 2010.05.17/outbox.cif.g08.bks.cpg/sg18_4_cif.got.tgz:6232.got - 2010.06.03 22:40:56.
