data_PCOD9312544
_publ_section_title
;
Structure prediction by ZEFSAII (Michael W. Deem and Ramdas Pophale) SiO2 
 PCOD9312544
Probable space group: P 21 21 2
;
_chemical_formula_sum "Si O2"
_cell_formula_units_Z 24
_cell_length_a 11.742211
_cell_length_b 9.175473
_cell_length_c 11.320848
_cell_angle_alpha 90.000000
_cell_angle_beta 90.000000
_cell_angle_gamma 90.000000
_cell_volume 1219.712013
_symmetry_space_group_name_H-M "P 21 21 2"
_symmetry_group_IT_number 18
_symmetry_cell_setting 'orthorhombic'
loop_
_space_group_symop_operation_xyz
x,y,z
-x,-y,z
1/2+x,1/2-y,-z
1/2-x,1/2+y,-z
loop_
_atom_site_type_symbol
_atom_site_label
_atom_site_fract_x
_atom_site_fract_y
_atom_site_fract_z
Si Si1 0.543122 0.781799 0.908293
Si Si2 0.325356 0.961493 0.816316
Si Si3 0.569226 0.638744 0.141770
Si Si4 0.165549 0.112015 0.444865
Si Si5 0.000000 0.000000 0.636812
Si Si6 0.500000 0.500000 0.759222
Si Si7 0.130702 0.455863 0.460748
O O1 0.427828 0.858200 0.861348
O O2 0.550160 0.628464 0.840119
O O3 0.649349 0.883140 0.874896
O O4 0.543341 0.763967 0.049378
O O5 0.202848 0.896588 0.848521
O O6 0.337871 0.985795 0.676319
O O7 0.500000 0.500000 0.091207
O O8 0.522090 0.636489 0.275744
O O9 0.153561 0.283087 0.471610
O O10 0.293002 0.051821 0.450945
O O11 0.104779 0.027205 0.552009
O O12 0.096478 0.069323 0.326805
O O13 0.000000 0.500000 0.476210
#
# Coordination Sequence:
#
# PCOD9312544 Si02
#       7
#     4   4   4   4   2   2   4
#     4  11  23  41  68  96 123 175 217 271 335 390
#     4  11  23  42  64  94 132 166 220 275 325 392
#     4  10  22  39  65  90 127 167 213 266 330 385
#     4  11  25  39  68  95 134 175 221 273 333 388
#     4   9  21  40  62  92 129 173 206 274 328 385
#     4  11  21  42  66  98 127 171 232 268 328 401
#     4  12  24  43  68  97 135 176 225 273 333 401
#
# _framework density 19.676774999999999
#
# number of rings (size 3 to 8) (size 9 to 14) (size 15 to 20)
#    0.500    0.667    5.833    0.000    9.333    0.000 
#    0.000    0.000    7.333    0.000    0.000    0.000 
#    0.000    0.000    0.000    0.000    0.000    0.000 
#
# Total GULP energy -133867.375659 kJ/mol
# GULP energy per Si atom -5577.807319 kJ/mol
# Density = 1.963199 g / cm^3
# Si number density = 19.676775 Si / 1000 Ang^3
#
#
#
# Elastic Constant Matrix: (Units=GPa)
#
#
# Indices 1 2 3 4 5 6 
#
# 1 93.1017 -2.6834 -5.7302 0.0000 0.0000 0.0000
# 2 -2.6834 70.8790 -2.4938 0.0000 0.0000 0.0000
# 3 -5.7302 -2.4938 70.3866 0.0000 0.0000 0.0000
# 4 0.0000 0.0000 0.0000 17.6540 0.0000 0.0000
# 5 0.0000 0.0000 0.0000 0.0000 7.7278 0.0000
# 6 0.0000 0.0000 0.0000 0.0000 0.0000 25.0136
#
#
#
# Elastic Compliance Matrix: (Units=1/GPa)
#
#
# Indices 1 2 3 4 5 6 
#
# 1 0.010809 0.000441 0.000896 0.000000 0.000000 0.000000
# 2 0.000441 0.014144 0.000537 0.000000 0.000000 0.000000
# 3 0.000896 0.000537 0.014299 0.000000 0.000000 0.000000
# 4 0.000000 0.000000 0.000000 0.056644 0.000000 0.000000
# 5 0.000000 0.000000 0.000000 0.000000 0.129403 0.000000
# 6 0.000000 0.000000 0.000000 0.000000 0.000000 0.039978
#
#
# Mechanical properties :
#
#
# Convention : Reuss Voigt Hill
#
# Bulk Modulus (GPa) = 23.25657 23.61696 23.43677
# Shear Modulus (GPa) = 18.12488 26.43072 22.27780
#
# Velocity S-wave (km/s) = 3.03831 3.66901 3.36845
# Velocity P-wave (km/s) = 4.91461 5.47515 5.20244
#
# Compressibility (1/GPa) = 0.04299861
#
# Stress axis : x y z
#
# Youngs Moduli (GPa) = 92.51749 70.70075 69.93402
#
# Poissons Ratio (x) = -0.03116 -0.06263
# Poissons Ratio (y) = -0.04077 -0.03755
# Poissons Ratio (z) = -0.08285 -0.03797
#
# Static dielectric constant tensor:
#      x y z
#    x 1.643050 0.000000 0.000000 
#    y 0.000000 1.698120 0.000000 
#    z 0.000000 0.000000 1.690430 
# 
# From -- ./inp_files/5551.got.cif
#   From: 2010.05.17/outbox.cif.g08.bks.cpg/sg18_3_cif.got.tgz:5551.got - 2010.06.03 22:40:56.
