data_PCOD9312717
_publ_section_title
;
Structure prediction by ZEFSAII (Michael W. Deem and Ramdas Pophale) SiO2 
 PCOD9312717
Probable space group: P 21 21 2
;
_chemical_formula_sum "Si O2"
_cell_formula_units_Z 22
_cell_length_a 8.773453
_cell_length_b 15.119325
_cell_length_c 7.525019
_cell_angle_alpha 90.000000
_cell_angle_beta 90.000000
_cell_angle_gamma 90.000000
_cell_volume 998.183892
_symmetry_space_group_name_H-M "P 21 21 2"
_symmetry_group_IT_number 18
_symmetry_cell_setting 'orthorhombic'
loop_
_space_group_symop_operation_xyz
x,y,z
-x,-y,z
1/2+x,1/2-y,-z
1/2-x,1/2+y,-z
loop_
_atom_site_type_symbol
_atom_site_label
_atom_site_fract_x
_atom_site_fract_y
_atom_site_fract_z
Si Si1 0.094038 0.416703 0.360532
Si Si2 0.442251 0.409450 0.385950
Si Si3 0.079682 0.185860 0.924678
Si Si4 0.147734 0.666816 0.842259
Si Si5 0.953417 0.785440 0.310326
Si Si6 0.000000 0.500000 0.712877
O O1 0.271193 0.416633 0.314877
O O2 0.085953 0.435518 0.573126
O O3 0.000000 0.500000 0.283225
O O4 0.029827 0.320324 0.315191
O O5 0.500000 0.500000 0.471365
O O6 0.547811 0.388746 0.217508
O O7 0.462719 0.332718 0.529833
O O8 0.003419 0.274088 0.844974
O O9 0.002074 0.174302 0.118651
O O10 0.254997 0.189301 0.981583
O O11 0.269700 0.693578 0.688445
O O12 0.106907 0.564375 0.824170
#
# Coordination Sequence:
#
# PCOD9312717 Si02
#       6
#     4   4   4   4   4   2
#     4  10  24  43  74 108 139 193 252 305 372 447
#     4  12  24  44  73 103 146 188 244 302 368 451
#     4  10  24  45  68 107 146 193 243 295 379 445
#     4  10  22  48  68 107 147 193 243 311 371 445
#     4  10  24  45  73  99 148 190 245 299 383 430
#     4  10  22  44  76 112 144 186 262 304 384 446
#
# _framework density 22.040026000000001
#
# number of rings (size 3 to 8) (size 9 to 14) (size 15 to 20)
#    1.636    0.000    1.818    2.182    0.000    5.091 
#    8.182    0.000    0.000    0.000    0.000    0.000 
#    0.000    0.000    0.000    0.000    0.000    0.000 
#
# Total GULP energy -122651.696892 kJ/mol
# GULP energy per Si atom -5575.077131 kJ/mol
# Density = 2.198986 g / cm^3
# Si number density = 22.040026 Si / 1000 Ang^3
#
#
#
# Elastic Constant Matrix: (Units=GPa)
#
#
# Indices 1 2 3 4 5 6 
#
# 1 45.1536 27.4209 -5.1348 0.0000 0.0000 0.0000
# 2 27.4209 105.2769 14.0652 0.0000 0.0000 0.0000
# 3 -5.1348 14.0652 50.1801 0.0000 0.0000 0.0000
# 4 0.0000 0.0000 0.0000 17.9033 0.0000 0.0000
# 5 0.0000 0.0000 0.0000 0.0000 19.4877 0.0000
# 6 0.0000 0.0000 0.0000 0.0000 0.0000 41.8341
#
#
#
# Elastic Compliance Matrix: (Units=1/GPa)
#
#
# Indices 1 2 3 4 5 6 
#
# 1 0.027466 -0.007822 0.005003 0.000000 0.000000 0.000000
# 2 -0.007822 0.012096 -0.004191 0.000000 0.000000 0.000000
# 3 0.005003 -0.004191 0.021615 0.000000 0.000000 0.000000
# 4 0.000000 0.000000 0.000000 0.055855 0.000000 0.000000
# 5 0.000000 0.000000 0.000000 0.000000 0.051314 0.000000
# 6 0.000000 0.000000 0.000000 0.000000 0.000000 0.023904
#
#
# Mechanical properties :
#
#
# Convention : Reuss Voigt Hill
#
# Bulk Modulus (GPa) = 21.20596 30.36814 25.78705
# Shear Modulus (GPa) = 22.52353 26.79564 24.65958
#
# Velocity S-wave (km/s) = 3.20024 3.49057 3.34856
# Velocity P-wave (km/s) = 4.82679 5.48216 5.16488
#
# Compressibility (1/GPa) = 0.04715655
#
# Stress axis : x y z
#
# Youngs Moduli (GPa) = 36.40872 82.67113 46.26447
#
# Poissons Ratio (x) = 0.64668 -0.23146
# Poissons Ratio (y) = 0.28480 0.19389
# Poissons Ratio (z) = -0.18215 0.34647
#
# Static dielectric constant tensor:
#      x y z
#    x 1.827310 0.000000 0.000000 
#    y 0.000000 1.792030 0.000000 
#    z 0.000000 0.000000 1.803420 
# 
# From -- ./inp_files/3112.got.cif
#   From: 2010.05.17/outbox.cif.g08.bks.cpg/sg18_2_cif.got.tgz:3112.got - 2010.06.03 22:40:56.
