data_PCOD9312912
_publ_section_title
;
Structure prediction by ZEFSAII (Michael W. Deem and Ramdas Pophale) SiO2 
 PCOD9312912
Probable space group: P 21 21 2
;
_chemical_formula_sum "Si O2"
_cell_formula_units_Z 12
_cell_length_a 7.874142
_cell_length_b 11.823028
_cell_length_c 4.036358
_cell_angle_alpha 90.000000
_cell_angle_beta 90.000000
_cell_angle_gamma 90.000000
_cell_volume 375.769597
_symmetry_space_group_name_H-M "P 21 21 2"
_symmetry_group_IT_number 18
_symmetry_cell_setting 'orthorhombic'
loop_
_space_group_symop_operation_xyz
x,y,z
-x,-y,z
1/2+x,1/2-y,-z
1/2-x,1/2+y,-z
loop_
_atom_site_type_symbol
_atom_site_label
_atom_site_fract_x
_atom_site_fract_y
_atom_site_fract_z
Si Si1 0.614240 0.252402 0.431369
Si Si2 0.633865 0.910277 0.007627
Si Si3 0.636907 0.575980 0.539027
O O1 0.484895 0.173514 0.222825
O O2 0.499697 0.331414 0.666759
O O3 0.730675 0.161706 0.623487
O O4 0.743537 0.333296 0.223107
O O5 0.500000 0.000000 0.846194
O O6 0.754412 0.995053 0.223966
O O7 0.500000 0.500000 0.341646
#
# Coordination Sequence:
#
# PCOD9312912 Si02
#       3
#     4   4   4
#     4  11  24  45  71 102 144 184 235 295 349 420
#     4  10  24  45  70 103 139 188 239 286 352 421
#     4  11  24  42  69 103 139 182 234 289 351 413
#
# _framework density 31.934466
#
# number of rings (size 3 to 8) (size 9 to 14) (size 15 to 20)
#    0.000    1.333    0.000    4.000    0.000    9.333 
#    0.000    0.000    0.000    0.000    0.000    0.000 
#    0.000    0.000    0.000    0.000    0.000    0.000 
#
# Total GULP energy -67032.481479 kJ/mol
# GULP energy per Si atom -5586.040123 kJ/mol
# Density = 3.186178 g / cm^3
# Si number density = 31.934466 Si / 1000 Ang^3
#
#
#
# Elastic Constant Matrix: (Units=GPa)
#
#
# Indices 1 2 3 4 5 6 
#
# 1 256.6597 176.2812 93.4310 0.0000 0.0000 0.0000
# 2 176.2812 256.1011 90.8296 0.0000 0.0000 0.0000
# 3 93.4310 90.8296 82.8665 0.0000 0.0000 0.0000
# 4 0.0000 0.0000 0.0000 91.6264 0.0000 0.0000
# 5 0.0000 0.0000 0.0000 0.0000 85.0247 0.0000
# 6 0.0000 0.0000 0.0000 0.0000 0.0000 221.1024
#
#
#
# Elastic Compliance Matrix: (Units=1/GPa)
#
#
# Indices 1 2 3 4 5 6 
#
# 1 0.008587 -0.004052 -0.005240 0.000000 0.000000 0.000000
# 2 -0.004052 0.008300 -0.004529 0.000000 0.000000 0.000000
# 3 -0.005240 -0.004529 0.022940 0.000000 0.000000 0.000000
# 4 0.000000 0.000000 0.000000 0.010914 0.000000 0.000000
# 5 0.000000 0.000000 0.000000 0.000000 0.011761 0.000000
# 6 0.000000 0.000000 0.000000 0.000000 0.000000 0.004523
#
#
# Mechanical properties :
#
#
# Convention : Reuss Voigt Hill
#
# Bulk Modulus (GPa) = 82.07125 146.30120 114.18623
# Shear Modulus (GPa) = 50.64366 95.22307 72.93336
#
# Velocity S-wave (km/s) = 3.98661 5.46654 4.78414
# Velocity P-wave (km/s) = 6.85175 9.26048 8.14564
#
# Compressibility (1/GPa) = 0.01218453
#
# Stress axis : x y z
#
# Youngs Moduli (GPa) = 116.45757 120.47947 43.59185
#
# Poissons Ratio (x) = 0.48819 0.22842
# Poissons Ratio (y) = 0.47190 0.19743
# Poissons Ratio (z) = 0.61025 0.54567
#
# Static dielectric constant tensor:
#      x y z
#    x 2.466720 0.000000 0.000000 
#    y 0.000000 2.495040 0.000000 
#    z 0.000000 0.000000 2.505470 
# 
# From -- ./inp_files/371.got.cif
#   From: 2010.05.17/outbox.cif.g08.bks.cpg/sg18_1_cif.got.tgz:371.got - 2010.06.03 22:40:56.
