data_PCOD9312975
_publ_section_title
;
Structure prediction by ZEFSAII (Michael W. Deem and Ramdas Pophale) SiO2 
 PCOD9312975
Probable space group: P 21 21 2
;
_chemical_formula_sum "Si O2"
_cell_formula_units_Z 26
_cell_length_a 12.031078
_cell_length_b 17.298267
_cell_length_c 5.266903
_cell_angle_alpha 90.000000
_cell_angle_beta 90.000000
_cell_angle_gamma 90.000000
_cell_volume 1096.130996
_symmetry_space_group_name_H-M "P 21 21 2"
_symmetry_group_IT_number 18
_symmetry_cell_setting 'orthorhombic'
loop_
_space_group_symop_operation_xyz
x,y,z
-x,-y,z
1/2+x,1/2-y,-z
1/2-x,1/2+y,-z
loop_
_atom_site_type_symbol
_atom_site_label
_atom_site_fract_x
_atom_site_fract_y
_atom_site_fract_z
Si Si1 0.005784 0.304003 0.034201
Si Si2 0.453726 0.364489 0.155756
Si Si3 0.068335 0.375086 0.538439
Si Si4 0.849839 0.917840 0.520442
Si Si5 0.000000 0.000000 0.209104
Si Si6 0.731000 0.037166 0.824131
Si Si7 0.352756 0.077685 0.194259
O O1 0.961733 0.220982 0.951565
O O2 0.904531 0.364873 0.014489
O O3 0.090573 0.332775 0.809910
O O4 0.052348 0.310558 0.316845
O O5 0.539333 0.372532 0.394997
O O6 0.328482 0.398508 0.166113
O O7 0.505668 0.424697 0.957644
O O8 0.151377 0.433256 0.398122
O O9 0.951045 0.416638 0.597572
O O10 0.757505 0.887541 0.327234
O O11 0.893911 0.996309 0.385713
O O12 0.787387 0.954687 0.758110
O O13 0.664538 0.007758 0.074159
#
# Coordination Sequence:
#
# PCOD9312975 Si02
#       7
#     4   4   4   4   2   4   4
#     4  10  27  51  71 111 158 203 251 319 393 466
#     4  12  25  47  74 111 156 202 261 317 399 461
#     4  10  27  50  71 116 149 204 253 317 389 460
#     4  12  23  43  76 108 148 189 257 325 376 456
#     4  12  22  42  72 110 144 196 258 322 380 458
#     4  12  24  46  78 113 146 201 260 318 379 469
#     4  10  25  47  75 111 146 200 257 322 383 457
#
# _framework density 23.719792000000002
#
# number of rings (size 3 to 8) (size 9 to 14) (size 15 to 20)
#    0.923    0.000    4.615    0.923    4.308    4.923 
#    5.538    0.000    0.000    0.000    0.000    0.000 
#    0.000    0.000    0.000    0.000    0.000    0.000 
#
# Total GULP energy -144943.019932 kJ/mol
# GULP energy per Si atom -5574.731536 kJ/mol
# Density = 2.366580 g / cm^3
# Si number density = 23.719792 Si / 1000 Ang^3
#
#
#
# Elastic Constant Matrix: (Units=GPa)
#
#
# Indices 1 2 3 4 5 6 
#
# 1 98.8657 16.9397 29.3542 0.0000 0.0000 0.0000
# 2 16.9397 103.0465 22.1180 0.0000 0.0000 0.0000
# 3 29.3542 22.1180 113.5605 0.0000 0.0000 0.0000
# 4 0.0000 0.0000 0.0000 36.5743 0.0000 0.0000
# 5 0.0000 0.0000 0.0000 0.0000 37.4102 0.0000
# 6 0.0000 0.0000 0.0000 0.0000 0.0000 21.6369
#
#
#
# Elastic Compliance Matrix: (Units=1/GPa)
#
#
# Indices 1 2 3 4 5 6 
#
# 1 0.011111 -0.001263 -0.002626 0.000000 0.000000 0.000000
# 2 -0.001263 0.010271 -0.001674 0.000000 0.000000 0.000000
# 3 -0.002626 -0.001674 0.009811 0.000000 0.000000 0.000000
# 4 0.000000 0.000000 0.000000 0.027342 0.000000 0.000000
# 5 0.000000 0.000000 0.000000 0.000000 0.026731 0.000000
# 6 0.000000 0.000000 0.000000 0.000000 0.000000 0.046217
#
#
# Mechanical properties :
#
#
# Convention : Reuss Voigt Hill
#
# Bulk Modulus (GPa) = 49.83341 50.25516 50.04428
# Shear Modulus (GPa) = 33.49018 35.59499 34.54259
#
# Velocity S-wave (km/s) = 3.76161 3.87802 3.82026
# Velocity P-wave (km/s) = 6.31832 6.42534 6.37206
#
# Compressibility (1/GPa) = 0.02006686
#
# Stress axis : x y z
#
# Youngs Moduli (GPa) = 90.00241 97.35884 101.92902
#
# Poissons Ratio (x) = 0.12295 0.26767
# Poissons Ratio (y) = 0.11366 0.17064
# Poissons Ratio (z) = 0.23635 0.16299
#
# Static dielectric constant tensor:
#      x y z
#    x 1.935980 0.000000 0.000000 
#    y 0.000000 1.848440 0.000000 
#    z 0.000000 0.000000 2.020050 
# 
# From -- ./inp_files/1134.got.cif
#   From: 2010.05.17/outbox.cif.g08.bks.cpg/sg18_1_cif.got.tgz:1134.got - 2010.06.03 22:40:56.
