data_PCOD9312505
_publ_section_title
;
Structure prediction by ZEFSAII (Michael W. Deem and Ramdas Pophale) SiO2 
 PCOD9312505
Probable space group: P 21 21 2
;
_chemical_formula_sum "Si O2"
_cell_formula_units_Z 18
_cell_length_a 20.513532
_cell_length_b 6.193810
_cell_length_c 7.167650
_cell_angle_alpha 90.000000
_cell_angle_beta 90.000000
_cell_angle_gamma 90.000000
_cell_volume 910.699530
_symmetry_space_group_name_H-M "P 21 21 2"
_symmetry_group_IT_number 18
_symmetry_cell_setting 'orthorhombic'
loop_
_space_group_symop_operation_xyz
x,y,z
-x,-y,z
1/2+x,1/2-y,-z
1/2-x,1/2+y,-z
loop_
_atom_site_type_symbol
_atom_site_label
_atom_site_fract_x
_atom_site_fract_y
_atom_site_fract_z
Si Si1 0.500000 0.500000 0.285630
Si Si2 0.612261 0.784233 0.457899
Si Si3 0.843734 0.369145 0.131397
Si Si4 0.100289 0.335760 0.823125
Si Si5 0.298205 0.456473 0.182151
O O1 0.554256 0.620870 0.407207
O O2 0.538330 0.320857 0.167241
O O3 0.623694 0.803527 0.675920
O O4 0.676349 0.689631 0.353364
O O5 0.596487 0.011656 0.358378
O O6 0.778413 0.504003 0.177783
O O7 0.890363 0.511486 0.000629
O O8 0.821125 0.167144 0.004840
O O9 0.163569 0.182585 0.807367
#
# Coordination Sequence:
#
# PCOD9312505 Si02
#       5
#     2   4   4   4   4
#     4  10  22  48  62  90 132 172 220 264 312 380
#     4  10  24  40  67  92 127 174 211 265 316 378
#     4  11  22  40  64 102 127 170 210 263 328 386
#     4  10  22  43  65  92 131 170 212 264 317 380
#     4  10  22  38  61  97 136 159 207 262 325 386
#
# _framework density 19.765022999999999
#
# number of rings (size 3 to 8) (size 9 to 14) (size 15 to 20)
#    0.000    1.778    2.222    0.667    3.111    3.556 
#    0.000   26.667    0.000    0.000    0.000    0.000 
#    0.000    0.000    0.000    0.000    0.000    0.000 
#
# Total GULP energy -100614.195182 kJ/mol
# GULP energy per Si atom -5589.677510 kJ/mol
# Density = 1.972004 g / cm^3
# Si number density = 19.765023 Si / 1000 Ang^3
#
#
#
# Elastic Constant Matrix: (Units=GPa)
#
#
# Indices 1 2 3 4 5 6 
#
# 1 93.5692 33.6526 37.2969 0.0000 0.0000 0.0000
# 2 33.6526 85.5601 19.9790 0.0000 0.0000 0.0000
# 3 37.2969 19.9790 88.6263 0.0000 0.0000 0.0000
# 4 0.0000 0.0000 0.0000 2.4686 0.0000 0.0000
# 5 0.0000 0.0000 0.0000 0.0000 13.2156 0.0000
# 6 0.0000 0.0000 0.0000 0.0000 0.0000 38.3552
#
#
#
# Elastic Compliance Matrix: (Units=1/GPa)
#
#
# Indices 1 2 3 4 5 6 
#
# 1 0.014283 -0.004449 -0.005008 0.000000 0.000000 0.000000
# 2 -0.004449 0.013723 -0.001221 0.000000 0.000000 0.000000
# 3 -0.005008 -0.001221 0.013666 0.000000 0.000000 0.000000
# 4 0.000000 0.000000 0.000000 0.405093 0.000000 0.000000
# 5 0.000000 0.000000 0.000000 0.000000 0.075668 0.000000
# 6 0.000000 0.000000 0.000000 0.000000 0.000000 0.026072
#
#
# Mechanical properties :
#
#
# Convention : Reuss Voigt Hill
#
# Bulk Modulus (GPa) = 49.22180 49.95697 49.58938
# Shear Modulus (GPa) = 8.67102 22.59633 15.63367
#
# Velocity S-wave (km/s) = 2.09680 3.38486 2.81548
# Velocity P-wave (km/s) = 5.55154 6.37234 5.97605
#
# Compressibility (1/GPa) = 0.02031620
#
# Stress axis : x y z
#
# Youngs Moduli (GPa) = 70.01097 72.87242 73.17291
#
# Poissons Ratio (x) = 0.32418 0.36646
# Poissons Ratio (y) = 0.31145 0.08937
# Poissons Ratio (z) = 0.35062 0.08901
#
# Static dielectric constant tensor:
#      x y z
#    x 1.693460 0.000000 0.000000 
#    y 0.000000 1.708580 0.000000 
#    z 0.000000 0.000000 1.647390 
# 
# From -- ./inp_files/214.got.cif
#   From: 2010.05.17/outbox.cif.g08.bks.cpg/sg18_1_cif.got.tgz:214.got - 2010.06.03 22:40:56.
