data_PCOD9312988
_publ_section_title
;
Structure prediction by ZEFSAII (Michael W. Deem and Ramdas Pophale) SiO2 
 PCOD9312988
Probable space group: P 21 21 2
;
_chemical_formula_sum "Si O2"
_cell_formula_units_Z 22
_cell_length_a 14.653679
_cell_length_b 5.091934
_cell_length_c 11.742809
_cell_angle_alpha 90.000000
_cell_angle_beta 90.000000
_cell_angle_gamma 90.000000
_cell_volume 876.196344
_symmetry_space_group_name_H-M "P 21 21 2"
_symmetry_group_IT_number 18
_symmetry_cell_setting 'orthorhombic'
loop_
_space_group_symop_operation_xyz
x,y,z
-x,-y,z
1/2+x,1/2-y,-z
1/2-x,1/2+y,-z
loop_
_atom_site_type_symbol
_atom_site_label
_atom_site_fract_x
_atom_site_fract_y
_atom_site_fract_z
Si Si1 0.500000 0.500000 0.197238
Si Si2 0.667493 0.781862 0.254944
Si Si3 0.061211 0.744225 0.343464
Si Si4 0.363329 0.853429 0.057437
Si Si5 0.688900 0.921997 0.834757
Si Si6 0.805502 0.528160 0.522494
O O1 0.577636 0.616328 0.278134
O O2 0.447463 0.703384 0.114866
O O3 0.758789 0.611547 0.253515
O O4 0.671579 0.015980 0.343890
O O5 0.650007 0.879153 0.127340
O O6 0.132580 0.785247 0.239564
O O7 0.116272 0.617623 0.449786
O O8 0.000000 0.500000 0.303139
O O9 0.000000 0.000000 0.366919
O O10 0.270475 0.699932 0.089862
O O11 0.370199 0.913288 0.924747
O O12 0.779659 0.824435 0.490918
#
# Coordination Sequence:
#
# PCOD9312988 Si02
#       6
#     2   4   4   4   4   4
#     4  10  26  42  66 114 138 190 240 320 362 444
#     4  11  24  45  73 102 143 189 251 299 376 440
#     4  12  29  49  73 112 156 194 252 310 378 443
#     4  11  23  46  74 101 145 187 255 295 385 437
#     4  11  24  46  72 104 141 202 238 309 366 467
#     4  12  26  49  80 105 145 198 253 306 371 444
#
# _framework density 25.108529000000001
#
# number of rings (size 3 to 8) (size 9 to 14) (size 15 to 20)
#    0.000    0.727    3.636    2.727    6.364    2.909 
#    3.273    0.000    0.000    0.000    0.000    0.000 
#    0.000    0.000    0.000    0.000    0.000    0.000 
#
# Total GULP energy -123187.409167 kJ/mol
# GULP energy per Si atom -5599.427689 kJ/mol
# Density = 2.505138 g / cm^3
# Si number density = 25.108529 Si / 1000 Ang^3
#
#
#
# Elastic Constant Matrix: (Units=GPa)
#
#
# Indices 1 2 3 4 5 6 
#
# 1 86.0083 22.7352 22.9351 0.0000 0.0000 0.0000
# 2 22.7352 76.0296 -18.6822 0.0000 0.0000 0.0000
# 3 22.9351 -18.6822 74.7291 0.0000 0.0000 0.0000
# 4 0.0000 0.0000 0.0000 27.4338 0.0000 0.0000
# 5 0.0000 0.0000 0.0000 0.0000 20.3849 0.0000
# 6 0.0000 0.0000 0.0000 0.0000 0.0000 48.5976
#
#
#
# Elastic Compliance Matrix: (Units=1/GPa)
#
#
# Indices 1 2 3 4 5 6 
#
# 1 0.014790 -0.005901 -0.006014 0.000000 0.000000 0.000000
# 2 -0.005901 0.016368 0.005903 0.000000 0.000000 0.000000
# 3 -0.006014 0.005903 0.016703 0.000000 0.000000 0.000000
# 4 0.000000 0.000000 0.000000 0.036451 0.000000 0.000000
# 5 0.000000 0.000000 0.000000 0.000000 0.049056 0.000000
# 6 0.000000 0.000000 0.000000 0.000000 0.000000 0.020577
#
#
# Mechanical properties :
#
#
# Convention : Reuss Voigt Hill
#
# Bulk Modulus (GPa) = 27.90420 32.30479 30.10450
# Shear Modulus (GPa) = 28.10314 33.26852 30.68583
#
# Velocity S-wave (km/s) = 3.34917 3.64399 3.49969
# Velocity P-wave (km/s) = 5.10818 5.53162 5.32411
#
# Compressibility (1/GPa) = 0.03583689
#
# Stress axis : x y z
#
# Youngs Moduli (GPa) = 67.61152 61.09579 59.86848
#
# Poissons Ratio (x) = 0.36051 0.36008
# Poissons Ratio (y) = 0.39895 -0.35340
# Poissons Ratio (z) = 0.40665 -0.36064
#
# Static dielectric constant tensor:
#      x y z
#    x 2.101930 0.000000 0.000000 
#    y 0.000000 2.024510 0.000000 
#    z 0.000000 0.000000 1.930880 
# 
# From -- ./inp_files/5088.got.cif
#   From: 2010.05.17/outbox.cif.g08.bks.cpg/sg18_3_cif.got.tgz:5088.got - 2010.06.03 22:40:56.
