data_PCOD9312722
_publ_section_title
;
Structure prediction by ZEFSAII (Michael W. Deem and Ramdas Pophale) SiO2 
 PCOD9312722
Probable space group: P 21 21 2
;
_chemical_formula_sum "Si O2"
_cell_formula_units_Z 28
_cell_length_a 11.828371
_cell_length_b 17.654888
_cell_length_c 5.128879
_cell_angle_alpha 90.000000
_cell_angle_beta 90.000000
_cell_angle_gamma 90.000000
_cell_volume 1071.056443
_symmetry_space_group_name_H-M "P 21 21 2"
_symmetry_group_IT_number 18
_symmetry_cell_setting 'orthorhombic'
loop_
_space_group_symop_operation_xyz
x,y,z
-x,-y,z
1/2+x,1/2-y,-z
1/2-x,1/2+y,-z
loop_
_atom_site_type_symbol
_atom_site_label
_atom_site_fract_x
_atom_site_fract_y
_atom_site_fract_z
Si Si1 0.887842 0.770617 0.863657
Si Si2 0.118703 0.504710 0.835547
Si Si3 0.487506 0.648570 0.635948
Si Si4 0.684049 0.865534 0.853381
Si Si5 0.566830 0.130007 0.790268
Si Si6 0.228431 0.892750 0.462011
Si Si7 0.887296 0.979265 0.715409
O O1 0.933015 0.826037 0.093873
O O2 0.753792 0.788393 0.854955
O O3 0.914299 0.687766 0.970420
O O4 0.948177 0.794998 0.596642
O O5 0.145763 0.592444 0.881017
O O6 0.221139 0.460830 0.708243
O O7 0.000000 0.500000 0.682020
O O8 0.091988 0.453597 0.093426
O O9 0.622815 0.649024 0.663538
O O10 0.441315 0.567741 0.529672
O O11 0.563963 0.861732 0.707633
O O12 0.780890 0.925464 0.772519
O O13 0.662934 0.148970 0.578585
O O14 0.167203 0.938343 0.691727
O O15 0.000000 0.000000 0.881557
#
# Coordination Sequence:
#
# PCOD9312722 Si02
#       7
#     4   4   4   4   4   4   4
#     4  11  26  48  69 102 141 196 238 296 359 438
#     4  10  23  39  66 104 135 181 237 290 360 422
#     4  10  25  45  72 100 139 183 245 291 366 418
#     4  10  22  45  70  98 148 183 241 296 361 432
#     4  11  26  42  66 104 140 191 236 297 366 431
#     4  11  23  39  71  98 141 175 240 301 356 432
#     4   9  19  39  67 102 125 182 228 299 349 421
#
# _framework density 26.142416000000001
#
# number of rings (size 3 to 8) (size 9 to 14) (size 15 to 20)
#    0.000    1.714    1.429    0.857    8.000    1.143 
#    5.143    2.143    0.000    0.000    0.000    0.000 
#    0.000    0.000    0.000    0.000    0.000    0.000 
#
# Total GULP energy -156397.730455 kJ/mol
# GULP energy per Si atom -5585.633231 kJ/mol
# Density = 2.608291 g / cm^3
# Si number density = 26.142416 Si / 1000 Ang^3
#
#
#
# Elastic Constant Matrix: (Units=GPa)
#
#
# Indices 1 2 3 4 5 6 
#
# 1 252.3399 32.1260 45.8222 0.0000 0.0000 0.0000
# 2 32.1260 80.3419 0.8696 0.0000 0.0000 0.0000
# 3 45.8222 0.8696 60.4860 0.0000 0.0000 0.0000
# 4 0.0000 0.0000 0.0000 16.0935 0.0000 0.0000
# 5 0.0000 0.0000 0.0000 0.0000 27.1913 0.0000
# 6 0.0000 0.0000 0.0000 0.0000 0.0000 43.0681
#
#
#
# Elastic Compliance Matrix: (Units=1/GPa)
#
#
# Indices 1 2 3 4 5 6 
#
# 1 0.004871 -0.001908 -0.003663 0.000000 0.000000 0.000000
# 2 -0.001908 0.013196 0.001256 0.000000 0.000000 0.000000
# 3 -0.003663 0.001256 0.019289 0.000000 0.000000 0.000000
# 4 0.000000 0.000000 0.000000 0.062137 0.000000 0.000000
# 5 0.000000 0.000000 0.000000 0.000000 0.036776 0.000000
# 6 0.000000 0.000000 0.000000 0.000000 0.000000 0.023219
#
#
# Mechanical properties :
#
#
# Convention : Reuss Voigt Hill
#
# Bulk Modulus (GPa) = 34.81089 61.20039 48.00564
# Shear Modulus (GPa) = 28.13824 38.22726 33.18275
#
# Velocity S-wave (km/s) = 3.28433 3.82811 3.56660
# Velocity P-wave (km/s) = 5.26566 6.55747 5.94675
#
# Compressibility (1/GPa) = 0.02872664
#
# Stress axis : x y z
#
# Youngs Moduli (GPa) = 205.29989 75.77950 51.84205
#
# Poissons Ratio (x) = 0.14459 0.18988
# Poissons Ratio (y) = 0.39173 -0.06510
# Poissons Ratio (z) = 0.75194 -0.09516
#
# Static dielectric constant tensor:
#      x y z
#    x 2.088880 0.000000 0.000000 
#    y 0.000000 2.127870 0.000000 
#    z 0.000000 0.000000 2.093930 
# 
# From -- ./inp_files/1229.got.cif
#   From: 2010.05.17/outbox.cif.g08.bks.cpg/sg18_1_cif.got.tgz:1229.got - 2010.06.03 22:40:56.
