data_PCOD9312002
_publ_section_title
;
Structure prediction by ZEFSAII (Michael W. Deem and Ramdas Pophale) SiO2 
 PCOD9312002
Probable space group: P 21 21 2
;
_chemical_formula_sum "Si O2"
_cell_formula_units_Z 24
_cell_length_a 16.649297
_cell_length_b 7.272124
_cell_length_c 6.888366
_cell_angle_alpha 90.000000
_cell_angle_beta 90.000000
_cell_angle_gamma 90.000000
_cell_volume 834.014096
_symmetry_space_group_name_H-M "P 21 21 2"
_symmetry_group_IT_number 18
_symmetry_cell_setting 'orthorhombic'
loop_
_space_group_symop_operation_xyz
x,y,z
-x,-y,z
1/2+x,1/2-y,-z
1/2-x,1/2+y,-z
loop_
_atom_site_type_symbol
_atom_site_label
_atom_site_fract_x
_atom_site_fract_y
_atom_site_fract_z
Si Si1 0.858416 0.005485 0.470441
Si Si2 0.823101 0.090244 0.911020
Si Si3 0.648487 0.204744 0.958886
Si Si4 0.018512 0.780300 0.938234
Si Si5 0.821979 0.615969 0.590290
Si Si6 0.549736 0.830235 0.497154
O O1 0.860440 0.035974 0.704318
O O2 0.772764 0.089360 0.417153
O O3 0.930885 0.136615 0.400078
O O4 0.855733 0.784184 0.457417
O O5 0.885907 0.246563 0.983683
O O6 0.833275 0.922493 0.058286
O O7 0.728886 0.115740 0.871548
O O8 0.552479 0.185781 0.938370
O O9 0.659995 0.158229 0.186638
O O10 0.010993 0.713336 0.714047
O O11 0.000000 0.000000 0.948994
O O12 0.864072 0.426593 0.534360
O O13 0.500000 0.000000 0.580313
#
# Coordination Sequence:
#
# PCOD9312002 Si02
#       6
#     4   4   4   4   4   4
#     4  10  22  38  57  88 120 152 198 247 293 361
#     4   9  21  34  58  84 118 155 194 247 300 349
#     4  10  20  35  58  86 115 153 202 244 293 352
#     4   9  19  37  55  87 121 153 203 251 285 358
#     4  11  21  37  60  88 116 155 200 245 294 356
#     4  11  21  33  61  87 113 153 195 242 298 344
#
# _framework density 28.776489999999999
#
# number of rings (size 3 to 8) (size 9 to 14) (size 15 to 20)
#    0.000    2.000    3.333    1.000    4.667    0.000 
#    0.000    0.000    3.667    0.000    0.000    0.000 
#    0.000    0.000    0.000    0.000    0.000    0.000 
#
# Total GULP energy -134252.275500 kJ/mol
# GULP energy per Si atom -5593.844812 kJ/mol
# Density = 2.871099 g / cm^3
# Si number density = 28.776490 Si / 1000 Ang^3
#
#
#
# Elastic Constant Matrix: (Units=GPa)
#
#
# Indices 1 2 3 4 5 6 
#
# 1 193.6555 62.6448 20.9905 0.0000 0.0000 0.0000
# 2 62.6448 150.0378 19.1985 0.0000 0.0000 0.0000
# 3 20.9905 19.1985 71.3378 0.0000 0.0000 0.0000
# 4 0.0000 0.0000 0.0000 30.2786 0.0000 0.0000
# 5 0.0000 0.0000 0.0000 0.0000 44.3898 0.0000
# 6 0.0000 0.0000 0.0000 0.0000 0.0000 62.2992
#
#
#
# Elastic Compliance Matrix: (Units=1/GPa)
#
#
# Indices 1 2 3 4 5 6 
#
# 1 0.006059 -0.002384 -0.001141 0.000000 0.000000 0.000000
# 2 -0.002384 0.007840 -0.001409 0.000000 0.000000 0.000000
# 3 -0.001141 -0.001409 0.014733 0.000000 0.000000 0.000000
# 4 0.000000 0.000000 0.000000 0.033027 0.000000 0.000000
# 5 0.000000 0.000000 0.000000 0.000000 0.022528 0.000000
# 6 0.000000 0.000000 0.000000 0.000000 0.000000 0.016052
#
#
# Mechanical properties :
#
#
# Convention : Reuss Voigt Hill
#
# Bulk Modulus (GPa) = 53.29132 68.96654 61.12893
# Shear Modulus (GPa) = 42.97029 48.20668 45.58848
#
# Velocity S-wave (km/s) = 3.86844 4.09737 3.98455
# Velocity P-wave (km/s) = 6.20583 6.81197 6.51595
#
# Compressibility (1/GPa) = 0.01876478
#
# Stress axis : x y z
#
# Youngs Moduli (GPa) = 165.05568 127.54374 67.87617
#
# Poissons Ratio (x) = 0.30401 0.07746
# Poissons Ratio (y) = 0.39342 0.09562
# Poissons Ratio (z) = 0.18836 0.17967
#
# Static dielectric constant tensor:
#      x y z
#    x 2.260890 0.000000 0.000000 
#    y 0.000000 2.265430 0.000000 
#    z 0.000000 0.000000 2.253110 
# 
# From -- ./inp_files/4461.got.cif
#   From: 2010.05.17/outbox.cif.g08.bks.cpg/sg18_3_cif.got.tgz:4461.got - 2010.06.03 22:40:56.
