data_PCOD9312637
_publ_section_title
;
Structure prediction by ZEFSAII (Michael W. Deem and Ramdas Pophale) SiO2 
 PCOD9312637
Probable space group: P 21 21 2
;
_chemical_formula_sum "Si O2"
_cell_formula_units_Z 22
_cell_length_a 13.738648
_cell_length_b 8.913888
_cell_length_c 7.235657
_cell_angle_alpha 90.000000
_cell_angle_beta 90.000000
_cell_angle_gamma 90.000000
_cell_volume 886.113067
_symmetry_space_group_name_H-M "P 21 21 2"
_symmetry_group_IT_number 18
_symmetry_cell_setting 'orthorhombic'
loop_
_space_group_symop_operation_xyz
x,y,z
-x,-y,z
1/2+x,1/2-y,-z
1/2-x,1/2+y,-z
loop_
_atom_site_type_symbol
_atom_site_label
_atom_site_fract_x
_atom_site_fract_y
_atom_site_fract_z
Si Si1 0.874551 0.858006 0.048863
Si Si2 0.173993 0.054157 0.442163
Si Si3 0.160211 0.706001 0.317803
Si Si4 0.500000 0.000000 0.534749
Si Si5 0.561819 0.243778 0.302153
Si Si6 0.093458 0.813869 0.969201
O O1 0.823048 0.857098 0.245315
O O2 0.991963 0.841807 0.082624
O O3 0.860469 0.022056 0.957105
O O4 0.868165 0.744901 0.876919
O O5 0.261648 0.107183 0.573138
O O6 0.083980 0.119918 0.560975
O O7 0.166791 0.878269 0.390988
O O8 0.058222 0.624314 0.356410
O O9 0.161502 0.711106 0.093521
O O10 0.425530 0.909295 0.407888
O O11 0.451812 0.255099 0.221221
#
# Coordination Sequence:
#
# PCOD9312637 Si02
#       6
#     4   4   4   2   4   4
#     4   8  18  39  66  99 125 173 229 284 340 410
#     4  11  23  45  71  98 145 187 230 299 370 416
#     4  11  25  44  70 105 145 187 237 302 355 435
#     4  12  26  40  70 108 138 188 246 272 370 420
#     4  10  22  42  67 103 131 182 232 288 345 431
#     4   8  18  39  67  94 134 166 231 282 341 407
#
# _framework density 24.827531
#
# number of rings (size 3 to 8) (size 9 to 14) (size 15 to 20)
#    1.091    1.091    0.000    2.182    5.091    2.182 
#    6.545    0.000    0.000    0.000    0.000    0.000 
#    0.000    0.000    0.000    0.000    0.000    0.000 
#
# Total GULP energy -122713.435259 kJ/mol
# GULP energy per Si atom -5577.883421 kJ/mol
# Density = 2.477102 g / cm^3
# Si number density = 24.827531 Si / 1000 Ang^3
#
#
#
# Elastic Constant Matrix: (Units=GPa)
#
#
# Indices 1 2 3 4 5 6 
#
# 1 39.6992 16.0886 1.5153 0.0000 0.0000 0.0000
# 2 16.0886 104.2005 40.8648 0.0000 0.0000 0.0000
# 3 1.5153 40.8648 101.2720 0.0000 0.0000 0.0000
# 4 0.0000 0.0000 0.0000 34.1912 0.0000 0.0000
# 5 0.0000 0.0000 0.0000 0.0000 31.4500 0.0000
# 6 0.0000 0.0000 0.0000 0.0000 0.0000 29.8108
#
#
#
# Elastic Compliance Matrix: (Units=1/GPa)
#
#
# Indices 1 2 3 4 5 6 
#
# 1 0.027067 -0.004776 0.001522 0.000000 0.000000 0.000000
# 2 -0.004776 0.012244 -0.004869 0.000000 0.000000 0.000000
# 3 0.001522 -0.004869 0.011816 0.000000 0.000000 0.000000
# 4 0.000000 0.000000 0.000000 0.029247 0.000000 0.000000
# 5 0.000000 0.000000 0.000000 0.000000 0.031796 0.000000
# 6 0.000000 0.000000 0.000000 0.000000 0.000000 0.033545
#
#
# Mechanical properties :
#
#
# Convention : Reuss Voigt Hill
#
# Bulk Modulus (GPa) = 28.66880 40.23437 34.45159
# Shear Modulus (GPa) = 28.80368 31.53726 30.17047
#
# Velocity S-wave (km/s) = 3.40979 3.56793 3.48976
# Velocity P-wave (km/s) = 5.20332 5.76318 5.49039
#
# Compressibility (1/GPa) = 0.03488113
#
# Stress axis : x y z
#
# Youngs Moduli (GPa) = 36.94547 81.67354 84.62826
#
# Poissons Ratio (x) = 0.39008 -0.12883
# Poissons Ratio (y) = 0.17646 0.41207
# Poissons Ratio (z) = -0.05624 0.39768
#
# Static dielectric constant tensor:
#      x y z
#    x 2.175890 0.000000 0.000000 
#    y 0.000000 1.899740 0.000000 
#    z 0.000000 0.000000 1.973480 
# 
# From -- ./inp_files/4127.got.cif
#   From: 2010.05.17/outbox.cif.g08.bks.cpg/sg18_3_cif.got.tgz:4127.got - 2010.06.03 22:40:56.
