data_PCOD9312882
_publ_section_title
;
Structure prediction by ZEFSAII (Michael W. Deem and Ramdas Pophale) SiO2 
 PCOD9312882
Probable space group: P 21 21 2
;
_chemical_formula_sum "Si O2"
_cell_formula_units_Z 14
_cell_length_a 7.522756
_cell_length_b 9.627992
_cell_length_c 7.269775
_cell_angle_alpha 90.000000
_cell_angle_beta 90.000000
_cell_angle_gamma 90.000000
_cell_volume 526.542785
_symmetry_space_group_name_H-M "P 21 21 2"
_symmetry_group_IT_number 18
_symmetry_cell_setting 'orthorhombic'
loop_
_space_group_symop_operation_xyz
x,y,z
-x,-y,z
1/2+x,1/2-y,-z
1/2-x,1/2+y,-z
loop_
_atom_site_type_symbol
_atom_site_label
_atom_site_fract_x
_atom_site_fract_y
_atom_site_fract_z
Si Si1 0.440795 0.240823 0.246309
Si Si2 0.000000 0.500000 0.178678
Si Si3 0.056936 0.198712 0.356612
Si Si4 0.274633 0.417484 0.922178
O O1 0.513010 0.313580 0.430059
O O2 0.600980 0.153860 0.163862
O O3 0.260420 0.159135 0.307394
O O4 0.379522 0.343347 0.088026
O O5 0.037971 0.362167 0.298079
O O6 0.827362 0.466969 0.049484
O O7 0.915172 0.113516 0.239425
#
# Coordination Sequence:
#
# PCOD9312882 Si02
#       4
#     4   2   4   4
#     4  11  21  40  71  95 134 181 215 287 335 390
#     4  10  24  42  72 100 136 186 224 274 346 404
#     4  11  23  43  69 100 139 177 228 277 340 401
#     4  11  22  43  67  98 140 174 225 282 335 398
#
# _framework density 26.588531
#
# number of rings (size 3 to 8) (size 9 to 14) (size 15 to 20)
#    0.000    1.143    8.571    0.000    0.000    1.143 
#    0.000   12.857    0.000    0.000    0.000    0.000 
#    0.000    0.000    0.000    0.000    0.000    0.000 
#
# Total GULP energy -78271.512563 kJ/mol
# GULP energy per Si atom -5590.822326 kJ/mol
# Density = 2.652801 g / cm^3
# Si number density = 26.588531 Si / 1000 Ang^3
#
#
#
# Elastic Constant Matrix: (Units=GPa)
#
#
# Indices 1 2 3 4 5 6 
#
# 1 190.4388 30.6317 45.7975 0.0000 0.0000 0.0000
# 2 30.6317 88.9490 15.7898 0.0000 0.0000 0.0000
# 3 45.7975 15.7898 198.7836 0.0000 0.0000 0.0000
# 4 0.0000 0.0000 0.0000 -4.2859 0.0000 0.0000
# 5 0.0000 0.0000 0.0000 0.0000 74.5827 0.0000
# 6 0.0000 0.0000 0.0000 0.0000 0.0000 43.6874
#
#
#
# Elastic Compliance Matrix: (Units=1/GPa)
#
#
# Indices 1 2 3 4 5 6 
#
# 1 0.005828 -0.001794 -0.001200 0.000000 0.000000 0.000000
# 2 -0.001794 0.011955 -0.000536 0.000000 0.000000 0.000000
# 3 -0.001200 -0.000536 0.005350 0.000000 0.000000 0.000000
# 4 0.000000 0.000000 0.000000 -0.233323 0.000000 0.000000
# 5 0.000000 0.000000 0.000000 0.000000 0.013408 0.000000
# 6 0.000000 0.000000 0.000000 0.000000 0.000000 0.022890
#
#
# Mechanical properties :
#
#
# Convention : Reuss Voigt Hill
#
# Bulk Modulus (GPa) = 62.21934 73.62326 67.92130
# Shear Modulus (GPa) = -30.96483 48.52700 8.78108
#
# Velocity S-wave (km/s) = -3.41632 4.27677 1.81927
# Velocity P-wave (km/s) = 2.80891 7.22064 5.47848
#
# Compressibility (1/GPa) = 0.01607217
#
# Stress axis : x y z
#
# Youngs Moduli (GPa) = 171.57844 83.64405 186.92556
#
# Poissons Ratio (x) = 0.15006 0.22436
# Poissons Ratio (y) = 0.30782 0.10025
# Poissons Ratio (z) = 0.20594 0.04486
#
# Static dielectric constant tensor:
#      x y z
#    x 1.892470 0.000000 0.000000 
#    y 0.000000 1.176200 0.000000 
#    z 0.000000 0.000000 2.081820 
# 
# From -- ./inp_files/2818.got.cif
#   From: 2010.05.17/outbox.cif.g08.bks.cpg/sg18_2_cif.got.tgz:2818.got - 2010.06.03 22:40:56.
