data_PCOD9312055
_publ_section_title
;
Structure prediction by ZEFSAII (Michael W. Deem and Ramdas Pophale) SiO2 
 PCOD9312055
Probable space group: P 21 21 2
;
_chemical_formula_sum "Si O2"
_cell_formula_units_Z 28
_cell_length_a 5.395828
_cell_length_b 11.316930
_cell_length_c 22.997064
_cell_angle_alpha 90.000000
_cell_angle_beta 90.000000
_cell_angle_gamma 90.000000
_cell_volume 1404.297494
_symmetry_space_group_name_H-M "P 21 21 2"
_symmetry_group_IT_number 18
_symmetry_cell_setting 'orthorhombic'
loop_
_space_group_symop_operation_xyz
x,y,z
-x,-y,z
1/2+x,1/2-y,-z
1/2-x,1/2+y,-z
loop_
_atom_site_type_symbol
_atom_site_label
_atom_site_fract_x
_atom_site_fract_y
_atom_site_fract_z
Si Si1 0.649013 0.671028 0.817270
Si Si2 0.887018 0.866399 0.299591
Si Si3 0.500000 0.000000 0.251694
Si Si4 0.000000 0.000000 0.080174
Si Si5 0.751105 0.425601 0.137350
Si Si6 0.592705 0.317894 0.574984
Si Si7 0.243127 0.669482 0.006357
Si Si8 0.591462 0.115274 0.478947
O O1 0.458684 0.684251 0.763363
O O2 0.562563 0.610227 0.877218
O O3 0.758063 0.799555 0.829825
O O4 0.820000 0.568498 0.791155
O O5 0.600324 0.897196 0.292878
O O6 0.947979 0.794146 0.356929
O O7 0.000000 0.000000 0.306440
O O8 0.205634 0.061481 0.038721
O O9 0.500000 0.500000 0.146796
O O10 0.000000 0.500000 0.152472
O O11 0.770047 0.389581 0.069620
O O12 0.596893 0.213214 0.528400
O O13 0.354635 0.390864 0.552679
O O14 0.869976 0.367712 0.567331
O O15 0.489337 0.755453 0.004500
O O16 0.500000 0.000000 0.511800
#
# Coordination Sequence:
#
# PCOD9312055 Si02
#       8
#     4   4   2   2   4   4   4   4
#     4  11  25  42  66  97 133 168 224 273 343 385
#     4  10  21  38  60  97 125 167 210 274 329 384
#     4  10  22  38  68  96 126 166 216 284 336 378
#     4  12  24  42  68  98 132 170 212 286 338 394
#     4  12  28  48  68  95 134 179 220 266 323 411
#     4  10  22  35  61  91 126 163 213 256 317 381
#     4  12  27  43  68 100 133 168 213 268 337 404
#     4  10  20  37  58  90 125 168 203 262 313 371
#
# _framework density 19.938794999999999
#
# number of rings (size 3 to 8) (size 9 to 14) (size 15 to 20)
#    0.000    1.143    4.286    2.143    9.000    0.000 
#    0.000    0.714    0.000    0.000    0.000    0.000 
#    0.000    0.000    0.000    0.000    0.000    0.000 
#
# Total GULP energy -155920.795242 kJ/mol
# GULP energy per Si atom -5568.599830 kJ/mol
# Density = 1.989341 g / cm^3
# Si number density = 19.938795 Si / 1000 Ang^3
#
#
#
# Elastic Constant Matrix: (Units=GPa)
#
#
# Indices 1 2 3 4 5 6 
#
# 1 105.4231 37.9214 22.5749 0.0000 0.0000 0.0000
# 2 37.9214 74.5325 27.6224 0.0000 0.0000 0.0000
# 3 22.5749 27.6224 107.3276 0.0000 0.0000 0.0000
# 4 0.0000 0.0000 0.0000 221.3214 0.0000 0.0000
# 5 0.0000 0.0000 0.0000 0.0000 8.9663 0.0000
# 6 0.0000 0.0000 0.0000 0.0000 0.0000 34.7938
#
#
#
# Elastic Compliance Matrix: (Units=1/GPa)
#
#
# Indices 1 2 3 4 5 6 
#
# 1 0.011712 -0.005578 -0.001028 0.000000 0.000000 0.000000
# 2 -0.005578 0.017488 -0.003328 0.000000 0.000000 0.000000
# 3 -0.001028 -0.003328 0.010390 0.000000 0.000000 0.000000
# 4 0.000000 0.000000 0.000000 0.004518 0.000000 0.000000
# 5 0.000000 0.000000 0.000000 0.000000 0.111528 0.000000
# 6 0.000000 0.000000 0.000000 0.000000 0.000000 0.028741
#
#
# Mechanical properties :
#
#
# Convention : Reuss Voigt Hill
#
# Bulk Modulus (GPa) = 50.70178 51.50228 51.10203
# Shear Modulus (GPa) = 23.71700 66.29394 45.00547
#
# Velocity S-wave (km/s) = 3.45264 5.77243 4.75613
# Velocity P-wave (km/s) = 6.43259 8.38535 7.47303
#
# Compressibility (1/GPa) = 0.01972317
#
# Stress axis : x y z
#
# Youngs Moduli (GPa) = 85.38121 57.18107 96.24752
#
# Poissons Ratio (x) = 0.31896 0.09893
# Poissons Ratio (y) = 0.47627 0.32027
# Poissons Ratio (z) = 0.08776 0.19028
#
# Static dielectric constant tensor:
#      x y z
#    x 1.642070 0.000000 0.000000 
#    y 0.000000 1.797230 0.000000 
#    z 0.000000 0.000000 1.699080 
# 
# From -- ./inp_files/7494.got.cif
#   From: 2010.05.17/outbox.cif.g08.bks.cpg/sg18_4_cif.got.tgz:7494.got - 2010.06.03 22:40:56.
