data_PCOD9312060
_publ_section_title
;
Structure prediction by ZEFSAII (Michael W. Deem and Ramdas Pophale) SiO2 
 PCOD9312060
Probable space group: P 21 21 2
;
_chemical_formula_sum "Si O2"
_cell_formula_units_Z 20
_cell_length_a 29.798569
_cell_length_b 5.569315
_cell_length_c 4.708939
_cell_angle_alpha 90.000000
_cell_angle_beta 90.000000
_cell_angle_gamma 90.000000
_cell_volume 781.484296
_symmetry_space_group_name_H-M "P 21 21 2"
_symmetry_group_IT_number 18
_symmetry_cell_setting 'orthorhombic'
loop_
_space_group_symop_operation_xyz
x,y,z
-x,-y,z
1/2+x,1/2-y,-z
1/2-x,1/2+y,-z
loop_
_atom_site_type_symbol
_atom_site_label
_atom_site_fract_x
_atom_site_fract_y
_atom_site_fract_z
Si Si1 0.574211 0.549543 0.372523
Si Si2 0.008220 0.247650 0.335829
Si Si3 0.196174 0.534642 0.827910
Si Si4 0.784997 0.969214 0.800473
Si Si5 0.134497 0.848271 0.126152
O O1 0.554775 0.299496 0.499282
O O2 0.532125 0.723376 0.434005
O O3 0.593642 0.548770 0.060858
O O4 0.615715 0.642446 0.561031
O O5 0.000000 0.500000 0.190285
O O6 0.000000 0.000000 0.161254
O O7 0.200778 0.283877 0.668036
O O8 0.150202 0.592218 0.994854
O O9 0.207495 0.774997 0.647079
O O10 0.236043 0.532620 0.061651
O O11 0.821442 0.996081 0.056827
#
# Coordination Sequence:
#
# PCOD9312060 Si02
#       5
#     4   4   4   4   4
#     4   9  22  38  60  90 114 156 192 244 294 349
#     4   8  20  40  62  84 124 148 192 240 302 352
#     4   8  16  32  55  77 115 151 194 236 288 332
#     4   8  16  32  55  77 115 151 194 236 288 332
#     4  10  20  37  60  86 120 152 202 239 286 352
#
# _framework density 25.592320999999998
#
# number of rings (size 3 to 8) (size 9 to 14) (size 15 to 20)
#    2.400    0.800    0.000    0.000    0.000    6.400 
#    0.000    4.000    0.000    0.000    0.000    0.000 
#    0.000    0.000    0.000    0.000    0.000    0.000 
#
# Total GULP energy -111392.699968 kJ/mol
# GULP energy per Si atom -5569.634998 kJ/mol
# Density = 2.553407 g / cm^3
# Si number density = 25.592321 Si / 1000 Ang^3
#
#
#
# Elastic Constant Matrix: (Units=GPa)
#
#
# Indices 1 2 3 4 5 6 
#
# 1 96.5356 -43.6297 28.0565 0.0000 0.0000 0.0000
# 2 -43.6297 167.0676 14.8531 0.0000 0.0000 0.0000
# 3 28.0565 14.8531 67.5287 0.0000 0.0000 0.0000
# 4 0.0000 0.0000 0.0000 6.2866 0.0000 0.0000
# 5 0.0000 0.0000 0.0000 0.0000 32.1804 0.0000
# 6 0.0000 0.0000 0.0000 0.0000 0.0000 25.0247
#
#
#
# Elastic Compliance Matrix: (Units=1/GPa)
#
#
# Indices 1 2 3 4 5 6 
#
# 1 0.014339 0.004360 -0.006917 0.000000 0.000000 0.000000
# 2 0.004360 0.007430 -0.003446 0.000000 0.000000 0.000000
# 3 -0.006917 -0.003446 0.018440 0.000000 0.000000 0.000000
# 4 0.000000 0.000000 0.000000 0.159067 0.000000 0.000000
# 5 0.000000 0.000000 0.000000 0.000000 0.031075 0.000000
# 6 0.000000 0.000000 0.000000 0.000000 0.000000 0.039961
#
#
# Mechanical properties :
#
#
# Convention : Reuss Voigt Hill
#
# Bulk Modulus (GPa) = 35.45501 36.63239 36.04370
# Shear Modulus (GPa) = 17.13975 34.82180 25.98078
#
# Velocity S-wave (km/s) = 2.59071 3.69268 3.18964
# Velocity P-wave (km/s) = 4.77837 5.70316 5.26113
#
# Compressibility (1/GPa) = 0.02820476
#
# Stress axis : x y z
#
# Youngs Moduli (GPa) = 69.73773 134.58111 54.22972
#
# Poissons Ratio (x) = -0.58673 0.37508
# Poissons Ratio (y) = -0.30403 0.18686
# Poissons Ratio (z) = 0.48235 0.46372
#
# Static dielectric constant tensor:
#      x y z
#    x 1.994200 0.000000 0.000000 
#    y 0.000000 2.176140 0.000000 
#    z 0.000000 0.000000 1.901240 
# 
# From -- ./inp_files/2243.got.cif
#   From: 2010.05.17/outbox.cif.g08.bks.cpg/sg18_2_cif.got.tgz:2243.got - 2010.06.03 22:40:56.
