data_PCOD9312743
_publ_section_title
;
Structure prediction by ZEFSAII (Michael W. Deem and Ramdas Pophale) SiO2 
 PCOD9312743
Probable space group: P 21 21 2
;
_chemical_formula_sum "Si O2"
_cell_formula_units_Z 22
_cell_length_a 13.113567
_cell_length_b 12.026762
_cell_length_c 6.286497
_cell_angle_alpha 90.000000
_cell_angle_beta 90.000000
_cell_angle_gamma 90.000000
_cell_volume 991.467012
_symmetry_space_group_name_H-M "P 21 21 2"
_symmetry_group_IT_number 18
_symmetry_cell_setting 'orthorhombic'
loop_
_space_group_symop_operation_xyz
x,y,z
-x,-y,z
1/2+x,1/2-y,-z
1/2-x,1/2+y,-z
loop_
_atom_site_type_symbol
_atom_site_label
_atom_site_fract_x
_atom_site_fract_y
_atom_site_fract_z
Si Si1 0.169478 0.515267 0.828822
Si Si2 0.430585 0.834719 0.464472
Si Si3 0.437443 0.670714 0.098639
Si Si4 0.268800 0.744418 0.761192
Si Si5 0.859756 0.065386 0.942164
Si Si6 0.000000 0.500000 0.192279
O O1 0.112709 0.442567 0.655200
O O2 0.194291 0.639720 0.758863
O O3 0.280433 0.463830 0.873698
O O4 0.098839 0.510528 0.039835
O O5 0.473796 0.753741 0.283078
O O6 0.338995 0.761009 0.558154
O O7 0.491464 0.889498 0.660883
O O8 0.390391 0.551390 0.166871
O O9 0.539716 0.630041 0.978763
O O10 0.349706 0.727553 0.956279
O O11 0.202950 0.854418 0.790093
#
# Coordination Sequence:
#
# PCOD9312743 Si02
#       6
#     4   4   4   4   4   2
#     4  11  26  48  68 103 145 186 237 297 353 428
#     4  12  25  45  72 106 137 184 242 293 354 422
#     4  10  24  47  68 103 145 183 239 298 351 434
#     4  11  25  43  73  99 138 188 234 292 365 413
#     4  10  22  48  70  94 146 190 229 295 365 418
#     4  12  26  46  68 108 144 182 234 292 364 416
#
# _framework density 22.189339
#
# number of rings (size 3 to 8) (size 9 to 14) (size 15 to 20)
#    0.000    1.091    3.636    0.545   10.182    0.000 
#    3.273    1.818    0.000    0.000    0.000    0.000 
#    0.000    0.000    0.000    0.000    0.000    0.000 
#
# Total GULP energy -122901.043025 kJ/mol
# GULP energy per Si atom -5586.411047 kJ/mol
# Density = 2.213884 g / cm^3
# Si number density = 22.189339 Si / 1000 Ang^3
#
#
#
# Elastic Constant Matrix: (Units=GPa)
#
#
# Indices 1 2 3 4 5 6 
#
# 1 117.8730 57.4465 31.5813 0.0000 0.0000 0.0000
# 2 57.4465 112.8427 47.1603 0.0000 0.0000 0.0000
# 3 31.5813 47.1603 70.2527 0.0000 0.0000 0.0000
# 4 0.0000 0.0000 0.0000 21.2428 0.0000 0.0000
# 5 0.0000 0.0000 0.0000 0.0000 17.5563 0.0000
# 6 0.0000 0.0000 0.0000 0.0000 0.0000 34.4727
#
#
#
# Elastic Compliance Matrix: (Units=1/GPa)
#
#
# Indices 1 2 3 4 5 6 
#
# 1 0.011429 -0.005103 -0.001712 0.000000 0.000000 0.000000
# 2 -0.005103 0.014596 -0.007504 0.000000 0.000000 0.000000
# 3 -0.001712 -0.007504 0.020042 0.000000 0.000000 0.000000
# 4 0.000000 0.000000 0.000000 0.047075 0.000000 0.000000
# 5 0.000000 0.000000 0.000000 0.000000 0.056960 0.000000
# 6 0.000000 0.000000 0.000000 0.000000 0.000000 0.029009
#
#
# Mechanical properties :
#
#
# Convention : Reuss Voigt Hill
#
# Bulk Modulus (GPa) = 57.37904 63.70495 60.54199
# Shear Modulus (GPa) = 23.41278 25.63969 24.52624
#
# Velocity S-wave (km/s) = 3.25181 3.40295 3.32824
# Velocity P-wave (km/s) = 6.32566 6.64922 6.48946
#
# Compressibility (1/GPa) = 0.01742797
#
# Stress axis : x y z
#
# Youngs Moduli (GPa) = 87.49328 68.51222 49.89593
#
# Poissons Ratio (x) = 0.34961 0.08544
# Poissons Ratio (y) = 0.44647 0.37443
# Poissons Ratio (z) = 0.14983 0.51413
#
# Static dielectric constant tensor:
#      x y z
#    x 1.838850 0.000000 0.000000 
#    y 0.000000 1.826280 0.000000 
#    z 0.000000 0.000000 1.795010 
# 
# From -- ./inp_files/1464.got.cif
#   From: 2010.05.17/outbox.cif.g08.bks.cpg/sg18_1_cif.got.tgz:1464.got - 2010.06.03 22:40:56.
