data_PCOD9312063
_publ_section_title
;
Structure prediction by ZEFSAII (Michael W. Deem and Ramdas Pophale) SiO2 
 PCOD9312063
Probable space group: P 21 21 2
;
_chemical_formula_sum "Si O2"
_cell_formula_units_Z 16
_cell_length_a 5.045716
_cell_length_b 7.953548
_cell_length_c 19.788243
_cell_angle_alpha 90.000000
_cell_angle_beta 90.000000
_cell_angle_gamma 90.000000
_cell_volume 794.128795
_symmetry_space_group_name_H-M "P 21 21 2"
_symmetry_group_IT_number 18
_symmetry_cell_setting 'orthorhombic'
loop_
_space_group_symop_operation_xyz
x,y,z
-x,-y,z
1/2+x,1/2-y,-z
1/2-x,1/2+y,-z
loop_
_atom_site_type_symbol
_atom_site_label
_atom_site_fract_x
_atom_site_fract_y
_atom_site_fract_z
Si Si1 0.749697 0.376835 0.180957
Si Si2 0.250921 0.123623 0.670212
Si Si3 0.115667 0.188938 0.962462
Si Si4 0.377416 0.314896 0.536937
O O1 0.500000 0.500000 0.185645
O O2 0.239559 0.705996 0.254922
O O3 0.706671 0.267853 0.113883
O O4 0.000000 0.500000 0.170678
O O5 0.274800 0.254377 0.609686
O O6 0.500000 0.000000 0.667551
O O7 0.000000 0.000000 0.662230
O O8 0.374215 0.201314 0.009245
O O9 0.000000 0.000000 0.961829
O O10 0.500000 0.500000 0.537762
O O11 0.123194 0.300029 0.488043
#
# Coordination Sequence:
#
# PCOD9312063 Si02
#       4
#     4   4   4   4
#     4   9  18  34  57  83 112 149 191 233 282 344
#     4  10  20  37  61  85 111 148 194 238 283 337
#     4  11  21  36  58  86 116 151 192 236 285 340
#     4  12  24  39  60  88 119 152 189 235 284 339
#
# _framework density 20.147864999999999
#
# number of rings (size 3 to 8) (size 9 to 14) (size 15 to 20)
#    0.000    1.500    0.000    8.250    0.000    0.000 
#    0.000    1.250    0.000   12.000    0.000    1.750 
#    0.000    0.000    0.000    0.000    0.000    0.000 
#
# Total GULP energy -89347.866670 kJ/mol
# GULP energy per Si atom -5584.241667 kJ/mol
# Density = 2.010201 g / cm^3
# Si number density = 20.147865 Si / 1000 Ang^3
#
#
#
# Elastic Constant Matrix: (Units=GPa)
#
#
# Indices 1 2 3 4 5 6 
#
# 1 156.1182 19.4167 52.4053 0.0000 0.0000 0.0000
# 2 19.4167 54.0752 47.5188 0.0000 0.0000 0.0000
# 3 52.4053 47.5188 197.2189 0.0000 0.0000 0.0000
# 4 0.0000 0.0000 0.0000 31.5157 0.0000 0.0000
# 5 0.0000 0.0000 0.0000 0.0000 34.0202 0.0000
# 6 0.0000 0.0000 0.0000 0.0000 0.0000 32.4764
#
#
#
# Elastic Compliance Matrix: (Units=1/GPa)
#
#
# Indices 1 2 3 4 5 6 
#
# 1 0.007087 -0.001129 -0.001611 0.000000 0.000000 0.000000
# 2 -0.001129 0.023640 -0.005396 0.000000 0.000000 0.000000
# 3 -0.001611 -0.005396 0.006799 0.000000 0.000000 0.000000
# 4 0.000000 0.000000 0.000000 0.031730 0.000000 0.000000
# 5 0.000000 0.000000 0.000000 0.000000 0.029394 0.000000
# 6 0.000000 0.000000 0.000000 0.000000 0.000000 0.030792
#
#
# Mechanical properties :
#
#
# Convention : Reuss Voigt Hill
#
# Bulk Modulus (GPa) = 47.05121 71.78821 59.41971
# Shear Modulus (GPa) = 32.72308 38.80722 35.76515
#
# Velocity S-wave (km/s) = 4.03444 4.39352 4.21780
# Velocity P-wave (km/s) = 6.71610 7.83871 7.29902
#
# Compressibility (1/GPa) = 0.02125344
#
# Stress axis : x y z
#
# Youngs Moduli (GPa) = 141.11142 42.30160 147.08645
#
# Poissons Ratio (x) = 0.04775 0.23697
# Poissons Ratio (y) = 0.15929 0.79367
# Poissons Ratio (z) = 0.22734 0.22826
#
# Static dielectric constant tensor:
#      x y z
#    x 1.685050 0.000000 0.000000 
#    y 0.000000 1.674480 0.000000 
#    z 0.000000 0.000000 1.800330 
# 
# From -- ./inp_files/7055.got.cif
#   From: 2010.05.17/outbox.cif.g08.bks.cpg/sg18_4_cif.got.tgz:7055.got - 2010.06.03 22:40:56.
