data_PCOD9312763
_publ_section_title
;
Structure prediction by ZEFSAII (Michael W. Deem and Ramdas Pophale) SiO2 
 PCOD9312763
Probable space group: P 21 21 2
;
_chemical_formula_sum "Si O2"
_cell_formula_units_Z 24
_cell_length_a 5.914446
_cell_length_b 20.235509
_cell_length_c 9.456163
_cell_angle_alpha 90.000000
_cell_angle_beta 90.000000
_cell_angle_gamma 90.000000
_cell_volume 1131.730848
_symmetry_space_group_name_H-M "P 21 21 2"
_symmetry_group_IT_number 18
_symmetry_cell_setting 'orthorhombic'
loop_
_space_group_symop_operation_xyz
x,y,z
-x,-y,z
1/2+x,1/2-y,-z
1/2-x,1/2+y,-z
loop_
_atom_site_type_symbol
_atom_site_label
_atom_site_fract_x
_atom_site_fract_y
_atom_site_fract_z
Si Si1 0.342342 0.251944 0.167596
Si Si2 0.551055 0.710992 0.638645
Si Si3 0.249703 0.514109 0.394242
Si Si4 0.866285 0.836111 0.636680
Si Si5 0.300752 0.835777 0.088607
Si Si6 0.249575 0.969665 0.921524
O O1 0.173757 0.241845 0.295791
O O2 0.512195 0.309162 0.222506
O O3 0.449282 0.180085 0.142354
O O4 0.239081 0.275942 0.021270
O O5 0.697844 0.775588 0.604479
O O6 0.524410 0.665572 0.501832
O O7 0.653770 0.671303 0.770943
O O8 0.500000 0.500000 0.462737
O O9 0.257914 0.591823 0.350833
O O10 0.000000 0.500000 0.462100
O O11 0.252164 0.470491 0.250052
O O12 0.259536 0.900316 0.999895
O O13 0.500000 0.000000 0.957049
O O14 0.000000 0.000000 0.959106
#
# Coordination Sequence:
#
# PCOD9312763 Si02
#       6
#     4   4   4   4   4   4
#     4  11  22  39  66 102 130 177 217 293 347 406
#     4  11  24  41  66 102 135 181 215 300 355 404
#     4  10  23  41  68 102 129 183 235 286 327 410
#     4  11  24  42  71  98 141 174 237 280 355 421
#     4  11  24  39  67  99 139 169 232 285 352 415
#     4  10  23  40  66  97 132 182 228 284 338 404
#
# _framework density 21.206454999999998
#
# number of rings (size 3 to 8) (size 9 to 14) (size 15 to 20)
#    0.000    1.333    3.333    2.000    9.333    0.000 
#    0.000    0.833    0.000    0.000    0.000    0.000 
#    0.000    0.000    0.000    0.000    0.000    0.000 
#
# Total GULP energy -133682.331831 kJ/mol
# GULP energy per Si atom -5570.097160 kJ/mol
# Density = 2.115819 g / cm^3
# Si number density = 21.206455 Si / 1000 Ang^3
#
#
#
# Elastic Constant Matrix: (Units=GPa)
#
#
# Indices 1 2 3 4 5 6 
#
# 1 109.1591 17.5487 7.8474 0.0000 0.0000 0.0000
# 2 17.5487 22.5239 1.8180 0.0000 0.0000 0.0000
# 3 7.8474 1.8180 86.0364 0.0000 0.0000 0.0000
# 4 0.0000 0.0000 0.0000 17.9575 0.0000 0.0000
# 5 0.0000 0.0000 0.0000 0.0000 -23.1358 0.0000
# 6 0.0000 0.0000 0.0000 0.0000 0.0000 6.0863
#
#
#
# Elastic Compliance Matrix: (Units=1/GPa)
#
#
# Indices 1 2 3 4 5 6 
#
# 1 0.010526 -0.008137 -0.000788 0.000000 0.000000 0.000000
# 2 -0.008137 0.050764 -0.000330 0.000000 0.000000 0.000000
# 3 -0.000788 -0.000330 0.011702 0.000000 0.000000 0.000000
# 4 0.000000 0.000000 0.000000 0.055687 0.000000 0.000000
# 5 0.000000 0.000000 0.000000 0.000000 -0.043223 0.000000
# 6 0.000000 0.000000 0.000000 0.000000 0.000000 0.164304
#
#
# Mechanical properties :
#
#
# Convention : Reuss Voigt Hill
#
# Bulk Modulus (GPa) = 18.35539 30.23862 24.29700
# Shear Modulus (GPa) = 17.45624 12.88194 15.16909
#
# Velocity S-wave (km/s) = 2.87218 2.46733 2.67742
# Velocity P-wave (km/s) = 4.43549 4.73361 4.58698
#
# Compressibility (1/GPa) = 0.05447992
#
# Stress axis : x y z
#
# Youngs Moduli (GPa) = 95.00502 19.69906 85.45650
#
# Poissons Ratio (x) = 0.16029 0.06735
# Poissons Ratio (y) = 0.77307 0.02824
# Poissons Ratio (z) = 0.07488 0.00651
#
# Static dielectric constant tensor:
#      x y z
#    x 1.974060 0.000000 0.000000 
#    y 0.000000 1.762780 0.000000 
#    z 0.000000 0.000000 1.709570 
# 
# From -- ./inp_files/2557.got.cif
#   From: 2010.05.17/outbox.cif.g08.bks.cpg/sg18_2_cif.got.tgz:2557.got - 2010.06.03 22:40:56.
