data_PCOD9312343
_publ_section_title
;
Structure prediction by ZEFSAII (Michael W. Deem and Ramdas Pophale) SiO2 
 PCOD9312343
Probable space group: P 21 21 2
;
_chemical_formula_sum "Si O2"
_cell_formula_units_Z 22
_cell_length_a 7.491714
_cell_length_b 13.898891
_cell_length_c 9.586943
_cell_angle_alpha 90.000000
_cell_angle_beta 90.000000
_cell_angle_gamma 90.000000
_cell_volume 998.254976
_symmetry_space_group_name_H-M "P 21 21 2"
_symmetry_group_IT_number 18
_symmetry_cell_setting 'orthorhombic'
loop_
_space_group_symop_operation_xyz
x,y,z
-x,-y,z
1/2+x,1/2-y,-z
1/2-x,1/2+y,-z
loop_
_atom_site_type_symbol
_atom_site_label
_atom_site_fract_x
_atom_site_fract_y
_atom_site_fract_z
Si Si1 0.086094 0.174665 0.407741
Si Si2 0.831047 0.550275 0.311326
Si Si3 0.003853 0.384690 0.897098
Si Si4 0.000000 0.000000 0.555353
Si Si5 0.991276 0.646103 0.584665
Si Si6 0.185246 0.265298 0.141594
O O1 0.293053 0.141945 0.406629
O O2 0.047846 0.220447 0.256182
O O3 0.061886 0.248419 0.533954
O O4 0.963312 0.087316 0.451985
O O5 0.669142 0.480373 0.347317
O O6 0.747284 0.642934 0.233555
O O7 0.000000 0.500000 0.237061
O O8 0.914709 0.585365 0.457175
O O9 0.075080 0.379030 0.738209
O O10 0.817783 0.322743 0.893825
O O11 0.000000 0.500000 0.928663
O O12 0.115281 0.319814 0.005404
#
# Coordination Sequence:
#
# PCOD9312343 Si02
#       6
#     4   4   4   2   4   4
#     4  10  21  39  65 100 138 171 232 285 345 418
#     4  11  22  43  70 104 139 179 229 292 348 421
#     4  11  24  46  69  95 141 191 234 289 356 425
#     4  12  22  36  70 110 130 182 230 278 362 420
#     4  10  21  41  66  97 135 179 225 289 348 412
#     4  10  25  46  64 102 137 184 240 284 361 412
#
# _framework density 22.038459
#
# number of rings (size 3 to 8) (size 9 to 14) (size 15 to 20)
#    0.000    1.455    1.818    4.364    2.545    4.364 
#    9.818    0.000    0.000    0.000    0.000    0.000 
#    0.000    0.000    0.000    0.000    0.000    0.000 
#
# Total GULP energy -122564.463794 kJ/mol
# GULP energy per Si atom -5571.111991 kJ/mol
# Density = 2.198830 g / cm^3
# Si number density = 22.038459 Si / 1000 Ang^3
#
#
#
# Elastic Constant Matrix: (Units=GPa)
#
#
# Indices 1 2 3 4 5 6 
#
# 1 65.9192 23.1970 25.6627 0.0000 0.0000 0.0000
# 2 23.1970 149.8137 48.2443 0.0000 0.0000 0.0000
# 3 25.6627 48.2443 141.5620 0.0000 0.0000 0.0000
# 4 0.0000 0.0000 0.0000 59.4151 0.0000 0.0000
# 5 0.0000 0.0000 0.0000 0.0000 5.9925 0.0000
# 6 0.0000 0.0000 0.0000 0.0000 0.0000 32.4225
#
#
#
# Elastic Compliance Matrix: (Units=1/GPa)
#
#
# Indices 1 2 3 4 5 6 
#
# 1 0.016750 -0.001815 -0.002418 0.000000 0.000000 0.000000
# 2 -0.001815 0.007694 -0.002293 0.000000 0.000000 0.000000
# 3 -0.002418 -0.002293 0.008284 0.000000 0.000000 0.000000
# 4 0.000000 0.000000 0.000000 0.016831 0.000000 0.000000
# 5 0.000000 0.000000 0.000000 0.000000 0.166876 0.000000
# 6 0.000000 0.000000 0.000000 0.000000 0.000000 0.030843
#
#
# Mechanical properties :
#
#
# Convention : Reuss Voigt Hill
#
# Bulk Modulus (GPa) = 50.82287 61.27810 56.05048
# Shear Modulus (GPa) = 18.73437 36.91207 27.82322
#
# Velocity S-wave (km/s) = 2.91877 4.09699 3.55700
# Velocity P-wave (km/s) = 5.87112 7.08843 6.50830
#
# Compressibility (1/GPa) = 0.01967618
#
# Stress axis : x y z
#
# Youngs Moduli (GPa) = 59.70119 129.96343 120.71568
#
# Poissons Ratio (x) = 0.23587 0.29189
# Poissons Ratio (y) = 0.10835 0.27683
# Poissons Ratio (z) = 0.14436 0.29804
#
# Static dielectric constant tensor:
#      x y z
#    x 1.866720 0.000000 0.000000 
#    y 0.000000 1.883280 0.000000 
#    z 0.000000 0.000000 1.813320 
# 
# From -- ./inp_files/3101.got.cif
#   From: 2010.05.17/outbox.cif.g08.bks.cpg/sg18_2_cif.got.tgz:3101.got - 2010.06.03 22:40:56.
