data_PCOD9312816
_publ_section_title
;
Structure prediction by ZEFSAII (Michael W. Deem and Ramdas Pophale) SiO2 
 PCOD9312816
Probable space group: P 21 21 2
;
_chemical_formula_sum "Si O2"
_cell_formula_units_Z 16
_cell_length_a 15.323916
_cell_length_b 7.845867
_cell_length_c 5.306647
_cell_angle_alpha 90.000000
_cell_angle_beta 90.000000
_cell_angle_gamma 90.000000
_cell_volume 638.015021
_symmetry_space_group_name_H-M "P 21 21 2"
_symmetry_group_IT_number 18
_symmetry_cell_setting 'orthorhombic'
loop_
_space_group_symop_operation_xyz
x,y,z
-x,-y,z
1/2+x,1/2-y,-z
1/2-x,1/2+y,-z
loop_
_atom_site_type_symbol
_atom_site_label
_atom_site_fract_x
_atom_site_fract_y
_atom_site_fract_z
Si Si1 0.529455 0.243293 0.517515
Si Si2 0.739404 0.841591 0.857167
Si Si3 0.854100 0.077916 0.502898
Si Si4 0.389354 0.885269 0.006513
O O1 0.430867 0.286770 0.435622
O O2 0.584759 0.416486 0.560206
O O3 0.572586 0.145248 0.283675
O O4 0.542816 0.150518 0.783243
O O5 0.703779 0.681761 0.696239
O O6 0.814071 0.759323 0.027215
O O7 0.787164 0.990252 0.696806
O O8 0.658568 0.934246 0.986311
#
# Coordination Sequence:
#
# PCOD9312816 Si02
#       4
#     4   4   4   4
#     4  10  24  46  69  99 137 181 225 281 343 403
#     4  11  23  44  71 103 137 182 231 283 338 408
#     4  10  23  44  71 100 138 180 227 280 342 406
#     4  11  24  43  69  99 136 179 229 280 339 403
#
# _framework density 25.077780000000001
#
# number of rings (size 3 to 8) (size 9 to 14) (size 15 to 20)
#    0.000    1.500    0.000    4.500    0.000   15.000 
#    0.000    5.000    0.000    0.000    0.000    0.000 
#    0.000    0.000    0.000    0.000    0.000    0.000 
#
# Total GULP energy -89487.817227 kJ/mol
# GULP energy per Si atom -5592.988577 kJ/mol
# Density = 2.502070 g / cm^3
# Si number density = 25.077780 Si / 1000 Ang^3
#
#
#
# Elastic Constant Matrix: (Units=GPa)
#
#
# Indices 1 2 3 4 5 6 
#
# 1 127.7391 61.0274 48.3938 0.0000 0.0000 0.0000
# 2 61.0274 134.5375 67.7997 0.0000 0.0000 0.0000
# 3 48.3938 67.7997 97.6987 0.0000 0.0000 0.0000
# 4 0.0000 0.0000 0.0000 57.5542 0.0000 0.0000
# 5 0.0000 0.0000 0.0000 0.0000 167.1769 0.0000
# 6 0.0000 0.0000 0.0000 0.0000 0.0000 73.9966
#
#
#
# Elastic Compliance Matrix: (Units=1/GPa)
#
#
# Indices 1 2 3 4 5 6 
#
# 1 0.010509 -0.003296 -0.002918 0.000000 0.000000 0.000000
# 2 -0.003296 0.012464 -0.007017 0.000000 0.000000 0.000000
# 3 -0.002918 -0.007017 0.016550 0.000000 0.000000 0.000000
# 4 0.000000 0.000000 0.000000 0.017375 0.000000 0.000000
# 5 0.000000 0.000000 0.000000 0.000000 0.005982 0.000000
# 6 0.000000 0.000000 0.000000 0.000000 0.000000 0.013514
#
#
# Mechanical properties :
#
#
# Convention : Reuss Voigt Hill
#
# Bulk Modulus (GPa) = 76.56331 79.37967 77.97149
# Shear Modulus (GPa) = 46.63730 71.92916 59.28323
#
# Velocity S-wave (km/s) = 4.31711 5.36141 4.86735
# Velocity P-wave (km/s) = 7.44624 8.36949 7.92133
#
# Compressibility (1/GPa) = 0.01306109
#
# Stress axis : x y z
#
# Youngs Moduli (GPa) = 95.15901 80.22864 60.42157
#
# Poissons Ratio (x) = 0.26447 0.17629
# Poissons Ratio (y) = 0.31369 0.42398
# Poissons Ratio (z) = 0.27765 0.56296
#
# Static dielectric constant tensor:
#      x y z
#    x 2.033590 0.000000 0.000000 
#    y 0.000000 1.965540 0.000000 
#    z 0.000000 0.000000 1.931410 
# 
# From -- ./inp_files/1705.got.cif
#   From: 2010.05.17/outbox.cif.g08.bks.cpg/sg18_1_cif.got.tgz:1705.got - 2010.06.03 22:40:56.
