data_PCOD9312725
_publ_section_title
;
Structure prediction by ZEFSAII (Michael W. Deem and Ramdas Pophale) SiO2 
 PCOD9312725
Probable space group: P 21 21 2
;
_chemical_formula_sum "Si O2"
_cell_formula_units_Z 30
_cell_length_a 19.514877
_cell_length_b 5.209633
_cell_length_c 12.035221
_cell_angle_alpha 90.000000
_cell_angle_beta 90.000000
_cell_angle_gamma 90.000000
_cell_volume 1223.564922
_symmetry_space_group_name_H-M "P 21 21 2"
_symmetry_group_IT_number 18
_symmetry_cell_setting 'orthorhombic'
loop_
_space_group_symop_operation_xyz
x,y,z
-x,-y,z
1/2+x,1/2-y,-z
1/2-x,1/2+y,-z
loop_
_atom_site_type_symbol
_atom_site_label
_atom_site_fract_x
_atom_site_fract_y
_atom_site_fract_z
Si Si1 0.572477 0.088433 0.186671
Si Si2 0.624075 0.301656 0.716000
Si Si3 0.820609 0.421487 0.956071
Si Si4 0.798290 0.056109 0.480770
Si Si5 0.744290 0.069404 0.816179
Si Si6 0.000000 0.500000 0.244993
Si Si7 0.071534 0.893525 0.077045
Si Si8 0.618488 0.560788 0.303067
O O1 0.626668 0.133898 0.087270
O O2 0.598391 0.840973 0.257239
O O3 0.500000 0.000000 0.139087
O O4 0.567735 0.336019 0.264874
O O5 0.662272 0.498256 0.634841
O O6 0.680330 0.082472 0.735735
O O7 0.550878 0.179456 0.683698
O O8 0.607889 0.411718 0.838436
O O9 0.769042 0.351759 0.857422
O O10 0.778034 0.449630 0.067785
O O11 0.875243 0.199082 0.985784
O O12 0.749196 0.809323 0.507175
O O13 0.860047 0.074896 0.569495
O O14 0.809893 0.969264 0.753333
O O15 0.047016 0.668292 0.161835
O O16 0.000000 0.000000 0.029875
#
# Coordination Sequence:
#
# PCOD9312725 Si02
#       8
#     4   4   4   4   4   2   4   4
#     4  11  26  47  72  99 146 193 239 288 343 425
#     4  11  24  43  72 101 144 181 239 298 366 428
#     4  11  23  37  67 100 138 186 236 285 356 417
#     4  12  27  46  79 109 137 186 233 298 373 428
#     4  11  22  40  64 105 136 183 224 302 347 426
#     4  10  22  46  62 100 136 192 222 300 350 420
#     4  10  23  40  65  95 141 181 241 291 350 421
#     4  11  25  48  70 106 141 182 241 296 359 422
#
# _framework density 24.518519999999999
#
# number of rings (size 3 to 8) (size 9 to 14) (size 15 to 20)
#    0.000    1.067    2.667    2.800    6.533    3.200 
#    1.200    2.667    0.000    0.000    0.000    0.000 
#    0.000    0.000    0.000    0.000    0.000    0.000 
#
# Total GULP energy -167754.723456 kJ/mol
# GULP energy per Si atom -5591.824115 kJ/mol
# Density = 2.446271 g / cm^3
# Si number density = 24.518520 Si / 1000 Ang^3
#
#
#
# Elastic Constant Matrix: (Units=GPa)
#
#
# Indices 1 2 3 4 5 6 
#
# 1 108.9286 21.5212 10.8202 0.0000 0.0000 0.0000
# 2 21.5212 105.0128 2.3230 0.0000 0.0000 0.0000
# 3 10.8202 2.3230 68.8736 0.0000 0.0000 0.0000
# 4 0.0000 0.0000 0.0000 24.6538 0.0000 0.0000
# 5 0.0000 0.0000 0.0000 0.0000 26.3056 0.0000
# 6 0.0000 0.0000 0.0000 0.0000 0.0000 37.6868
#
#
#
# Elastic Compliance Matrix: (Units=1/GPa)
#
#
# Indices 1 2 3 4 5 6 
#
# 1 0.009712 -0.001958 -0.001460 0.000000 0.000000 0.000000
# 2 -0.001958 0.009925 -0.000027 0.000000 0.000000 0.000000
# 3 -0.001460 -0.000027 0.014750 0.000000 0.000000 0.000000
# 4 0.000000 0.000000 0.000000 0.040562 0.000000 0.000000
# 5 0.000000 0.000000 0.000000 0.000000 0.038015 0.000000
# 6 0.000000 0.000000 0.000000 0.000000 0.000000 0.026534
#
#
# Mechanical properties :
#
#
# Convention : Reuss Voigt Hill
#
# Bulk Modulus (GPa) = 36.36846 39.12708 37.74777
# Shear Modulus (GPa) = 32.14346 34.27262 33.20804
#
# Velocity S-wave (km/s) = 3.62468 3.74281 3.68422
# Velocity P-wave (km/s) = 5.69061 5.88820 5.79025
#
# Compressibility (1/GPa) = 0.02749636
#
# Stress axis : x y z
#
# Youngs Moduli (GPa) = 102.96336 100.76029 67.79847
#
# Poissons Ratio (x) = 0.19730 0.09897
# Poissons Ratio (y) = 0.20161 0.00184
# Poissons Ratio (z) = 0.15030 0.00273
#
# Static dielectric constant tensor:
#      x y z
#    x 1.982610 0.000000 0.000000 
#    y 0.000000 2.043140 0.000000 
#    z 0.000000 0.000000 1.906710 
# 
# From -- ./inp_files/6289.got.cif
#   From: 2010.05.17/outbox.cif.g08.bks.cpg/sg18_4_cif.got.tgz:6289.got - 2010.06.03 22:40:56.
