data_PCOD9312585
_publ_section_title
;
Structure prediction by ZEFSAII (Michael W. Deem and Ramdas Pophale) SiO2 
 PCOD9312585
Probable space group: P 21 21 2
;
_chemical_formula_sum "Si O2"
_cell_formula_units_Z 20
_cell_length_a 9.035660
_cell_length_b 7.850071
_cell_length_c 11.331672
_cell_angle_alpha 90.000000
_cell_angle_beta 90.000000
_cell_angle_gamma 90.000000
_cell_volume 803.761983
_symmetry_space_group_name_H-M "P 21 21 2"
_symmetry_group_IT_number 18
_symmetry_cell_setting 'orthorhombic'
loop_
_space_group_symop_operation_xyz
x,y,z
-x,-y,z
1/2+x,1/2-y,-z
1/2-x,1/2+y,-z
loop_
_atom_site_type_symbol
_atom_site_label
_atom_site_fract_x
_atom_site_fract_y
_atom_site_fract_z
Si Si1 0.974200 0.809208 0.784176
Si Si2 0.851523 0.385818 0.612364
Si Si3 0.193473 0.777315 0.359616
Si Si4 0.554063 0.756195 0.884184
Si Si5 0.680678 0.095085 0.011462
O O1 0.844399 0.812479 0.686337
O O2 0.120358 0.741055 0.720281
O O3 0.914087 0.668663 0.876635
O O4 0.000000 0.000000 0.829077
O O5 0.840108 0.290315 0.488785
O O6 0.721658 0.520366 0.633485
O O7 0.000000 0.500000 0.607637
O O8 0.078991 0.739066 0.255162
O O9 0.382657 0.773283 0.914309
O O10 0.636272 0.917715 0.949748
O O11 0.652606 0.608481 0.943009
#
# Coordination Sequence:
#
# PCOD9312585 Si02
#       5
#     4   4   4   4   4
#     4  10  22  41  69  95 132 180 221 274 346 404
#     4  10  22  40  70  95 134 171 229 278 337 406
#     4  10  22  41  65  98 131 177 221 282 335 393
#     4  10  24  41  68  97 138 173 227 273 339 395
#     4  10  24  42  67  97 135 176 219 278 336 405
#
# _framework density 24.882988999999998
#
# number of rings (size 3 to 8) (size 9 to 14) (size 15 to 20)
#    0.000    2.000    0.000    1.200   22.400    0.000 
#    0.000    0.000   26.400    0.000    0.000    0.000 
#    0.000    0.000    0.000    0.000    0.000    0.000 
#
# Total GULP energy -111778.337358 kJ/mol
# GULP energy per Si atom -5588.916868 kJ/mol
# Density = 2.482635 g / cm^3
# Si number density = 24.882989 Si / 1000 Ang^3
#
#
#
# Elastic Constant Matrix: (Units=GPa)
#
#
# Indices 1 2 3 4 5 6 
#
# 1 34.2475 -7.4888 35.9966 0.0000 0.0000 0.0000
# 2 -7.4888 132.8151 53.0952 0.0000 0.0000 0.0000
# 3 35.9966 53.0952 163.9187 0.0000 0.0000 0.0000
# 4 0.0000 0.0000 0.0000 33.6360 0.0000 0.0000
# 5 0.0000 0.0000 0.0000 0.0000 57.0105 0.0000
# 6 0.0000 0.0000 0.0000 0.0000 0.0000 23.2552
#
#
#
# Elastic Compliance Matrix: (Units=1/GPa)
#
#
# Indices 1 2 3 4 5 6 
#
# 1 0.043157 0.007148 -0.011793 0.000000 0.000000 0.000000
# 2 0.007148 0.009833 -0.004755 0.000000 0.000000 0.000000
# 3 -0.011793 -0.004755 0.010230 0.000000 0.000000 0.000000
# 4 0.000000 0.000000 0.000000 0.029730 0.000000 0.000000
# 5 0.000000 0.000000 0.000000 0.000000 0.017541 0.000000
# 6 0.000000 0.000000 0.000000 0.000000 0.000000 0.043001
#
#
# Mechanical properties :
#
#
# Convention : Reuss Voigt Hill
#
# Bulk Modulus (GPa) = 22.51167 54.90969 38.71068
# Shear Modulus (GPa) = 26.72389 39.40554 33.06472
#
# Velocity S-wave (km/s) = 3.28072 3.98381 3.64924
# Velocity P-wave (km/s) = 4.83916 6.57845 5.77467
#
# Compressibility (1/GPa) = 0.04442141
#
# Stress axis : x y z
#
# Youngs Moduli (GPa) = 23.17119 101.69771 97.74859
#
# Poissons Ratio (x) = -0.72690 1.15270
# Poissons Ratio (y) = -0.16562 0.46476
# Poissons Ratio (z) = 0.27325 0.48354
#
# Static dielectric constant tensor:
#      x y z
#    x 2.092840 0.000000 0.000000 
#    y 0.000000 2.028320 0.000000 
#    z 0.000000 0.000000 1.959090 
# 
# From -- ./inp_files/3661.got.cif
#   From: 2010.05.17/outbox.cif.g08.bks.cpg/sg18_2_cif.got.tgz:3661.got - 2010.06.03 22:40:56.
