data_PCOD9312486
_publ_section_title
;
Structure prediction by ZEFSAII (Michael W. Deem and Ramdas Pophale) SiO2 
 PCOD9312486
Probable space group: P 21 21 2
;
_chemical_formula_sum "Si O2"
_cell_formula_units_Z 30
_cell_length_a 22.312877
_cell_length_b 5.137093
_cell_length_c 12.851101
_cell_angle_alpha 90.000000
_cell_angle_beta 90.000000
_cell_angle_gamma 90.000000
_cell_volume 1473.035917
_symmetry_space_group_name_H-M "P 21 21 2"
_symmetry_group_IT_number 18
_symmetry_cell_setting 'orthorhombic'
loop_
_space_group_symop_operation_xyz
x,y,z
-x,-y,z
1/2+x,1/2-y,-z
1/2-x,1/2+y,-z
loop_
_atom_site_type_symbol
_atom_site_label
_atom_site_fract_x
_atom_site_fract_y
_atom_site_fract_z
Si Si1 0.298661 0.824910 0.890591
Si Si2 0.208446 0.504922 0.494312
Si Si3 0.623101 0.189385 0.690178
Si Si4 0.000000 0.500000 0.383616
Si Si5 0.567634 0.575848 0.554320
Si Si6 0.432165 0.586839 0.322683
Si Si7 0.280836 0.830411 0.122563
Si Si8 0.864921 0.416590 0.705060
O O1 0.348739 0.841435 0.802724
O O2 0.273837 0.532577 0.884383
O O3 0.247051 0.041540 0.866150
O O4 0.314879 0.859107 0.011909
O O5 0.254403 0.743629 0.479052
O O6 0.167850 0.448835 0.392632
O O7 0.167423 0.580801 0.592728
O O8 0.614036 0.480862 0.640400
O O9 0.554259 0.092069 0.691214
O O10 0.951896 0.369454 0.464100
O O11 0.500000 0.500000 0.593783
O O12 0.580385 0.440517 0.446550
O O13 0.500000 0.500000 0.305229
O O14 0.420032 0.882658 0.294595
O O15 0.387366 0.374976 0.271638
O O16 0.319811 0.946858 0.215086
#
# Coordination Sequence:
#
# PCOD9312486 Si02
#       8
#     4   4   4   2   4   4   4   4
#     4  10  22  40  67  90 120 159 211 259 312 371
#     4  12  25  37  56  90 129 162 200 250 321 374
#     4  11  22  38  61  89 126 165 206 263 315 375
#     4  10  22  36  62  86 124 164 216 252 310 380
#     4   9  20  35  54  86 119 159 203 245 298 369
#     4  11  23  37  60  87 120 166 206 249 295 372
#     4  10  22  42  63  93 118 163 211 254 311 379
#     4  12  22  39  60  86 126 160 201 254 305 365
#
# _framework density 20.366102999999999
#
# number of rings (size 3 to 8) (size 9 to 14) (size 15 to 20)
#    0.000    1.333    1.333    4.400    7.467    0.000 
#    0.000    0.000    2.933    0.800    0.000    0.000 
#    0.000    0.000    0.000    0.000    0.000    0.000 
#
# Total GULP energy -167071.740822 kJ/mol
# GULP energy per Si atom -5569.058027 kJ/mol
# Density = 2.031975 g / cm^3
# Si number density = 20.366103 Si / 1000 Ang^3
#
#
#
# Elastic Constant Matrix: (Units=GPa)
#
#
# Indices 1 2 3 4 5 6 
#
# 1 72.4382 16.0344 21.5035 0.0000 0.0000 0.0000
# 2 16.0344 50.4693 -18.3520 0.0000 0.0000 0.0000
# 3 21.5035 -18.3520 54.4344 0.0000 0.0000 0.0000
# 4 0.0000 0.0000 0.0000 18.6133 0.0000 0.0000
# 5 0.0000 0.0000 0.0000 0.0000 21.9281 0.0000
# 6 0.0000 0.0000 0.0000 0.0000 0.0000 36.9502
#
#
#
# Elastic Compliance Matrix: (Units=1/GPa)
#
#
# Indices 1 2 3 4 5 6 
#
# 1 0.019342 -0.010170 -0.011070 0.000000 0.000000 0.000000
# 2 -0.010170 0.027930 0.013434 0.000000 0.000000 0.000000
# 3 -0.011070 0.013434 0.027273 0.000000 0.000000 0.000000
# 4 0.000000 0.000000 0.000000 0.053725 0.000000 0.000000
# 5 0.000000 0.000000 0.000000 0.000000 0.045604 0.000000
# 6 0.000000 0.000000 0.000000 0.000000 0.000000 0.027063
#
#
# Mechanical properties :
#
#
# Convention : Reuss Voigt Hill
#
# Bulk Modulus (GPa) = 16.96838 23.96821 20.46830
# Shear Modulus (GPa) = 21.16907 26.04206 23.60556
#
# Velocity S-wave (km/s) = 3.22751 3.57977 3.40819
# Velocity P-wave (km/s) = 4.71581 5.37406 5.05566
#
# Compressibility (1/GPa) = 0.05893314
#
# Stress axis : x y z
#
# Youngs Moduli (GPa) = 51.70045 35.80351 36.66657
#
# Poissons Ratio (x) = 0.36414 0.40589
# Poissons Ratio (y) = 0.52581 -0.49258
# Poissons Ratio (z) = 0.57231 -0.48099
#
# Static dielectric constant tensor:
#      x y z
#    x 1.742300 0.000000 0.000000 
#    y 0.000000 1.353370 0.000000 
#    z 0.000000 0.000000 1.787700 
# 
# From -- ./inp_files/6292.got.cif
#   From: 2010.05.17/outbox.cif.g08.bks.cpg/sg18_4_cif.got.tgz:6292.got - 2010.06.03 22:40:56.
