data_PCOD9312856
_publ_section_title
;
Structure prediction by ZEFSAII (Michael W. Deem and Ramdas Pophale) SiO2 
 PCOD9312856
Probable space group: P 21 21 2
;
_chemical_formula_sum "Si O2"
_cell_formula_units_Z 30
_cell_length_a 5.292887
_cell_length_b 27.146749
_cell_length_c 8.551051
_cell_angle_alpha 90.000000
_cell_angle_beta 90.000000
_cell_angle_gamma 90.000000
_cell_volume 1228.654983
_symmetry_space_group_name_H-M "P 21 21 2"
_symmetry_group_IT_number 18
_symmetry_cell_setting 'orthorhombic'
loop_
_space_group_symop_operation_xyz
x,y,z
-x,-y,z
1/2+x,1/2-y,-z
1/2-x,1/2+y,-z
loop_
_atom_site_type_symbol
_atom_site_label
_atom_site_fract_x
_atom_site_fract_y
_atom_site_fract_z
Si Si1 0.999874 0.930029 0.504133
Si Si2 0.670599 0.877966 0.729929
Si Si3 0.552097 0.315001 0.028115
Si Si4 0.375063 0.850747 0.452241
Si Si5 0.370483 0.948898 0.930490
Si Si6 0.500000 0.500000 0.252904
Si Si7 0.945681 0.703073 0.850571
Si Si8 0.402117 0.053025 0.279065
O O1 0.774926 0.924091 0.630765
O O2 0.892108 0.944505 0.334210
O O3 0.107126 0.874580 0.496095
O O4 0.156341 0.969502 0.605295
O O5 0.535628 0.841847 0.607439
O O6 0.878306 0.851826 0.834247
O O7 0.463102 0.901421 0.840618
O O8 0.284899 0.322003 0.944559
O O9 0.781763 0.317473 0.902934
O O10 0.555943 0.260199 0.101535
O O11 0.389171 0.806888 0.330456
O O12 0.487496 0.898862 0.363389
O O13 0.486654 0.944060 0.104050
O O14 0.500000 0.000000 0.870488
O O15 0.080565 0.959542 0.885488
O O16 0.500000 0.000000 0.334416
#
# Coordination Sequence:
#
# PCOD9312856 Si02
#       8
#     4   4   4   4   4   2   4   4
#     4  11  24  38  62  90 130 179 216 285 344 414
#     4  11  24  40  64  98 133 176 223 286 346 416
#     4  10  24  48  73 103 138 179 234 284 354 415
#     4  11  24  41  64  98 133 178 229 279 357 418
#     4  11  23  40  60  89 126 172 226 277 334 406
#     4  12  22  40  66  88 134 178 230 286 348 404
#     4  10  24  47  75 101 137 185 226 291 349 424
#     4  10  24  40  61  91 130 175 231 281 338 407
#
# _framework density 24.416944999999998
#
# number of rings (size 3 to 8) (size 9 to 14) (size 15 to 20)
#    0.000    1.333    2.667    1.600    9.333    3.200 
#    2.400    0.000    0.000    0.000    0.000    0.000 
#    0.000    0.000    0.000    0.000    0.000    0.000 
#
# Total GULP energy -167133.316929 kJ/mol
# GULP energy per Si atom -5571.110564 kJ/mol
# Density = 2.436137 g / cm^3
# Si number density = 24.416945 Si / 1000 Ang^3
#
#
#
# Elastic Constant Matrix: (Units=GPa)
#
#
# Indices 1 2 3 4 5 6 
#
# 1 73.5373 17.8807 27.9407 0.0000 0.0000 0.0000
# 2 17.8807 24.2887 17.8627 0.0000 0.0000 0.0000
# 3 27.9407 17.8627 129.1971 0.0000 0.0000 0.0000
# 4 0.0000 0.0000 0.0000 -217.6862 0.0000 0.0000
# 5 0.0000 0.0000 0.0000 0.0000 39.4924 0.0000
# 6 0.0000 0.0000 0.0000 0.0000 0.0000 32.3684
#
#
#
# Elastic Compliance Matrix: (Units=1/GPa)
#
#
# Indices 1 2 3 4 5 6 
#
# 1 0.017097 -0.010984 -0.002179 0.000000 0.000000 0.000000
# 2 -0.010984 0.052888 -0.004937 0.000000 0.000000 0.000000
# 3 -0.002179 -0.004937 0.008894 0.000000 0.000000 0.000000
# 4 0.000000 0.000000 0.000000 -0.004594 0.000000 0.000000
# 5 0.000000 0.000000 0.000000 0.000000 0.025321 0.000000
# 6 0.000000 0.000000 0.000000 0.000000 0.000000 0.030894
#
#
# Mechanical properties :
#
#
# Convention : Reuss Voigt Hill
#
# Bulk Modulus (GPa) = 23.43027 39.37681 31.40354
# Shear Modulus (GPa) = 27.63537 -18.27581 4.67978
#
# Velocity S-wave (km/s) = 3.36789 -2.73882 1.38592
# Velocity P-wave (km/s) = 4.97396 2.48200 3.93069
#
# Compressibility (1/GPa) = 0.04267984
#
# Stress axis : x y z
#
# Youngs Moduli (GPa) = 58.48909 18.90776 112.43677
#
# Poissons Ratio (x) = 0.20768 0.24498
# Poissons Ratio (y) = 0.64245 0.55508
# Poissons Ratio (z) = 0.12744 0.09334
#
# Static dielectric constant tensor:
#      x y z
#    x 3.292920 0.000000 0.000000 
#    y 0.000000 -0.947810 0.000000 
#    z 0.000000 0.000000 1.959820 
# 
# From -- ./inp_files/2661.got.cif
#   From: 2010.05.17/outbox.cif.g08.bks.cpg/sg18_2_cif.got.tgz:2661.got - 2010.06.03 22:40:56.
