data_PCOD9312651
_publ_section_title
;
Structure prediction by ZEFSAII (Michael W. Deem and Ramdas Pophale) SiO2 
 PCOD9312651
Probable space group: P 21 21 2
;
_chemical_formula_sum "Si O2"
_cell_formula_units_Z 20
_cell_length_a 6.063590
_cell_length_b 11.633449
_cell_length_c 12.237494
_cell_angle_alpha 90.000000
_cell_angle_beta 90.000000
_cell_angle_gamma 90.000000
_cell_volume 863.238517
_symmetry_space_group_name_H-M "P 21 21 2"
_symmetry_group_IT_number 18
_symmetry_cell_setting 'orthorhombic'
loop_
_space_group_symop_operation_xyz
x,y,z
-x,-y,z
1/2+x,1/2-y,-z
1/2-x,1/2+y,-z
loop_
_atom_site_type_symbol
_atom_site_label
_atom_site_fract_x
_atom_site_fract_y
_atom_site_fract_z
Si Si1 0.118504 0.186481 0.359501
Si Si2 0.618504 0.686481 0.859501
Si Si3 0.324822 0.100950 0.566803
Si Si4 0.500000 0.336181 0.250000
Si Si5 0.675178 0.100950 0.933197
O O1 0.201947 0.099379 0.450962
O O2 0.331608 0.256984 0.318364
O O3 1.000000 0.141436 0.250000
O O4 0.953049 0.277865 0.416637
O O5 0.831608 0.756985 0.818364
O O6 0.453049 0.777865 0.916637
O O7 0.701947 0.599380 0.950962
O O8 0.151412 0.096724 0.664686
O O9 0.500000 0.000000 0.575630
O O10 0.348588 0.403276 0.164686
O O11 0.500000 0.000000 0.924370
#
# Coordination Sequence:
#
# PCOD9312651 Si02
#       5
#     4   4   4   4   4
#     4  10  22  42  71 100 141 182 232 300 349 411
#     4  10  22  42  71 100 141 182 232 300 349 411
#     4  11  23  42  74 104 138 186 236 290 357 416
#     4  10  22  43  69 100 142 176 241 294 341 414
#     4  11  23  42  74 104 138 186 236 290 357 416
#
# _framework density 23.168568
#
# number of rings (size 3 to 8) (size 9 to 14) (size 15 to 20)
#    0.000    1.600    4.000    0.000    0.000   10.400 
#    0.000    1.000    8.800    2.400    0.000    0.000 
#    0.000    0.000    0.000    0.000    0.000    0.000 
#
# Total GULP energy -112074.144851 kJ/mol
# GULP energy per Si atom -5603.707243 kJ/mol
# Density = 2.311584 g / cm^3
# Si number density = 23.168568 Si / 1000 Ang^3
#
#
#
# Elastic Constant Matrix: (Units=GPa)
#
#
# Indices 1 2 3 4 5 6 
#
# 1 164.1857 52.1806 105.1673 0.0000 0.0000 0.0000
# 2 52.1806 52.0403 52.6248 0.0000 0.0000 0.0000
# 3 105.1673 52.6248 226.4385 0.0000 0.0000 0.0000
# 4 0.0000 0.0000 0.0000 23.4479 0.0000 0.0000
# 5 0.0000 0.0000 0.0000 0.0000 56.9423 0.0000
# 6 0.0000 0.0000 0.0000 0.0000 0.0000 34.4100
#
#
#
# Elastic Compliance Matrix: (Units=1/GPa)
#
#
# Indices 1 2 3 4 5 6 
#
# 1 0.010415 -0.007257 -0.003151 0.000000 0.000000 0.000000
# 2 -0.007257 0.030176 -0.003642 0.000000 0.000000 0.000000
# 3 -0.003151 -0.003642 0.006726 0.000000 0.000000 0.000000
# 4 0.000000 0.000000 0.000000 0.042648 0.000000 0.000000
# 5 0.000000 0.000000 0.000000 0.000000 0.017562 0.000000
# 6 0.000000 0.000000 0.000000 0.000000 0.000000 0.029061
#
#
# Mechanical properties :
#
#
# Convention : Reuss Voigt Hill
#
# Bulk Modulus (GPa) = 52.03829 95.84555 73.94192
# Shear Modulus (GPa) = 29.22365 38.47282 33.84824
#
# Velocity S-wave (km/s) = 3.55540 4.07942 3.82639
# Velocity P-wave (km/s) = 6.27407 7.97794 7.17675
#
# Compressibility (1/GPa) = 0.01921662
#
# Stress axis : x y z
#
# Youngs Moduli (GPa) = 96.01301 33.13886 148.67660
#
# Poissons Ratio (x) = 0.24050 0.46843
# Poissons Ratio (y) = 0.69679 0.54154
# Poissons Ratio (z) = 0.30250 0.12070
#
# Static dielectric constant tensor:
#      x y z
#    x 1.832960 0.000000 0.000000 
#    y 0.000000 1.891190 0.000000 
#    z 0.000000 0.000000 1.842010 
# 
# From -- ./inp_files/1444.got.cif
#   From: 2010.05.17/outbox.cif.g08.bks.cpg/sg18_1_cif.got.tgz:1444.got - 2010.06.03 22:40:56.
