data_PCOD9312284
_publ_section_title
;
Structure prediction by ZEFSAII (Michael W. Deem and Ramdas Pophale) SiO2 
 PCOD9312284
Probable space group: P 21 21 2
;
_chemical_formula_sum "Si O2"
_cell_formula_units_Z 24
_cell_length_a 15.518723
_cell_length_b 7.796116
_cell_length_c 8.362712
_cell_angle_alpha 90.000000
_cell_angle_beta 90.000000
_cell_angle_gamma 90.000000
_cell_volume 1011.769106
_symmetry_space_group_name_H-M "P 21 21 2"
_symmetry_group_IT_number 18
_symmetry_cell_setting 'orthorhombic'
loop_
_space_group_symop_operation_xyz
x,y,z
-x,-y,z
1/2+x,1/2-y,-z
1/2-x,1/2+y,-z
loop_
_atom_site_type_symbol
_atom_site_label
_atom_site_fract_x
_atom_site_fract_y
_atom_site_fract_z
Si Si1 0.327680 0.858221 0.170729
Si Si2 0.161749 0.992397 0.000443
Si Si3 0.709973 0.852728 0.609794
Si Si4 0.838528 0.146649 0.669184
Si Si5 0.954542 0.224777 0.206027
Si Si6 0.500000 0.500000 0.523775
Si Si7 0.500000 0.000000 0.057203
O O1 0.344025 0.680084 0.073968
O O2 0.280321 0.788844 0.330248
O O3 0.255402 0.964661 0.075668
O O4 0.417201 0.959565 0.166813
O O5 0.147490 0.855962 0.857193
O O6 0.090647 0.943810 0.130153
O O7 0.681059 0.817643 0.428829
O O8 0.626431 0.827903 0.719566
O O9 0.754491 0.030843 0.643062
O O10 0.918133 0.048579 0.583851
O O11 0.992106 0.340122 0.065654
O O12 0.010701 0.163592 0.357756
#
# Coordination Sequence:
#
# PCOD9312284 Si02
#       7
#     4   4   4   4   4   2   2
#     4  10  21  37  59  86 115 147 192 239 283 337
#     4  10  21  40  62  85 115 155 194 232 283 348
#     4   9  21  39  56  80 114 152 186 225 284 349
#     4  10  21  37  59  83 112 149 189 230 283 341
#     4  10  22  39  58  83 115 150 190 235 287 336
#     4  10  22  38  56  82 114 148 186 238 290 332
#     4  12  22  34  60  90 112 144 196 246 282 328
#
# _framework density 23.720828000000001
#
# number of rings (size 3 to 8) (size 9 to 14) (size 15 to 20)
#    0.000    2.000    0.000    4.000    0.000   11.333 
#    0.000    3.333    0.000    5.000    0.000    0.000 
#    0.000    0.000    0.000    0.000    0.000    0.000 
#
# Total GULP energy -134188.368210 kJ/mol
# GULP energy per Si atom -5591.182009 kJ/mol
# Density = 2.366684 g / cm^3
# Si number density = 23.720828 Si / 1000 Ang^3
#
#
#
# Elastic Constant Matrix: (Units=GPa)
#
#
# Indices 1 2 3 4 5 6 
#
# 1 74.1511 1.2137 27.0761 0.0000 0.0000 0.0000
# 2 1.2137 41.1326 -16.0217 0.0000 0.0000 0.0000
# 3 27.0761 -16.0217 69.8414 0.0000 0.0000 0.0000
# 4 0.0000 0.0000 0.0000 23.3241 0.0000 0.0000
# 5 0.0000 0.0000 0.0000 0.0000 -0.1077 0.0000
# 6 0.0000 0.0000 0.0000 0.0000 0.0000 27.7352
#
#
#
# Elastic Compliance Matrix: (Units=1/GPa)
#
#
# Indices 1 2 3 4 5 6 
#
# 1 0.016082 -0.003188 -0.006966 0.000000 0.000000 0.000000
# 2 -0.003188 0.027329 0.007505 0.000000 0.000000 0.000000
# 3 -0.006966 0.007505 0.018740 0.000000 0.000000 0.000000
# 4 0.000000 0.000000 0.000000 0.042874 0.000000 0.000000
# 5 0.000000 0.000000 0.000000 0.000000 -9.281004 0.000000
# 6 0.000000 0.000000 0.000000 0.000000 0.000000 0.036055
#
#
# Mechanical properties :
#
#
# Convention : Reuss Voigt Hill
#
# Bulk Modulus (GPa) = 17.58884 23.29568 20.44226
# Shear Modulus (GPa) = -0.54851 21.71412 10.58281
#
# Velocity S-wave (km/s) = -0.48139 3.02884 2.11449
# Velocity P-wave (km/s) = 2.66872 4.69829 3.82073
#
# Compressibility (1/GPa) = 0.05685422
#
# Stress axis : x y z
#
# Youngs Moduli (GPa) = 62.18243 36.59105 53.36070
#
# Poissons Ratio (x) = 0.11665 0.37170
# Poissons Ratio (y) = 0.19823 -0.40048
# Poissons Ratio (z) = 0.43315 -0.27462
#
# Static dielectric constant tensor:
#      x y z
#    x 1.859780 0.000000 0.000000 
#    y 0.000000 1.934580 0.000000 
#    z 0.000000 0.000000 1.898530 
# 
# From -- ./inp_files/3184.got.cif
#   From: 2010.05.17/outbox.cif.g08.bks.cpg/sg18_2_cif.got.tgz:3184.got - 2010.06.03 22:40:56.
