data_PCOD9312248
_publ_section_title
;
Structure prediction by ZEFSAII (Michael W. Deem and Ramdas Pophale) SiO2 
 PCOD9312248
Probable space group: P 21 21 2
;
_chemical_formula_sum "Si O2"
_cell_formula_units_Z 20
_cell_length_a 8.242735
_cell_length_b 7.308424
_cell_length_c 11.998357
_cell_angle_alpha 90.000000
_cell_angle_beta 90.000000
_cell_angle_gamma 90.000000
_cell_volume 722.797851
_symmetry_space_group_name_H-M "P 21 21 2"
_symmetry_group_IT_number 18
_symmetry_cell_setting 'orthorhombic'
loop_
_space_group_symop_operation_xyz
x,y,z
-x,-y,z
1/2+x,1/2-y,-z
1/2-x,1/2+y,-z
loop_
_atom_site_type_symbol
_atom_site_label
_atom_site_fract_x
_atom_site_fract_y
_atom_site_fract_z
Si Si1 0.939400 0.796405 0.341128
Si Si2 0.500000 0.000000 0.305579
Si Si3 0.213174 0.191712 0.570608
Si Si4 0.143153 0.307970 0.872358
Si Si5 0.000000 0.000000 0.724653
Si Si6 0.510252 0.278475 0.894383
O O1 0.101906 0.710759 0.394028
O O2 0.900553 0.720374 0.219592
O O3 0.809548 0.818919 0.438822
O O4 0.000000 0.000000 0.314505
O O5 0.411978 0.851157 0.386473
O O6 0.359241 0.987925 0.206527
O O7 0.147523 0.015093 0.637109
O O8 0.322883 0.228376 0.874620
O O9 0.025001 0.170659 0.805554
O O10 0.085381 0.316995 0.998247
O O11 0.500000 0.500000 0.917362
#
# Coordination Sequence:
#
# PCOD9312248 Si02
#       6
#     4   2   4   4   2   4
#     4  11  25  45  72 107 145 190 245 295 365 437
#     4  10  24  42  70 104 150 190 240 290 380 406
#     4  11  24  44  73 105 147 194 239 308 358 435
#     4  11  24  44  73 105 147 194 239 308 358 435
#     4  10  20  46  70 102 146 188 236 304 372 414
#     4  11  25  45  72 107 145 190 245 295 365 437
#
# _framework density 27.670254
#
# number of rings (size 3 to 8) (size 9 to 14) (size 15 to 20)
#    0.000    1.200    6.000    0.000    5.600    0.000 
#    3.600    1.000    0.000    0.000    0.000    0.000 
#    0.000    0.000    0.000    0.000    0.000    0.000 
#
# Total GULP energy -111774.061720 kJ/mol
# GULP energy per Si atom -5588.703086 kJ/mol
# Density = 2.760727 g / cm^3
# Si number density = 27.670254 Si / 1000 Ang^3
#
#
#
# Elastic Constant Matrix: (Units=GPa)
#
#
# Indices 1 2 3 4 5 6 
#
# 1 90.5012 35.3392 18.9973 0.0000 0.0000 0.0000
# 2 35.3392 91.8077 53.6277 0.0000 0.0000 0.0000
# 3 18.9973 53.6277 241.9735 0.0000 0.0000 0.0000
# 4 0.0000 0.0000 0.0000 16.6280 0.0000 0.0000
# 5 0.0000 0.0000 0.0000 0.0000 27.8984 0.0000
# 6 0.0000 0.0000 0.0000 0.0000 0.0000 47.8693
#
#
#
# Elastic Compliance Matrix: (Units=1/GPa)
#
#
# Indices 1 2 3 4 5 6 
#
# 1 0.013006 -0.005066 0.000102 0.000000 0.000000 0.000000
# 2 -0.005066 0.014485 -0.002813 0.000000 0.000000 0.000000
# 3 0.000102 -0.002813 0.004748 0.000000 0.000000 0.000000
# 4 0.000000 0.000000 0.000000 0.060139 0.000000 0.000000
# 5 0.000000 0.000000 0.000000 0.000000 0.035844 0.000000
# 6 0.000000 0.000000 0.000000 0.000000 0.000000 0.020890
#
#
# Mechanical properties :
#
#
# Convention : Reuss Voigt Hill
#
# Bulk Modulus (GPa) = 59.93052 71.13453 65.53252
# Shear Modulus (GPa) = 29.37215 39.56703 34.46959
#
# Velocity S-wave (km/s) = 3.26161 3.78557 3.53332
# Velocity P-wave (km/s) = 5.99083 6.69859 6.35457
#
# Compressibility (1/GPa) = 0.01668599
#
# Stress axis : x y z
#
# Youngs Moduli (GPa) = 76.88534 69.03582 210.61271
#
# Poissons Ratio (x) = 0.34972 -0.02140
# Poissons Ratio (y) = 0.38949 0.59237
# Poissons Ratio (z) = -0.00781 0.19417
#
# Static dielectric constant tensor:
#      x y z
#    x 2.175970 0.000000 0.000000 
#    y 0.000000 2.402370 0.000000 
#    z 0.000000 0.000000 2.116960 
# 
# From -- ./inp_files/5453.got.cif
#   From: 2010.05.17/outbox.cif.g08.bks.cpg/sg18_3_cif.got.tgz:5453.got - 2010.06.03 22:40:56.
