data_PCOD9312731
_publ_section_title
;
Structure prediction by ZEFSAII (Michael W. Deem and Ramdas Pophale) SiO2 
 PCOD9312731
Probable space group: P 21 21 2
;
_chemical_formula_sum "Si O2"
_cell_formula_units_Z 28
_cell_length_a 8.645740
_cell_length_b 22.633313
_cell_length_c 5.868321
_cell_angle_alpha 90.000000
_cell_angle_beta 90.000000
_cell_angle_gamma 90.000000
_cell_volume 1148.323261
_symmetry_space_group_name_H-M "P 21 21 2"
_symmetry_group_IT_number 18
_symmetry_cell_setting 'orthorhombic'
loop_
_space_group_symop_operation_xyz
x,y,z
-x,-y,z
1/2+x,1/2-y,-z
1/2-x,1/2+y,-z
loop_
_atom_site_type_symbol
_atom_site_label
_atom_site_fract_x
_atom_site_fract_y
_atom_site_fract_z
Si Si1 0.000000 0.000000 0.685236
Si Si2 0.000000 0.500000 0.072285
Si Si3 0.417666 0.917977 0.306124
Si Si4 0.817697 0.104898 0.700273
Si Si5 0.582591 0.329349 0.587843
Si Si6 0.398413 0.777578 0.296807
Si Si7 0.711037 0.932157 0.561762
Si Si8 0.610683 0.701461 0.980058
O O1 0.132788 0.030762 0.538832
O O2 0.917524 0.052913 0.814802
O O3 0.107643 0.454209 0.926231
O O4 0.116377 0.543277 0.217572
O O5 0.308317 0.923470 0.530516
O O6 0.425219 0.847160 0.297681
O O7 0.587431 0.941565 0.366485
O O8 0.935087 0.141177 0.536770
O O9 0.782465 0.154401 0.885395
O O10 0.597920 0.260122 0.528560
O O11 0.726677 0.365183 0.479428
O O12 0.531230 0.331815 0.851167
O O13 0.227473 0.768435 0.194353
O O14 0.529992 0.747742 0.144006
#
# Coordination Sequence:
#
# PCOD9312731 Si02
#       8
#     2   2   4   4   4   4   4   4
#     4  10  22  46  70  92 140 192 234 326 360 446
#     4  12  28  48  72 114 146 212 262 314 392 450
#     4  12  27  46  76 111 150 202 258 326 383 463
#     4  10  23  45  69 107 142 187 252 310 386 458
#     4  10  25  46  68 109 146 195 250 320 385 463
#     4  11  28  42  77 106 153 197 254 318 393 463
#     4  11  27  45  75 104 154 195 268 322 384 465
#     4  11  26  46  73 112 144 200 253 315 396 463
#
# _framework density 24.383376999999999
#
# number of rings (size 3 to 8) (size 9 to 14) (size 15 to 20)
#    0.000    1.143    1.429    2.143   12.000    2.286 
#    0.000    5.714    0.000    0.000    0.000    0.000 
#    0.000    0.000    0.000    0.000    0.000    0.000 
#
# Total GULP energy -156193.859562 kJ/mol
# GULP energy per Si atom -5578.352127 kJ/mol
# Density = 2.432788 g / cm^3
# Si number density = 24.383377 Si / 1000 Ang^3
#
#
#
# Elastic Constant Matrix: (Units=GPa)
#
#
# Indices 1 2 3 4 5 6 
#
# 1 111.8285 24.9161 20.8995 0.0000 0.0000 0.0000
# 2 24.9161 125.3625 25.0321 0.0000 0.0000 0.0000
# 3 20.8995 25.0321 48.4331 0.0000 0.0000 0.0000
# 4 0.0000 0.0000 0.0000 34.1428 0.0000 0.0000
# 5 0.0000 0.0000 0.0000 0.0000 36.2510 0.0000
# 6 0.0000 0.0000 0.0000 0.0000 0.0000 43.0858
#
#
#
# Elastic Compliance Matrix: (Units=1/GPa)
#
#
# Indices 1 2 3 4 5 6 
#
# 1 0.009897 -0.001243 -0.003629 0.000000 0.000000 0.000000
# 2 -0.001243 0.009051 -0.004142 0.000000 0.000000 0.000000
# 3 -0.003629 -0.004142 0.024353 0.000000 0.000000 0.000000
# 4 0.000000 0.000000 0.000000 0.029289 0.000000 0.000000
# 5 0.000000 0.000000 0.000000 0.000000 0.027585 0.000000
# 6 0.000000 0.000000 0.000000 0.000000 0.000000 0.023210
#
#
# Mechanical properties :
#
#
# Convention : Reuss Voigt Hill
#
# Bulk Modulus (GPa) = 39.56339 47.47993 43.52166
# Shear Modulus (GPa) = 33.36984 37.01436 35.19210
#
# Velocity S-wave (km/s) = 3.70340 3.90040 3.80318
# Velocity P-wave (km/s) = 5.87773 6.30862 6.09698
#
# Compressibility (1/GPa) = 0.02527589
#
# Stress axis : x y z
#
# Youngs Moduli (GPa) = 101.03812 110.48731 41.06214
#
# Poissons Ratio (x) = 0.13729 0.14900
# Poissons Ratio (y) = 0.12555 0.17006
# Poissons Ratio (z) = 0.36662 0.45760
#
# Static dielectric constant tensor:
#      x y z
#    x 1.953320 0.000000 0.000000 
#    y 0.000000 1.991190 0.000000 
#    z 0.000000 0.000000 1.988260 
# 
# From -- ./inp_files/741.got.cif
#   From: 2010.05.17/outbox.cif.g08.bks.cpg/sg18_1_cif.got.tgz:741.got - 2010.06.03 22:40:56.
