data_PCOD9312587
_publ_section_title
;
Structure prediction by ZEFSAII (Michael W. Deem and Ramdas Pophale) SiO2 
 PCOD9312587
Probable space group: P 21 21 2
;
_chemical_formula_sum "Si O2"
_cell_formula_units_Z 28
_cell_length_a 20.680156
_cell_length_b 8.500301
_cell_length_c 6.494915
_cell_angle_alpha 90.000000
_cell_angle_beta 90.000000
_cell_angle_gamma 90.000000
_cell_volume 1141.725200
_symmetry_space_group_name_H-M "P 21 21 2"
_symmetry_group_IT_number 18
_symmetry_cell_setting 'orthorhombic'
loop_
_space_group_symop_operation_xyz
x,y,z
-x,-y,z
1/2+x,1/2-y,-z
1/2-x,1/2+y,-z
loop_
_atom_site_type_symbol
_atom_site_label
_atom_site_fract_x
_atom_site_fract_y
_atom_site_fract_z
Si Si1 0.307696 0.330175 0.035424
Si Si2 0.487556 0.233444 0.576505
Si Si3 0.380304 0.642575 0.961855
Si Si4 0.607452 0.933676 0.265537
Si Si5 0.859290 0.712245 0.453052
Si Si6 0.000000 0.500000 0.049170
Si Si7 0.000000 0.000000 0.187373
Si Si8 0.279391 0.626310 0.267667
O O1 0.348020 0.469663 0.923736
O O2 0.267901 0.235143 0.864125
O O3 0.349116 0.198554 0.154860
O O4 0.271252 0.444779 0.202392
O O5 0.446122 0.154583 0.402187
O O6 0.563074 0.251193 0.516122
O O7 0.483171 0.133559 0.785751
O O8 0.459188 0.398118 0.651159
O O9 0.360526 0.771598 0.795817
O O10 0.455385 0.606687 0.952095
O O11 0.350764 0.677865 0.181259
O O12 0.646221 0.045676 0.426223
O O13 0.563066 0.021905 0.094768
O O14 0.796784 0.823057 0.504087
#
# Coordination Sequence:
#
# PCOD9312587 Si02
#       8
#     4   4   4   4   4   2   2   4
#     4  10  24  48  70  99 141 186 249 299 357 424
#     4  11  24  41  63 106 145 181 235 284 365 445
#     4   9  24  43  66 107 135 187 230 300 365 430
#     4  12  24  42  71 104 143 193 230 300 357 435
#     4  11  22  43  67 102 140 186 236 289 362 426
#     4  12  22  42  62 108 144 188 232 276 366 436
#     4  10  22  40  70  98 146 168 224 296 354 438
#     4  10  24  47  68  95 141 186 245 294 357 423
#
# _framework density 24.524291000000002
#
# number of rings (size 3 to 8) (size 9 to 14) (size 15 to 20)
#    0.857    0.571    2.857    1.714    8.000    1.143 
#    2.571    0.714    0.000    0.000    0.000    0.000 
#    0.000    0.000    0.000    0.000    0.000    0.000 
#
# Total GULP energy -155941.495891 kJ/mol
# GULP energy per Si atom -5569.339139 kJ/mol
# Density = 2.446847 g / cm^3
# Si number density = 24.524291 Si / 1000 Ang^3
#
#
#
# Elastic Constant Matrix: (Units=GPa)
#
#
# Indices 1 2 3 4 5 6 
#
# 1 29.4677 8.8953 4.2382 0.0000 0.0000 0.0000
# 2 8.8953 69.6348 8.5886 0.0000 0.0000 0.0000
# 3 4.2382 8.5886 37.8608 0.0000 0.0000 0.0000
# 4 0.0000 0.0000 0.0000 11.4506 0.0000 0.0000
# 5 0.0000 0.0000 0.0000 0.0000 -7.6696 0.0000
# 6 0.0000 0.0000 0.0000 0.0000 0.0000 39.9579
#
#
#
# Elastic Compliance Matrix: (Units=1/GPa)
#
#
# Indices 1 2 3 4 5 6 
#
# 1 0.035634 -0.004177 -0.003041 0.000000 0.000000 0.000000
# 2 -0.004177 0.015264 -0.002995 0.000000 0.000000 0.000000
# 3 -0.003041 -0.002995 0.027432 0.000000 0.000000 0.000000
# 4 0.000000 0.000000 0.000000 0.087332 0.000000 0.000000
# 5 0.000000 0.000000 0.000000 0.000000 -0.130384 0.000000
# 6 0.000000 0.000000 0.000000 0.000000 0.000000 0.025026
#
#
# Mechanical properties :
#
#
# Convention : Reuss Voigt Hill
#
# Bulk Modulus (GPa) = 17.27015 20.04530 18.65772
# Shear Modulus (GPa) = 49.98459 16.43051 33.20755
#
# Velocity S-wave (km/s) = 4.51950 2.59118 3.68376
# Velocity P-wave (km/s) = 5.85593 4.14050 5.07127
#
# Compressibility (1/GPa) = 0.05790336
#
# Stress axis : x y z
#
# Youngs Moduli (GPa) = 28.06327 65.51538 36.45319
#
# Poissons Ratio (x) = 0.27365 0.11087
# Poissons Ratio (y) = 0.11722 0.10918
# Poissons Ratio (z) = 0.08535 0.19622
#
# Static dielectric constant tensor:
#      x y z
#    x 1.989740 0.000000 0.000000 
#    y 0.000000 3.087910 0.000000 
#    z 0.000000 0.000000 2.018440 
# 
# From -- ./inp_files/2218.got.cif
#   From: 2010.05.17/outbox.cif.g08.bks.cpg/sg18_2_cif.got.tgz:2218.got - 2010.06.03 22:40:56.
