data_PCOD9312084
_publ_section_title
;
Structure prediction by ZEFSAII (Michael W. Deem and Ramdas Pophale) SiO2 
 PCOD9312084
Probable space group: P 21 21 2
;
_chemical_formula_sum "Si O2"
_cell_formula_units_Z 18
_cell_length_a 8.459934
_cell_length_b 15.846087
_cell_length_c 5.528322
_cell_angle_alpha 90.000000
_cell_angle_beta 90.000000
_cell_angle_gamma 90.000000
_cell_volume 741.109434
_symmetry_space_group_name_H-M "P 21 21 2"
_symmetry_group_IT_number 18
_symmetry_cell_setting 'orthorhombic'
loop_
_space_group_symop_operation_xyz
x,y,z
-x,-y,z
1/2+x,1/2-y,-z
1/2-x,1/2+y,-z
loop_
_atom_site_type_symbol
_atom_site_label
_atom_site_fract_x
_atom_site_fract_y
_atom_site_fract_z
Si Si1 0.000000 0.000000 0.044465
Si Si2 0.120579 0.170317 0.042037
Si Si3 0.108032 0.617224 0.328788
Si Si4 0.852824 0.224993 0.662528
Si Si5 0.770136 0.554316 0.332073
O O1 0.855734 0.029486 0.872390
O O2 0.056581 0.085483 0.170547
O O3 0.268330 0.142383 0.876492
O O4 0.984510 0.205649 0.865837
O O5 0.193485 0.238919 0.217262
O O6 0.091494 0.698424 0.496915
O O7 0.182701 0.533741 0.459579
O O8 0.938083 0.587549 0.232630
O O9 0.806114 0.135881 0.538286
#
# Coordination Sequence:
#
# PCOD9312084 Si02
#       5
#     2   4   4   4   4
#     4   8  18  38  58  80 118 156 192 248 302 344
#     4  10  21  37  58  86 119 156 199 246 296 354
#     4  10  20  38  60  84 116 154 195 241 295 349
#     4  11  21  37  60  87 119 156 197 243 297 353
#     4   9  19  37  58  84 117 149 191 244 288 341
#
# _framework density 24.28791
#
# number of rings (size 3 to 8) (size 9 to 14) (size 15 to 20)
#    0.000    2.222    0.000    2.667    0.000    0.000 
#    0.000   40.000    0.000    0.000    0.000    0.000 
#    0.000    0.000    0.000    0.000    0.000    0.000 
#
# Total GULP energy -100503.005924 kJ/mol
# GULP energy per Si atom -5583.500329 kJ/mol
# Density = 2.423263 g / cm^3
# Si number density = 24.287910 Si / 1000 Ang^3
#
#
#
# Elastic Constant Matrix: (Units=GPa)
#
#
# Indices 1 2 3 4 5 6 
#
# 1 168.7793 82.2537 42.6330 0.0000 0.0000 0.0000
# 2 82.2537 193.6675 41.9399 0.0000 0.0000 0.0000
# 3 42.6330 41.9399 25.9033 0.0000 0.0000 0.0000
# 4 0.0000 0.0000 0.0000 14.3881 0.0000 0.0000
# 5 0.0000 0.0000 0.0000 0.0000 38.8295 0.0000
# 6 0.0000 0.0000 0.0000 0.0000 0.0000 58.9461
#
#
#
# Elastic Compliance Matrix: (Units=1/GPa)
#
#
# Indices 1 2 3 4 5 6 
#
# 1 0.010286 -0.001082 -0.015178 0.000000 0.000000 0.000000
# 2 -0.001082 0.008065 -0.011278 0.000000 0.000000 0.000000
# 3 -0.015178 -0.011278 0.081845 0.000000 0.000000 0.000000
# 4 0.000000 0.000000 0.000000 0.069502 0.000000 0.000000
# 5 0.000000 0.000000 0.000000 0.000000 0.025754 0.000000
# 6 0.000000 0.000000 0.000000 0.000000 0.000000 0.016965
#
#
# Mechanical properties :
#
#
# Convention : Reuss Voigt Hill
#
# Bulk Modulus (GPa) = 22.16221 80.22258 51.19240
# Shear Modulus (GPa) = 17.69713 37.20098 27.44905
#
# Velocity S-wave (km/s) = 2.70226 3.91790 3.36542
# Velocity P-wave (km/s) = 4.34521 7.31902 6.01868
#
# Compressibility (1/GPa) = 0.04512184
#
# Stress axis : x y z
#
# Youngs Moduli (GPa) = 97.22062 123.98860 12.21818
#
# Poissons Ratio (x) = 0.13413 0.18544
# Poissons Ratio (y) = 0.10517 0.13780
# Poissons Ratio (z) = 1.47557 1.39834
#
# Static dielectric constant tensor:
#      x y z
#    x 1.915790 0.000000 0.000000 
#    y 0.000000 1.990280 0.000000 
#    z 0.000000 0.000000 1.974050 
# 
# From -- ./inp_files/466.got.cif
#   From: 2010.05.17/outbox.cif.g08.bks.cpg/sg18_1_cif.got.tgz:466.got - 2010.06.03 22:40:56.
