data_PCOD9312734
_publ_section_title
;
Structure prediction by ZEFSAII (Michael W. Deem and Ramdas Pophale) SiO2 
 PCOD9312734
Probable space group: P 21 21 2
;
_chemical_formula_sum "Si O2"
_cell_formula_units_Z 18
_cell_length_a 9.795698
_cell_length_b 12.764858
_cell_length_c 5.985187
_cell_angle_alpha 90.000000
_cell_angle_beta 90.000000
_cell_angle_gamma 90.000000
_cell_volume 748.391936
_symmetry_space_group_name_H-M "P 21 21 2"
_symmetry_group_IT_number 18
_symmetry_cell_setting 'orthorhombic'
loop_
_space_group_symop_operation_xyz
x,y,z
-x,-y,z
1/2+x,1/2-y,-z
1/2-x,1/2+y,-z
loop_
_atom_site_type_symbol
_atom_site_label
_atom_site_fract_x
_atom_site_fract_y
_atom_site_fract_z
Si Si1 0.412679 0.309294 0.517154
Si Si2 0.711441 0.536930 0.168699
Si Si3 0.000000 0.000000 0.211764
Si Si4 0.959906 0.677668 0.150135
Si Si5 0.739249 0.308214 0.160430
O O1 0.365927 0.367387 0.293050
O O2 0.498484 0.398509 0.639148
O O3 0.502859 0.208403 0.590907
O O4 0.275664 0.278862 0.654455
O O5 0.865360 0.576300 0.144154
O O6 0.705121 0.420265 0.271589
O O7 0.632368 0.515450 0.940470
O O8 0.111994 0.672901 0.045455
O O9 0.872806 0.763522 0.009186
#
# Coordination Sequence:
#
# PCOD9312734 Si02
#       5
#     4   4   2   4   4
#     4  10  25  41  68 110 139 189 247 293 373 442
#     4  12  22  43  76 101 149 192 242 307 368 446
#     4  12  22  42  68 102 140 192 234 298 370 428
#     4  10  22  46  71 110 140 193 241 311 370 439
#     4  10  22  46  73 104 149 186 247 304 375 441
#
# _framework density 24.051568
#
# number of rings (size 3 to 8) (size 9 to 14) (size 15 to 20)
#    1.333    0.000    4.444    1.333    0.000    3.556 
#    0.000    0.000    4.889    0.000    0.000    0.000 
#    0.000    0.000    0.000    0.000    0.000    0.000 
#
# Total GULP energy -100232.937589 kJ/mol
# GULP energy per Si atom -5568.496533 kJ/mol
# Density = 2.399683 g / cm^3
# Si number density = 24.051568 Si / 1000 Ang^3
#
#
#
# Elastic Constant Matrix: (Units=GPa)
#
#
# Indices 1 2 3 4 5 6 
#
# 1 150.2718 5.1994 35.1346 0.0000 0.0000 0.0000
# 2 5.1994 94.4773 13.9758 0.0000 0.0000 0.0000
# 3 35.1346 13.9758 21.2496 0.0000 0.0000 0.0000
# 4 0.0000 0.0000 0.0000 23.0952 0.0000 0.0000
# 5 0.0000 0.0000 0.0000 0.0000 39.7155 0.0000
# 6 0.0000 0.0000 0.0000 0.0000 0.0000 52.0498
#
#
#
# Elastic Compliance Matrix: (Units=1/GPa)
#
#
# Indices 1 2 3 4 5 6 
#
# 1 0.011310 0.002375 -0.020262 0.000000 0.000000 0.000000
# 2 0.002375 0.012224 -0.011966 0.000000 0.000000 0.000000
# 3 -0.020262 -0.011966 0.088432 0.000000 0.000000 0.000000
# 4 0.000000 0.000000 0.000000 0.043299 0.000000 0.000000
# 5 0.000000 0.000000 0.000000 0.000000 0.025179 0.000000
# 6 0.000000 0.000000 0.000000 0.000000 0.000000 0.019212
#
#
# Mechanical properties :
#
#
# Convention : Reuss Voigt Hill
#
# Bulk Modulus (GPa) = 19.13560 41.62423 30.37991
# Shear Modulus (GPa) = 18.06475 37.08469 27.57472
#
# Velocity S-wave (km/s) = 2.74356 3.93094 3.38965
# Velocity P-wave (km/s) = 4.24376 6.16010 5.28944
#
# Compressibility (1/GPa) = 0.05225863
#
# Stress axis : x y z
#
# Youngs Moduli (GPa) = 88.41887 81.80628 11.30818
#
# Poissons Ratio (x) = -0.19428 0.22912
# Poissons Ratio (y) = -0.20998 0.13532
# Poissons Ratio (z) = 1.79153 0.97892
#
# Static dielectric constant tensor:
#      x y z
#    x 1.977800 0.000000 0.000000 
#    y 0.000000 1.984180 0.000000 
#    z 0.000000 0.000000 1.981020 
# 
# From -- ./inp_files/941.got.cif
#   From: 2010.05.17/outbox.cif.g08.bks.cpg/sg18_1_cif.got.tgz:941.got - 2010.06.03 22:40:56.
