data_PCOD9312254
_publ_section_title
;
Structure prediction by ZEFSAII (Michael W. Deem and Ramdas Pophale) SiO2 
 PCOD9312254
Probable space group: P 21 21 2
;
_chemical_formula_sum "Si O2"
_cell_formula_units_Z 28
_cell_length_a 5.852118
_cell_length_b 17.197870
_cell_length_c 10.915240
_cell_angle_alpha 90.000000
_cell_angle_beta 90.000000
_cell_angle_gamma 90.000000
_cell_volume 1098.553028
_symmetry_space_group_name_H-M "P 21 21 2"
_symmetry_group_IT_number 18
_symmetry_cell_setting 'orthorhombic'
loop_
_space_group_symop_operation_xyz
x,y,z
-x,-y,z
1/2+x,1/2-y,-z
1/2-x,1/2+y,-z
loop_
_atom_site_type_symbol
_atom_site_label
_atom_site_fract_x
_atom_site_fract_y
_atom_site_fract_z
Si Si1 0.971448 0.414115 0.726584
Si Si2 0.028180 0.912199 0.202830
Si Si3 0.348793 0.208691 0.908267
Si Si4 0.088522 0.255908 0.343096
Si Si5 0.474863 0.363442 0.269407
Si Si6 0.256560 0.127204 0.514772
Si Si7 0.253796 0.370526 0.038682
O O1 0.734296 0.380862 0.783566
O O2 0.000000 0.500000 0.780313
O O3 0.226948 0.378485 0.742675
O O4 0.907115 0.419052 0.582711
O O5 0.100279 0.915282 0.060888
O O6 0.000000 0.000000 0.255768
O O7 0.496941 0.244596 0.795932
O O8 0.140472 0.172839 0.833152
O O9 0.303042 0.279021 0.001088
O O10 0.480917 0.137071 0.971378
O O11 0.341699 0.292103 0.333426
O O12 0.096285 0.179521 0.426510
O O13 0.926232 0.316082 0.412982
O O14 0.604128 0.408793 0.376670
O O15 0.296044 0.401613 0.176076
#
# Coordination Sequence:
#
# PCOD9312254 Si02
#       7
#     4   4   4   4   4   4   4
#     4  10  24  43  68  97 123 162 218 268 314 372
#     4  10  24  43  68  97 123 162 218 268 314 372
#     4  10  21  33  53  88 116 156 198 251 314 379
#     4  10  21  33  53  88 116 156 198 251 314 379
#     4  10  22  36  50  86 124 150 208 246 308 390
#     4  11  21  36  62  84 126 161 204 259 320 377
#     4  11  21  36  62  84 126 161 204 259 320 377
#
# _framework density 25.488071000000001
#
# number of rings (size 3 to 8) (size 9 to 14) (size 15 to 20)
#    0.000    1.714    2.857    0.857    6.000    0.000 
#    0.000    0.000    9.429    0.000    0.000    0.000 
#    0.000    0.000    0.000    0.000    0.000    0.000 
#
# Total GULP energy -155984.978568 kJ/mol
# GULP energy per Si atom -5570.892092 kJ/mol
# Density = 2.543006 g / cm^3
# Si number density = 25.488071 Si / 1000 Ang^3
#
#
#
# Elastic Constant Matrix: (Units=GPa)
#
#
# Indices 1 2 3 4 5 6 
#
# 1 147.3923 15.9358 51.3726 0.0000 0.0000 0.0000
# 2 15.9358 24.7489 -2.9585 0.0000 0.0000 0.0000
# 3 51.3726 -2.9585 150.0498 0.0000 0.0000 0.0000
# 4 0.0000 0.0000 0.0000 16.4446 0.0000 0.0000
# 5 0.0000 0.0000 0.0000 0.0000 54.0073 0.0000
# 6 0.0000 0.0000 0.0000 0.0000 0.0000 27.6694
#
#
#
# Elastic Compliance Matrix: (Units=1/GPa)
#
#
# Indices 1 2 3 4 5 6 
#
# 1 0.008462 -0.005809 -0.003012 0.000000 0.000000 0.000000
# 2 -0.005809 0.044489 0.002866 0.000000 0.000000 0.000000
# 3 -0.003012 0.002866 0.007752 0.000000 0.000000 0.000000
# 4 0.000000 0.000000 0.000000 0.060810 0.000000 0.000000
# 5 0.000000 0.000000 0.000000 0.000000 0.018516 0.000000
# 6 0.000000 0.000000 0.000000 0.000000 0.000000 0.036141
#
#
# Mechanical properties :
#
#
# Convention : Reuss Voigt Hill
#
# Bulk Modulus (GPa) = 20.49441 50.09897 35.29669
# Shear Modulus (GPa) = 24.46845 36.81366 30.64105
#
# Velocity S-wave (km/s) = 3.10174 3.80458 3.47100
# Velocity P-wave (km/s) = 4.57012 6.24486 5.47194
#
# Compressibility (1/GPa) = 0.04879380
#
# Stress axis : x y z
#
# Youngs Moduli (GPa) = 118.16944 22.47755 128.99694
#
# Poissons Ratio (x) = 0.13057 0.38852
# Poissons Ratio (y) = 0.68645 -0.36971
# Poissons Ratio (z) = 0.35591 -0.06442
#
# Static dielectric constant tensor:
#      x y z
#    x 2.222690 0.000000 0.000000 
#    y 0.000000 2.133100 0.000000 
#    z 0.000000 0.000000 2.046700 
# 
# From -- ./inp_files/5211.got.cif
#   From: 2010.05.17/outbox.cif.g08.bks.cpg/sg18_3_cif.got.tgz:5211.got - 2010.06.03 22:40:56.
