data_PCOD9312191
_publ_section_title
;
Structure prediction by ZEFSAII (Michael W. Deem and Ramdas Pophale) SiO2 
 PCOD9312191
Probable space group: P 21 21 2
;
_chemical_formula_sum "Si O2"
_cell_formula_units_Z 32
_cell_length_a 11.251753
_cell_length_b 13.708758
_cell_length_c 9.745941
_cell_angle_alpha 90.000000
_cell_angle_beta 90.000000
_cell_angle_gamma 90.000000
_cell_volume 1503.287609
_symmetry_space_group_name_H-M "P 21 21 2"
_symmetry_group_IT_number 18
_symmetry_cell_setting 'orthorhombic'
loop_
_space_group_symop_operation_xyz
x,y,z
-x,-y,z
1/2+x,1/2-y,-z
1/2-x,1/2+y,-z
loop_
_atom_site_type_symbol
_atom_site_label
_atom_site_fract_x
_atom_site_fract_y
_atom_site_fract_z
Si Si1 0.569179 0.281936 0.298426
Si Si2 0.619181 0.567632 0.792351
Si Si3 0.107156 0.423604 0.811714
Si Si4 0.378671 0.300660 0.523348
Si Si5 0.013981 0.383258 0.110113
Si Si6 0.181306 0.620968 0.308199
Si Si7 0.790512 0.600668 0.306065
Si Si8 0.077982 0.901131 0.903669
O O1 0.602177 0.168516 0.290097
O O2 0.496973 0.308682 0.434016
O O3 0.683330 0.349281 0.289910
O O4 0.487091 0.312629 0.171037
O O5 0.500000 0.500000 0.781453
O O6 0.758660 0.531017 0.805367
O O7 0.617210 0.635027 0.659516
O O8 0.602051 0.620583 0.938179
O O9 0.000000 0.500000 0.784934
O O10 0.074087 0.376091 0.961167
O O11 0.364088 0.189833 0.570462
O O12 0.272700 0.339127 0.425334
O O13 0.101367 0.346419 0.229879
O O14 0.000000 0.500000 0.122058
O O15 0.884872 0.352358 0.164760
O O16 0.169922 0.507860 0.349242
O O17 0.696243 0.581814 0.183856
O O18 0.000000 0.000000 0.896299
#
# Coordination Sequence:
#
# PCOD9312191 Si02
#       8
#     4   4   4   4   4   4   4   4
#     4  11  25  43  68  99 137 188 236 292 348 433
#     4  11  25  44  70 106 144 184 235 300 359 427
#     4  11  24  46  71 105 146 180 239 303 367 419
#     4  11  27  43  64 102 141 191 232 284 359 433
#     4   9  21  40  70 100 127 179 232 292 354 417
#     4  11  23  42  70  97 139 180 237 291 350 427
#     4  10  21  43  71  95 134 182 234 285 343 422
#     4  10  20  40  70 101 129 177 234 286 352 412
#
# _framework density 21.286678999999999
#
# number of rings (size 3 to 8) (size 9 to 14) (size 15 to 20)
#    0.000    1.500    3.750    0.000    5.250    1.000 
#    0.000    0.625    0.000    0.000    0.000    0.000 
#    0.000    0.000    0.000    0.000    0.000    0.000 
#
# Total GULP energy -178472.212787 kJ/mol
# GULP energy per Si atom -5577.256650 kJ/mol
# Density = 2.123823 g / cm^3
# Si number density = 21.286679 Si / 1000 Ang^3
#
#
#
# Elastic Constant Matrix: (Units=GPa)
#
#
# Indices 1 2 3 4 5 6 
#
# 1 127.3448 15.7214 34.9668 0.0000 0.0000 0.0000
# 2 15.7214 47.7703 9.6852 0.0000 0.0000 0.0000
# 3 34.9668 9.6852 101.6598 0.0000 0.0000 0.0000
# 4 0.0000 0.0000 0.0000 12.6615 0.0000 0.0000
# 5 0.0000 0.0000 0.0000 0.0000 21.4399 0.0000
# 6 0.0000 0.0000 0.0000 0.0000 0.0000 22.7729
#
#
#
# Elastic Compliance Matrix: (Units=1/GPa)
#
#
# Indices 1 2 3 4 5 6 
#
# 1 0.008925 -0.002361 -0.002845 0.000000 0.000000 0.000000
# 2 -0.002361 0.021970 -0.001281 0.000000 0.000000 0.000000
# 3 -0.002845 -0.001281 0.010937 0.000000 0.000000 0.000000
# 4 0.000000 0.000000 0.000000 0.078980 0.000000 0.000000
# 5 0.000000 0.000000 0.000000 0.000000 0.046642 0.000000
# 6 0.000000 0.000000 0.000000 0.000000 0.000000 0.043912
#
#
# Mechanical properties :
#
#
# Convention : Reuss Voigt Hill
#
# Bulk Modulus (GPa) = 34.65094 44.16910 39.41002
# Shear Modulus (GPa) = 21.37118 25.80160 23.58639
#
# Velocity S-wave (km/s) = 3.17199 3.48530 3.33233
# Velocity P-wave (km/s) = 5.45242 6.08203 5.77581
#
# Compressibility (1/GPa) = 0.02885925
#
# Stress axis : x y z
#
# Youngs Moduli (GPa) = 112.04068 45.51637 91.42958
#
# Poissons Ratio (x) = 0.10744 0.26012
# Poissons Ratio (y) = 0.26448 0.11714
# Poissons Ratio (z) = 0.31876 0.05831
#
# Static dielectric constant tensor:
#      x y z
#    x 1.828160 0.000000 0.000000 
#    y 0.000000 1.738140 0.000000 
#    z 0.000000 0.000000 1.781080 
# 
# From -- ./inp_files/3930.got.cif
#   From: 2010.05.17/outbox.cif.g08.bks.cpg/sg18_2_cif.got.tgz:3930.got - 2010.06.03 22:40:56.
