data_PCOD9312490
_publ_section_title
;
Structure prediction by ZEFSAII (Michael W. Deem and Ramdas Pophale) SiO2 
 PCOD9312490
Probable space group: P 21 21 2
;
_chemical_formula_sum "Si O2"
_cell_formula_units_Z 32
_cell_length_a 17.260230
_cell_length_b 14.768251
_cell_length_c 5.429071
_cell_angle_alpha 90.000000
_cell_angle_beta 90.000000
_cell_angle_gamma 90.000000
_cell_volume 1383.888705
_symmetry_space_group_name_H-M "P 21 21 2"
_symmetry_group_IT_number 18
_symmetry_cell_setting 'orthorhombic'
loop_
_space_group_symop_operation_xyz
x,y,z
-x,-y,z
1/2+x,1/2-y,-z
1/2-x,1/2+y,-z
loop_
_atom_site_type_symbol
_atom_site_label
_atom_site_fract_x
_atom_site_fract_y
_atom_site_fract_z
Si Si1 0.753513 0.961590 0.934595
Si Si2 0.742246 0.285420 0.742009
Si Si3 0.075393 0.474219 0.606004
Si Si4 0.417479 0.673448 0.522641
Si Si5 0.348650 0.149692 0.600574
Si Si6 0.575745 0.440270 0.026863
Si Si7 0.661139 0.139429 0.042103
Si Si8 0.507889 0.167272 0.760763
O O1 0.726809 0.897069 0.714442
O O2 0.842581 0.992194 0.937670
O O3 0.696033 0.046993 0.922953
O O4 0.749871 0.887980 0.155747
O O5 0.666117 0.281320 0.571200
O O6 0.817842 0.270375 0.573911
O O7 0.721731 0.217194 0.965673
O O8 0.112829 0.570199 0.557215
O O9 0.036981 0.422256 0.378176
O O10 0.000000 0.500000 0.775914
O O11 0.140275 0.403980 0.695829
O O12 0.423077 0.630744 0.253563
O O13 0.480702 0.750413 0.570109
O O14 0.425732 0.604250 0.754256
O O15 0.415551 0.167248 0.805393
O O16 0.500000 0.500000 0.054649
O O17 0.575464 0.175775 0.963181
#
# Coordination Sequence:
#
# PCOD9312490 Si02
#       8
#     4   4   4   4   4   4   4   4
#     4  11  23  41  65  92 134 174 220 288 337 410
#     4  10  23  41  63  95 133 179 226 281 349 408
#     4  10  22  36  63  96 132 173 221 277 350 426
#     4  10  23  44  66  98 132 177 228 288 343 406
#     4  11  21  42  62  95 133 173 219 278 345 419
#     4  11  24  45  72  92 131 182 235 286 346 403
#     4  11  23  39  64  97 132 174 228 277 353 419
#     4  10  24  37  64  96 135 175 218 277 351 420
#
# _framework density 23.123246999999999
#
# number of rings (size 3 to 8) (size 9 to 14) (size 15 to 20)
#    0.000    1.500    3.750    0.375    7.000    1.000 
#    2.250    0.000    0.000    0.000    0.000    0.000 
#    0.000    0.000    0.000    0.000    0.000    0.000 
#
# Total GULP energy -178228.091507 kJ/mol
# GULP energy per Si atom -5569.627860 kJ/mol
# Density = 2.307062 g / cm^3
# Si number density = 23.123247 Si / 1000 Ang^3
#
#
#
# Elastic Constant Matrix: (Units=GPa)
#
#
# Indices 1 2 3 4 5 6 
#
# 1 102.2820 19.5775 11.7895 0.0000 0.0000 0.0000
# 2 19.5775 57.8542 12.0961 0.0000 0.0000 0.0000
# 3 11.7895 12.0961 55.0803 0.0000 0.0000 0.0000
# 4 0.0000 0.0000 0.0000 24.7164 0.0000 0.0000
# 5 0.0000 0.0000 0.0000 0.0000 25.6031 0.0000
# 6 0.0000 0.0000 0.0000 0.0000 0.0000 30.5348
#
#
#
# Elastic Compliance Matrix: (Units=1/GPa)
#
#
# Indices 1 2 3 4 5 6 
#
# 1 0.010579 -0.003256 -0.001549 0.000000 0.000000 0.000000
# 2 -0.003256 0.019119 -0.003502 0.000000 0.000000 0.000000
# 3 -0.001549 -0.003502 0.019256 0.000000 0.000000 0.000000
# 4 0.000000 0.000000 0.000000 0.040459 0.000000 0.000000
# 5 0.000000 0.000000 0.000000 0.000000 0.039058 0.000000
# 6 0.000000 0.000000 0.000000 0.000000 0.000000 0.032750
#
#
# Mechanical properties :
#
#
# Convention : Reuss Voigt Hill
#
# Bulk Modulus (GPa) = 30.92184 33.57140 32.24662
# Shear Modulus (GPa) = 26.50929 27.62109 27.06519
#
# Velocity S-wave (km/s) = 3.38958 3.45993 3.42493
# Velocity P-wave (km/s) = 5.35916 5.52372 5.44206
#
# Compressibility (1/GPa) = 0.03233961
#
# Stress axis : x y z
#
# Youngs Moduli (GPa) = 94.52994 52.30475 51.93208
#
# Poissons Ratio (x) = 0.17030 0.08046
# Poissons Ratio (y) = 0.30777 0.18185
# Poissons Ratio (z) = 0.14645 0.18316
#
# Static dielectric constant tensor:
#      x y z
#    x 1.957840 0.000000 0.000000 
#    y 0.000000 1.903660 0.000000 
#    z 0.000000 0.000000 2.004670 
# 
# From -- ./inp_files/1867.got.cif
#   From: 2010.05.17/outbox.cif.g08.bks.cpg/sg18_1_cif.got.tgz:1867.got - 2010.06.03 22:40:56.
