data_PCOD9312409
_publ_section_title
;
Structure prediction by ZEFSAII (Michael W. Deem and Ramdas Pophale) SiO2 
 PCOD9312409
Probable space group: P 21 21 2
;
_chemical_formula_sum "Si O2"
_cell_formula_units_Z 18
_cell_length_a 9.441495
_cell_length_b 9.639467
_cell_length_c 9.106338
_cell_angle_alpha 90.000000
_cell_angle_beta 90.000000
_cell_angle_gamma 90.000000
_cell_volume 828.776741
_symmetry_space_group_name_H-M "P 21 21 2"
_symmetry_group_IT_number 18
_symmetry_cell_setting 'orthorhombic'
loop_
_space_group_symop_operation_xyz
x,y,z
-x,-y,z
1/2+x,1/2-y,-z
1/2-x,1/2+y,-z
loop_
_atom_site_type_symbol
_atom_site_label
_atom_site_fract_x
_atom_site_fract_y
_atom_site_fract_z
Si Si1 0.067885 0.142005 0.916971
Si Si2 0.500000 0.500000 0.615903
Si Si3 0.190439 0.512366 0.702151
Si Si4 0.000611 0.742544 0.604924
Si Si5 0.604273 0.893867 0.969678
O O1 0.010220 0.170956 0.754380
O O2 0.996164 0.261640 0.012522
O O3 0.238809 0.139960 0.912092
O O4 0.000000 0.000000 0.968105
O O5 0.356419 0.495815 0.705544
O O6 0.494179 0.642832 0.520953
O O7 0.119026 0.377617 0.626589
O O8 0.137488 0.539729 0.868486
O O9 0.142020 0.647882 0.609809
O O10 0.500000 0.000000 0.885886
#
# Coordination Sequence:
#
# PCOD9312409 Si02
#       5
#     4   2   4   4   4
#     4  11  22  37  64  88 120 157 197 246 302 354
#     4  12  22  36  66  88 110 160 210 242 288 358
#     4  10  22  40  61  85 122 158 196 245 303 352
#     4  10  21  42  58  84 123 157 192 250 300 342
#     4  11  22  41  62  86 123 157 196 247 304 362
#
# _framework density 21.718758999999999
#
# number of rings (size 3 to 8) (size 9 to 14) (size 15 to 20)
#    0.000    1.333    5.556    2.667    1.556    0.000 
#    0.000    0.000    4.889    0.000    0.000    0.000 
#    0.000    0.000    0.000    0.000    0.000    0.000 
#
# Total GULP energy -100471.074206 kJ/mol
# GULP energy per Si atom -5581.726345 kJ/mol
# Density = 2.166933 g / cm^3
# Si number density = 21.718759 Si / 1000 Ang^3
#
#
#
# Elastic Constant Matrix: (Units=GPa)
#
#
# Indices 1 2 3 4 5 6 
#
# 1 173.4401 54.0507 -2.7662 0.0000 0.0000 0.0000
# 2 54.0507 142.2680 14.8847 0.0000 0.0000 0.0000
# 3 -2.7662 14.8847 17.9924 0.0000 0.0000 0.0000
# 4 0.0000 0.0000 0.0000 -0.6859 0.0000 0.0000
# 5 0.0000 0.0000 0.0000 0.0000 21.1059 0.0000
# 6 0.0000 0.0000 0.0000 0.0000 0.0000 30.1061
#
#
#
# Elastic Compliance Matrix: (Units=1/GPa)
#
#
# Indices 1 2 3 4 5 6 
#
# 1 0.006730 -0.002918 0.003448 0.000000 0.000000 0.000000
# 2 -0.002918 0.008960 -0.007861 0.000000 0.000000 0.000000
# 3 0.003448 -0.007861 0.062612 0.000000 0.000000 0.000000
# 4 0.000000 0.000000 0.000000 -1.457940 0.000000 0.000000
# 5 0.000000 0.000000 0.000000 0.000000 0.047380 0.000000
# 6 0.000000 0.000000 0.000000 0.000000 0.000000 0.033216
#
#
# Mechanical properties :
#
#
# Convention : Reuss Voigt Hill
#
# Bulk Modulus (GPa) = 15.71296 51.78210 33.74753
# Shear Modulus (GPa) = -3.95830 27.94065 11.99118
#
# Velocity S-wave (km/s) = -1.35147 3.59064 2.35225
# Velocity P-wave (km/s) = 2.19434 6.40969 4.79058
#
# Compressibility (1/GPa) = 0.06364172
#
# Stress axis : x y z
#
# Youngs Moduli (GPa) = 148.59019 111.60854 15.97134
#
# Poissons Ratio (x) = 0.32563 -0.05507
# Poissons Ratio (y) = 0.43353 0.12555
# Poissons Ratio (z) = -0.51239 0.87734
#
# Static dielectric constant tensor:
#      x y z
#    x 1.788490 0.000000 0.000000 
#    y 0.000000 1.883650 0.000000 
#    z 0.000000 0.000000 1.787420 
# 
# From -- ./inp_files/5362.got.cif
#   From: 2010.05.17/outbox.cif.g08.bks.cpg/sg18_3_cif.got.tgz:5362.got - 2010.06.03 22:40:56.
