data_PCOD9312987
_publ_section_title
;
Structure prediction by ZEFSAII (Michael W. Deem and Ramdas Pophale) SiO2 
 PCOD9312987
Probable space group: P 21 21 2
;
_chemical_formula_sum "Si O2"
_cell_formula_units_Z 28
_cell_length_a 18.860896
_cell_length_b 12.242475
_cell_length_c 5.382778
_cell_angle_alpha 90.000000
_cell_angle_beta 90.000000
_cell_angle_gamma 90.000000
_cell_volume 1242.905228
_symmetry_space_group_name_H-M "P 21 21 2"
_symmetry_group_IT_number 18
_symmetry_cell_setting 'orthorhombic'
loop_
_space_group_symop_operation_xyz
x,y,z
-x,-y,z
1/2+x,1/2-y,-z
1/2-x,1/2+y,-z
loop_
_atom_site_type_symbol
_atom_site_label
_atom_site_fract_x
_atom_site_fract_y
_atom_site_fract_z
Si Si1 0.000000 0.000000 0.075260
Si Si2 0.785266 0.249327 0.369521
Si Si3 0.206128 0.191183 0.140505
Si Si4 0.442339 0.865316 0.437273
Si Si5 0.500000 0.000000 0.052661
Si Si6 0.146208 0.987822 0.379559
Si Si7 0.091510 0.579823 0.349787
Si Si8 0.411804 0.647952 0.222009
O O1 0.929978 0.014587 0.240551
O O2 0.016439 0.100492 0.891929
O O3 0.730002 0.254385 0.600230
O O4 0.824131 0.133536 0.393404
O O5 0.840973 0.348309 0.398195
O O6 0.754515 0.270189 0.091775
O O7 0.200828 0.063033 0.221358
O O8 0.129738 0.202091 0.007986
O O9 0.526678 0.882139 0.475999
O O10 0.423829 0.740441 0.426306
O O11 0.400131 0.949278 0.610728
O O12 0.438982 0.925611 0.175113
O O13 0.549435 0.913287 0.907456
O O14 0.131711 0.050609 0.641573
#
# Coordination Sequence:
#
# PCOD9312987 Si02
#       8
#     2   4   4   4   2   4   4   4
#     4  10  26  40  78 114 150 190 246 322 390 450
#     4  12  28  48  79 102 149 200 249 310 365 456
#     4  11  28  51  69 107 144 200 250 301 368 453
#     4   9  21  40  67 101 141 178 235 302 366 443
#     4   8  18  40  58 104 138 170 236 288 358 448
#     4  11  27  51  73 116 150 198 259 315 393 448
#     4   9  22  39  66 106 134 187 239 297 366 438
#     4  11  24  48  71 110 146 196 246 316 385 446
#
# _framework density 22.527861999999999
#
# number of rings (size 3 to 8) (size 9 to 14) (size 15 to 20)
#    0.000    2.000    1.429    0.429   14.000    4.571 
#    5.143    0.000    0.000    0.000    0.000    0.000 
#    0.000    0.000    0.000    0.000    0.000    0.000 
#
# Total GULP energy -155911.806725 kJ/mol
# GULP energy per Si atom -5568.278812 kJ/mol
# Density = 2.247659 g / cm^3
# Si number density = 22.527862 Si / 1000 Ang^3
#
#
#
# Elastic Constant Matrix: (Units=GPa)
#
#
# Indices 1 2 3 4 5 6 
#
# 1 58.3706 48.3241 20.2998 0.0000 0.0000 0.0000
# 2 48.3241 81.1897 28.6638 0.0000 0.0000 0.0000
# 3 20.2998 28.6638 109.1778 0.0000 0.0000 0.0000
# 4 0.0000 0.0000 0.0000 60.8068 0.0000 0.0000
# 5 0.0000 0.0000 0.0000 0.0000 87.8951 0.0000
# 6 0.0000 0.0000 0.0000 0.0000 0.0000 31.6933
#
#
#
# Elastic Compliance Matrix: (Units=1/GPa)
#
#
# Indices 1 2 3 4 5 6 
#
# 1 0.033896 -0.019783 -0.001108 0.000000 0.000000 0.000000
# 2 -0.019783 0.025122 -0.002917 0.000000 0.000000 0.000000
# 3 -0.001108 -0.002917 0.010131 0.000000 0.000000 0.000000
# 4 0.000000 0.000000 0.000000 0.016446 0.000000 0.000000
# 5 0.000000 0.000000 0.000000 0.000000 0.011377 0.000000
# 6 0.000000 0.000000 0.000000 0.000000 0.000000 0.031552
#
#
# Mechanical properties :
#
#
# Convention : Reuss Voigt Hill
#
# Bulk Modulus (GPa) = 46.44466 49.25708 47.85087
# Shear Modulus (GPa) = 27.27484 46.17573 36.72528
#
# Velocity S-wave (km/s) = 3.48331 4.53229 4.04197
# Velocity P-wave (km/s) = 6.06953 7.02149 6.56279
#
# Compressibility (1/GPa) = 0.02153100
#
# Stress axis : x y z
#
# Youngs Moduli (GPa) = 29.50218 39.80597 98.70372
#
# Poissons Ratio (x) = 0.78750 0.10940
# Poissons Ratio (y) = 0.58366 0.28793
# Poissons Ratio (z) = 0.03270 0.11612
#
# Static dielectric constant tensor:
#      x y z
#    x 1.761270 0.000000 0.000000 
#    y 0.000000 1.743580 0.000000 
#    z 0.000000 0.000000 2.071290 
# 
# From -- ./inp_files/1995.got.cif
#   From: 2010.05.17/outbox.cif.g08.bks.cpg/sg18_1_cif.got.tgz:1995.got - 2010.06.03 22:40:56.
