data_PCOD9312448
_publ_section_title
;
Structure prediction by ZEFSAII (Michael W. Deem and Ramdas Pophale) SiO2 
 PCOD9312448
Probable space group: P 21 21 2
;
_chemical_formula_sum "Si O2"
_cell_formula_units_Z 20
_cell_length_a 9.529892
_cell_length_b 14.275366
_cell_length_c 5.778941
_cell_angle_alpha 90.000000
_cell_angle_beta 90.000000
_cell_angle_gamma 90.000000
_cell_volume 786.182715
_symmetry_space_group_name_H-M "P 21 21 2"
_symmetry_group_IT_number 18
_symmetry_cell_setting 'orthorhombic'
loop_
_space_group_symop_operation_xyz
x,y,z
-x,-y,z
1/2+x,1/2-y,-z
1/2-x,1/2+y,-z
loop_
_atom_site_type_symbol
_atom_site_label
_atom_site_fract_x
_atom_site_fract_y
_atom_site_fract_z
Si Si1 0.996851 0.711351 0.990556
Si Si2 0.874529 0.549258 0.709178
Si Si3 0.263683 0.806902 0.657189
Si Si4 0.232683 0.177552 0.729751
Si Si5 0.663338 0.513653 0.080559
O O1 0.905645 0.726053 0.220222
O O2 0.157820 0.711624 0.071459
O O3 0.962709 0.607258 0.901233
O O4 0.919457 0.778823 0.803329
O O5 0.797537 0.623757 0.552799
O O6 0.000000 0.500000 0.571132
O O7 0.754702 0.496592 0.850803
O O8 0.209766 0.716188 0.515796
O O9 0.187922 0.880603 0.828919
O O10 0.214842 0.065895 0.739844
O O11 0.500000 0.500000 0.034573
#
# Coordination Sequence:
#
# PCOD9312448 Si02
#       5
#     4   4   4   4   4
#     4  10  24  43  65  95 134 178 228 277 349 406
#     4  10  21  43  67  95 131 178 230 276 338 413
#     4  10  26  41  70 100 136 174 242 277 346 416
#     4  11  25  44  71  97 143 184 223 292 347 412
#     4  11  26  44  69 101 143 182 232 289 349 411
#
# _framework density 25.439374999999998
#
# number of rings (size 3 to 8) (size 9 to 14) (size 15 to 20)
#    0.000    1.600    2.000    0.000   14.000    4.000 
#    0.000    0.000    0.000    0.000    0.000    0.000 
#    0.000    0.000    0.000    0.000    0.000    0.000 
#
# Total GULP energy -111718.647414 kJ/mol
# GULP energy per Si atom -5585.932371 kJ/mol
# Density = 2.538147 g / cm^3
# Si number density = 25.439375 Si / 1000 Ang^3
#
#
#
# Elastic Constant Matrix: (Units=GPa)
#
#
# Indices 1 2 3 4 5 6 
#
# 1 146.7202 26.8242 6.3814 0.0000 0.0000 0.0000
# 2 26.8242 103.3782 6.7144 0.0000 0.0000 0.0000
# 3 6.3814 6.7144 36.4241 0.0000 0.0000 0.0000
# 4 0.0000 0.0000 0.0000 30.6219 0.0000 0.0000
# 5 0.0000 0.0000 0.0000 0.0000 29.4255 0.0000
# 6 0.0000 0.0000 0.0000 0.0000 0.0000 31.7164
#
#
#
# Elastic Compliance Matrix: (Units=1/GPa)
#
#
# Indices 1 2 3 4 5 6 
#
# 1 0.007186 -0.001804 -0.000926 0.000000 0.000000 0.000000
# 2 -0.001804 0.010244 -0.001572 0.000000 0.000000 0.000000
# 3 -0.000926 -0.001572 0.027906 0.000000 0.000000 0.000000
# 4 0.000000 0.000000 0.000000 0.032656 0.000000 0.000000
# 5 0.000000 0.000000 0.000000 0.000000 0.033984 0.000000
# 6 0.000000 0.000000 0.000000 0.000000 0.000000 0.031529
#
#
# Mechanical properties :
#
#
# Convention : Reuss Voigt Hill
#
# Bulk Modulus (GPa) = 27.22563 40.70696 33.96629
# Shear Modulus (GPa) = 30.42197 34.79293 32.60745
#
# Velocity S-wave (km/s) = 3.46187 3.70223 3.58407
# Velocity P-wave (km/s) = 5.16767 5.85761 5.52343
#
# Compressibility (1/GPa) = 0.03673010
#
# Stress axis : x y z
#
# Youngs Moduli (GPa) = 139.16195 97.62260 35.83397
#
# Poissons Ratio (x) = 0.17615 0.03319
# Poissons Ratio (y) = 0.25110 0.05634
# Poissons Ratio (z) = 0.12891 0.15348
#
# Static dielectric constant tensor:
#      x y z
#    x 2.039540 0.000000 0.000000 
#    y 0.000000 2.064150 0.000000 
#    z 0.000000 0.000000 1.993640 
# 
# From -- ./inp_files/533.got.cif
#   From: 2010.05.17/outbox.cif.g08.bks.cpg/sg18_1_cif.got.tgz:533.got - 2010.06.03 22:40:56.
