data_PCOD9312330
_publ_section_title
;
Structure prediction by ZEFSAII (Michael W. Deem and Ramdas Pophale) SiO2 
 PCOD9312330
Probable space group: P 21 21 2
;
_chemical_formula_sum "Si O2"
_cell_formula_units_Z 24
_cell_length_a 10.974608
_cell_length_b 7.932553
_cell_length_c 9.991639
_cell_angle_alpha 90.000000
_cell_angle_beta 90.000000
_cell_angle_gamma 90.000000
_cell_volume 869.838715
_symmetry_space_group_name_H-M "P 21 21 2"
_symmetry_group_IT_number 18
_symmetry_cell_setting 'orthorhombic'
loop_
_space_group_symop_operation_xyz
x,y,z
-x,-y,z
1/2+x,1/2-y,-z
1/2-x,1/2+y,-z
loop_
_atom_site_type_symbol
_atom_site_label
_atom_site_fract_x
_atom_site_fract_y
_atom_site_fract_z
Si Si1 0.718325 0.554399 0.531161
Si Si2 0.411635 0.128852 0.598038
Si Si3 0.718325 0.945601 0.031161
Si Si4 0.909869 0.844096 0.255802
Si Si5 0.409869 0.844096 0.244198
Si Si6 0.911635 0.128852 0.901962
O O1 0.618064 0.700048 0.517309
O O2 0.788551 0.483137 0.402379
O O3 0.664587 0.390665 0.608129
O O4 0.810148 0.641709 0.639407
O O5 0.497602 0.188720 0.720657
O O6 0.500000 0.000000 0.523837
O O7 0.810148 0.858291 0.139407
O O8 0.618064 0.799952 0.017309
O O9 0.664587 0.109335 0.108129
O O10 0.788551 0.016864 0.902379
O O11 0.000000 0.000000 0.245309
O O12 0.502398 0.688720 0.220657
O O13 0.500000 0.000000 0.254691
O O14 0.000000 0.000000 0.976162
#
# Coordination Sequence:
#
# PCOD9312330 Si02
#       6
#     4   4   4   4   4   4
#     4  10  21  39  62  91 129 166 213 267 319 386
#     4  11  22  38  63  92 124 168 217 263 324 385
#     4  10  21  39  62  91 129 166 213 267 319 386
#     4   9  20  39  63  92 126 166 208 264 328 385
#     4   9  20  39  63  92 126 166 208 264 328 385
#     4  11  22  38  63  92 124 168 217 263 324 385
#
# _framework density 27.591322999999999
#
# number of rings (size 3 to 8) (size 9 to 14) (size 15 to 20)
#    0.000    2.000    0.000    3.000    0.000    1.333 
#    0.000    6.667    0.000    8.000    0.000    0.000 
#    0.000    0.000    0.000    0.000    0.000    0.000 
#
# Total GULP energy -133853.626442 kJ/mol
# GULP energy per Si atom -5577.234435 kJ/mol
# Density = 2.752852 g / cm^3
# Si number density = 27.591323 Si / 1000 Ang^3
#
#
#
# Elastic Constant Matrix: (Units=GPa)
#
#
# Indices 1 2 3 4 5 6 
#
# 1 110.4198 54.3379 58.7318 0.0000 0.0000 0.0000
# 2 54.3379 172.8124 29.2715 0.0000 0.0000 0.0000
# 3 58.7318 29.2715 107.4740 0.0000 0.0000 0.0000
# 4 0.0000 0.0000 0.0000 3.0028 0.0000 0.0000
# 5 0.0000 0.0000 0.0000 0.0000 29.1479 0.0000
# 6 0.0000 0.0000 0.0000 0.0000 0.0000 102.3405
#
#
#
# Elastic Compliance Matrix: (Units=1/GPa)
#
#
# Indices 1 2 3 4 5 6 
#
# 1 0.014408 -0.003351 -0.006961 0.000000 0.000000 0.000000
# 2 -0.003351 0.006846 -0.000033 0.000000 0.000000 0.000000
# 3 -0.006961 -0.000033 0.013118 0.000000 0.000000 0.000000
# 4 0.000000 0.000000 0.000000 0.333026 0.000000 0.000000
# 5 0.000000 0.000000 0.000000 0.000000 0.034308 0.000000
# 6 0.000000 0.000000 0.000000 0.000000 0.000000 0.009771
#
#
# Mechanical properties :
#
#
# Convention : Reuss Voigt Hill
#
# Bulk Modulus (GPa) = 73.09464 75.04320 74.06892
# Shear Modulus (GPa) = 11.44880 43.45591 27.45235
#
# Velocity S-wave (km/s) = 2.03922 3.97291 3.15773
# Velocity P-wave (km/s) = 5.66515 6.95000 6.34021
#
# Compressibility (1/GPa) = 0.01368089
#
# Stress axis : x y z
#
# Youngs Moduli (GPa) = 69.40613 146.07083 76.23388
#
# Poissons Ratio (x) = 0.48952 0.53065
# Poissons Ratio (y) = 0.23260 0.00253
# Poissons Ratio (z) = 0.48312 0.00485
#
# Static dielectric constant tensor:
#      x y z
#    x 2.422070 0.000000 0.000000 
#    y 0.000000 2.165580 0.000000 
#    z 0.000000 0.000000 2.146540 
# 
# From -- ./inp_files/5837.got.cif
#   From: 2010.05.17/outbox.cif.g08.bks.cpg/sg18_3_cif.got.tgz:5837.got - 2010.06.03 22:40:56.
