data_PCOD9312134
_publ_section_title
;
Structure prediction by ZEFSAII (Michael W. Deem and Ramdas Pophale) SiO2 
 PCOD9312134
Probable space group: P 21 21 2
;
_chemical_formula_sum "Si O2"
_cell_formula_units_Z 32
_cell_length_a 15.581583
_cell_length_b 15.474446
_cell_length_c 6.043228
_cell_angle_alpha 90.000000
_cell_angle_beta 90.000000
_cell_angle_gamma 90.000000
_cell_volume 1457.121167
_symmetry_space_group_name_H-M "P 21 21 2"
_symmetry_group_IT_number 18
_symmetry_cell_setting 'orthorhombic'
loop_
_space_group_symop_operation_xyz
x,y,z
-x,-y,z
1/2+x,1/2-y,-z
1/2-x,1/2+y,-z
loop_
_atom_site_type_symbol
_atom_site_label
_atom_site_fract_x
_atom_site_fract_y
_atom_site_fract_z
Si Si1 0.445319 0.215097 0.163136
Si Si2 0.908521 0.665719 0.110769
Si Si3 0.427159 0.700589 0.519989
Si Si4 0.282883 0.115334 0.091658
Si Si5 0.357559 0.527437 0.600722
Si Si6 0.778787 0.736408 0.763198
Si Si7 0.635529 0.631212 0.882990
Si Si8 0.730741 0.042416 0.782489
O O1 0.501314 0.253749 0.365259
O O2 0.360487 0.160593 0.224488
O O3 0.501216 0.149478 0.009845
O O4 0.420315 0.298446 0.012567
O O5 0.927270 0.753915 0.243006
O O6 0.853222 0.601605 0.266810
O O7 0.845203 0.679733 0.904383
O O8 0.426620 0.596761 0.512701
O O9 0.332853 0.724322 0.430955
O O10 0.204468 0.081395 0.236443
O O11 0.250458 0.188933 0.927254
O O12 0.306239 0.034899 0.934178
O O13 0.398541 0.450088 0.745589
O O14 0.290079 0.492426 0.416974
O O15 0.694840 0.682583 0.706539
O O16 0.700724 0.594240 0.067311
#
# Coordination Sequence:
#
# PCOD9312134 Si02
#       8
#     4   4   4   4   4   4   4   4
#     4  10  24  41  60  90 132 168 201 253 326 376
#     4  10  21  38  59  87 124 162 200 256 315 370
#     4  11  21  37  63  92 123 162 206 256 313 369
#     4  10  20  39  63  90 120 165 210 257 303 369
#     4  11  21  37  67  95 119 161 220 260 300 362
#     4   9  17  37  62  83 116 158 204 251 301 368
#     4   9  21  39  60  89 120 159 208 256 308 374
#     4  10  21  38  64  92 119 157 213 263 305 363
#
# _framework density 21.961110999999999
#
# number of rings (size 3 to 8) (size 9 to 14) (size 15 to 20)
#    0.000    2.000    2.500    0.750    0.000    3.500 
#    0.000    3.750    0.000    0.000    0.000    0.000 
#    0.000    0.000    0.000    0.000    0.000    0.000 
#
# Total GULP energy -178374.970223 kJ/mol
# GULP energy per Si atom -5574.217819 kJ/mol
# Density = 2.191113 g / cm^3
# Si number density = 21.961111 Si / 1000 Ang^3
#
#
#
# Elastic Constant Matrix: (Units=GPa)
#
#
# Indices 1 2 3 4 5 6 
#
# 1 63.2284 25.7446 6.1021 0.0000 0.0000 0.0000
# 2 25.7446 44.5217 2.6262 0.0000 0.0000 0.0000
# 3 6.1021 2.6262 26.1505 0.0000 0.0000 0.0000
# 4 0.0000 0.0000 0.0000 39.7062 0.0000 0.0000
# 5 0.0000 0.0000 0.0000 0.0000 24.6182 0.0000
# 6 0.0000 0.0000 0.0000 0.0000 0.0000 31.8610
#
#
#
# Elastic Compliance Matrix: (Units=1/GPa)
#
#
# Indices 1 2 3 4 5 6 
#
# 1 0.021038 -0.011946 -0.003709 0.000000 0.000000 0.000000
# 2 -0.011946 0.029379 -0.000163 0.000000 0.000000 0.000000
# 3 -0.003709 -0.000163 0.039122 0.000000 0.000000 0.000000
# 4 0.000000 0.000000 0.000000 0.025185 0.000000 0.000000
# 5 0.000000 0.000000 0.000000 0.000000 0.040620 0.000000
# 6 0.000000 0.000000 0.000000 0.000000 0.000000 0.031386
#
#
# Mechanical properties :
#
#
# Convention : Reuss Voigt Hill
#
# Bulk Modulus (GPa) = 17.27068 22.53849 19.90459
# Shear Modulus (GPa) = 21.03778 25.86559 23.45169
#
# Velocity S-wave (km/s) = 3.09844 3.43562 3.27138
# Velocity P-wave (km/s) = 4.54772 5.10129 4.83244
#
# Compressibility (1/GPa) = 0.05790160
#
# Stress axis : x y z
#
# Youngs Moduli (GPa) = 47.53338 34.03846 25.56097
#
# Poissons Ratio (x) = 0.40663 0.09482
# Poissons Ratio (y) = 0.56785 0.00416
# Poissons Ratio (z) = 0.17632 0.00554
#
# Static dielectric constant tensor:
#      x y z
#    x 1.821860 0.000000 0.000000 
#    y 0.000000 1.873630 0.000000 
#    z 0.000000 0.000000 1.823760 
# 
# From -- ./inp_files/1874.got.cif
#   From: 2010.05.17/outbox.cif.g08.bks.cpg/sg18_1_cif.got.tgz:1874.got - 2010.06.03 22:40:56.
