data_PCOD9312010
_publ_section_title
;
Structure prediction by ZEFSAII (Michael W. Deem and Ramdas Pophale) SiO2 
 PCOD9312010
Probable space group: P 21 21 2
;
_chemical_formula_sum "Si O2"
_cell_formula_units_Z 26
_cell_length_a 5.207821
_cell_length_b 15.001323
_cell_length_c 15.667442
_cell_angle_alpha 90.000000
_cell_angle_beta 90.000000
_cell_angle_gamma 90.000000
_cell_volume 1224.006450
_symmetry_space_group_name_H-M "P 21 21 2"
_symmetry_group_IT_number 18
_symmetry_cell_setting 'orthorhombic'
loop_
_space_group_symop_operation_xyz
x,y,z
-x,-y,z
1/2+x,1/2-y,-z
1/2-x,1/2+y,-z
loop_
_atom_site_type_symbol
_atom_site_label
_atom_site_fract_x
_atom_site_fract_y
_atom_site_fract_z
Si Si1 0.500000 0.500000 0.430972
Si Si2 0.354963 0.340517 0.305560
Si Si3 0.159584 0.643911 0.666552
Si Si4 0.531189 0.811024 0.993121
Si Si5 0.846312 0.626547 0.833079
Si Si6 0.859405 0.318650 0.191879
Si Si7 0.500000 0.500000 0.735040
Si Si8 0.500000 0.000000 0.454914
O O1 0.416443 0.418360 0.371116
O O2 0.749879 0.481790 0.488486
O O3 0.325769 0.246919 0.356953
O O4 0.592346 0.339574 0.238771
O O5 0.092226 0.347719 0.252136
O O6 0.407629 0.581398 0.675984
O O7 0.060949 0.648085 0.763498
O O8 0.974002 0.586112 0.606507
O O9 0.603711 0.856183 0.903431
O O10 0.776834 0.750525 0.019023
O O11 0.457536 0.873725 0.072244
O O12 0.652156 0.711214 0.824550
O O13 0.714611 0.538343 0.798047
#
# Coordination Sequence:
#
# PCOD9312010 Si02
#       8
#     2   4   4   4   4   4   2   2
#     4  12  29  48  69  96 128 172 228 297 338 415
#     4  11  24  45  71  94 128 178 232 270 343 402
#     4  11  23  40  68  99 137 176 216 271 350 430
#     4  10  20  35  60  96 136 172 224 268 317 385
#     4  10  21  34  63  98 136 179 213 267 334 403
#     4  10  20  39  67  95 127 180 225 268 322 393
#     4  12  19  38  61 100 140 178 218 275 338 423
#     4  12  26  44  70 100 134 164 210 288 364 410
#
# _framework density 21.241720000000001
#
# number of rings (size 3 to 8) (size 9 to 14) (size 15 to 20)
#    0.000    1.231    3.077    4.154    2.154    1.231 
#    0.000    0.769    3.385    0.000    0.000    0.000 
#    0.000    0.000    0.000    0.000    0.000    0.000 
#
# Total GULP energy -145192.093208 kJ/mol
# GULP energy per Si atom -5584.311277 kJ/mol
# Density = 2.119337 g / cm^3
# Si number density = 21.241720 Si / 1000 Ang^3
#
#
#
# Elastic Constant Matrix: (Units=GPa)
#
#
# Indices 1 2 3 4 5 6 
#
# 1 130.4194 16.0420 38.1394 0.0000 0.0000 0.0000
# 2 16.0420 98.9440 47.1418 0.0000 0.0000 0.0000
# 3 38.1394 47.1418 116.2918 0.0000 0.0000 0.0000
# 4 0.0000 0.0000 0.0000 22.3122 0.0000 0.0000
# 5 0.0000 0.0000 0.0000 0.0000 34.2294 0.0000
# 6 0.0000 0.0000 0.0000 0.0000 0.0000 24.2143
#
#
#
# Elastic Compliance Matrix: (Units=1/GPa)
#
#
# Indices 1 2 3 4 5 6 
#
# 1 0.008481 -0.000062 -0.002757 0.000000 0.000000 0.000000
# 2 -0.000062 0.012526 -0.005058 0.000000 0.000000 0.000000
# 3 -0.002757 -0.005058 0.011553 0.000000 0.000000 0.000000
# 4 0.000000 0.000000 0.000000 0.044819 0.000000 0.000000
# 5 0.000000 0.000000 0.000000 0.000000 0.029215 0.000000
# 6 0.000000 0.000000 0.000000 0.000000 0.000000 0.041298
#
#
# Mechanical properties :
#
#
# Convention : Reuss Voigt Hill
#
# Bulk Modulus (GPa) = 59.49113 60.92239 60.20676
# Shear Modulus (GPa) = 29.54261 32.43999 30.99130
#
# Velocity S-wave (km/s) = 3.73337 3.91216 3.82381
# Velocity P-wave (km/s) = 6.83019 7.01067 6.92102
#
# Compressibility (1/GPa) = 0.01680923
#
# Stress axis : x y z
#
# Youngs Moduli (GPa) = 117.90682 79.83105 86.55497
#
# Poissons Ratio (x) = 0.00493 0.23859
# Poissons Ratio (y) = 0.00728 0.43777
# Poissons Ratio (z) = 0.32501 0.40376
#
# Static dielectric constant tensor:
#      x y z
#    x 1.803600 0.000000 0.000000 
#    y 0.000000 1.819770 0.000000 
#    z 0.000000 0.000000 1.768250 
# 
# From -- ./inp_files/6513.got.cif
#   From: 2010.05.17/outbox.cif.g08.bks.cpg/sg18_4_cif.got.tgz:6513.got - 2010.06.03 22:40:56.
