data_PCOD9312580
_publ_section_title
;
Structure prediction by ZEFSAII (Michael W. Deem and Ramdas Pophale) SiO2 
 PCOD9312580
Probable space group: P 21 21 2
;
_chemical_formula_sum "Si O2"
_cell_formula_units_Z 24
_cell_length_a 21.876118
_cell_length_b 8.706801
_cell_length_c 5.379019
_cell_angle_alpha 90.000000
_cell_angle_beta 90.000000
_cell_angle_gamma 90.000000
_cell_volume 1024.547161
_symmetry_space_group_name_H-M "P 21 21 2"
_symmetry_group_IT_number 18
_symmetry_cell_setting 'orthorhombic'
loop_
_space_group_symop_operation_xyz
x,y,z
-x,-y,z
1/2+x,1/2-y,-z
1/2-x,1/2+y,-z
loop_
_atom_site_type_symbol
_atom_site_label
_atom_site_fract_x
_atom_site_fract_y
_atom_site_fract_z
Si Si1 0.930019 0.765797 0.705261
Si Si2 0.000000 0.500000 0.824599
Si Si3 0.613815 0.805410 0.102466
Si Si4 0.500000 0.500000 0.586676
Si Si5 0.306582 0.714129 0.589322
Si Si6 0.114344 0.023094 0.083305
Si Si7 0.182208 0.580172 0.393752
O O1 0.950375 0.594152 0.674107
O O2 0.984036 0.860097 0.587439
O O3 0.866612 0.802765 0.578173
O O4 0.918995 0.822980 0.982525
O O5 0.955229 0.372208 0.946475
O O6 0.643315 0.872838 0.357615
O O7 0.619741 0.619004 0.106150
O O8 0.651649 0.858412 0.859077
O O9 0.562124 0.537569 0.730979
O O10 0.322555 0.590351 0.807173
O O11 0.246685 0.662717 0.445447
O O12 0.306252 0.896741 0.644516
#
# Coordination Sequence:
#
# PCOD9312580 Si02
#       7
#     4   2   4   2   4   4   4
#     4  11  24  44  72 107 148 203 255 328 394 468
#     4  12  24  48  76 110 164 196 272 326 402 482
#     4  12  29  47  82 114 156 206 260 325 400 470
#     4  10  22  40  68 104 146 192 258 310 392 472
#     4  11  27  48  79 108 158 201 269 326 394 478
#     4  11  25  45  73 109 149 206 258 324 399 469
#     4  12  29  51  76 119 152 210 261 326 399 468
#
# _framework density 23.424985
#
# number of rings (size 3 to 8) (size 9 to 14) (size 15 to 20)
#    0.000    0.667    1.667    4.500   11.667    2.000 
#    0.000    0.000    0.000    0.000    0.000    0.000 
#    0.000    0.000    0.000    0.000    0.000    0.000 
#
# Total GULP energy -133939.614963 kJ/mol
# GULP energy per Si atom -5580.817290 kJ/mol
# Density = 2.337167 g / cm^3
# Si number density = 23.424985 Si / 1000 Ang^3
#
#
#
# Elastic Constant Matrix: (Units=GPa)
#
#
# Indices 1 2 3 4 5 6 
#
# 1 85.7111 39.5096 13.8251 0.0000 0.0000 0.0000
# 2 39.5096 132.1385 10.9756 0.0000 0.0000 0.0000
# 3 13.8251 10.9756 57.6358 0.0000 0.0000 0.0000
# 4 0.0000 0.0000 0.0000 32.3033 0.0000 0.0000
# 5 0.0000 0.0000 0.0000 0.0000 36.9618 0.0000
# 6 0.0000 0.0000 0.0000 0.0000 0.0000 46.4230
#
#
#
# Elastic Compliance Matrix: (Units=1/GPa)
#
#
# Indices 1 2 3 4 5 6 
#
# 1 0.013901 -0.003942 -0.002584 0.000000 0.000000 0.000000
# 2 -0.003942 0.008807 -0.000732 0.000000 0.000000 0.000000
# 3 -0.002584 -0.000732 0.018109 0.000000 0.000000 0.000000
# 4 0.000000 0.000000 0.000000 0.030957 0.000000 0.000000
# 5 0.000000 0.000000 0.000000 0.000000 0.027055 0.000000
# 6 0.000000 0.000000 0.000000 0.000000 0.000000 0.021541
#
#
# Mechanical properties :
#
#
# Convention : Reuss Voigt Hill
#
# Bulk Modulus (GPa) = 38.01829 44.90067 41.45948
# Shear Modulus (GPa) = 34.80631 37.21596 36.01113
#
# Velocity S-wave (km/s) = 3.85887 3.99021 3.92509
# Velocity P-wave (km/s) = 6.00995 6.35913 6.18700
#
# Compressibility (1/GPa) = 0.02630313
#
# Stress axis : x y z
#
# Youngs Moduli (GPa) = 71.93802 113.54371 55.21985
#
# Poissons Ratio (x) = 0.44756 0.14267
# Poissons Ratio (y) = 0.28356 0.04040
# Poissons Ratio (z) = 0.18587 0.08307
#
# Static dielectric constant tensor:
#      x y z
#    x 1.851650 0.000000 0.000000 
#    y 0.000000 1.878030 0.000000 
#    z 0.000000 0.000000 1.972750 
# 
# From -- ./inp_files/2096.got.cif
#   From: 2010.05.17/outbox.cif.g08.bks.cpg/sg18_2_cif.got.tgz:2096.got - 2010.06.03 22:40:56.
