data_PCOD9312003
_publ_section_title
;
Structure prediction by ZEFSAII (Michael W. Deem and Ramdas Pophale) SiO2 
 PCOD9312003
Probable space group: P 21 21 2
;
_chemical_formula_sum "Si O2"
_cell_formula_units_Z 32
_cell_length_a 12.658696
_cell_length_b 11.213192
_cell_length_c 8.223976
_cell_angle_alpha 90.000000
_cell_angle_beta 90.000000
_cell_angle_gamma 90.000000
_cell_volume 1167.347246
_symmetry_space_group_name_H-M "P 21 21 2"
_symmetry_group_IT_number 18
_symmetry_cell_setting 'orthorhombic'
loop_
_space_group_symop_operation_xyz
x,y,z
-x,-y,z
1/2+x,1/2-y,-z
1/2-x,1/2+y,-z
loop_
_atom_site_type_symbol
_atom_site_label
_atom_site_fract_x
_atom_site_fract_y
_atom_site_fract_z
Si Si1 0.380925 0.523873 0.202586
Si Si2 0.181483 0.027048 0.441213
Si Si3 0.101450 0.286328 0.407662
Si Si4 0.637536 0.709088 0.972168
Si Si5 0.148345 0.656597 0.717844
Si Si6 0.436841 0.877370 0.909819
Si Si7 0.632899 0.726381 0.613584
Si Si8 0.602719 0.196661 0.228073
O O1 0.500000 0.500000 0.266847
O O2 0.306934 0.519296 0.363349
O O3 0.387131 0.665366 0.170334
O O4 0.366592 0.423473 0.058677
O O5 0.291613 0.040223 0.343953
O O6 0.120679 0.146224 0.391820
O O7 0.115290 0.913925 0.390024
O O8 0.133597 0.356623 0.248046
O O9 0.974087 0.303237 0.395807
O O10 0.142110 0.314273 0.587214
O O11 0.519727 0.766894 0.937237
O O12 0.685093 0.735054 0.792433
O O13 0.687302 0.794161 0.109753
O O14 0.177257 0.742716 0.565493
O O15 0.022215 0.659416 0.741679
O O16 0.500000 0.000000 0.895773
O O17 0.367427 0.881836 0.072787
#
# Coordination Sequence:
#
# PCOD9312003 Si02
#       8
#     4   4   4   4   4   4   4   4
#     4  11  17  36  69  95 115 153 214 280 307 348
#     4  11  21  35  62  92 123 159 207 261 317 374
#     4   9  20  37  60  93 115 148 216 267 292 362
#     4  10  21  38  66  89 122 162 207 263 319 358
#     4  10  20  40  52  86 133 157 197 247 317 393
#     4  10  20  35  58  87 121 157 198 250 312 370
#     4  10  20  39  64  87 119 164 206 259 320 355
#     4   9  19  36  61  85 118 160 202 257 315 361
#
# _framework density 27.412580999999999
#
# number of rings (size 3 to 8) (size 9 to 14) (size 15 to 20)
#    0.000    2.000    3.750    1.875    1.750    0.500 
#    2.250   11.250    0.000    0.000    0.000    0.000 
#    0.000    0.000    0.000    0.000    0.000    0.000 
#
# Total GULP energy -178603.460081 kJ/mol
# GULP energy per Si atom -5581.358128 kJ/mol
# Density = 2.735019 g / cm^3
# Si number density = 27.412581 Si / 1000 Ang^3
#
#
#
# Elastic Constant Matrix: (Units=GPa)
#
#
# Indices 1 2 3 4 5 6 
#
# 1 52.8958 24.9606 29.7107 0.0000 0.0000 0.0000
# 2 24.9606 119.5363 69.3998 0.0000 0.0000 0.0000
# 3 29.7107 69.3998 281.3431 0.0000 0.0000 0.0000
# 4 0.0000 0.0000 0.0000 37.4856 0.0000 0.0000
# 5 0.0000 0.0000 0.0000 0.0000 47.4804 0.0000
# 6 0.0000 0.0000 0.0000 0.0000 0.0000 34.9853
#
#
#
# Elastic Compliance Matrix: (Units=1/GPa)
#
#
# Indices 1 2 3 4 5 6 
#
# 1 0.021403 -0.003685 -0.001351 0.000000 0.000000 0.000000
# 2 -0.003685 0.010398 -0.002176 0.000000 0.000000 0.000000
# 3 -0.001351 -0.002176 0.004234 0.000000 0.000000 0.000000
# 4 0.000000 0.000000 0.000000 0.026677 0.000000 0.000000
# 5 0.000000 0.000000 0.000000 0.000000 0.021061 0.000000
# 6 0.000000 0.000000 0.000000 0.000000 0.000000 0.028583
#
#
# Mechanical properties :
#
#
# Convention : Reuss Voigt Hill
#
# Bulk Modulus (GPa) = 46.27205 77.99082 62.13143
# Shear Modulus (GPa) = 37.31788 45.97053 41.64421
#
# Velocity S-wave (km/s) = 3.69364 4.09955 3.90187
# Velocity P-wave (km/s) = 5.92513 7.13589 6.55851
#
# Compressibility (1/GPa) = 0.02161132
#
# Stress axis : x y z
#
# Youngs Moduli (GPa) = 46.72281 96.16943 236.19389
#
# Poissons Ratio (x) = 0.35435 0.31917
# Poissons Ratio (y) = 0.17216 0.51393
# Poissons Ratio (z) = 0.06314 0.20925
#
# Static dielectric constant tensor:
#      x y z
#    x 2.370200 0.000000 0.000000 
#    y 0.000000 2.104380 0.000000 
#    z 0.000000 0.000000 2.202700 
# 
# From -- ./inp_files/4605.got.cif
#   From: 2010.05.17/outbox.cif.g08.bks.cpg/sg18_3_cif.got.tgz:4605.got - 2010.06.03 22:40:56.
