data_PCOD9312576
_publ_section_title
;
Structure prediction by ZEFSAII (Michael W. Deem and Ramdas Pophale) SiO2 
 PCOD9312576
Probable space group: P 21 21 2
;
_chemical_formula_sum "Si O2"
_cell_formula_units_Z 28
_cell_length_a 8.196820
_cell_length_b 19.112985
_cell_length_c 7.715830
_cell_angle_alpha 90.000000
_cell_angle_beta 90.000000
_cell_angle_gamma 90.000000
_cell_volume 1208.805890
_symmetry_space_group_name_H-M "P 21 21 2"
_symmetry_group_IT_number 18
_symmetry_cell_setting 'orthorhombic'
loop_
_space_group_symop_operation_xyz
x,y,z
-x,-y,z
1/2+x,1/2-y,-z
1/2-x,1/2+y,-z
loop_
_atom_site_type_symbol
_atom_site_label
_atom_site_fract_x
_atom_site_fract_y
_atom_site_fract_z
Si Si1 0.754231 0.174711 0.624266
Si Si2 0.830866 0.962405 0.958183
Si Si3 0.624395 0.324853 0.249766
Si Si4 0.325619 0.666878 0.626718
Si Si5 0.316001 0.325485 0.763199
Si Si6 0.393516 0.062071 0.226092
Si Si7 0.139880 0.407575 0.070950
O O1 0.692173 0.251795 0.593601
O O2 0.765464 0.144972 0.428449
O O3 0.928273 0.184649 0.724910
O O4 0.632958 0.137019 0.755925
O O5 0.780587 0.966678 0.161053
O O6 0.706912 0.017198 0.871212
O O7 0.837073 0.883152 0.893296
O O8 0.000000 0.000000 0.927829
O O9 0.656624 0.363072 0.433904
O O10 0.731432 0.253067 0.222217
O O11 0.487308 0.666681 0.746683
O O12 0.155841 0.633844 0.687563
O O13 0.256256 0.369063 0.928946
O O14 0.482491 0.081501 0.046667
O O15 0.500000 0.000000 0.308078
#
# Coordination Sequence:
#
# PCOD9312576 Si02
#       7
#     4   4   4   4   4   4   4
#     4  10  22  40  67 101 135 173 231 283 341 411
#     4  11  22  42  64  93 131 177 230 275 346 414
#     4  10  22  42  66  99 139 175 227 297 343 410
#     4  10  22  41  66 103 134 178 231 282 346 414
#     4  10  23  41  69 103 133 177 232 288 345 403
#     4  10  24  43  62  96 136 179 234 274 344 418
#     4  11  23  42  67  95 134 183 219 287 338 411
#
# _framework density 23.163354000000002
#
# number of rings (size 3 to 8) (size 9 to 14) (size 15 to 20)
#    0.000    1.714    1.429    1.714    4.000    1.143 
#    5.143    1.429    0.000    0.000    0.000    0.000 
#    0.000    0.000    0.000    0.000    0.000    0.000 
#
# Total GULP energy -155940.887067 kJ/mol
# GULP energy per Si atom -5569.317395 kJ/mol
# Density = 2.311063 g / cm^3
# Si number density = 23.163354 Si / 1000 Ang^3
#
#
#
# Elastic Constant Matrix: (Units=GPa)
#
#
# Indices 1 2 3 4 5 6 
#
# 1 67.9238 7.2508 10.5811 0.0000 0.0000 0.0000
# 2 7.2508 64.0979 27.6105 0.0000 0.0000 0.0000
# 3 10.5811 27.6105 67.6567 0.0000 0.0000 0.0000
# 4 0.0000 0.0000 0.0000 168.7354 0.0000 0.0000
# 5 0.0000 0.0000 0.0000 0.0000 54.8028 0.0000
# 6 0.0000 0.0000 0.0000 0.0000 0.0000 32.4528
#
#
#
# Elastic Compliance Matrix: (Units=1/GPa)
#
#
# Indices 1 2 3 4 5 6 
#
# 1 0.015127 -0.000840 -0.002023 0.000000 0.000000 0.000000
# 2 -0.000840 0.018975 -0.007612 0.000000 0.000000 0.000000
# 3 -0.002023 -0.007612 0.018203 0.000000 0.000000 0.000000
# 4 0.000000 0.000000 0.000000 0.005926 0.000000 0.000000
# 5 0.000000 0.000000 0.000000 0.000000 0.018247 0.000000
# 6 0.000000 0.000000 0.000000 0.000000 0.000000 0.030814
#
#
# Mechanical properties :
#
#
# Convention : Reuss Voigt Hill
#
# Bulk Modulus (GPa) = 31.89243 32.28481 32.08862
# Shear Modulus (GPa) = 36.05014 61.48063 48.76538
#
# Velocity S-wave (km/s) = 3.94933 5.15750 4.59331
# Velocity P-wave (km/s) = 5.88172 7.03097 6.48187
#
# Compressibility (1/GPa) = 0.03135540
#
# Stress axis : x y z
#
# Youngs Moduli (GPa) = 66.10622 52.70037 54.93453
#
# Poissons Ratio (x) = 0.04425 0.11114
# Poissons Ratio (y) = 0.05551 0.41818
# Poissons Ratio (z) = 0.13374 0.40118
#
# Static dielectric constant tensor:
#      x y z
#    x 1.980870 0.000000 0.000000 
#    y 0.000000 1.915580 0.000000 
#    z 0.000000 0.000000 1.971410 
# 
# From -- ./inp_files/3374.got.cif
#   From: 2010.05.17/outbox.cif.g08.bks.cpg/sg18_2_cif.got.tgz:3374.got - 2010.06.03 22:40:56.
