data_PCOD9312153
_publ_section_title
;
Structure prediction by ZEFSAII (Michael W. Deem and Ramdas Pophale) SiO2 
 PCOD9312153
Probable space group: P 21 21 2
;
_chemical_formula_sum "Si O2"
_cell_formula_units_Z 30
_cell_length_a 13.801487
_cell_length_b 16.511609
_cell_length_c 5.597999
_cell_angle_alpha 90.000000
_cell_angle_beta 90.000000
_cell_angle_gamma 90.000000
_cell_volume 1275.698642
_symmetry_space_group_name_H-M "P 21 21 2"
_symmetry_group_IT_number 18
_symmetry_cell_setting 'orthorhombic'
loop_
_space_group_symop_operation_xyz
x,y,z
-x,-y,z
1/2+x,1/2-y,-z
1/2-x,1/2+y,-z
loop_
_atom_site_type_symbol
_atom_site_label
_atom_site_fract_x
_atom_site_fract_y
_atom_site_fract_z
Si Si1 0.221998 0.827328 0.916271
Si Si2 0.839197 0.029863 0.205964
Si Si3 0.670619 0.416156 0.178220
Si Si4 0.000000 0.000000 0.555678
Si Si5 0.381104 0.757657 0.247879
Si Si6 0.428448 0.187456 0.067262
Si Si7 0.499963 0.131892 0.559369
Si Si8 0.691520 0.046109 0.586838
O O1 0.153758 0.898584 0.016603
O O2 0.310797 0.817075 0.101076
O O3 0.261413 0.869595 0.679010
O O4 0.165684 0.743080 0.898075
O O5 0.734638 0.031748 0.327441
O O6 0.923516 0.046347 0.392098
O O7 0.845840 0.940199 0.096311
O O8 0.569995 0.444247 0.294075
O O9 0.678537 0.324569 0.257528
O O10 0.759759 0.473393 0.261066
O O11 0.478465 0.752728 0.088701
O O12 0.427876 0.792174 0.491265
O O13 0.441414 0.129813 0.304561
O O14 0.440739 0.147558 0.803924
O O15 0.577326 0.059496 0.594528
#
# Coordination Sequence:
#
# PCOD9312153 Si02
#       8
#     4   4   4   2   4   4   4   4
#     4  11  22  39  62  92 122 169 210 262 315 385
#     4  10  21  34  57  82 123 170 198 248 314 393
#     4  10  23  35  55  92 122 165 202 258 325 376
#     4  10  22  32  52  86 134 158 198 246 314 402
#     4  10  23  39  60  93 131 158 211 264 314 372
#     4  10  24  35  64  92 126 156 213 258 312 365
#     4  10  21  41  61  92 120 167 208 261 303 379
#     4  10  20  40  58  85 122 168 209 244 319 388
#
# _framework density 23.516525000000001
#
# number of rings (size 3 to 8) (size 9 to 14) (size 15 to 20)
#    0.800    1.067    2.667    0.400   13.067    1.067 
#    0.000    0.000    0.000    0.800    0.000    0.000 
#    0.000    0.000    0.000    0.000    0.000    0.000 
#
# Total GULP energy -167171.002860 kJ/mol
# GULP energy per Si atom -5572.366762 kJ/mol
# Density = 2.346300 g / cm^3
# Si number density = 23.516525 Si / 1000 Ang^3
#
#
#
# Elastic Constant Matrix: (Units=GPa)
#
#
# Indices 1 2 3 4 5 6 
#
# 1 83.1700 32.4770 15.7492 0.0000 0.0000 0.0000
# 2 32.4770 41.6002 10.3767 0.0000 0.0000 0.0000
# 3 15.7492 10.3767 91.4873 0.0000 0.0000 0.0000
# 4 0.0000 0.0000 0.0000 198.8834 0.0000 0.0000
# 5 0.0000 0.0000 0.0000 0.0000 3.2102 0.0000
# 6 0.0000 0.0000 0.0000 0.0000 0.0000 44.1569
#
#
#
# Elastic Compliance Matrix: (Units=1/GPa)
#
#
# Indices 1 2 3 4 5 6 
#
# 1 0.017496 -0.013283 -0.001505 0.000000 0.000000 0.000000
# 2 -0.013283 0.034823 -0.001663 0.000000 0.000000 0.000000
# 3 -0.001505 -0.001663 0.011378 0.000000 0.000000 0.000000
# 4 0.000000 0.000000 0.000000 0.005028 0.000000 0.000000
# 5 0.000000 0.000000 0.000000 0.000000 0.311503 0.000000
# 6 0.000000 0.000000 0.000000 0.000000 0.000000 0.022647
#
#
# Mechanical properties :
#
#
# Convention : Reuss Voigt Hill
#
# Bulk Modulus (GPa) = 32.47374 37.05148 34.76261
# Shear Modulus (GPa) = 11.20969 59.76041 35.48505
#
# Velocity S-wave (km/s) = 2.18565 5.04651 3.88872
# Velocity P-wave (km/s) = 4.49537 7.05309 5.91415
#
# Compressibility (1/GPa) = 0.03079412
#
# Stress axis : x y z
#
# Youngs Moduli (GPa) = 57.15738 28.71638 87.88717
#
# Poissons Ratio (x) = 0.38145 0.13229
# Poissons Ratio (y) = 0.75923 0.14616
# Poissons Ratio (z) = 0.08603 0.04776
#
# Static dielectric constant tensor:
#      x y z
#    x 1.807690 0.000000 0.000000 
#    y 0.000000 1.935210 0.000000 
#    z 0.000000 0.000000 1.930610 
# 
# From -- ./inp_files/1621.got.cif
#   From: 2010.05.17/outbox.cif.g08.bks.cpg/sg18_1_cif.got.tgz:1621.got - 2010.06.03 22:40:56.
