data_PCOD9312314
_publ_section_title
;
Structure prediction by ZEFSAII (Michael W. Deem and Ramdas Pophale) SiO2 
 PCOD9312314
Probable space group: P 21 21 2
;
_chemical_formula_sum "Si O2"
_cell_formula_units_Z 28
_cell_length_a 16.415058
_cell_length_b 11.582096
_cell_length_c 6.899232
_cell_angle_alpha 90.000000
_cell_angle_beta 90.000000
_cell_angle_gamma 90.000000
_cell_volume 1311.687353
_symmetry_space_group_name_H-M "P 21 21 2"
_symmetry_group_IT_number 18
_symmetry_cell_setting 'orthorhombic'
loop_
_space_group_symop_operation_xyz
x,y,z
-x,-y,z
1/2+x,1/2-y,-z
1/2-x,1/2+y,-z
loop_
_atom_site_type_symbol
_atom_site_label
_atom_site_fract_x
_atom_site_fract_y
_atom_site_fract_z
Si Si1 0.582050 0.738202 0.078217
Si Si2 0.816348 0.787021 0.635345
Si Si3 0.170289 0.397291 0.325039
Si Si4 0.911190 0.630896 0.919486
Si Si5 0.144586 0.948986 0.674138
Si Si6 0.386421 0.079297 0.359959
Si Si7 0.125201 0.760388 0.366781
O O1 0.494139 0.797431 0.092721
O O2 0.585746 0.611671 0.171480
O O3 0.642138 0.822190 0.205321
O O4 0.603833 0.734517 0.855201
O O5 0.845540 0.720885 0.441832
O O6 0.842364 0.710937 0.820580
O O7 0.718452 0.784521 0.619806
O O8 0.853045 0.914218 0.654358
O O9 0.264205 0.410064 0.263607
O O10 0.159719 0.496950 0.486985
O O11 0.113623 0.404747 0.136823
O O12 0.918076 0.518252 0.785555
O O13 0.124526 0.883607 0.473018
O O14 0.429605 0.168099 0.511866
#
# Coordination Sequence:
#
# PCOD9312314 Si02
#       7
#     4   4   4   4   4   4   4
#     4  11  24  39  60  94 128 163 202 252 318 374
#     4  10  22  41  63  90 121 162 213 259 297 364
#     4  10  21  41  65  90 122 166 209 254 310 359
#     4  11  24  39  60  94 128 163 202 252 318 374
#     4  10  22  41  63  90 121 162 213 259 297 364
#     4  10  21  38  64  92 121 158 206 258 299 366
#     4  10  21  41  65  90 122 166 209 254 310 359
#
# _framework density 21.346553
#
# number of rings (size 3 to 8) (size 9 to 14) (size 15 to 20)
#    0.000    1.714    1.429    2.143    0.000    7.429 
#    0.000    0.000    0.000    0.000    0.000    0.000 
#    0.000    0.000    0.000    0.000    0.000    0.000 
#
# Total GULP energy -156059.077689 kJ/mol
# GULP energy per Si atom -5573.538489 kJ/mol
# Density = 2.129797 g / cm^3
# Si number density = 21.346553 Si / 1000 Ang^3
#
#
#
# Elastic Constant Matrix: (Units=GPa)
#
#
# Indices 1 2 3 4 5 6 
#
# 1 32.1431 -0.1402 23.0724 0.0000 0.0000 0.0000
# 2 -0.1402 133.2295 40.4193 0.0000 0.0000 0.0000
# 3 23.0724 40.4193 155.3351 0.0000 0.0000 0.0000
# 4 0.0000 0.0000 0.0000 -28.6799 0.0000 0.0000
# 5 0.0000 0.0000 0.0000 0.0000 -13.1708 0.0000
# 6 0.0000 0.0000 0.0000 0.0000 0.0000 20.9496
#
#
#
# Elastic Compliance Matrix: (Units=1/GPa)
#
#
# Indices 1 2 3 4 5 6 
#
# 1 0.035201 0.001762 -0.005687 0.000000 0.000000 0.000000
# 2 0.001762 0.008237 -0.002405 0.000000 0.000000 0.000000
# 3 -0.005687 -0.002405 0.007908 0.000000 0.000000 0.000000
# 4 0.000000 0.000000 0.000000 -0.034868 0.000000 0.000000
# 5 0.000000 0.000000 0.000000 0.000000 -0.075926 0.000000
# 6 0.000000 0.000000 0.000000 0.000000 0.000000 0.047733
#
#
# Mechanical properties :
#
#
# Convention : Reuss Voigt Hill
#
# Bulk Modulus (GPa) = 25.84869 49.71229 37.78049
# Shear Modulus (GPa) = 361.21778 12.97686 187.09732
#
# Velocity S-wave (km/s) = 13.02242 2.46827 9.37218
# Velocity P-wave (km/s) = 15.43523 5.60909 11.61267
#
# Compressibility (1/GPa) = 0.03868669
#
# Stress axis : x y z
#
# Youngs Moduli (GPa) = 28.40846 121.39756 126.44993
#
# Poissons Ratio (x) = -0.21395 0.71913
# Poissons Ratio (y) = -0.05007 0.30414
# Poissons Ratio (z) = 0.16156 0.29199
#
# Static dielectric constant tensor:
#      x y z
#    x 1.862680 0.000000 0.000000 
#    y 0.000000 1.812780 0.000000 
#    z 0.000000 0.000000 1.765620 
# 
# From -- ./inp_files/1968.got.cif
#   From: 2010.05.17/outbox.cif.g08.bks.cpg/sg18_1_cif.got.tgz:1968.got - 2010.06.03 22:40:56.
