data_PCOD9312830
_publ_section_title
;
Structure prediction by ZEFSAII (Michael W. Deem and Ramdas Pophale) SiO2 
 PCOD9312830
Probable space group: P 21 21 2
;
_chemical_formula_sum "Si O2"
_cell_formula_units_Z 24
_cell_length_a 14.061297
_cell_length_b 8.341751
_cell_length_c 9.128834
_cell_angle_alpha 90.000000
_cell_angle_beta 90.000000
_cell_angle_gamma 90.000000
_cell_volume 1070.774237
_symmetry_space_group_name_H-M "P 21 21 2"
_symmetry_group_IT_number 18
_symmetry_cell_setting 'orthorhombic'
loop_
_space_group_symop_operation_xyz
x,y,z
-x,-y,z
1/2+x,1/2-y,-z
1/2-x,1/2+y,-z
loop_
_atom_site_type_symbol
_atom_site_label
_atom_site_fract_x
_atom_site_fract_y
_atom_site_fract_z
Si Si1 0.000000 0.000000 0.389309
Si Si2 0.362582 0.189584 0.162824
Si Si3 0.011942 0.261339 0.610304
Si Si4 0.138126 0.558694 0.153809
Si Si5 0.642247 0.327652 0.833187
Si Si6 0.143054 0.075545 0.839730
Si Si7 0.500000 0.000000 0.612682
O O1 0.961447 0.132404 0.503827
O O2 0.079036 0.081815 0.286371
O O3 0.435149 0.147639 0.290408
O O4 0.254324 0.132079 0.186104
O O5 0.364184 0.383371 0.165826
O O6 0.393246 0.121604 0.004863
O O7 0.082628 0.168546 0.718613
O O8 0.058258 0.383279 0.494366
O O9 0.137014 0.365479 0.164953
O O10 0.245499 0.617961 0.175840
O O11 0.066872 0.604974 0.282441
O O12 0.612071 0.378006 0.996661
#
# Coordination Sequence:
#
# PCOD9312830 Si02
#       7
#     2   4   4   4   4   4   2
#     4  12  24  44  70 102 142 188 234 284 358 424
#     4  10  23  45  71 102 135 183 240 289 344 418
#     4  12  26  44  69 104 142 186 231 287 360 419
#     4  10  24  46  69 101 139 182 240 290 345 415
#     4  10  24  44  71 102 136 185 239 289 343 419
#     4  10  23  45  72 101 134 186 241 286 343 422
#     4  12  28  44  64 106 146 186 226 294 364 416
#
# _framework density 22.413686999999999
#
# number of rings (size 3 to 8) (size 9 to 14) (size 15 to 20)
#    0.000    1.333    3.333    0.000    9.333    1.333 
#    0.000    0.000    0.000    0.000    0.000    0.000 
#    0.000    0.000    0.000    0.000    0.000    0.000 
#
# Total GULP energy -134152.131203 kJ/mol
# GULP energy per Si atom -5589.672133 kJ/mol
# Density = 2.236267 g / cm^3
# Si number density = 22.413687 Si / 1000 Ang^3
#
#
#
# Elastic Constant Matrix: (Units=GPa)
#
#
# Indices 1 2 3 4 5 6 
#
# 1 95.3800 35.8820 93.6592 0.0000 0.0000 0.0000
# 2 35.8820 49.2559 63.2449 0.0000 0.0000 0.0000
# 3 93.6592 63.2449 206.6534 0.0000 0.0000 0.0000
# 4 0.0000 0.0000 0.0000 61.9275 0.0000 0.0000
# 5 0.0000 0.0000 0.0000 0.0000 -51.0065 0.0000
# 6 0.0000 0.0000 0.0000 0.0000 0.0000 28.8621
#
#
#
# Elastic Compliance Matrix: (Units=1/GPa)
#
#
# Indices 1 2 3 4 5 6 
#
# 1 0.019535 -0.004716 -0.007410 0.000000 0.000000 0.000000
# 2 -0.004716 0.034583 -0.008447 0.000000 0.000000 0.000000
# 3 -0.007410 -0.008447 0.010783 0.000000 0.000000 0.000000
# 4 0.000000 0.000000 0.000000 0.016148 0.000000 0.000000
# 5 0.000000 0.000000 0.000000 0.000000 -0.019605 0.000000
# 6 0.000000 0.000000 0.000000 0.000000 0.000000 0.034647
#
#
# Mechanical properties :
#
#
# Convention : Reuss Voigt Hill
#
# Bulk Modulus (GPa) = 42.09648 81.87347 61.98498
# Shear Modulus (GPa) = 34.44583 18.52350 26.48467
#
# Velocity S-wave (km/s) = 3.92448 2.87790 3.44121
# Velocity P-wave (km/s) = 6.27358 6.90295 6.59578
#
# Compressibility (1/GPa) = 0.02375495
#
# Stress axis : x y z
#
# Youngs Moduli (GPa) = 51.18932 28.91586 92.74213
#
# Poissons Ratio (x) = 0.13637 0.68726
# Poissons Ratio (y) = 0.24141 0.78335
# Poissons Ratio (z) = 0.37934 0.24424
#
# Static dielectric constant tensor:
#      x y z
#    x 1.840920 0.000000 0.000000 
#    y 0.000000 1.952530 0.000000 
#    z 0.000000 0.000000 1.803810 
# 
# From -- ./inp_files/4195.got.cif
#   From: 2010.05.17/outbox.cif.g08.bks.cpg/sg18_3_cif.got.tgz:4195.got - 2010.06.03 22:40:56.
