data_PCOD9312821
_publ_section_title
;
Structure prediction by ZEFSAII (Michael W. Deem and Ramdas Pophale) SiO2 
 PCOD9312821
Probable space group: P 21 21 2
;
_chemical_formula_sum "Si O2"
_cell_formula_units_Z 22
_cell_length_a 13.284681
_cell_length_b 5.247304
_cell_length_c 13.572678
_cell_angle_alpha 90.000000
_cell_angle_beta 90.000000
_cell_angle_gamma 90.000000
_cell_volume 946.134550
_symmetry_space_group_name_H-M "P 21 21 2"
_symmetry_group_IT_number 18
_symmetry_cell_setting 'orthorhombic'
loop_
_space_group_symop_operation_xyz
x,y,z
-x,-y,z
1/2+x,1/2-y,-z
1/2-x,1/2+y,-z
loop_
_atom_site_type_symbol
_atom_site_label
_atom_site_fract_x
_atom_site_fract_y
_atom_site_fract_z
Si Si1 0.875343 0.856252 0.033367
Si Si2 0.500000 0.000000 0.270684
Si Si3 0.726623 0.288509 0.618617
Si Si4 0.944462 0.754091 0.243735
Si Si5 0.647191 0.288386 0.409414
Si Si6 0.140218 0.639580 0.907772
O O1 0.942293 0.786416 0.126907
O O2 0.761813 0.859536 0.079304
O O3 0.887441 0.628354 0.956955
O O4 0.891923 0.118171 0.973932
O O5 0.447256 0.794399 0.343385
O O6 0.584984 0.873622 0.198539
O O7 0.667642 0.238742 0.717480
O O8 0.646915 0.260373 0.528216
O O9 0.770040 0.572979 0.618557
O O10 0.811854 0.073056 0.607508
O O11 0.000000 0.500000 0.272639
O O12 0.000000 0.000000 0.286551
#
# Coordination Sequence:
#
# PCOD9312821 Si02
#       6
#     4   2   4   4   4   4
#     4  10  23  45  61  93 135 179 216 275 354 401
#     4  12  26  42  74 112 130 182 242 300 326 418
#     4  10  23  48  67 100 142 187 216 279 366 416
#     4  12  25  39  71  99 128 178 237 282 320 418
#     4  10  24  44  72  98 145 178 222 285 353 421
#     4  10  24  41  68  92 135 175 220 280 344 407
#
# _framework density 23.252506
#
# number of rings (size 3 to 8) (size 9 to 14) (size 15 to 20)
#    0.000    1.455    0.000    3.273    5.091    8.000 
#    0.000    0.000    0.000    0.000    0.000    0.000 
#    0.000    0.000    0.000    0.000    0.000    0.000 
#
# Total GULP energy -122986.725342 kJ/mol
# GULP energy per Si atom -5590.305697 kJ/mol
# Density = 2.319958 g / cm^3
# Si number density = 23.252506 Si / 1000 Ang^3
#
#
#
# Elastic Constant Matrix: (Units=GPa)
#
#
# Indices 1 2 3 4 5 6 
#
# 1 65.1435 20.2800 28.9772 0.0000 0.0000 0.0000
# 2 20.2800 114.5485 14.0405 0.0000 0.0000 0.0000
# 3 28.9772 14.0405 109.4657 0.0000 0.0000 0.0000
# 4 0.0000 0.0000 0.0000 32.3066 0.0000 0.0000
# 5 0.0000 0.0000 0.0000 0.0000 59.5933 0.0000
# 6 0.0000 0.0000 0.0000 0.0000 0.0000 24.7761
#
#
#
# Elastic Compliance Matrix: (Units=1/GPa)
#
#
# Indices 1 2 3 4 5 6 
#
# 1 0.018169 -0.002669 -0.004467 0.000000 0.000000 0.000000
# 2 -0.002669 0.009261 -0.000481 0.000000 0.000000 0.000000
# 3 -0.004467 -0.000481 0.010380 0.000000 0.000000 0.000000
# 4 0.000000 0.000000 0.000000 0.030953 0.000000 0.000000
# 5 0.000000 0.000000 0.000000 0.000000 0.016780 0.000000
# 6 0.000000 0.000000 0.000000 0.000000 0.000000 0.040362
#
#
# Mechanical properties :
#
#
# Convention : Reuss Voigt Hill
#
# Bulk Modulus (GPa) = 44.29780 46.19479 45.24630
# Shear Modulus (GPa) = 33.63260 38.39253 36.01257
#
# Velocity S-wave (km/s) = 3.80729 4.06780 3.93970
# Velocity P-wave (km/s) = 6.19834 6.47861 6.34002
#
# Compressibility (1/GPa) = 0.02257448
#
# Stress axis : x y z
#
# Youngs Moduli (GPa) = 55.03954 107.97419 96.34327
#
# Poissons Ratio (x) = 0.28819 0.43038
# Poissons Ratio (y) = 0.14691 0.04638
# Poissons Ratio (z) = 0.24587 0.05197
#
# Static dielectric constant tensor:
#      x y z
#    x 1.976010 0.000000 0.000000 
#    y 0.000000 1.822170 0.000000 
#    z 0.000000 0.000000 1.842070 
# 
# From -- ./inp_files/6036.got.cif
#   From: 2010.05.17/outbox.cif.g08.bks.cpg/sg18_4_cif.got.tgz:6036.got - 2010.06.03 22:40:56.
