data_PCOD9312498
_publ_section_title
;
Structure prediction by ZEFSAII (Michael W. Deem and Ramdas Pophale) SiO2 
 PCOD9312498
Probable space group: P 21 21 2
;
_chemical_formula_sum "Si O2"
_cell_formula_units_Z 30
_cell_length_a 15.053137
_cell_length_b 8.572326
_cell_length_c 10.682549
_cell_angle_alpha 90.000000
_cell_angle_beta 90.000000
_cell_angle_gamma 90.000000
_cell_volume 1378.480371
_symmetry_space_group_name_H-M "P 21 21 2"
_symmetry_group_IT_number 18
_symmetry_cell_setting 'orthorhombic'
loop_
_space_group_symop_operation_xyz
x,y,z
-x,-y,z
1/2+x,1/2-y,-z
1/2-x,1/2+y,-z
loop_
_atom_site_type_symbol
_atom_site_label
_atom_site_fract_x
_atom_site_fract_y
_atom_site_fract_z
Si Si1 0.847712 0.146617 0.777513
Si Si2 0.800126 0.875758 0.946272
Si Si3 0.415888 0.586161 0.427760
Si Si4 0.354897 0.846947 0.267882
Si Si5 0.500000 0.000000 0.844654
Si Si6 0.223106 0.101924 0.354765
Si Si7 0.384924 0.096514 0.070177
Si Si8 0.434950 0.650615 0.836954
O O1 0.785569 0.254625 0.689903
O O2 0.915522 0.248350 0.860068
O O3 0.797739 0.044466 0.881444
O O4 0.896402 0.030934 0.685225
O O5 0.798065 0.762829 0.826204
O O6 0.719087 0.873124 0.043091
O O7 0.888647 0.838493 0.026055
O O8 0.500000 0.500000 0.493476
O O9 0.421272 0.753350 0.358463
O O10 0.329156 0.604781 0.514550
O O11 0.286134 0.951397 0.346395
O O12 0.400388 0.961335 0.169125
O O13 0.529939 0.174355 0.792932
O O14 0.422502 0.054353 0.937065
O O15 0.143431 0.100944 0.255827
O O16 0.500000 0.500000 0.839815
#
# Coordination Sequence:
#
# PCOD9312498 Si02
#       8
#     4   4   4   4   2   4   4   4
#     4  10  22  37  69  90 125 174 227 270 340 418
#     4  11  20  40  63  99 130 176 214 273 348 424
#     4  11  25  43  65  93 131 173 231 293 348 405
#     4  10  22  39  69  91 125 173 229 271 336 420
#     4  12  26  38  64 104 150 172 226 280 348 428
#     4  11  23  46  65  93 130 179 232 286 338 414
#     4  11  21  37  61  95 133 170 212 280 336 416
#     4  12  25  41  67 102 146 183 225 281 354 413
#
# _framework density 21.763093999999999
#
# number of rings (size 3 to 8) (size 9 to 14) (size 15 to 20)
#    0.000    1.067    4.000    3.600    3.733    2.133 
#    0.000    0.000    5.867    0.000    0.000    0.000 
#    0.000    0.000    0.000    0.000    0.000    0.000 
#
# Total GULP energy -167193.815373 kJ/mol
# GULP energy per Si atom -5573.127179 kJ/mol
# Density = 2.171356 g / cm^3
# Si number density = 21.763094 Si / 1000 Ang^3
#
#
#
# Elastic Constant Matrix: (Units=GPa)
#
#
# Indices 1 2 3 4 5 6 
#
# 1 57.5478 13.7666 -10.4658 0.0000 0.0000 0.0000
# 2 13.7666 106.5873 9.1957 0.0000 0.0000 0.0000
# 3 -10.4658 9.1957 32.8943 0.0000 0.0000 0.0000
# 4 0.0000 0.0000 0.0000 19.2365 0.0000 0.0000
# 5 0.0000 0.0000 0.0000 0.0000 -78.4583 0.0000
# 6 0.0000 0.0000 0.0000 0.0000 0.0000 23.1799
#
#
#
# Elastic Compliance Matrix: (Units=1/GPa)
#
#
# Indices 1 2 3 4 5 6 
#
# 1 0.019403 -0.003114 0.007044 0.000000 0.000000 0.000000
# 2 -0.003114 0.010114 -0.003818 0.000000 0.000000 0.000000
# 3 0.007044 -0.003818 0.033709 0.000000 0.000000 0.000000
# 4 0.000000 0.000000 0.000000 0.051985 0.000000 0.000000
# 5 0.000000 0.000000 0.000000 0.000000 -0.012746 0.000000
# 6 0.000000 0.000000 0.000000 0.000000 0.000000 0.043141
#
#
# Mechanical properties :
#
#
# Convention : Reuss Voigt Hill
#
# Bulk Modulus (GPa) = 15.76065 24.66918 20.21492
# Shear Modulus (GPa) = 30.02454 5.09380 17.55917
#
# Velocity S-wave (km/s) = 3.71834 1.53155 2.84356
# Velocity P-wave (km/s) = 5.06876 3.80624 4.48218
#
# Compressibility (1/GPa) = 0.06344915
#
# Stress axis : x y z
#
# Youngs Moduli (GPa) = 51.53922 98.87744 29.66582
#
# Poissons Ratio (x) = 0.30788 -0.20896
# Poissons Ratio (y) = 0.16048 0.11326
# Poissons Ratio (z) = -0.36303 0.37751
#
# Static dielectric constant tensor:
#      x y z
#    x 1.906580 0.000000 0.000000 
#    y 0.000000 1.893880 0.000000 
#    z 0.000000 0.000000 1.779230 
# 
# From -- ./inp_files/6095.got.cif
#   From: 2010.05.17/outbox.cif.g08.bks.cpg/sg18_4_cif.got.tgz:6095.got - 2010.06.03 22:40:56.
