data_PCOD9312188
_publ_section_title
;
Structure prediction by ZEFSAII (Michael W. Deem and Ramdas Pophale) SiO2 
 PCOD9312188
Probable space group: P 21 21 2
;
_chemical_formula_sum "Si O2"
_cell_formula_units_Z 20
_cell_length_a 8.339022
_cell_length_b 14.000213
_cell_length_c 7.173856
_cell_angle_alpha 90.000000
_cell_angle_beta 90.000000
_cell_angle_gamma 90.000000
_cell_volume 837.533944
_symmetry_space_group_name_H-M "P 21 21 2"
_symmetry_group_IT_number 18
_symmetry_cell_setting 'orthorhombic'
loop_
_space_group_symop_operation_xyz
x,y,z
-x,-y,z
1/2+x,1/2-y,-z
1/2-x,1/2+y,-z
loop_
_atom_site_type_symbol
_atom_site_label
_atom_site_fract_x
_atom_site_fract_y
_atom_site_fract_z
Si Si1 0.261717 0.223035 0.517690
Si Si2 0.665269 0.041097 0.088809
Si Si3 0.353137 0.634401 0.824078
Si Si4 0.814611 0.228915 0.061828
Si Si5 0.921878 0.598440 0.491840
O O1 0.152412 0.149373 0.398337
O O2 0.244674 0.230998 0.741877
O O3 0.225011 0.329672 0.436499
O O4 0.436170 0.176043 0.494982
O O5 0.708715 0.139902 0.995825
O O6 0.632761 0.063124 0.305638
O O7 0.500000 0.000000 0.012005
O O8 0.815768 0.969914 0.098370
O O9 0.511369 0.685542 0.898144
O O10 0.199534 0.691504 0.905924
O O11 0.000000 0.500000 0.405720
#
# Coordination Sequence:
#
# PCOD9312188 Si02
#       5
#     4   4   4   4   4
#     4  11  22  42  67  98 134 178 231 281 339 414
#     4  10  20  41  68  92 136 174 223 282 346 405
#     4  12  23  43  66  97 136 179 222 288 340 414
#     4  11  26  40  67 101 133 177 231 280 344 411
#     4  10  20  40  68  98 130 178 228 278 346 405
#
# _framework density 23.879625999999998
#
# number of rings (size 3 to 8) (size 9 to 14) (size 15 to 20)
#    0.000    1.200    6.000    1.800    2.800    0.000 
#    3.600    1.000    0.000    4.800    0.000    0.000 
#    0.000    0.000    0.000    0.000    0.000    0.000 
#
# Total GULP energy -111498.183727 kJ/mol
# GULP energy per Si atom -5574.909186 kJ/mol
# Density = 2.382527 g / cm^3
# Si number density = 23.879626 Si / 1000 Ang^3
#
#
#
# Elastic Constant Matrix: (Units=GPa)
#
#
# Indices 1 2 3 4 5 6 
#
# 1 99.0023 36.5316 3.2127 0.0000 0.0000 0.0000
# 2 36.5316 122.1740 15.8545 0.0000 0.0000 0.0000
# 3 3.2127 15.8545 82.2120 0.0000 0.0000 0.0000
# 4 0.0000 0.0000 0.0000 15.4569 0.0000 0.0000
# 5 0.0000 0.0000 0.0000 0.0000 13.2825 0.0000
# 6 0.0000 0.0000 0.0000 0.0000 0.0000 67.0202
#
#
#
# Elastic Compliance Matrix: (Units=1/GPa)
#
#
# Indices 1 2 3 4 5 6 
#
# 1 0.011357 -0.003424 0.000216 0.000000 0.000000 0.000000
# 2 -0.003424 0.009427 -0.001684 0.000000 0.000000 0.000000
# 3 0.000216 -0.001684 0.012480 0.000000 0.000000 0.000000
# 4 0.000000 0.000000 0.000000 0.064696 0.000000 0.000000
# 5 0.000000 0.000000 0.000000 0.000000 0.075287 0.000000
# 6 0.000000 0.000000 0.000000 0.000000 0.000000 0.014921
#
#
# Mechanical properties :
#
#
# Convention : Reuss Voigt Hill
#
# Bulk Modulus (GPa) = 42.58752 46.06510 44.32631
# Shear Modulus (GPa) = 24.29791 35.67123 29.98457
#
# Velocity S-wave (km/s) = 3.19331 3.86916 3.54737
# Velocity P-wave (km/s) = 5.60975 6.26841 5.94820
#
# Compressibility (1/GPa) = 0.02348106
#
# Stress axis : x y z
#
# Youngs Moduli (GPa) = 88.04972 106.07325 80.12811
#
# Poissons Ratio (x) = 0.36320 -0.01735
# Poissons Ratio (y) = 0.30149 0.13496
# Poissons Ratio (z) = -0.01906 0.17865
#
# Static dielectric constant tensor:
#      x y z
#    x 2.025030 0.000000 0.000000 
#    y 0.000000 2.040260 0.000000 
#    z 0.000000 0.000000 1.865250 
# 
# From -- ./inp_files/2967.got.cif
#   From: 2010.05.17/outbox.cif.g08.bks.cpg/sg18_2_cif.got.tgz:2967.got - 2010.06.03 22:40:56.
