data_PCOD9312820
_publ_section_title
;
Structure prediction by ZEFSAII (Michael W. Deem and Ramdas Pophale) SiO2 
 PCOD9312820
Probable space group: P 21 21 2
;
_chemical_formula_sum "Si O2"
_cell_formula_units_Z 18
_cell_length_a 27.615410
_cell_length_b 5.151992
_cell_length_c 5.077189
_cell_angle_alpha 90.000000
_cell_angle_beta 90.000000
_cell_angle_gamma 90.000000
_cell_volume 722.353873
_symmetry_space_group_name_H-M "P 21 21 2"
_symmetry_group_IT_number 18
_symmetry_cell_setting 'orthorhombic'
loop_
_space_group_symop_operation_xyz
x,y,z
-x,-y,z
1/2+x,1/2-y,-z
1/2-x,1/2+y,-z
loop_
_atom_site_type_symbol
_atom_site_label
_atom_site_fract_x
_atom_site_fract_y
_atom_site_fract_z
Si Si1 0.401709 0.187316 0.198019
Si Si2 0.655389 0.457821 0.512242
Si Si3 0.781309 0.834973 0.983535
Si Si4 0.000000 0.500000 0.879951
Si Si5 0.082357 0.211755 0.130037
O O1 0.362291 0.260277 0.413954
O O2 0.456700 0.124516 0.288877
O O3 0.407653 0.441611 0.015603
O O4 0.389117 0.947061 0.011322
O O5 0.685984 0.439622 0.776952
O O6 0.603998 0.317908 0.578891
O O7 0.688444 0.342594 0.284780
O O8 0.761080 0.549645 0.041680
O O9 0.972504 0.703475 0.070623
#
# Coordination Sequence:
#
# PCOD9312820 Si02
#       5
#     4   4   4   2   4
#     4  10  23  44  77 110 160 210 263 316 379 471
#     4  12  26  52  83 112 160 204 266 319 414 460
#     4  12  30  51  82 115 152 197 262 339 404 486
#     4   8  22  46  72 116 164 208 268 306 384 436
#     4  10  23  44  77 110 160 210 263 316 379 471
#
# _framework density 24.918534000000001
#
# number of rings (size 3 to 8) (size 9 to 14) (size 15 to 20)
#    1.333    0.000    2.222    2.000    3.111    5.333 
#    0.000    6.667    0.000    0.000    0.000    0.000 
#    0.000    0.000    0.000    0.000    0.000    0.000 
#
# Total GULP energy -100655.734786 kJ/mol
# GULP energy per Si atom -5591.985266 kJ/mol
# Density = 2.486182 g / cm^3
# Si number density = 24.918534 Si / 1000 Ang^3
#
#
#
# Elastic Constant Matrix: (Units=GPa)
#
#
# Indices 1 2 3 4 5 6 
#
# 1 77.4437 -0.7794 25.1089 0.0000 0.0000 0.0000
# 2 -0.7794 121.1485 15.1084 0.0000 0.0000 0.0000
# 3 25.1089 15.1084 111.9157 0.0000 0.0000 0.0000
# 4 0.0000 0.0000 0.0000 26.6634 0.0000 0.0000
# 5 0.0000 0.0000 0.0000 0.0000 44.2949 0.0000
# 6 0.0000 0.0000 0.0000 0.0000 0.0000 56.1165
#
#
#
# Elastic Compliance Matrix: (Units=1/GPa)
#
#
# Indices 1 2 3 4 5 6 
#
# 1 0.013954 0.000488 -0.003197 0.000000 0.000000 0.000000
# 2 0.000488 0.008413 -0.001245 0.000000 0.000000 0.000000
# 3 -0.003197 -0.001245 0.009821 0.000000 0.000000 0.000000
# 4 0.000000 0.000000 0.000000 0.037505 0.000000 0.000000
# 5 0.000000 0.000000 0.000000 0.000000 0.022576 0.000000
# 6 0.000000 0.000000 0.000000 0.000000 0.000000 0.017820
#
#
# Mechanical properties :
#
#
# Convention : Reuss Voigt Hill
#
# Bulk Modulus (GPa) = 41.18552 43.26486 42.22519
# Shear Modulus (GPa) = 39.65479 43.48631 41.57055
#
# Velocity S-wave (km/s) = 3.99353 4.18202 4.08886
# Velocity P-wave (km/s) = 6.15048 6.38116 6.26688
#
# Compressibility (1/GPa) = 0.02428038
#
# Stress axis : x y z
#
# Youngs Moduli (GPa) = 71.66448 118.86683 101.82698
#
# Poissons Ratio (x) = -0.05806 0.32550
# Poissons Ratio (y) = -0.03500 0.12680
# Poissons Ratio (z) = 0.22908 0.14802
#
# Static dielectric constant tensor:
#      x y z
#    x 2.037410 0.000000 0.000000 
#    y 0.000000 1.959450 0.000000 
#    z 0.000000 0.000000 1.963890 
# 
# From -- ./inp_files/2236.got.cif
#   From: 2010.05.17/outbox.cif.g08.bks.cpg/sg18_2_cif.got.tgz:2236.got - 2010.06.03 22:40:56.
