data_PCOD9312435
_publ_section_title
;
Structure prediction by ZEFSAII (Michael W. Deem and Ramdas Pophale) SiO2 
 PCOD9312435
Probable space group: P 21 21 2
;
_chemical_formula_sum "Si O2"
_cell_formula_units_Z 18
_cell_length_a 9.009312
_cell_length_b 9.970202
_cell_length_c 9.259535
_cell_angle_alpha 90.000000
_cell_angle_beta 90.000000
_cell_angle_gamma 90.000000
_cell_volume 831.734588
_symmetry_space_group_name_H-M "P 21 21 2"
_symmetry_group_IT_number 18
_symmetry_cell_setting 'orthorhombic'
loop_
_space_group_symop_operation_xyz
x,y,z
-x,-y,z
1/2+x,1/2-y,-z
1/2-x,1/2+y,-z
loop_
_atom_site_type_symbol
_atom_site_label
_atom_site_fract_x
_atom_site_fract_y
_atom_site_fract_z
Si Si1 0.065425 0.359103 0.035975
Si Si2 0.992678 0.298010 0.702785
Si Si3 0.245184 0.494037 0.633177
Si Si4 0.000000 0.000000 0.601827
Si Si5 0.387750 0.394243 0.929911
O O1 0.244289 0.359167 0.027888
O O2 0.000000 0.500000 0.088620
O O3 0.014973 0.340172 0.869216
O O4 0.983638 0.235985 0.111958
O O5 0.841831 0.366038 0.648627
O O6 0.124284 0.375117 0.618657
O O7 0.001434 0.139632 0.686932
O O8 0.357734 0.496594 0.502529
O O9 0.326357 0.462843 0.784698
O O10 0.500000 0.500000 0.000780
#
# Coordination Sequence:
#
# PCOD9312435 Si02
#       5
#     4   4   4   2   4
#     4  11  22  41  63  90 129 164 206 263 321 387
#     4  10  22  41  61  93 128 167 207 265 324 362
#     4  10  21  43  62  86 130 164 207 266 316 372
#     4  12  22  36  68  90 118 172 220 254 310 390
#     4  11  22  39  66  90 123 166 207 259 328 378
#
# _framework density 21.641518999999999
#
# number of rings (size 3 to 8) (size 9 to 14) (size 15 to 20)
#    0.000    1.333    5.556    2.667    1.556    0.000 
#    0.000    0.000    4.889    0.000    0.000    0.000 
#    0.000    0.000    0.000    0.000    0.000    0.000 
#
# Total GULP energy -100666.788884 kJ/mol
# GULP energy per Si atom -5592.599382 kJ/mol
# Density = 2.159226 g / cm^3
# Si number density = 21.641519 Si / 1000 Ang^3
#
#
#
# Elastic Constant Matrix: (Units=GPa)
#
#
# Indices 1 2 3 4 5 6 
#
# 1 130.4559 63.9288 8.8599 0.0000 0.0000 0.0000
# 2 63.9288 196.8375 14.6417 0.0000 0.0000 0.0000
# 3 8.8599 14.6417 24.4367 0.0000 0.0000 0.0000
# 4 0.0000 0.0000 0.0000 8.8385 0.0000 0.0000
# 5 0.0000 0.0000 0.0000 0.0000 23.0444 0.0000
# 6 0.0000 0.0000 0.0000 0.0000 0.0000 32.4892
#
#
#
# Elastic Compliance Matrix: (Units=1/GPa)
#
#
# Indices 1 2 3 4 5 6 
#
# 1 0.009177 -0.002860 -0.001613 0.000000 0.000000 0.000000
# 2 -0.002860 0.006209 -0.002683 0.000000 0.000000 0.000000
# 3 -0.001613 -0.002683 0.043115 0.000000 0.000000 0.000000
# 4 0.000000 0.000000 0.000000 0.113142 0.000000 0.000000
# 5 0.000000 0.000000 0.000000 0.000000 0.043395 0.000000
# 6 0.000000 0.000000 0.000000 0.000000 0.000000 0.030779
#
#
# Mechanical properties :
#
#
# Convention : Reuss Voigt Hill
#
# Bulk Modulus (GPa) = 22.63128 58.51012 40.57070
# Shear Modulus (GPa) = 18.19116 30.49437 24.34276
#
# Velocity S-wave (km/s) = 2.90240 3.75783 3.35747
# Velocity P-wave (km/s) = 4.65961 6.77666 5.81528
#
# Compressibility (1/GPa) = 0.04418662
#
# Stress axis : x y z
#
# Youngs Moduli (GPa) = 108.97153 161.05864 23.19399
#
# Poissons Ratio (x) = 0.46069 0.03742
# Poissons Ratio (y) = 0.31170 0.06223
# Poissons Ratio (z) = 0.17580 0.43214
#
# Static dielectric constant tensor:
#      x y z
#    x 1.805310 0.000000 0.000000 
#    y 0.000000 1.875370 0.000000 
#    z 0.000000 0.000000 1.773290 
# 
# From -- ./inp_files/5361.got.cif
#   From: 2010.05.17/outbox.cif.g08.bks.cpg/sg18_3_cif.got.tgz:5361.got - 2010.06.03 22:40:56.
