data_PCOD9312811
_publ_section_title
;
Structure prediction by ZEFSAII (Michael W. Deem and Ramdas Pophale) SiO2 
 PCOD9312811
Probable space group: P 21 21 2
;
_chemical_formula_sum "Si O2"
_cell_formula_units_Z 20
_cell_length_a 8.228884
_cell_length_b 7.749449
_cell_length_c 12.109490
_cell_angle_alpha 90.000000
_cell_angle_beta 90.000000
_cell_angle_gamma 90.000000
_cell_volume 772.213905
_symmetry_space_group_name_H-M "P 21 21 2"
_symmetry_group_IT_number 18
_symmetry_cell_setting 'orthorhombic'
loop_
_space_group_symop_operation_xyz
x,y,z
-x,-y,z
1/2+x,1/2-y,-z
1/2-x,1/2+y,-z
loop_
_atom_site_type_symbol
_atom_site_label
_atom_site_fract_x
_atom_site_fract_y
_atom_site_fract_z
Si Si1 0.569008 0.753511 0.877136
Si Si2 0.836933 0.380862 0.577833
Si Si3 0.759575 0.407696 0.940280
Si Si4 0.024822 0.803862 0.771052
Si Si5 0.812949 0.207507 0.342614
O O1 0.683751 0.587467 0.902410
O O2 0.397469 0.714592 0.932224
O O3 0.551309 0.761860 0.745499
O O4 0.663183 0.906005 0.938352
O O5 0.863637 0.222554 0.661978
O O6 0.811080 0.313535 0.455227
O O7 0.696766 0.507092 0.622655
O O8 0.000000 0.500000 0.578111
O O9 0.895508 0.323277 0.860597
O O10 0.850147 0.745521 0.726809
O O11 0.000000 0.000000 0.809294
#
# Coordination Sequence:
#
# PCOD9312811 Si02
#       5
#     4   4   4   4   4
#     4  11  26  47  72 104 145 187 239 306 364 440
#     4  10  23  44  68 105 147 190 250 298 368 433
#     4  11  26  47  73 105 143 189 242 300 373 441
#     4  11  24  43  71 101 145 191 246 299 364 433
#     4  11  23  44  70 100 145 194 237 308 356 436
#
# _framework density 25.899557999999999
#
# number of rings (size 3 to 8) (size 9 to 14) (size 15 to 20)
#    0.000    1.200    2.000    2.400    5.600    7.200 
#    3.600    0.000    0.000    0.000    0.000    0.000 
#    0.000    0.000    0.000    0.000    0.000    0.000 
#
# Total GULP energy -112099.224486 kJ/mol
# GULP energy per Si atom -5604.961224 kJ/mol
# Density = 2.584061 g / cm^3
# Si number density = 25.899558 Si / 1000 Ang^3
#
#
#
# Elastic Constant Matrix: (Units=GPa)
#
#
# Indices 1 2 3 4 5 6 
#
# 1 83.2497 10.3051 24.6725 0.0000 0.0000 0.0000
# 2 10.3051 118.2029 12.5293 0.0000 0.0000 0.0000
# 3 24.6725 12.5293 138.8371 0.0000 0.0000 0.0000
# 4 0.0000 0.0000 0.0000 47.6456 0.0000 0.0000
# 5 0.0000 0.0000 0.0000 0.0000 34.4124 0.0000
# 6 0.0000 0.0000 0.0000 0.0000 0.0000 29.5767
#
#
#
# Elastic Compliance Matrix: (Units=1/GPa)
#
#
# Indices 1 2 3 4 5 6 
#
# 1 0.012770 -0.000881 -0.002190 0.000000 0.000000 0.000000
# 2 -0.000881 0.008603 -0.000620 0.000000 0.000000 0.000000
# 3 -0.002190 -0.000620 0.007648 0.000000 0.000000 0.000000
# 4 0.000000 0.000000 0.000000 0.020988 0.000000 0.000000
# 5 0.000000 0.000000 0.000000 0.000000 0.029059 0.000000
# 6 0.000000 0.000000 0.000000 0.000000 0.000000 0.033810
#
#
# Mechanical properties :
#
#
# Convention : Reuss Voigt Hill
#
# Bulk Modulus (GPa) = 46.21308 48.36706 47.29007
# Shear Modulus (GPa) = 39.22401 41.84580 40.53490
#
# Velocity S-wave (km/s) = 3.89584 4.02393 3.96040
# Velocity P-wave (km/s) = 6.17403 6.34860 6.26193
#
# Compressibility (1/GPa) = 0.02163890
#
# Stress axis : x y z
#
# Youngs Moduli (GPa) = 78.30774 116.24468 130.75721
#
# Poissons Ratio (x) = 0.10244 0.28634
# Poissons Ratio (y) = 0.06900 0.08103
# Poissons Ratio (z) = 0.17148 0.07204
#
# Static dielectric constant tensor:
#      x y z
#    x 2.076350 0.000000 0.000000 
#    y 0.000000 2.039140 0.000000 
#    z 0.000000 0.000000 2.025520 
# 
# From -- ./inp_files/5418.got.cif
#   From: 2010.05.17/outbox.cif.g08.bks.cpg/sg18_3_cif.got.tgz:5418.got - 2010.06.03 22:40:56.
