data_PCOD9312537
_publ_section_title
;
Structure prediction by ZEFSAII (Michael W. Deem and Ramdas Pophale) SiO2 
 PCOD9312537
Probable space group: P 21 21 2
;
_chemical_formula_sum "Si O2"
_cell_formula_units_Z 14
_cell_length_a 7.624836
_cell_length_b 7.067938
_cell_length_c 10.658386
_cell_angle_alpha 90.000000
_cell_angle_beta 90.000000
_cell_angle_gamma 90.000000
_cell_volume 574.400333
_symmetry_space_group_name_H-M "P 21 21 2"
_symmetry_group_IT_number 18
_symmetry_cell_setting 'orthorhombic'
loop_
_space_group_symop_operation_xyz
x,y,z
-x,-y,z
1/2+x,1/2-y,-z
1/2-x,1/2+y,-z
loop_
_atom_site_type_symbol
_atom_site_label
_atom_site_fract_x
_atom_site_fract_y
_atom_site_fract_z
Si Si1 0.352756 0.632524 0.069599
Si Si2 0.500000 0.500000 0.816201
Si Si3 0.500000 0.500000 0.425678
Si Si4 0.500000 0.000000 0.999932
Si Si5 0.872750 0.315151 0.377273
O O1 0.500000 0.500000 0.126653
O O2 0.373315 0.603512 0.917011
O O3 0.155431 0.575504 0.087101
O O4 0.417165 0.841306 0.086786
O O5 0.415693 0.340245 0.729898
O O6 0.673808 0.396393 0.367646
O O7 0.411590 0.321785 0.502278
O O8 0.000000 0.500000 0.378373
#
# Coordination Sequence:
#
# PCOD9312537 Si02
#       5
#     4   2   2   2   4
#     4  10  22  39  62  95 122 163 204 254 298 372
#     4   9  24  42  56  95 134 156 202 257 318 356
#     4  11  22  40  68  89 118 164 216 245 308 368
#     4  12  20  42  70  88 124 166 212 248 300 364
#     4  11  22  41  63  92 123 164 202 263 300 372
#
# _framework density 24.373244
#
# number of rings (size 3 to 8) (size 9 to 14) (size 15 to 20)
#    0.857    0.571    5.714    0.000    2.000    0.000 
#    5.143    0.000    0.000    0.000    0.000    0.000 
#    0.000    0.000    0.000    0.000    0.000    0.000 
#
# Total GULP energy -78077.045598 kJ/mol
# GULP energy per Si atom -5576.931828 kJ/mol
# Density = 2.431777 g / cm^3
# Si number density = 24.373244 Si / 1000 Ang^3
#
#
#
# Elastic Constant Matrix: (Units=GPa)
#
#
# Indices 1 2 3 4 5 6 
#
# 1 240.6353 101.3736 42.3569 0.0000 0.0000 0.0000
# 2 101.3736 211.9350 39.9176 0.0000 0.0000 0.0000
# 3 42.3569 39.9176 52.0129 0.0000 0.0000 0.0000
# 4 0.0000 0.0000 0.0000 10.4323 0.0000 0.0000
# 5 0.0000 0.0000 0.0000 0.0000 -3.2616 0.0000
# 6 0.0000 0.0000 0.0000 0.0000 0.0000 69.4553
#
#
#
# Elastic Compliance Matrix: (Units=1/GPa)
#
#
# Indices 1 2 3 4 5 6 
#
# 1 0.005556 -0.002110 -0.002905 0.000000 0.000000 0.000000
# 2 -0.002110 0.006317 -0.003130 0.000000 0.000000 0.000000
# 3 -0.002905 -0.003130 0.023993 0.000000 0.000000 0.000000
# 4 0.000000 0.000000 0.000000 0.095856 0.000000 0.000000
# 5 0.000000 0.000000 0.000000 0.000000 -0.306600 0.000000
# 6 0.000000 0.000000 0.000000 0.000000 0.000000 0.014398
#
#
# Mechanical properties :
#
#
# Convention : Reuss Voigt Hill
#
# Bulk Modulus (GPa) = 51.08063 96.87548 73.97805
# Shear Modulus (GPa) = -36.32052 36.72088 0.20018
#
# Velocity S-wave (km/s) = -3.86447 3.88571 0.28689
# Velocity P-wave (km/s) = 1.04449 7.74368 5.52520
#
# Compressibility (1/GPa) = 0.01957689
#
# Stress axis : x y z
#
# Youngs Moduli (GPa) = 179.98294 158.29351 41.67797
#
# Poissons Ratio (x) = 0.33407 0.12107
# Poissons Ratio (y) = 0.37985 0.13044
# Poissons Ratio (z) = 0.52284 0.49540
#
# Static dielectric constant tensor:
#      x y z
#    x 2.073840 0.000000 0.000000 
#    y 0.000000 1.948850 0.000000 
#    z 0.000000 0.000000 2.046730 
# 
# From -- ./inp_files/6599.got.cif
#   From: 2010.05.17/outbox.cif.g08.bks.cpg/sg18_4_cif.got.tgz:6599.got - 2010.06.03 22:40:56.
