data_PCOD9312186
_publ_section_title
;
Structure prediction by ZEFSAII (Michael W. Deem and Ramdas Pophale) SiO2 
 PCOD9312186
Probable space group: P 21 21 2
;
_chemical_formula_sum "Si O2"
_cell_formula_units_Z 16
_cell_length_a 13.052461
_cell_length_b 9.920005
_cell_length_c 4.903862
_cell_angle_alpha 90.000000
_cell_angle_beta 90.000000
_cell_angle_gamma 90.000000
_cell_volume 634.954398
_symmetry_space_group_name_H-M "P 21 21 2"
_symmetry_group_IT_number 18
_symmetry_cell_setting 'orthorhombic'
loop_
_space_group_symop_operation_xyz
x,y,z
-x,-y,z
1/2+x,1/2-y,-z
1/2-x,1/2+y,-z
loop_
_atom_site_type_symbol
_atom_site_label
_atom_site_fract_x
_atom_site_fract_y
_atom_site_fract_z
Si Si1 0.686134 0.495860 0.743634
Si Si2 0.408163 0.390191 0.229692
Si Si3 0.893862 0.562983 0.570461
Si Si4 0.573802 0.231821 0.953159
O O1 0.629801 0.600425 0.538413
O O2 0.796698 0.467414 0.615820
O O3 0.620627 0.360901 0.796023
O O4 0.685099 0.561638 0.042106
O O5 0.500000 0.500000 0.219318
O O6 0.461618 0.266507 0.075616
O O7 0.916277 0.614741 0.268173
O O8 0.000000 0.500000 0.670622
O O9 0.868519 0.689138 0.769882
#
# Coordination Sequence:
#
# PCOD9312186 Si02
#       4
#     4   4   4   4
#     4  11  23  42  68  98 129 177 232 272 329 416
#     4  10  20  40  68  97 126 166 228 281 321 394
#     4  12  27  44  65 101 142 178 226 283 346 413
#     4  11  24  44  69  98 138 181 222 286 348 393
#
# _framework density 25.198658999999999
#
# number of rings (size 3 to 8) (size 9 to 14) (size 15 to 20)
#    0.000    1.000    0.000    9.000    0.000    6.000 
#    0.000    2.500    0.000    0.000    0.000    0.000 
#    0.000    0.000    0.000    0.000    0.000    0.000 
#
# Total GULP energy -89372.097867 kJ/mol
# GULP energy per Si atom -5585.756117 kJ/mol
# Density = 2.514131 g / cm^3
# Si number density = 25.198659 Si / 1000 Ang^3
#
#
#
# Elastic Constant Matrix: (Units=GPa)
#
#
# Indices 1 2 3 4 5 6 
#
# 1 119.9192 22.2549 16.8172 0.0000 0.0000 0.0000
# 2 22.2549 37.9493 30.7386 0.0000 0.0000 0.0000
# 3 16.8172 30.7386 163.5731 0.0000 0.0000 0.0000
# 4 0.0000 0.0000 0.0000 36.5248 0.0000 0.0000
# 5 0.0000 0.0000 0.0000 0.0000 36.6733 0.0000
# 6 0.0000 0.0000 0.0000 0.0000 0.0000 23.7450
#
#
#
# Elastic Compliance Matrix: (Units=1/GPa)
#
#
# Indices 1 2 3 4 5 6 
#
# 1 0.009358 -0.005554 0.000082 0.000000 0.000000 0.000000
# 2 -0.005554 0.034378 -0.005889 0.000000 0.000000 0.000000
# 3 0.000082 -0.005889 0.007212 0.000000 0.000000 0.000000
# 4 0.000000 0.000000 0.000000 0.027379 0.000000 0.000000
# 5 0.000000 0.000000 0.000000 0.000000 0.027268 0.000000
# 6 0.000000 0.000000 0.000000 0.000000 0.000000 0.042114
#
#
# Mechanical properties :
#
#
# Convention : Reuss Voigt Hill
#
# Bulk Modulus (GPa) = 35.42991 51.22922 43.32957
# Shear Modulus (GPa) = 27.80232 36.16401 31.98317
#
# Velocity S-wave (km/s) = 3.32524 3.79246 3.56651
# Velocity P-wave (km/s) = 5.36970 6.28898 5.84743
#
# Compressibility (1/GPa) = 0.02822474
#
# Stress axis : x y z
#
# Youngs Moduli (GPa) = 106.85756 29.08800 138.66135
#
# Poissons Ratio (x) = 0.16156 -0.01131
# Poissons Ratio (y) = 0.59350 0.81663
# Poissons Ratio (z) = -0.00872 0.17131
#
# Static dielectric constant tensor:
#      x y z
#    x 2.030870 0.000000 0.000000 
#    y 0.000000 2.112630 0.000000 
#    z 0.000000 0.000000 1.906510 
# 
# From -- ./inp_files/852.got.cif
#   From: 2010.05.17/outbox.cif.g08.bks.cpg/sg18_1_cif.got.tgz:852.got - 2010.06.03 22:40:56.
