data_PCOD9312420
_publ_section_title
;
Structure prediction by ZEFSAII (Michael W. Deem and Ramdas Pophale) SiO2 
 PCOD9312420
Probable space group: P 21 21 2
;
_chemical_formula_sum "Si O2"
_cell_formula_units_Z 24
_cell_length_a 21.723407
_cell_length_b 9.048516
_cell_length_c 5.293590
_cell_angle_alpha 90.000000
_cell_angle_beta 90.000000
_cell_angle_gamma 90.000000
_cell_volume 1040.532379
_symmetry_space_group_name_H-M "P 21 21 2"
_symmetry_group_IT_number 18
_symmetry_cell_setting 'orthorhombic'
loop_
_space_group_symop_operation_xyz
x,y,z
-x,-y,z
1/2+x,1/2-y,-z
1/2-x,1/2+y,-z
loop_
_atom_site_type_symbol
_atom_site_label
_atom_site_fract_x
_atom_site_fract_y
_atom_site_fract_z
Si Si1 0.275626 0.949286 0.977404
Si Si2 0.858979 0.384833 0.671328
Si Si3 0.979755 0.830125 0.491369
Si Si4 0.730674 0.769144 0.670991
Si Si5 0.975264 0.332243 0.993410
Si Si6 0.856990 0.680793 0.394018
O O1 0.297126 0.055402 0.199431
O O2 0.226802 0.836981 0.086400
O O3 0.335727 0.856822 0.889824
O O4 0.259505 0.061313 0.756000
O O5 0.832543 0.262160 0.483975
O O6 0.905972 0.339309 0.886307
O O7 0.882891 0.527217 0.513179
O O8 0.908267 0.803955 0.422195
O O9 0.990812 0.755647 0.765532
O O10 0.000000 0.000000 0.497708
O O11 0.015779 0.745136 0.264538
O O12 0.792534 0.722811 0.525709
O O13 0.000000 0.500000 0.010597
#
# Coordination Sequence:
#
# PCOD9312420 Si02
#       6
#     4   4   4   4   4   4
#     4  10  21  42  66  98 141 180 231 292 367 424
#     4  10  22  42  69 104 131 180 254 296 343 441
#     4  12  28  50  70 111 151 191 244 312 379 427
#     4  10  22  41  68 102 138 184 233 295 368 432
#     4  12  25  48  80 105 140 200 255 297 359 443
#     4  10  22  44  69  97 144 186 233 302 372 430
#
# _framework density 23.065114999999999
#
# number of rings (size 3 to 8) (size 9 to 14) (size 15 to 20)
#    0.000    1.333    1.667    3.000    7.000    0.000 
#   15.000    0.000    0.000    0.000    0.000    0.000 
#    0.000    0.000    0.000    0.000    0.000    0.000 
#
# Total GULP energy -134155.852498 kJ/mol
# GULP energy per Si atom -5589.827187 kJ/mol
# Density = 2.301262 g / cm^3
# Si number density = 23.065115 Si / 1000 Ang^3
#
#
#
# Elastic Constant Matrix: (Units=GPa)
#
#
# Indices 1 2 3 4 5 6 
#
# 1 49.6185 9.6793 -6.6397 0.0000 0.0000 0.0000
# 2 9.6793 89.5932 20.2087 0.0000 0.0000 0.0000
# 3 -6.6397 20.2087 70.4051 0.0000 0.0000 0.0000
# 4 0.0000 0.0000 0.0000 39.1525 0.0000 0.0000
# 5 0.0000 0.0000 0.0000 0.0000 38.8987 0.0000
# 6 0.0000 0.0000 0.0000 0.0000 0.0000 37.1853
#
#
#
# Elastic Compliance Matrix: (Units=1/GPa)
#
#
# Indices 1 2 3 4 5 6 
#
# 1 0.021101 -0.002917 0.002827 0.000000 0.000000 0.000000
# 2 -0.002917 0.012338 -0.003816 0.000000 0.000000 0.000000
# 3 0.002827 -0.003816 0.015566 0.000000 0.000000 0.000000
# 4 0.000000 0.000000 0.000000 0.025541 0.000000 0.000000
# 5 0.000000 0.000000 0.000000 0.000000 0.025708 0.000000
# 6 0.000000 0.000000 0.000000 0.000000 0.000000 0.026892
#
#
# Mechanical properties :
#
#
# Convention : Reuss Voigt Hill
#
# Bulk Modulus (GPa) = 24.27687 28.45704 26.36695
# Shear Modulus (GPa) = 33.62719 35.47188 34.54954
#
# Velocity S-wave (km/s) = 3.82242 3.92586 3.87449
# Velocity P-wave (km/s) = 5.47991 5.73710 5.60998
#
# Compressibility (1/GPa) = 0.04119148
#
# Stress axis : x y z
#
# Youngs Moduli (GPa) = 47.39053 81.05307 64.24419
#
# Poissons Ratio (x) = 0.23647 -0.18164
# Poissons Ratio (y) = 0.13826 0.24518
# Poissons Ratio (z) = -0.13399 0.30934
#
# Static dielectric constant tensor:
#      x y z
#    x 1.871750 0.000000 0.000000 
#    y 0.000000 1.865500 0.000000 
#    z 0.000000 0.000000 1.903310 
# 
# From -- ./inp_files/2077.got.cif
#   From: 2010.05.17/outbox.cif.g08.bks.cpg/sg18_2_cif.got.tgz:2077.got - 2010.06.03 22:40:56.
