data_PCOD9312918
_publ_section_title
;
Structure prediction by ZEFSAII (Michael W. Deem and Ramdas Pophale) SiO2 
 PCOD9312918
Probable space group: P 21 21 2
;
_chemical_formula_sum "Si O2"
_cell_formula_units_Z 20
_cell_length_a 9.608158
_cell_length_b 7.887604
_cell_length_c 11.096166
_cell_angle_alpha 90.000000
_cell_angle_beta 90.000000
_cell_angle_gamma 90.000000
_cell_volume 840.926774
_symmetry_space_group_name_H-M "P 21 21 2"
_symmetry_group_IT_number 18
_symmetry_cell_setting 'orthorhombic'
loop_
_space_group_symop_operation_xyz
x,y,z
-x,-y,z
1/2+x,1/2-y,-z
1/2-x,1/2+y,-z
loop_
_atom_site_type_symbol
_atom_site_label
_atom_site_fract_x
_atom_site_fract_y
_atom_site_fract_z
Si Si1 0.495949 0.191406 0.155745
Si Si2 0.795721 0.282878 0.221606
Si Si3 0.500000 0.500000 0.788673
Si Si4 0.762351 0.770264 0.311111
Si Si5 0.840834 0.446586 0.457507
Si Si6 0.000000 0.500000 0.079142
O O1 0.631389 0.288080 0.199992
O O2 0.347218 0.253482 0.202130
O O3 0.500000 0.000000 0.206644
O O4 0.517463 0.157133 0.013278
O O5 0.821795 0.290677 0.364718
O O6 0.872584 0.443937 0.161820
O O7 0.867143 0.112814 0.165123
O O8 0.410998 0.655984 0.730803
O O9 0.766265 0.599186 0.388211
O O10 0.711453 0.905377 0.410392
O O11 0.000000 0.500000 0.464633
#
# Coordination Sequence:
#
# PCOD9312918 Si02
#       6
#     4   4   2   4   4   2
#     4  10  25  47  73  99 149 180 238 298 355 429
#     4  12  24  46  71 104 139 191 236 295 357 424
#     4  12  22  42  72 100 144 190 232 286 354 434
#     4  12  26  45  70 108 140 194 235 290 370 422
#     4  12  27  44  72 101 150 178 240 294 347 447
#     4  10  24  46  70 104 140 182 244 296 364 420
#
# _framework density 23.783286
#
# number of rings (size 3 to 8) (size 9 to 14) (size 15 to 20)
#    0.600    0.000    5.000    1.800    2.800    5.600 
#    0.000    0.000    0.000    0.000    0.000    0.000 
#    0.000    0.000    0.000    0.000    0.000    0.000 
#
# Total GULP energy -111583.021218 kJ/mol
# GULP energy per Si atom -5579.151061 kJ/mol
# Density = 2.372915 g / cm^3
# Si number density = 23.783286 Si / 1000 Ang^3
#
#
#
# Elastic Constant Matrix: (Units=GPa)
#
#
# Indices 1 2 3 4 5 6 
#
# 1 133.2895 15.5511 36.1508 0.0000 0.0000 0.0000
# 2 15.5511 78.8894 0.1413 0.0000 0.0000 0.0000
# 3 36.1508 0.1413 73.2147 0.0000 0.0000 0.0000
# 4 0.0000 0.0000 0.0000 243.8358 0.0000 0.0000
# 5 0.0000 0.0000 0.0000 0.0000 -28.1940 0.0000
# 6 0.0000 0.0000 0.0000 0.0000 0.0000 48.1697
#
#
#
# Elastic Compliance Matrix: (Units=1/GPa)
#
#
# Indices 1 2 3 4 5 6 
#
# 1 0.008897 -0.001746 -0.004389 0.000000 0.000000 0.000000
# 2 -0.001746 0.013019 0.000837 0.000000 0.000000 0.000000
# 3 -0.004389 0.000837 0.015824 0.000000 0.000000 0.000000
# 4 0.000000 0.000000 0.000000 0.004101 0.000000 0.000000
# 5 0.000000 0.000000 0.000000 0.000000 -0.035469 0.000000
# 6 0.000000 0.000000 0.000000 0.000000 0.000000 0.020760
#
#
# Mechanical properties :
#
#
# Convention : Reuss Voigt Hill
#
# Bulk Modulus (GPa) = 36.84241 43.23112 40.03676
# Shear Modulus (GPa) = 106.89136 68.33234 87.61185
#
# Velocity S-wave (km/s) = 6.71129 5.36597 6.07598
# Velocity P-wave (km/s) = 8.69366 7.52383 8.12982
#
# Compressibility (1/GPa) = 0.02714263
#
# Stress axis : x y z
#
# Youngs Moduli (GPa) = 112.40148 76.81292 63.19429
#
# Poissons Ratio (x) = 0.13411 0.27739
# Poissons Ratio (y) = 0.19624 -0.05289
# Poissons Ratio (z) = 0.49339 -0.06429
#
# Static dielectric constant tensor:
#      x y z
#    x 1.592910 0.000000 0.000000 
#    y 0.000000 1.989850 0.000000 
#    z 0.000000 0.000000 1.906100 
# 
# From -- ./inp_files/5431.got.cif
#   From: 2010.05.17/outbox.cif.g08.bks.cpg/sg18_3_cif.got.tgz:5431.got - 2010.06.03 22:40:56.
