data_PCOD9312516
_publ_section_title
;
Structure prediction by ZEFSAII (Michael W. Deem and Ramdas Pophale) SiO2 
 PCOD9312516
Probable space group: P 21 21 2
;
_chemical_formula_sum "Si O2"
_cell_formula_units_Z 20
_cell_length_a 5.206651
_cell_length_b 16.380599
_cell_length_c 8.293287
_cell_angle_alpha 90.000000
_cell_angle_beta 90.000000
_cell_angle_gamma 90.000000
_cell_volume 707.318377
_symmetry_space_group_name_H-M "P 21 21 2"
_symmetry_group_IT_number 18
_symmetry_cell_setting 'orthorhombic'
loop_
_space_group_symop_operation_xyz
x,y,z
-x,-y,z
1/2+x,1/2-y,-z
1/2-x,1/2+y,-z
loop_
_atom_site_type_symbol
_atom_site_label
_atom_site_fract_x
_atom_site_fract_y
_atom_site_fract_z
Si Si1 0.063558 0.378332 0.841822
Si Si2 0.139805 0.664418 0.371883
Si Si3 0.337101 0.278544 0.073000
Si Si4 0.362785 0.356233 0.544394
Si Si5 0.744286 0.950763 0.898745
O O1 0.245379 0.366167 0.001143
O O2 0.232455 0.404254 0.691565
O O3 0.954913 0.286672 0.798307
O O4 0.831335 0.430209 0.916126
O O5 0.347651 0.623698 0.493196
O O6 0.132918 0.760483 0.406986
O O7 0.254984 0.634405 0.200779
O O8 0.844285 0.637761 0.398402
O O9 0.552861 0.260007 0.938737
O O10 0.500000 0.000000 0.830946
O O11 0.000000 0.000000 0.871531
#
# Coordination Sequence:
#
# PCOD9312516 Si02
#       5
#     4   4   4   4   4
#     4  10  22  38  66 101 129 165 230 273 338 372
#     4  10  23  44  63 103 137 174 222 266 363 408
#     4   8  19  31  59  97 134 157 190 281 344 375
#     4  10  22  39  74  99 131 166 219 306 335 394
#     4  12  28  44  66  92 141 190 225 266 326 425
#
# _framework density 28.275808999999999
#
# number of rings (size 3 to 8) (size 9 to 14) (size 15 to 20)
#    1.200    0.800    0.000    2.400    5.600    3.200 
#    0.000    4.000    0.000    0.000    0.000    0.000 
#    0.000    0.000    0.000    0.000    0.000    0.000 
#
# Total GULP energy -111434.288107 kJ/mol
# GULP energy per Si atom -5571.714405 kJ/mol
# Density = 2.821145 g / cm^3
# Si number density = 28.275809 Si / 1000 Ang^3
#
#
#
# Elastic Constant Matrix: (Units=GPa)
#
#
# Indices 1 2 3 4 5 6 
#
# 1 124.5283 15.8841 -13.9347 0.0000 0.0000 0.0000
# 2 15.8841 65.3401 5.4518 0.0000 0.0000 0.0000
# 3 -13.9347 5.4518 70.9983 0.0000 0.0000 0.0000
# 4 0.0000 0.0000 0.0000 30.6114 0.0000 0.0000
# 5 0.0000 0.0000 0.0000 0.0000 53.0714 0.0000
# 6 0.0000 0.0000 0.0000 0.0000 0.0000 42.3299
#
#
#
# Elastic Compliance Matrix: (Units=1/GPa)
#
#
# Indices 1 2 3 4 5 6 
#
# 1 0.008520 -0.002225 0.001843 0.000000 0.000000 0.000000
# 2 -0.002225 0.015984 -0.001664 0.000000 0.000000 0.000000
# 3 0.001843 -0.001664 0.014574 0.000000 0.000000 0.000000
# 4 0.000000 0.000000 0.000000 0.032668 0.000000 0.000000
# 5 0.000000 0.000000 0.000000 0.000000 0.018843 0.000000
# 6 0.000000 0.000000 0.000000 0.000000 0.000000 0.023624
#
#
# Mechanical properties :
#
#
# Convention : Reuss Voigt Hill
#
# Bulk Modulus (GPa) = 28.58208 30.62989 29.60598
# Shear Modulus (GPa) = 38.47114 42.10023 40.28568
#
# Velocity S-wave (km/s) = 3.69259 3.86283 3.77867
# Velocity P-wave (km/s) = 5.32076 5.54539 5.43424
#
# Compressibility (1/GPa) = 0.03498696
#
# Stress axis : x y z
#
# Youngs Moduli (GPa) = 117.36588 62.56136 68.61359
#
# Poissons Ratio (x) = 0.13920 -0.12646
# Poissons Ratio (y) = 0.26115 0.11418
# Poissons Ratio (z) = -0.21632 0.10411
#
# Static dielectric constant tensor:
#      x y z
#    x 2.168580 0.000000 0.000000 
#    y 0.000000 2.473260 0.000000 
#    z 0.000000 0.000000 2.298720 
# 
# From -- ./inp_files/2446.got.cif
#   From: 2010.05.17/outbox.cif.g08.bks.cpg/sg18_2_cif.got.tgz:2446.got - 2010.06.03 22:40:56.
