data_PCOD9312170
_publ_section_title
;
Structure prediction by ZEFSAII (Michael W. Deem and Ramdas Pophale) SiO2 
 PCOD9312170
Probable space group: P 21 21 2
;
_chemical_formula_sum "Si O2"
_cell_formula_units_Z 24
_cell_length_a 17.585031
_cell_length_b 10.437922
_cell_length_c 5.100042
_cell_angle_alpha 90.000000
_cell_angle_beta 90.000000
_cell_angle_gamma 90.000000
_cell_volume 936.118737
_symmetry_space_group_name_H-M "P 21 21 2"
_symmetry_group_IT_number 18
_symmetry_cell_setting 'orthorhombic'
loop_
_space_group_symop_operation_xyz
x,y,z
-x,-y,z
1/2+x,1/2-y,-z
1/2-x,1/2+y,-z
loop_
_atom_site_type_symbol
_atom_site_label
_atom_site_fract_x
_atom_site_fract_y
_atom_site_fract_z
Si Si1 0.342573 0.528575 0.425206
Si Si2 0.872937 0.398532 0.639340
Si Si3 0.198219 0.798172 0.260976
Si Si4 0.461076 0.257942 0.978816
Si Si5 0.777964 0.860490 0.090930
Si Si6 0.000000 0.000000 0.306378
Si Si7 0.500000 0.000000 0.654863
O O1 0.291970 0.410482 0.532775
O O2 0.322699 0.560414 0.129331
O O3 0.428556 0.492553 0.495420
O O4 0.321107 0.639815 0.634309
O O5 0.822987 0.330636 0.417099
O O6 0.924040 0.511244 0.523834
O O7 0.937844 0.296430 0.735953
O O8 0.808342 0.415463 0.860091
O O9 0.120184 0.817197 0.105905
O O10 0.263618 0.774129 0.052358
O O11 0.512065 0.376071 0.882841
O O12 0.485844 0.127498 0.828264
#
# Coordination Sequence:
#
# PCOD9312170 Si02
#       7
#     4   4   4   4   4   2   2
#     4  11  25  43  71  99 140 184 235 293 360 419
#     4  10  20  42  67  99 140 187 236 289 364 425
#     4   9  21  42  67  92 134 181 226 286 356 417
#     4   9  20  40  69  94 139 181 233 286 355 418
#     4  11  23  43  65 101 130 183 235 283 347 431
#     4  10  24  48  66 106 138 190 236 298 358 428
#     4  10  20  40  64 102 136 186 236 300 354 426
#
# _framework density 25.637775000000001
#
# number of rings (size 3 to 8) (size 9 to 14) (size 15 to 20)
#    0.000    2.000    1.667    0.500    7.000    0.667 
#    9.000    5.000    0.000    0.000    0.000    0.000 
#    0.000    0.000    0.000    0.000    0.000    0.000 
#
# Total GULP energy -133923.768979 kJ/mol
# GULP energy per Si atom -5580.157041 kJ/mol
# Density = 2.557942 g / cm^3
# Si number density = 25.637775 Si / 1000 Ang^3
#
#
#
# Elastic Constant Matrix: (Units=GPa)
#
#
# Indices 1 2 3 4 5 6 
#
# 1 84.0738 24.4635 30.9159 0.0000 0.0000 0.0000
# 2 24.4635 84.7401 17.3884 0.0000 0.0000 0.0000
# 3 30.9159 17.3884 106.0315 0.0000 0.0000 0.0000
# 4 0.0000 0.0000 0.0000 28.3967 0.0000 0.0000
# 5 0.0000 0.0000 0.0000 0.0000 44.3074 0.0000
# 6 0.0000 0.0000 0.0000 0.0000 0.0000 34.8234
#
#
#
# Elastic Compliance Matrix: (Units=1/GPa)
#
#
# Indices 1 2 3 4 5 6 
#
# 1 0.014191 -0.003361 -0.003587 0.000000 0.000000 0.000000
# 2 -0.003361 0.013008 -0.001153 0.000000 0.000000 0.000000
# 3 -0.003587 -0.001153 0.010666 0.000000 0.000000 0.000000
# 4 0.000000 0.000000 0.000000 0.035215 0.000000 0.000000
# 5 0.000000 0.000000 0.000000 0.000000 0.022570 0.000000
# 6 0.000000 0.000000 0.000000 0.000000 0.000000 0.028716
#
#
# Mechanical properties :
#
#
# Convention : Reuss Voigt Hill
#
# Bulk Modulus (GPa) = 46.16067 46.70901 46.43484
# Shear Modulus (GPa) = 33.83212 34.97736 34.40474
#
# Velocity S-wave (km/s) = 3.63660 3.69764 3.66724
# Velocity P-wave (km/s) = 5.97304 6.04056 6.00689
#
# Compressibility (1/GPa) = 0.02166347
#
# Stress axis : x y z
#
# Youngs Moduli (GPa) = 70.46660 76.87773 93.75559
#
# Poissons Ratio (x) = 0.25837 0.33626
# Poissons Ratio (y) = 0.23683 0.10812
# Poissons Ratio (z) = 0.25273 0.08866
#
# Static dielectric constant tensor:
#      x y z
#    x 2.082700 0.000000 0.000000 
#    y 0.000000 2.137910 0.000000 
#    z 0.000000 0.000000 2.090810 
# 
# From -- ./inp_files/1198.got.cif
#   From: 2010.05.17/outbox.cif.g08.bks.cpg/sg18_1_cif.got.tgz:1198.got - 2010.06.03 22:40:56.
