data_PCOD9312127
_publ_section_title
;
Structure prediction by ZEFSAII (Michael W. Deem and Ramdas Pophale) SiO2 
 PCOD9312127
Probable space group: P 21 21 2
;
_chemical_formula_sum "Si O2"
_cell_formula_units_Z 20
_cell_length_a 9.467386
_cell_length_b 7.841026
_cell_length_c 12.481857
_cell_angle_alpha 90.000000
_cell_angle_beta 90.000000
_cell_angle_gamma 90.000000
_cell_volume 926.578419
_symmetry_space_group_name_H-M "P 21 21 2"
_symmetry_group_IT_number 18
_symmetry_cell_setting 'orthorhombic'
loop_
_space_group_symop_operation_xyz
x,y,z
-x,-y,z
1/2+x,1/2-y,-z
1/2-x,1/2+y,-z
loop_
_atom_site_type_symbol
_atom_site_label
_atom_site_fract_x
_atom_site_fract_y
_atom_site_fract_z
Si Si1 0.661976 0.065466 0.749796
Si Si2 0.454644 0.800814 0.555209
Si Si3 0.342448 0.429638 0.851251
Si Si4 0.747253 0.726475 0.638555
Si Si5 0.843266 0.440761 0.034327
O O1 0.642364 0.214683 0.662826
O O2 0.500000 0.000000 0.765970
O O3 0.743518 0.914869 0.690058
O O4 0.712711 0.069501 0.871493
O O5 0.599066 0.700322 0.575155
O O6 0.370758 0.773569 0.447122
O O7 0.500000 0.000000 0.550982
O O8 0.500000 0.500000 0.832433
O O9 0.259307 0.398926 0.740017
O O10 0.350593 0.244405 0.909731
O O11 0.259013 0.547979 0.933676
O O12 0.000000 0.500000 0.001337
#
# Coordination Sequence:
#
# PCOD9312127 Si02
#       5
#     4   4   4   4   4
#     4   7  15  33  53  71 101 147 189 236 296 344
#     4   9  18  35  55  79 113 150 192 245 304 359
#     4  11  23  38  59  89 122 161 204 251 310 362
#     4   9  19  35  56  80 111 151 195 241 296 363
#     4  10  20  39  60  81 116 159 206 253 299 362
#
# _framework density 21.584789000000001
#
# number of rings (size 3 to 8) (size 9 to 14) (size 15 to 20)
#    0.000    3.200    0.000    2.400    0.000    4.000 
#    0.000    6.000    0.000    0.000    0.000    0.000 
#    0.000    0.000    0.000    0.000    0.000    0.000 
#
# Total GULP energy -111487.758781 kJ/mol
# GULP energy per Si atom -5574.387939 kJ/mol
# Density = 2.153566 g / cm^3
# Si number density = 21.584789 Si / 1000 Ang^3
#
#
#
# Elastic Constant Matrix: (Units=GPa)
#
#
# Indices 1 2 3 4 5 6 
#
# 1 34.2067 5.7241 51.2141 0.0000 0.0000 0.0000
# 2 5.7241 60.6900 14.5831 0.0000 0.0000 0.0000
# 3 51.2141 14.5831 140.6127 0.0000 0.0000 0.0000
# 4 0.0000 0.0000 0.0000 15.6056 0.0000 0.0000
# 5 0.0000 0.0000 0.0000 0.0000 40.0831 0.0000
# 6 0.0000 0.0000 0.0000 0.0000 0.0000 22.3163
#
#
#
# Elastic Compliance Matrix: (Units=1/GPa)
#
#
# Indices 1 2 3 4 5 6 
#
# 1 0.064306 -0.000448 -0.023375 0.000000 0.000000 0.000000
# 2 -0.000448 0.016901 -0.001590 0.000000 0.000000 0.000000
# 3 -0.023375 -0.001590 0.015790 0.000000 0.000000 0.000000
# 4 0.000000 0.000000 0.000000 0.064079 0.000000 0.000000
# 5 0.000000 0.000000 0.000000 0.000000 0.024948 0.000000
# 6 0.000000 0.000000 0.000000 0.000000 0.000000 0.044810
#
#
# Mechanical properties :
#
#
# Convention : Reuss Voigt Hill
#
# Bulk Modulus (GPa) = 21.65822 42.06132 31.85977
# Shear Modulus (GPa) = 16.83203 26.53356 21.68279
#
# Velocity S-wave (km/s) = 2.79554 3.50990 3.17289
# Velocity P-wave (km/s) = 4.52502 5.99623 5.31181
#
# Compressibility (1/GPa) = 0.04617184
#
# Stress axis : x y z
#
# Youngs Moduli (GPa) = 15.55056 59.16666 63.32993
#
# Poissons Ratio (x) = 0.02653 1.48035
# Poissons Ratio (y) = 0.00697 0.10067
# Poissons Ratio (z) = 0.36350 0.09405
#
# Static dielectric constant tensor:
#      x y z
#    x 1.790560 0.000000 0.000000 
#    y 0.000000 1.880880 0.000000 
#    z 0.000000 0.000000 1.872640 
# 
# From -- ./inp_files/5408.got.cif
#   From: 2010.05.17/outbox.cif.g08.bks.cpg/sg18_3_cif.got.tgz:5408.got - 2010.06.03 22:40:56.
