data_PCOD9312103
_publ_section_title
;
Structure prediction by ZEFSAII (Michael W. Deem and Ramdas Pophale) SiO2 
 PCOD9312103
Probable space group: P 21 21 2
;
_chemical_formula_sum "Si O2"
_cell_formula_units_Z 32
_cell_length_a 10.214486
_cell_length_b 25.770446
_cell_length_c 5.266851
_cell_angle_alpha 90.000000
_cell_angle_beta 90.000000
_cell_angle_gamma 90.000000
_cell_volume 1386.402984
_symmetry_space_group_name_H-M "P 21 21 2"
_symmetry_group_IT_number 18
_symmetry_cell_setting 'orthorhombic'
loop_
_space_group_symop_operation_xyz
x,y,z
-x,-y,z
1/2+x,1/2-y,-z
1/2-x,1/2+y,-z
loop_
_atom_site_type_symbol
_atom_site_label
_atom_site_fract_x
_atom_site_fract_y
_atom_site_fract_z
Si Si1 0.672864 0.451416 0.039026
Si Si2 0.905718 0.676503 0.635293
Si Si3 0.850077 0.127080 0.544152
Si Si4 0.462169 0.761993 0.850861
Si Si5 0.626164 0.885725 0.187878
Si Si6 0.270667 0.213417 0.949006
Si Si7 0.143410 0.142970 0.564957
Si Si8 0.385612 0.432802 0.939399
O O1 0.816665 0.437848 0.931746
O O2 0.541250 0.438263 0.879081
O O3 0.660724 0.512956 0.062996
O O4 0.647292 0.410261 0.263784
O O5 0.765103 0.666721 0.514270
O O6 0.978648 0.709590 0.418717
O O7 0.986475 0.623053 0.684650
O O8 0.905149 0.704724 0.907641
O O9 0.826166 0.081994 0.332752
O O10 0.993611 0.149063 0.482075
O O11 0.855003 0.108554 0.837361
O O12 0.610539 0.745531 0.927561
O O13 0.338919 0.722977 0.836898
O O14 0.740436 0.870056 0.378056
O O15 0.642911 0.839021 0.987615
O O16 0.182743 0.194833 0.715783
#
# Coordination Sequence:
#
# PCOD9312103 Si02
#       8
#     4   4   4   4   4   4   4   4
#     4   9  20  35  63  92 121 161 204 263 305 360
#     4  11  25  43  62  87 129 169 201 250 320 369
#     4  11  23  39  62  92 126 163 203 257 308 365
#     4  11  25  42  64  91 123 163 206 262 307 366
#     4  10  20  41  64  84 123 165 205 244 312 375
#     4  10  24  40  61  95 122 159 211 257 309 374
#     4  10  20  38  63  89 120 164 208 247 309 372
#     4  10  21  37  62  96 123 153 212 260 305 360
#
# _framework density 23.081313000000002
#
# number of rings (size 3 to 8) (size 9 to 14) (size 15 to 20)
#    0.000    1.750    2.500    0.750    5.250    2.000 
#    0.000    0.625    0.000    0.000    0.000    0.000 
#    0.000    0.000    0.000    0.000    0.000    0.000 
#
# Total GULP energy -178224.024267 kJ/mol
# GULP energy per Si atom -5569.500758 kJ/mol
# Density = 2.302878 g / cm^3
# Si number density = 23.081313 Si / 1000 Ang^3
#
#
#
# Elastic Constant Matrix: (Units=GPa)
#
#
# Indices 1 2 3 4 5 6 
#
# 1 118.0856 12.8638 2.5245 0.0000 0.0000 0.0000
# 2 12.8638 23.5393 -1.3171 0.0000 0.0000 0.0000
# 3 2.5245 -1.3171 62.7853 0.0000 0.0000 0.0000
# 4 0.0000 0.0000 0.0000 17.6083 0.0000 0.0000
# 5 0.0000 0.0000 0.0000 0.0000 29.9961 0.0000
# 6 0.0000 0.0000 0.0000 0.0000 0.0000 27.6384
#
#
#
# Elastic Compliance Matrix: (Units=1/GPa)
#
#
# Indices 1 2 3 4 5 6 
#
# 1 0.009018 -0.004954 -0.000467 0.000000 0.000000 0.000000
# 2 -0.004954 0.045254 0.001149 0.000000 0.000000 0.000000
# 3 -0.000467 0.001149 0.015970 0.000000 0.000000 0.000000
# 4 0.000000 0.000000 0.000000 0.056791 0.000000 0.000000
# 5 0.000000 0.000000 0.000000 0.000000 0.033338 0.000000
# 6 0.000000 0.000000 0.000000 0.000000 0.000000 0.036182
#
#
# Mechanical properties :
#
#
# Convention : Reuss Voigt Hill
#
# Bulk Modulus (GPa) = 16.20810 25.83916 21.02363
# Shear Modulus (GPa) = 22.15690 27.73783 24.94737
#
# Velocity S-wave (km/s) = 3.10167 3.47038 3.29119
# Velocity P-wave (km/s) = 4.45696 5.22276 4.85498
#
# Compressibility (1/GPa) = 0.06169755
#
# Stress axis : x y z
#
# Youngs Moduli (GPa) = 110.88792 22.09753 62.61678
#
# Poissons Ratio (x) = 0.10948 0.02921
# Poissons Ratio (y) = 0.54938 -0.07192
# Poissons Ratio (z) = 0.05173 -0.02538
#
# Static dielectric constant tensor:
#      x y z
#    x 1.959600 0.000000 0.000000 
#    y 0.000000 2.041320 0.000000 
#    z 0.000000 0.000000 1.949940 
# 
# From -- ./inp_files/784.got.cif
#   From: 2010.05.17/outbox.cif.g08.bks.cpg/sg18_1_cif.got.tgz:784.got - 2010.06.03 22:40:56.
