data_PCOD9312442
_publ_section_title
;
Structure prediction by ZEFSAII (Michael W. Deem and Ramdas Pophale) SiO2 
 PCOD9312442
Probable space group: P 21 21 2
;
_chemical_formula_sum "Si O2"
_cell_formula_units_Z 18
_cell_length_a 5.141313
_cell_length_b 11.000971
_cell_length_c 13.005512
_cell_angle_alpha 90.000000
_cell_angle_beta 90.000000
_cell_angle_gamma 90.000000
_cell_volume 735.584413
_symmetry_space_group_name_H-M "P 21 21 2"
_symmetry_group_IT_number 18
_symmetry_cell_setting 'orthorhombic'
loop_
_space_group_symop_operation_xyz
x,y,z
-x,-y,z
1/2+x,1/2-y,-z
1/2-x,1/2+y,-z
loop_
_atom_site_type_symbol
_atom_site_label
_atom_site_fract_x
_atom_site_fract_y
_atom_site_fract_z
Si Si1 0.371748 0.869129 0.073090
Si Si2 0.269717 0.216695 0.562206
Si Si3 0.232076 0.922562 0.275227
Si Si4 0.646057 0.621976 0.134109
Si Si5 0.500000 0.500000 0.333740
O O1 0.145384 0.887096 0.158236
O O2 0.497070 0.747934 0.119683
O O3 0.500000 0.000000 0.083661
O O4 0.367661 0.855785 0.950041
O O5 0.558844 0.231633 0.518752
O O6 0.239394 0.300282 0.661894
O O7 0.182773 0.082935 0.596731
O O8 0.500000 0.000000 0.282627
O O9 0.000000 0.000000 0.322517
O O10 0.500000 0.500000 0.091043
O O11 0.669493 0.583558 0.253128
#
# Coordination Sequence:
#
# PCOD9312442 Si02
#       5
#     4   4   4   4   2
#     4  11  22  40  69 109 153 207 255 310 388 474
#     4  12  28  51  79 111 151 205 263 336 399 465
#     4  11  24  45  72 107 150 194 256 315 380 462
#     4  10  21  43  66 102 155 196 250 308 388 463
#     4  10  26  52  70 110 158 198 270 322 410 466
#
# _framework density 24.470336
#
# number of rings (size 3 to 8) (size 9 to 14) (size 15 to 20)
#    0.667    0.444    2.222    3.333    4.667    1.778 
#    8.000    0.000    0.000    0.000    0.000    0.000 
#    0.000    0.000    0.000    0.000    0.000    0.000 
#
# Total GULP energy -100311.188280 kJ/mol
# GULP energy per Si atom -5572.843793 kJ/mol
# Density = 2.441464 g / cm^3
# Si number density = 24.470336 Si / 1000 Ang^3
#
#
#
# Elastic Constant Matrix: (Units=GPa)
#
#
# Indices 1 2 3 4 5 6 
#
# 1 48.3502 12.3543 -5.9645 0.0000 0.0000 0.0000
# 2 12.3543 156.0267 8.7897 0.0000 0.0000 0.0000
# 3 -5.9645 8.7897 79.1558 0.0000 0.0000 0.0000
# 4 0.0000 0.0000 0.0000 -224.8631 0.0000 0.0000
# 5 0.0000 0.0000 0.0000 0.0000 -14.6252 0.0000
# 6 0.0000 0.0000 0.0000 0.0000 0.0000 31.1992
#
#
#
# Elastic Compliance Matrix: (Units=1/GPa)
#
#
# Indices 1 2 3 4 5 6 
#
# 1 0.021364 -0.001794 0.001809 0.000000 0.000000 0.000000
# 2 -0.001794 0.006600 -0.000868 0.000000 0.000000 0.000000
# 3 0.001809 -0.000868 0.012866 0.000000 0.000000 0.000000
# 4 0.000000 0.000000 0.000000 -0.004447 0.000000 0.000000
# 5 0.000000 0.000000 0.000000 0.000000 -0.068375 0.000000
# 6 0.000000 0.000000 0.000000 0.000000 0.000000 0.032052
#
#
# Mechanical properties :
#
#
# Convention : Reuss Voigt Hill
#
# Bulk Modulus (GPa) = 25.55929 34.87688 30.21808
# Shear Modulus (GPa) = 337.69044 -23.76761 156.96142
#
# Velocity S-wave (km/s) = 11.76008 -3.11992 8.01766
# Velocity P-wave (km/s) = 13.95948 1.14242 9.90384
#
# Compressibility (1/GPa) = 0.03912472
#
# Stress axis : x y z
#
# Youngs Moduli (GPa) = 46.80804 151.51352 77.72421
#
# Poissons Ratio (x) = 0.27174 -0.14060
# Poissons Ratio (y) = 0.08395 0.06747
# Poissons Ratio (z) = -0.08467 0.13152
#
# Static dielectric constant tensor:
#      x y z
#    x 3.595240 0.000000 0.000000 
#    y 0.000000 3.135360 0.000000 
#    z 0.000000 0.000000 2.055260 
# 
# From -- ./inp_files/4988.got.cif
#   From: 2010.05.17/outbox.cif.g08.bks.cpg/sg18_3_cif.got.tgz:4988.got - 2010.06.03 22:40:56.
