data_PCOD9312332
_publ_section_title
;
Structure prediction by ZEFSAII (Michael W. Deem and Ramdas Pophale) SiO2 
 PCOD9312332
Probable space group: P 21 21 2
;
_chemical_formula_sum "Si O2"
_cell_formula_units_Z 26
_cell_length_a 10.931342
_cell_length_b 14.098539
_cell_length_c 7.000066
_cell_angle_alpha 90.000000
_cell_angle_beta 90.000000
_cell_angle_gamma 90.000000
_cell_volume 1078.821832
_symmetry_space_group_name_H-M "P 21 21 2"
_symmetry_group_IT_number 18
_symmetry_cell_setting 'orthorhombic'
loop_
_space_group_symop_operation_xyz
x,y,z
-x,-y,z
1/2+x,1/2-y,-z
1/2-x,1/2+y,-z
loop_
_atom_site_type_symbol
_atom_site_label
_atom_site_fract_x
_atom_site_fract_y
_atom_site_fract_z
Si Si1 0.643963 0.503620 0.488825
Si Si2 0.183134 0.305070 0.042929
Si Si3 0.704179 0.869931 0.233819
Si Si4 0.009343 0.241680 0.722810
Si Si5 0.894287 0.060312 0.913505
Si Si6 0.158906 0.351519 0.477153
Si Si7 0.000000 0.500000 0.717495
O O1 0.500000 0.500000 0.523003
O O2 0.709266 0.426836 0.622833
O O3 0.663270 0.496323 0.257363
O O4 0.709041 0.605270 0.527791
O O5 0.232100 0.197241 0.077784
O O6 0.290791 0.378252 0.980217
O O7 0.146330 0.342162 0.251432
O O8 0.071228 0.296919 0.900393
O O9 0.615658 0.793777 0.338481
O O10 0.607117 0.949167 0.163691
O O11 0.113947 0.252139 0.565205
O O12 0.968889 0.140630 0.797288
O O13 0.000000 0.000000 0.018888
O O14 0.067356 0.426649 0.575288
#
# Coordination Sequence:
#
# PCOD9312332 Si02
#       7
#     4   4   4   4   4   4   2
#     4   9  18  36  65  96 124 168 218 267 330 391
#     4  10  21  39  62  94 131 170 218 268 335 401
#     4   9  19  38  61  89 130 164 214 269 321 398
#     4  10  21  41  62  92 134 170 216 275 329 394
#     4   9  20  40  64  94 138 167 219 285 324 393
#     4   9  19  37  64  90 122 171 211 266 328 397
#     4   8  16  38  62  86 124 164 216 270 322 380
#
# _framework density 24.100366999999999
#
# number of rings (size 3 to 8) (size 9 to 14) (size 15 to 20)
#    0.000    2.769    0.000    0.000    4.308    0.000 
#   13.846    4.615    0.000    0.000    0.000    0.000 
#    0.000    0.000    0.000    0.000    0.000    0.000 
#
# Total GULP energy -145000.522122 kJ/mol
# GULP energy per Si atom -5576.943159 kJ/mol
# Density = 2.404551 g / cm^3
# Si number density = 24.100367 Si / 1000 Ang^3
#
#
#
# Elastic Constant Matrix: (Units=GPa)
#
#
# Indices 1 2 3 4 5 6 
#
# 1 118.6849 49.8806 34.6721 0.0000 0.0000 0.0000
# 2 49.8806 92.1361 17.2180 0.0000 0.0000 0.0000
# 3 34.6721 17.2180 83.4690 0.0000 0.0000 0.0000
# 4 0.0000 0.0000 0.0000 27.5629 0.0000 0.0000
# 5 0.0000 0.0000 0.0000 0.0000 26.6244 0.0000
# 6 0.0000 0.0000 0.0000 0.0000 0.0000 61.8219
#
#
#
# Elastic Compliance Matrix: (Units=1/GPa)
#
#
# Indices 1 2 3 4 5 6 
#
# 1 0.011951 -0.005765 -0.003775 0.000000 0.000000 0.000000
# 2 -0.005765 0.014069 -0.000508 0.000000 0.000000 0.000000
# 3 -0.003775 -0.000508 0.013653 0.000000 0.000000 0.000000
# 4 0.000000 0.000000 0.000000 0.036281 0.000000 0.000000
# 5 0.000000 0.000000 0.000000 0.000000 0.037560 0.000000
# 6 0.000000 0.000000 0.000000 0.000000 0.000000 0.016175
#
#
# Mechanical properties :
#
#
# Convention : Reuss Voigt Hill
#
# Bulk Modulus (GPa) = 51.07572 55.31459 53.19516
# Shear Modulus (GPa) = 31.98746 36.03646 34.01196
#
# Velocity S-wave (km/s) = 3.64711 3.87106 3.76075
# Velocity P-wave (km/s) = 6.24293 6.55605 6.40140
#
# Compressibility (1/GPa) = 0.01957877
#
# Stress axis : x y z
#
# Youngs Moduli (GPa) = 83.67256 71.07696 73.24164
#
# Poissons Ratio (x) = 0.40974 0.27651
# Poissons Ratio (y) = 0.48235 0.03718
# Poissons Ratio (z) = 0.31589 0.03608
#
# Static dielectric constant tensor:
#      x y z
#    x 1.930790 0.000000 0.000000 
#    y 0.000000 2.073210 0.000000 
#    z 0.000000 0.000000 1.888650 
# 
# From -- ./inp_files/3838.got.cif
#   From: 2010.05.17/outbox.cif.g08.bks.cpg/sg18_2_cif.got.tgz:3838.got - 2010.06.03 22:40:56.
