data_PCOD9312756
_publ_section_title
;
Structure prediction by ZEFSAII (Michael W. Deem and Ramdas Pophale) SiO2 
 PCOD9312756
Probable space group: P 21 21 2
;
_chemical_formula_sum "Si O2"
_cell_formula_units_Z 24
_cell_length_a 12.761315
_cell_length_b 7.638780
_cell_length_c 12.679760
_cell_angle_alpha 90.000000
_cell_angle_beta 90.000000
_cell_angle_gamma 90.000000
_cell_volume 1236.034135
_symmetry_space_group_name_H-M "P 21 21 2"
_symmetry_group_IT_number 18
_symmetry_cell_setting 'orthorhombic'
loop_
_space_group_symop_operation_xyz
x,y,z
-x,-y,z
1/2+x,1/2-y,-z
1/2-x,1/2+y,-z
loop_
_atom_site_type_symbol
_atom_site_label
_atom_site_fract_x
_atom_site_fract_y
_atom_site_fract_z
Si Si1 0.142412 0.363804 0.461888
Si Si2 0.765118 0.976955 0.355672
Si Si3 0.572468 0.779185 0.622164
Si Si4 0.259558 0.641411 0.879112
Si Si5 0.019831 0.309247 0.145597
Si Si6 0.102201 0.906605 0.974440
O O1 0.213573 0.214797 0.406679
O O2 0.177632 0.420330 0.577978
O O3 0.142619 0.548022 0.397745
O O4 0.023782 0.292645 0.458753
O O5 0.744950 0.963195 0.230571
O O6 0.866633 0.097871 0.376987
O O7 0.520024 0.799022 0.735908
O O8 0.358315 0.766738 0.856306
O O9 0.158401 0.755300 0.908051
O O10 0.304560 0.528685 0.978162
O O11 0.000000 0.500000 0.100703
O O12 0.952694 0.176373 0.077034
O O13 0.000000 0.000000 0.921465
#
# Coordination Sequence:
#
# PCOD9312756 Si02
#       6
#     4   4   4   4   4   4
#     4  11  23  36  64  96 129 162 212 273 328 386
#     4  12  22  40  66  96 130 170 214 273 335 393
#     4  11  21  39  64  96 124 166 225 272 310 399
#     4  11  22  39  67  94 129 175 223 271 342 397
#     4  11  19  36  67  97 123 164 226 280 326 391
#     4  10  23  39  64  98 132 170 221 284 333 394
#
# _framework density 19.41694
#
# number of rings (size 3 to 8) (size 9 to 14) (size 15 to 20)
#    0.000    1.000    6.667    1.500    0.000    0.000 
#    0.000    0.000   25.667    0.000    0.000    0.000 
#    0.000    0.000    0.000    0.000    0.000    0.000 
#
# Total GULP energy -133877.304815 kJ/mol
# GULP energy per Si atom -5578.221034 kJ/mol
# Density = 1.937275 g / cm^3
# Si number density = 19.416940 Si / 1000 Ang^3
#
#
#
# Elastic Constant Matrix: (Units=GPa)
#
#
# Indices 1 2 3 4 5 6 
#
# 1 86.1288 39.5505 44.4627 0.0000 0.0000 0.0000
# 2 39.5505 87.8993 30.2556 0.0000 0.0000 0.0000
# 3 44.4627 30.2556 66.7007 0.0000 0.0000 0.0000
# 4 0.0000 0.0000 0.0000 17.2083 0.0000 0.0000
# 5 0.0000 0.0000 0.0000 0.0000 -3.8590 0.0000
# 6 0.0000 0.0000 0.0000 0.0000 0.0000 46.6882
#
#
#
# Elastic Compliance Matrix: (Units=1/GPa)
#
#
# Indices 1 2 3 4 5 6 
#
# 1 0.019446 -0.005081 -0.010658 0.000000 0.000000 0.000000
# 2 -0.005081 0.014809 -0.003330 0.000000 0.000000 0.000000
# 3 -0.010658 -0.003330 0.023607 0.000000 0.000000 0.000000
# 4 0.000000 0.000000 0.000000 0.058111 0.000000 0.000000
# 5 0.000000 0.000000 0.000000 0.000000 -0.259131 0.000000
# 6 0.000000 0.000000 0.000000 0.000000 0.000000 0.021419
#
#
# Mechanical properties :
#
#
# Convention : Reuss Voigt Hill
#
# Bulk Modulus (GPa) = 50.69992 52.14070 51.42031
# Shear Modulus (GPa) = -64.91331 20.43816 -22.23758
#
# Velocity S-wave (km/s) = -5.78825 3.24789 -3.38785
# Velocity P-wave (km/s) = 4.30162 6.40129 3.35206
#
# Compressibility (1/GPa) = 0.01972390
#
# Stress axis : x y z
#
# Youngs Moduli (GPa) = 51.42538 67.52508 42.35955
#
# Poissons Ratio (x) = 0.34311 0.45145
# Poissons Ratio (y) = 0.26130 0.14108
# Poissons Ratio (z) = 0.54807 0.22489
#
# Static dielectric constant tensor:
#      x y z
#    x 1.715280 0.000000 0.000000 
#    y 0.000000 1.758640 0.000000 
#    z 0.000000 0.000000 1.667440 
# 
# From -- ./inp_files/5500.got.cif
#   From: 2010.05.17/outbox.cif.g08.bks.cpg/sg18_3_cif.got.tgz:5500.got - 2010.06.03 22:40:56.
