data_PCOD9312573
_publ_section_title
;
Structure prediction by ZEFSAII (Michael W. Deem and Ramdas Pophale) SiO2 
 PCOD9312573
Probable space group: P 21 21 2
;
_chemical_formula_sum "Si O2"
_cell_formula_units_Z 16
_cell_length_a 12.506001
_cell_length_b 8.869465
_cell_length_c 6.588282
_cell_angle_alpha 90.000000
_cell_angle_beta 90.000000
_cell_angle_gamma 90.000000
_cell_volume 730.782373
_symmetry_space_group_name_H-M "P 21 21 2"
_symmetry_group_IT_number 18
_symmetry_cell_setting 'orthorhombic'
loop_
_space_group_symop_operation_xyz
x,y,z
-x,-y,z
1/2+x,1/2-y,-z
1/2-x,1/2+y,-z
loop_
_atom_site_type_symbol
_atom_site_label
_atom_site_fract_x
_atom_site_fract_y
_atom_site_fract_z
Si Si1 0.500000 0.000000 0.383156
Si Si2 0.687777 0.802467 0.220025
Si Si3 0.673776 0.460743 0.098618
Si Si4 0.385717 0.718716 0.489185
Si Si5 0.000000 0.000000 0.242650
O O1 0.425874 0.121233 0.266773
O O2 0.586938 0.104791 0.495097
O O3 0.689360 0.622184 0.200798
O O4 0.776224 0.827903 0.396855
O O5 0.727596 0.877543 0.009573
O O6 0.623113 0.346960 0.262284
O O7 0.598493 0.500542 0.908977
O O8 0.482736 0.640398 0.609841
#
# Coordination Sequence:
#
# PCOD9312573 Si02
#       5
#     2   4   4   4   2
#     4  12  24  42  70 100 134 184 234 282 356 422
#     4  11  25  42  67  98 135 181 229 287 351 415
#     4  11  23  43  65  95 137 175 228 289 343 414
#     4  11  24  43  65  97 135 176 227 286 345 413
#     4  10  22  40  66  90 124 178 220 274 344 400
#
# _framework density 21.894344
#
# number of rings (size 3 to 8) (size 9 to 14) (size 15 to 20)
#    0.000    1.000    0.000    6.750    0.000   10.000 
#    0.000    6.250    0.000    0.000    0.000    0.000 
#    0.000    0.000    0.000    0.000    0.000    0.000 
#
# Total GULP energy -89316.156374 kJ/mol
# GULP energy per Si atom -5582.259773 kJ/mol
# Density = 2.184451 g / cm^3
# Si number density = 21.894344 Si / 1000 Ang^3
#
#
#
# Elastic Constant Matrix: (Units=GPa)
#
#
# Indices 1 2 3 4 5 6 
#
# 1 75.2804 31.0371 37.1928 0.0000 0.0000 0.0000
# 2 31.0371 125.0918 26.9488 0.0000 0.0000 0.0000
# 3 37.1928 26.9488 91.0144 0.0000 0.0000 0.0000
# 4 0.0000 0.0000 0.0000 32.6765 0.0000 0.0000
# 5 0.0000 0.0000 0.0000 0.0000 25.5174 0.0000
# 6 0.0000 0.0000 0.0000 0.0000 0.0000 40.5684
#
#
#
# Elastic Compliance Matrix: (Units=1/GPa)
#
#
# Indices 1 2 3 4 5 6 
#
# 1 0.017650 -0.003018 -0.006319 0.000000 0.000000 0.000000
# 2 -0.003018 0.009055 -0.001448 0.000000 0.000000 0.000000
# 3 -0.006319 -0.001448 0.013998 0.000000 0.000000 0.000000
# 4 0.000000 0.000000 0.000000 0.030603 0.000000 0.000000
# 5 0.000000 0.000000 0.000000 0.000000 0.039189 0.000000
# 6 0.000000 0.000000 0.000000 0.000000 0.000000 0.024650
#
#
# Mechanical properties :
#
#
# Convention : Reuss Voigt Hill
#
# Bulk Modulus (GPa) = 52.26439 53.52710 52.89575
# Shear Modulus (GPa) = 30.65760 32.83300 31.74530
#
# Velocity S-wave (km/s) = 3.74605 3.87668 3.81193
# Velocity P-wave (km/s) = 6.52944 6.67377 6.60200
#
# Compressibility (1/GPa) = 0.01913349
#
# Stress axis : x y z
#
# Youngs Moduli (GPa) = 56.65777 110.43848 71.43778
#
# Poissons Ratio (x) = 0.33329 0.45141
# Poissons Ratio (y) = 0.17099 0.10343
# Poissons Ratio (z) = 0.35802 0.15990
#
# Static dielectric constant tensor:
#      x y z
#    x 1.851130 0.000000 0.000000 
#    y 0.000000 1.823370 0.000000 
#    z 0.000000 0.000000 1.806180 
# 
# From -- ./inp_files/400.got.cif
#   From: 2010.05.17/outbox.cif.g08.bks.cpg/sg18_1_cif.got.tgz:400.got - 2010.06.03 22:40:56.
