data_PCOD9312601
_publ_section_title
;
Structure prediction by ZEFSAII (Michael W. Deem and Ramdas Pophale) SiO2 
 PCOD9312601
Probable space group: P 21 21 2
;
_chemical_formula_sum "Si O2"
_cell_formula_units_Z 30
_cell_length_a 14.148579
_cell_length_b 8.683800
_cell_length_c 11.558368
_cell_angle_alpha 90.000000
_cell_angle_beta 90.000000
_cell_angle_gamma 90.000000
_cell_volume 1420.100741
_symmetry_space_group_name_H-M "P 21 21 2"
_symmetry_group_IT_number 18
_symmetry_cell_setting 'orthorhombic'
loop_
_space_group_symop_operation_xyz
x,y,z
-x,-y,z
1/2+x,1/2-y,-z
1/2-x,1/2+y,-z
loop_
_atom_site_type_symbol
_atom_site_label
_atom_site_fract_x
_atom_site_fract_y
_atom_site_fract_z
Si Si1 0.408920 0.894666 0.540178
Si Si2 0.183806 0.454799 0.871370
Si Si3 0.451265 0.345209 0.485555
Si Si4 0.500000 0.500000 0.093530
Si Si5 0.233313 0.948457 0.371853
Si Si6 0.160008 0.163604 0.032856
Si Si7 0.199486 0.280311 0.272273
Si Si8 0.408080 0.238362 0.237089
O O1 0.463015 0.732580 0.554306
O O2 0.329848 0.908519 0.440810
O O3 0.349207 0.915452 0.657158
O O4 0.500000 0.000000 0.526892
O O5 0.248738 0.402214 0.762007
O O6 0.241199 0.574024 0.952276
O O7 0.104653 0.566419 0.813523
O O8 0.158636 0.307533 0.946255
O O9 0.500000 0.500000 0.440047
O O10 0.356946 0.376839 0.560889
O O11 0.430617 0.242521 0.372872
O O12 0.478881 0.349149 0.169968
O O13 0.587381 0.461310 0.012302
O O14 0.218255 0.133245 0.357259
O O15 0.140124 0.225385 0.162259
O O16 0.304367 0.318052 0.227881
#
# Coordination Sequence:
#
# PCOD9312601 Si02
#       8
#     4   4   4   2   4   4   4   4
#     4  12  25  40  66 104 132 175 233 281 342 425
#     4  10  23  47  70  95 132 184 236 278 351 412
#     4  12  23  41  70 102 139 179 227 279 362 425
#     4  12  24  40  68 100 134 182 234 288 348 412
#     4  10  23  44  71  95 139 184 216 295 351 411
#     4  10  23  44  68  96 131 182 229 291 335 413
#     4  10  22  46  67  91 141 179 227 279 351 410
#     4  10  22  41  65  98 133 178 225 287 340 423
#
# _framework density 21.125263
#
# number of rings (size 3 to 8) (size 9 to 14) (size 15 to 20)
#    0.000    1.600    3.333    3.200    1.867    2.667 
#    9.600    0.000    0.000    0.000    0.000    0.000 
#    0.000    0.000    0.000    0.000    0.000    0.000 
#
# Total GULP energy -167252.709975 kJ/mol
# GULP energy per Si atom -5575.090332 kJ/mol
# Density = 2.107718 g / cm^3
# Si number density = 21.125263 Si / 1000 Ang^3
#
#
#
# Elastic Constant Matrix: (Units=GPa)
#
#
# Indices 1 2 3 4 5 6 
#
# 1 105.1840 22.9819 31.0411 0.0000 0.0000 0.0000
# 2 22.9819 55.4826 21.0258 0.0000 0.0000 0.0000
# 3 31.0411 21.0258 74.8561 0.0000 0.0000 0.0000
# 4 0.0000 0.0000 0.0000 29.1478 0.0000 0.0000
# 5 0.0000 0.0000 0.0000 0.0000 23.7191 0.0000
# 6 0.0000 0.0000 0.0000 0.0000 0.0000 31.2597
#
#
#
# Elastic Compliance Matrix: (Units=1/GPa)
#
#
# Indices 1 2 3 4 5 6 
#
# 1 0.011337 -0.003262 -0.003785 0.000000 0.000000 0.000000
# 2 -0.003262 0.021109 -0.004577 0.000000 0.000000 0.000000
# 3 -0.003785 -0.004577 0.016214 0.000000 0.000000 0.000000
# 4 0.000000 0.000000 0.000000 0.034308 0.000000 0.000000
# 5 0.000000 0.000000 0.000000 0.000000 0.042160 0.000000
# 6 0.000000 0.000000 0.000000 0.000000 0.000000 0.031990
#
#
# Mechanical properties :
#
#
# Convention : Reuss Voigt Hill
#
# Bulk Modulus (GPa) = 39.34929 42.84672 41.09800
# Shear Modulus (GPa) = 26.47806 27.52357 27.00082
#
# Velocity S-wave (km/s) = 3.54416 3.61345 3.57897
# Velocity P-wave (km/s) = 5.95106 6.14293 6.04776
#
# Compressibility (1/GPa) = 0.02541342
#
# Stress axis : x y z
#
# Youngs Moduli (GPa) = 88.20857 47.37300 61.67499
#
# Poissons Ratio (x) = 0.15451 0.23344
# Poissons Ratio (y) = 0.28770 0.28227
# Poissons Ratio (z) = 0.33387 0.21681
#
# Static dielectric constant tensor:
#      x y z
#    x 1.778370 0.000000 0.000000 
#    y 0.000000 1.837540 0.000000 
#    z 0.000000 0.000000 1.767240 
# 
# From -- ./inp_files/6088.got.cif
#   From: 2010.05.17/outbox.cif.g08.bks.cpg/sg18_4_cif.got.tgz:6088.got - 2010.06.03 22:40:56.
