data_PCOD9312648
_publ_section_title
;
Structure prediction by ZEFSAII (Michael W. Deem and Ramdas Pophale) SiO2 
 PCOD9312648
Probable space group: P 21 21 2
;
_chemical_formula_sum "Si O2"
_cell_formula_units_Z 30
_cell_length_a 12.025098
_cell_length_b 19.084020
_cell_length_c 5.086728
_cell_angle_alpha 90.000000
_cell_angle_beta 90.000000
_cell_angle_gamma 90.000000
_cell_volume 1167.339020
_symmetry_space_group_name_H-M "P 21 21 2"
_symmetry_group_IT_number 18
_symmetry_cell_setting 'orthorhombic'
loop_
_space_group_symop_operation_xyz
x,y,z
-x,-y,z
1/2+x,1/2-y,-z
1/2-x,1/2+y,-z
loop_
_atom_site_type_symbol
_atom_site_label
_atom_site_fract_x
_atom_site_fract_y
_atom_site_fract_z
Si Si1 0.811008 0.305114 0.077138
Si Si2 0.027982 0.353003 0.873209
Si Si3 0.500000 0.000000 0.863849
Si Si4 0.250501 0.818041 0.407785
Si Si5 0.552915 0.609715 0.688741
Si Si6 0.341058 0.521047 0.887871
Si Si7 0.115422 0.229063 0.221467
Si Si8 0.210076 0.558316 0.390786
O O1 0.807811 0.223386 0.163099
O O2 0.828705 0.363721 0.302313
O O3 0.903340 0.321082 0.854422
O O4 0.683110 0.315606 0.990827
O O5 0.071287 0.300558 0.099313
O O6 0.014193 0.431728 0.961192
O O7 0.129449 0.349970 0.667577
O O8 0.391562 0.009132 0.687635
O O9 0.154795 0.869690 0.512546
O O10 0.289152 0.753194 0.582834
O O11 0.443678 0.560804 0.742522
O O12 0.633516 0.562244 0.877096
O O13 0.483751 0.682456 0.674569
O O14 0.242171 0.543569 0.690645
O O15 0.310925 0.540005 0.187451
#
# Coordination Sequence:
#
# PCOD9312648 Si02
#       8
#     4   4   2   4   4   4   4   4
#     4  10  22  42  69  96 141 181 235 296 365 433
#     4  10  23  44  65 104 132 188 234 298 360 436
#     4  10  24  46  72 100 150 196 240 302 358 444
#     4  11  24  42  68  99 137 183 239 301 365 438
#     4  11  24  45  68 105 141 190 241 306 364 438
#     4  11  26  47  74 108 145 194 244 308 362 433
#     4  11  23  43  68 101 135 181 237 296 366 435
#     4  11  24  48  73 108 148 191 247 295 367 430
#
# _framework density 25.699476000000001
#
# number of rings (size 3 to 8) (size 9 to 14) (size 15 to 20)
#    0.000    1.333    2.667    1.600    3.733    2.667 
#   16.800    0.000    0.000    0.000    0.000    0.000 
#    0.000    0.000    0.000    0.000    0.000    0.000 
#
# Total GULP energy -167011.663761 kJ/mol
# GULP energy per Si atom -5567.055459 kJ/mol
# Density = 2.564098 g / cm^3
# Si number density = 25.699476 Si / 1000 Ang^3
#
#
#
# Elastic Constant Matrix: (Units=GPa)
#
#
# Indices 1 2 3 4 5 6 
#
# 1 131.9293 41.0621 22.8837 0.0000 0.0000 0.0000
# 2 41.0621 110.5371 20.6826 0.0000 0.0000 0.0000
# 3 22.8837 20.6826 64.6730 0.0000 0.0000 0.0000
# 4 0.0000 0.0000 0.0000 22.2166 0.0000 0.0000
# 5 0.0000 0.0000 0.0000 0.0000 -14.8317 0.0000
# 6 0.0000 0.0000 0.0000 0.0000 0.0000 56.4047
#
#
#
# Elastic Compliance Matrix: (Units=1/GPa)
#
#
# Indices 1 2 3 4 5 6 
#
# 1 0.008859 -0.002877 -0.002215 0.000000 0.000000 0.000000
# 2 -0.002877 0.010557 -0.002358 0.000000 0.000000 0.000000
# 3 -0.002215 -0.002358 0.017000 0.000000 0.000000 0.000000
# 4 0.000000 0.000000 0.000000 0.045011 0.000000 0.000000
# 5 0.000000 0.000000 0.000000 0.000000 -0.067423 0.000000
# 6 0.000000 0.000000 0.000000 0.000000 0.000000 0.017729
#
#
# Mechanical properties :
#
#
# Convention : Reuss Voigt Hill
#
# Bulk Modulus (GPa) = 46.47503 52.93292 49.70398
# Shear Modulus (GPa) = 92.92868 27.59199 60.26034
#
# Velocity S-wave (km/s) = 6.01982 3.28020 4.84758
# Velocity P-wave (km/s) = 8.15113 5.91506 7.12141
#
# Compressibility (1/GPa) = 0.02151693
#
# Stress axis : x y z
#
# Youngs Moduli (GPa) = 112.87550 94.72766 58.82278
#
# Poissons Ratio (x) = 0.27250 0.13028
# Poissons Ratio (y) = 0.32470 0.13871
# Poissons Ratio (z) = 0.25000 0.22338
#
# Static dielectric constant tensor:
#      x y z
#    x 2.094600 0.000000 0.000000 
#    y 0.000000 2.147660 0.000000 
#    z 0.000000 0.000000 2.106310 
# 
# From -- ./inp_files/1267.got.cif
#   From: 2010.05.17/outbox.cif.g08.bks.cpg/sg18_1_cif.got.tgz:1267.got - 2010.06.03 22:40:56.
