data_PCOD9312067
_publ_section_title
;
Structure prediction by ZEFSAII (Michael W. Deem and Ramdas Pophale) SiO2 
 PCOD9312067
Probable space group: P 21 21 2
;
_chemical_formula_sum "Si O2"
_cell_formula_units_Z 18
_cell_length_a 7.100653
_cell_length_b 17.612543
_cell_length_c 7.027419
_cell_angle_alpha 90.000000
_cell_angle_beta 90.000000
_cell_angle_gamma 90.000000
_cell_volume 878.852929
_symmetry_space_group_name_H-M "P 21 21 2"
_symmetry_group_IT_number 18
_symmetry_cell_setting 'orthorhombic'
loop_
_space_group_symop_operation_xyz
x,y,z
-x,-y,z
1/2+x,1/2-y,-z
1/2-x,1/2+y,-z
loop_
_atom_site_type_symbol
_atom_site_label
_atom_site_fract_x
_atom_site_fract_y
_atom_site_fract_z
Si Si1 0.818510 0.889105 0.066594
Si Si2 0.000000 0.500000 0.049291
Si Si3 0.253267 0.745846 0.227128
Si Si4 0.771464 0.129280 0.931999
Si Si5 0.678988 0.257790 0.666008
O O1 0.776174 0.841763 0.258279
O O2 0.038968 0.907140 0.023222
O O3 0.787734 0.828808 0.895954
O O4 0.667206 0.955796 0.058098
O O5 0.876753 0.567288 0.144926
O O6 0.312483 0.819271 0.103854
O O7 0.328092 0.747891 0.440578
O O8 0.028867 0.747357 0.250790
O O9 0.804251 0.192428 0.766743
#
# Coordination Sequence:
#
# PCOD9312067 Si02
#       5
#     4   2   4   4   4
#     4  10  22  39  60  89 121 156 202 246 297 361
#     4  12  22  40  62  90 128 160 190 248 318 358
#     4  10  20  37  63  90 117 158 205 249 293 351
#     4  10  22  39  60  89 121 156 202 246 297 361
#     4  10  20  37  63  90 117 158 205 249 293 351
#
# _framework density 20.481241000000001
#
# number of rings (size 3 to 8) (size 9 to 14) (size 15 to 20)
#    0.000    1.778    2.222    2.000    6.222    0.000 
#    0.000    4.444    0.000    5.333    0.000    0.000 
#    0.000    0.000    0.000    0.000    0.000    0.000 
#
# Total GULP energy -100278.220414 kJ/mol
# GULP energy per Si atom -5571.012245 kJ/mol
# Density = 2.043462 g / cm^3
# Si number density = 20.481241 Si / 1000 Ang^3
#
#
#
# Elastic Constant Matrix: (Units=GPa)
#
#
# Indices 1 2 3 4 5 6 
#
# 1 81.4561 29.8592 -4.6325 0.0000 0.0000 0.0000
# 2 29.8592 81.6962 10.9678 0.0000 0.0000 0.0000
# 3 -4.6325 10.9678 97.6627 0.0000 0.0000 0.0000
# 4 0.0000 0.0000 0.0000 1.5620 0.0000 0.0000
# 5 0.0000 0.0000 0.0000 0.0000 21.6812 0.0000
# 6 0.0000 0.0000 0.0000 0.0000 0.0000 49.7846
#
#
#
# Elastic Compliance Matrix: (Units=1/GPa)
#
#
# Indices 1 2 3 4 5 6 
#
# 1 0.014334 -0.005412 0.001288 0.000000 0.000000 0.000000
# 2 -0.005412 0.014471 -0.001882 0.000000 0.000000 0.000000
# 3 0.001288 -0.001882 0.010512 0.000000 0.000000 0.000000
# 4 0.000000 0.000000 0.000000 0.640195 0.000000 0.000000
# 5 0.000000 0.000000 0.000000 0.000000 0.046123 0.000000
# 6 0.000000 0.000000 0.000000 0.000000 0.000000 0.020087
#
#
# Mechanical properties :
#
#
# Convention : Reuss Voigt Hill
#
# Bulk Modulus (GPa) = 36.62386 37.02266 36.82326
# Shear Modulus (GPa) = 6.52032 29.58026 18.05029
#
# Velocity S-wave (km/s) = 1.78619 3.80447 2.97190
# Velocity P-wave (km/s) = 4.70897 6.11672 5.45842
#
# Compressibility (1/GPa) = 0.02730461
#
# Stress axis : x y z
#
# Youngs Moduli (GPa) = 69.76659 69.10370 95.13175
#
# Poissons Ratio (x) = 0.37396 -0.12249
# Poissons Ratio (y) = 0.37755 0.17902
# Poissons Ratio (z) = -0.08983 0.13004
#
# Static dielectric constant tensor:
#      x y z
#    x 1.832730 0.000000 0.000000 
#    y 0.000000 1.786620 0.000000 
#    z 0.000000 0.000000 1.700150 
# 
# From -- ./inp_files/478.got.cif
#   From: 2010.05.17/outbox.cif.g08.bks.cpg/sg18_1_cif.got.tgz:478.got - 2010.06.03 22:40:56.
