data_PCOD9312258
_publ_section_title
;
Structure prediction by ZEFSAII (Michael W. Deem and Ramdas Pophale) SiO2 
 PCOD9312258
Probable space group: P 21 21 2
;
_chemical_formula_sum "Si O2"
_cell_formula_units_Z 20
_cell_length_a 7.443064
_cell_length_b 20.449958
_cell_length_c 5.572242
_cell_angle_alpha 90.000000
_cell_angle_beta 90.000000
_cell_angle_gamma 90.000000
_cell_volume 848.152884
_symmetry_space_group_name_H-M "P 21 21 2"
_symmetry_group_IT_number 18
_symmetry_cell_setting 'orthorhombic'
loop_
_space_group_symop_operation_xyz
x,y,z
-x,-y,z
1/2+x,1/2-y,-z
1/2-x,1/2+y,-z
loop_
_atom_site_type_symbol
_atom_site_label
_atom_site_fract_x
_atom_site_fract_y
_atom_site_fract_z
Si Si1 0.288311 0.519050 0.501646
Si Si2 0.022932 0.793504 0.750001
Si Si3 0.820748 0.600920 0.250000
Si Si4 0.103831 0.717091 0.250001
Si Si5 0.711690 0.480950 0.998354
O O1 0.500000 0.500000 0.503910
O O2 0.182751 0.450265 0.470997
O O3 0.245719 0.553294 0.750000
O O4 0.250584 0.553453 0.250000
O O5 0.071415 0.756728 0.499662
O O6 0.811001 0.801715 0.750000
O O7 0.132284 0.860867 0.750000
O O8 0.071414 0.756729 0.000341
O O9 0.967690 0.656479 0.250001
O O10 0.817249 0.549735 0.029002
O O11 0.500000 0.500000 0.996089
#
# Coordination Sequence:
#
# PCOD9312258 Si02
#       5
#     4   4   4   4   4
#     4   8  16  30  52  80 104 136 180 223 273 329
#     4  12  24  39  55  81 114 153 189 233 272 329
#     4  10  21  34  62  74 118 138 197 212 296 304
#     4  12  24  39  55  81 114 153 189 233 272 329
#     4   8  16  30  52  80 104 136 180 223 273 329
#
# _framework density 23.580656000000001
#
# number of rings (size 3 to 8) (size 9 to 14) (size 15 to 20)
#    1.200    0.800    4.000    0.000    5.600    0.000 
#    0.000    0.000    0.000    4.800    0.000    5.600 
#    0.000    0.000    0.000    0.000    0.000    0.000 
#
# Total GULP energy -111575.807635 kJ/mol
# GULP energy per Si atom -5578.790382 kJ/mol
# Density = 2.352699 g / cm^3
# Si number density = 23.580656 Si / 1000 Ang^3
#
#
#
# Elastic Constant Matrix: (Units=GPa)
#
#
# Indices 1 2 3 4 5 6 
#
# 1 107.8518 32.3073 16.8880 0.0000 0.0000 0.0000
# 2 32.3073 78.6341 37.3238 0.0000 0.0000 0.0000
# 3 16.8880 37.3238 251.4017 0.0000 0.0000 0.0000
# 4 0.0000 0.0000 0.0000 10.5549 0.0000 0.0000
# 5 0.0000 0.0000 0.0000 0.0000 0.4771 0.0000
# 6 0.0000 0.0000 0.0000 0.0000 0.0000 55.0481
#
#
#
# Elastic Compliance Matrix: (Units=1/GPa)
#
#
# Indices 1 2 3 4 5 6 
#
# 1 0.010574 -0.004311 -0.000070 0.000000 0.000000 0.000000
# 2 -0.004311 0.015439 -0.002002 0.000000 0.000000 0.000000
# 3 -0.000070 -0.002002 0.004280 0.000000 0.000000 0.000000
# 4 0.000000 0.000000 0.000000 0.094743 0.000000 0.000000
# 5 0.000000 0.000000 0.000000 0.000000 2.096065 0.000000
# 6 0.000000 0.000000 0.000000 0.000000 0.000000 0.018166
#
#
# Mechanical properties :
#
#
# Convention : Reuss Voigt Hill
#
# Bulk Modulus (GPa) = 57.06111 67.88064 62.47087
# Shear Modulus (GPa) = 2.21447 36.64057 19.42752
#
# Velocity S-wave (km/s) = 0.97013 3.94615 2.87344
# Velocity P-wave (km/s) = 5.05031 7.04357 6.12852
#
# Compressibility (1/GPa) = 0.01752507
#
# Stress axis : x y z
#
# Youngs Moduli (GPa) = 94.56785 64.77146 233.66044
#
# Poissons Ratio (x) = 0.27924 0.01642
# Poissons Ratio (y) = 0.40770 0.46790
# Poissons Ratio (z) = 0.00665 0.12970
#
# Static dielectric constant tensor:
#      x y z
#    x 1.912720 0.000000 0.000000 
#    y 0.000000 1.814440 0.000000 
#    z 0.000000 0.000000 2.035110 
# 
# From -- ./inp_files/677.got.cif
#   From: 2010.05.17/outbox.cif.g08.bks.cpg/sg18_1_cif.got.tgz:677.got - 2010.06.03 22:40:56.
