data_PCOD9312529
_publ_section_title
;
Structure prediction by ZEFSAII (Michael W. Deem and Ramdas Pophale) SiO2 
 PCOD9312529
Probable space group: P 21 21 2
;
_chemical_formula_sum "Si O2"
_cell_formula_units_Z 32
_cell_length_a 7.547898
_cell_length_b 19.614142
_cell_length_c 11.620592
_cell_angle_alpha 90.000000
_cell_angle_beta 90.000000
_cell_angle_gamma 90.000000
_cell_volume 1720.376855
_symmetry_space_group_name_H-M "P 21 21 2"
_symmetry_group_IT_number 18
_symmetry_cell_setting 'orthorhombic'
loop_
_space_group_symop_operation_xyz
x,y,z
-x,-y,z
1/2+x,1/2-y,-z
1/2-x,1/2+y,-z
loop_
_atom_site_type_symbol
_atom_site_label
_atom_site_fract_x
_atom_site_fract_y
_atom_site_fract_z
Si Si1 0.240935 0.702017 0.889648
Si Si2 0.527942 0.682743 0.417135
Si Si3 0.797907 0.286851 0.242669
Si Si4 0.327422 0.820386 0.053838
Si Si5 0.378668 0.433404 0.259191
Si Si6 0.315993 0.965229 0.945161
Si Si7 0.637753 0.272004 0.642422
Si Si8 0.649430 0.392589 0.078742
O O1 0.287114 0.693828 0.757349
O O2 0.036174 0.686109 0.916363
O O3 0.285313 0.776865 0.938807
O O4 0.360976 0.652428 0.966180
O O5 0.369023 0.705731 0.330129
O O6 0.609648 0.612214 0.371056
O O7 0.447569 0.681215 0.544299
O O8 0.693421 0.733847 0.411259
O O9 0.768452 0.221614 0.157423
O O10 0.793994 0.353653 0.159623
O O11 0.979260 0.277000 0.312108
O O12 0.287723 0.899230 0.024992
O O13 0.500000 0.500000 0.277709
O O14 0.197192 0.448467 0.192335
O O15 0.478951 0.391554 0.158667
O O16 0.500000 0.000000 0.974984
O O17 0.185366 0.029784 0.954305
#
# Coordination Sequence:
#
# PCOD9312529 Si02
#       8
#     4   4   4   4   4   4   4   4
#     4  11  21  35  57  89 124 160 192 245 305 367
#     4  11  22  40  62  88 117 155 211 257 304 346
#     4  10  22  39  60  90 124 158 200 256 304 361
#     4  11  22  35  58  90 127 156 196 243 306 371
#     4   9  21  38  59  81 121 158 195 250 298 360
#     4  11  21  34  56  90 123 156 193 241 303 366
#     4  12  23  37  62  90 119 157 201 261 304 348
#     4   9  20  37  56  88 121 157 194 239 307 366
#
# _framework density 18.600574000000002
#
# number of rings (size 3 to 8) (size 9 to 14) (size 15 to 20)
#    0.000    1.500    3.750    2.250    7.000    0.000 
#    0.000    0.000    2.750    0.000    0.000    0.000 
#    0.000    0.000    0.000    0.000    0.000    0.000 
#
# Total GULP energy -178407.941089 kJ/mol
# GULP energy per Si atom -5575.248159 kJ/mol
# Density = 1.855824 g / cm^3
# Si number density = 18.600574 Si / 1000 Ang^3
#
#
#
# Elastic Constant Matrix: (Units=GPa)
#
#
# Indices 1 2 3 4 5 6 
#
# 1 58.1434 11.9451 4.6455 0.0000 0.0000 0.0000
# 2 11.9451 102.9627 36.3156 0.0000 0.0000 0.0000
# 3 4.6455 36.3156 90.0585 0.0000 0.0000 0.0000
# 4 0.0000 0.0000 0.0000 27.7271 0.0000 0.0000
# 5 0.0000 0.0000 0.0000 0.0000 24.0293 0.0000
# 6 0.0000 0.0000 0.0000 0.0000 0.0000 21.6794
#
#
#
# Elastic Compliance Matrix: (Units=1/GPa)
#
#
# Indices 1 2 3 4 5 6 
#
# 1 0.017620 -0.002009 -0.000099 0.000000 0.000000 0.000000
# 2 -0.002009 0.011552 -0.004555 0.000000 0.000000 0.000000
# 3 -0.000099 -0.004555 0.012946 0.000000 0.000000 0.000000
# 4 0.000000 0.000000 0.000000 0.036066 0.000000 0.000000
# 5 0.000000 0.000000 0.000000 0.000000 0.041616 0.000000
# 6 0.000000 0.000000 0.000000 0.000000 0.000000 0.046127
#
#
# Mechanical properties :
#
#
# Convention : Reuss Voigt Hill
#
# Bulk Modulus (GPa) = 34.73197 39.66411 37.19804
# Shear Modulus (GPa) = 26.47636 27.90437 27.19037
#
# Velocity S-wave (km/s) = 3.77691 3.87743 3.82750
# Velocity P-wave (km/s) = 6.14273 6.43555 6.29085
#
# Compressibility (1/GPa) = 0.02879192
#
# Stress axis : x y z
#
# Youngs Moduli (GPa) = 56.75515 86.56669 77.24639
#
# Poissons Ratio (x) = 0.17394 0.00762
# Poissons Ratio (y) = 0.11404 0.35182
# Poissons Ratio (z) = 0.00560 0.39427
#
# Static dielectric constant tensor:
#      x y z
#    x 1.746730 0.000000 0.000000 
#    y 0.000000 1.689150 0.000000 
#    z 0.000000 0.000000 1.646230 
# 
# From -- ./inp_files/5730.got.cif
#   From: 2010.05.17/outbox.cif.g08.bks.cpg/sg18_3_cif.got.tgz:5730.got - 2010.06.03 22:40:56.
