data_PCOD9312834
_publ_section_title
;
Structure prediction by ZEFSAII (Michael W. Deem and Ramdas Pophale) SiO2 
 PCOD9312834
Probable space group: P 21 21 2
;
_chemical_formula_sum "Si O2"
_cell_formula_units_Z 20
_cell_length_a 17.490537
_cell_length_b 5.187441
_cell_length_c 8.052673
_cell_angle_alpha 90.000000
_cell_angle_beta 90.000000
_cell_angle_gamma 90.000000
_cell_volume 730.628111
_symmetry_space_group_name_H-M "P 21 21 2"
_symmetry_group_IT_number 18
_symmetry_cell_setting 'orthorhombic'
loop_
_space_group_symop_operation_xyz
x,y,z
-x,-y,z
1/2+x,1/2-y,-z
1/2-x,1/2+y,-z
loop_
_atom_site_type_symbol
_atom_site_label
_atom_site_fract_x
_atom_site_fract_y
_atom_site_fract_z
Si Si1 0.199747 0.790473 0.641733
Si Si2 0.069954 0.195374 0.110240
Si Si3 0.266432 0.446971 0.901847
Si Si4 0.075119 0.174748 0.738280
Si Si5 0.373747 0.972901 0.583960
O O1 0.213706 0.527920 0.746003
O O2 0.148274 0.985298 0.745266
O O3 0.285897 0.873343 0.603320
O O4 0.147344 0.757772 0.478128
O O5 0.146910 0.027408 0.128733
O O6 0.081029 0.413023 0.249750
O O7 0.000000 0.000000 0.134639
O O8 0.069006 0.301922 0.921279
O O9 0.262815 0.154511 0.961163
O O10 0.083641 0.346297 0.573594
O O11 0.000000 0.000000 0.721256
#
# Coordination Sequence:
#
# PCOD9312834 Si02
#       5
#     4   4   4   4   4
#     4  11  23  40  73 104 143 200 250 314 378 453
#     4  10  23  45  72 106 147 198 249 317 378 456
#     4  11  23  43  75 112 149 196 260 311 376 455
#     4  11  23  45  70 103 150 190 246 312 389 454
#     4  11  23  43  69 103 143 186 259 308 375 448
#
# _framework density 27.373708000000001
#
# number of rings (size 3 to 8) (size 9 to 14) (size 15 to 20)
#    0.000    1.200    4.000    1.800    0.000    0.800 
#    0.000    1.000    0.000    0.000    0.000    0.000 
#    0.000    0.000    0.000    0.000    0.000    0.000 
#
# Total GULP energy -112111.560172 kJ/mol
# GULP energy per Si atom -5605.578009 kJ/mol
# Density = 2.731140 g / cm^3
# Si number density = 27.373708 Si / 1000 Ang^3
#
#
#
# Elastic Constant Matrix: (Units=GPa)
#
#
# Indices 1 2 3 4 5 6 
#
# 1 158.7565 30.6278 53.8969 0.0000 0.0000 0.0000
# 2 30.6278 44.8892 46.1060 0.0000 0.0000 0.0000
# 3 53.8969 46.1060 194.2299 0.0000 0.0000 0.0000
# 4 0.0000 0.0000 0.0000 37.2832 0.0000 0.0000
# 5 0.0000 0.0000 0.0000 0.0000 36.4895 0.0000
# 6 0.0000 0.0000 0.0000 0.0000 0.0000 51.3277
#
#
#
# Elastic Compliance Matrix: (Units=1/GPa)
#
#
# Indices 1 2 3 4 5 6 
#
# 1 0.007439 -0.003908 -0.001136 0.000000 0.000000 0.000000
# 2 -0.003908 0.031513 -0.006396 0.000000 0.000000 0.000000
# 3 -0.001136 -0.006396 0.006982 0.000000 0.000000 0.000000
# 4 0.000000 0.000000 0.000000 0.026822 0.000000 0.000000
# 5 0.000000 0.000000 0.000000 0.000000 0.027405 0.000000
# 6 0.000000 0.000000 0.000000 0.000000 0.000000 0.019483
#
#
# Mechanical properties :
#
#
# Convention : Reuss Voigt Hill
#
# Bulk Modulus (GPa) = 43.37905 73.23745 58.30825
# Shear Modulus (GPa) = 33.28695 42.83641 38.06168
#
# Velocity S-wave (km/s) = 3.49093 3.96014 3.73291
# Velocity P-wave (km/s) = 5.66835 6.90819 6.31875
#
# Compressibility (1/GPa) = 0.02305260
#
# Stress axis : x y z
#
# Youngs Moduli (GPa) = 134.43111 31.73293 143.22184
#
# Poissons Ratio (x) = 0.12402 0.16277
# Poissons Ratio (y) = 0.52538 0.91605
# Poissons Ratio (z) = 0.15278 0.20296
#
# Static dielectric constant tensor:
#      x y z
#    x 2.053050 0.000000 0.000000 
#    y 0.000000 2.161420 0.000000 
#    z 0.000000 0.000000 2.288760 
# 
# From -- ./inp_files/4414.got.cif
#   From: 2010.05.17/outbox.cif.g08.bks.cpg/sg18_3_cif.got.tgz:4414.got - 2010.06.03 22:40:56.
