data_PCOD9312269
_publ_section_title
;
Structure prediction by ZEFSAII (Michael W. Deem and Ramdas Pophale) SiO2 
 PCOD9312269
Probable space group: P 21 21 2
;
_chemical_formula_sum "Si O2"
_cell_formula_units_Z 32
_cell_length_a 10.104449
_cell_length_b 15.461814
_cell_length_c 11.364384
_cell_angle_alpha 90.000000
_cell_angle_beta 90.000000
_cell_angle_gamma 90.000000
_cell_volume 1775.493067
_symmetry_space_group_name_H-M "P 21 21 2"
_symmetry_group_IT_number 18
_symmetry_cell_setting 'orthorhombic'
loop_
_space_group_symop_operation_xyz
x,y,z
-x,-y,z
1/2+x,1/2-y,-z
1/2-x,1/2+y,-z
loop_
_atom_site_type_symbol
_atom_site_label
_atom_site_fract_x
_atom_site_fract_y
_atom_site_fract_z
Si Si1 0.178972 0.808698 0.154311
Si Si2 0.025888 0.329675 0.856898
Si Si3 0.015001 0.136041 0.969343
Si Si4 0.099145 0.925047 0.728164
Si Si5 0.182313 0.617108 0.036962
Si Si6 0.356941 0.030522 0.720220
Si Si7 0.797603 0.285274 0.395202
Si Si8 0.991847 0.251647 0.608792
O O1 0.320099 0.855493 0.136093
O O2 0.181215 0.715733 0.087338
O O3 0.163603 0.781239 0.290096
O O4 0.063068 0.860821 0.091368
O O5 0.025885 0.233880 0.917030
O O6 0.990676 0.316748 0.720052
O O7 0.917941 0.384354 0.927808
O O8 0.162753 0.100120 0.985774
O O9 0.933484 0.089051 0.866238
O O10 0.064129 0.837902 0.660912
O O11 0.247705 0.956325 0.708626
O O12 0.000000 0.000000 0.687002
O O13 0.135000 0.556444 0.142503
O O14 0.306449 0.117779 0.657105
O O15 0.500000 0.000000 0.677583
O O16 0.898840 0.278778 0.502212
O O17 0.645267 0.263536 0.425888
#
# Coordination Sequence:
#
# PCOD9312269 Si02
#       8
#     4   4   4   4   4   4   4   4
#     4   8  16  30  49  73 103 132 166 214 259 314
#     4   8  16  30  47  74 104 131 166 213 264 309
#     4   9  16  28  51  75 100 134 167 205 266 328
#     4  11  19  37  56  78 110 144 178 231 290 334
#     4   9  16  30  48  75 106 130 163 212 264 322
#     4  11  23  35  54  84 112 141 184 236 286 337
#     4  10  21  38  55  82 112 145 195 237 273 333
#     4  10  21  36  58  80 109 151 193 234 278 331
#
# _framework density 18.023161999999999
#
# number of rings (size 3 to 8) (size 9 to 14) (size 15 to 20)
#    0.000    2.500    2.500    1.500    3.500    1.000 
#    4.500    0.000    0.000    3.000    0.000    0.000 
#    0.000    0.000    0.000    0.000    0.000    0.000 
#
# Total GULP energy -178375.367892 kJ/mol
# GULP energy per Si atom -5574.230247 kJ/mol
# Density = 1.798214 g / cm^3
# Si number density = 18.023162 Si / 1000 Ang^3
#
#
#
# Elastic Constant Matrix: (Units=GPa)
#
#
# Indices 1 2 3 4 5 6 
#
# 1 104.4694 7.7459 51.7002 0.0000 0.0000 0.0000
# 2 7.7459 16.5933 2.0332 0.0000 0.0000 0.0000
# 3 51.7002 2.0332 88.1058 0.0000 0.0000 0.0000
# 4 0.0000 0.0000 0.0000 7.9792 0.0000 0.0000
# 5 0.0000 0.0000 0.0000 0.0000 31.9430 0.0000
# 6 0.0000 0.0000 0.0000 0.0000 0.0000 26.4563
#
#
#
# Elastic Compliance Matrix: (Units=1/GPa)
#
#
# Indices 1 2 3 4 5 6 
#
# 1 0.013979 -0.005536 -0.008075 0.000000 0.000000 0.000000
# 2 -0.005536 0.062629 0.001803 0.000000 0.000000 0.000000
# 3 -0.008075 0.001803 0.016047 0.000000 0.000000 0.000000
# 4 0.000000 0.000000 0.000000 0.125326 0.000000 0.000000
# 5 0.000000 0.000000 0.000000 0.000000 0.031306 0.000000
# 6 0.000000 0.000000 0.000000 0.000000 0.000000 0.037798
#
#
# Mechanical properties :
#
#
# Convention : Reuss Voigt Hill
#
# Bulk Modulus (GPa) = 14.48461 36.90301 25.69381
# Shear Modulus (GPa) = 14.98296 23.12165 19.05231
#
# Velocity S-wave (km/s) = 2.88639 3.58562 3.25484
# Velocity P-wave (km/s) = 4.37749 6.13694 5.33031
#
# Compressibility (1/GPa) = 0.06903878
#
# Stress axis : x y z
#
# Youngs Moduli (GPa) = 71.53679 15.96711 62.31799
#
# Poissons Ratio (x) = 0.08839 0.50322
# Poissons Ratio (y) = 0.39603 -0.11237
# Poissons Ratio (z) = 0.57766 -0.02879
#
# Static dielectric constant tensor:
#      x y z
#    x 1.618960 0.000000 0.000000 
#    y 0.000000 1.640650 0.000000 
#    z 0.000000 0.000000 1.605320 
# 
# From -- ./inp_files/5746.got.cif
#   From: 2010.05.17/outbox.cif.g08.bks.cpg/sg18_3_cif.got.tgz:5746.got - 2010.06.03 22:40:56.
