data_PCOD9312660
_publ_section_title
;
Structure prediction by ZEFSAII (Michael W. Deem and Ramdas Pophale) SiO2 
 PCOD9312660
Probable space group: P 21 21 2
;
_chemical_formula_sum "Si O2"
_cell_formula_units_Z 18
_cell_length_a 9.232545
_cell_length_b 11.424845
_cell_length_c 7.162230
_cell_angle_alpha 90.000000
_cell_angle_beta 90.000000
_cell_angle_gamma 90.000000
_cell_volume 755.474854
_symmetry_space_group_name_H-M "P 21 21 2"
_symmetry_group_IT_number 18
_symmetry_cell_setting 'orthorhombic'
loop_
_space_group_symop_operation_xyz
x,y,z
-x,-y,z
1/2+x,1/2-y,-z
1/2-x,1/2+y,-z
loop_
_atom_site_type_symbol
_atom_site_label
_atom_site_fract_x
_atom_site_fract_y
_atom_site_fract_z
Si Si1 0.309921 0.414824 0.740813
Si Si2 0.947612 0.748396 0.328032
Si Si3 0.653985 0.865985 0.398953
Si Si4 0.559623 0.241850 0.117681
Si Si5 0.500000 0.500000 0.068780
O O1 0.453414 0.364123 0.646282
O O2 0.221589 0.506156 0.618463
O O3 0.209769 0.307738 0.805752
O O4 0.363976 0.478382 0.930282
O O5 0.039315 0.651472 0.436171
O O6 0.788746 0.775695 0.405193
O O7 0.940657 0.731131 0.105866
O O8 0.565866 0.835133 0.210964
O O9 0.530566 0.377612 0.169870
#
# Coordination Sequence:
#
# PCOD9312660 Si02
#       5
#     4   4   4   4   2
#     4  11  22  47  74 103 146 190 247 311 353 440
#     4  11  24  45  72 103 147 190 243 301 375 428
#     4  12  24  46  72 106 145 192 247 305 364 441
#     4  11  24  46  75 106 142 191 243 304 373 439
#     4  10  22  42  76 104 148 186 238 302 370 428
#
# _framework density 23.826073000000001
#
# number of rings (size 3 to 8) (size 9 to 14) (size 15 to 20)
#    0.000    0.889    4.444    4.667    0.000    0.000 
#    8.000    8.889    0.000    0.000    0.000    0.000 
#    0.000    0.000    0.000    0.000    0.000    0.000 
#
# Total GULP energy -100822.598407 kJ/mol
# GULP energy per Si atom -5601.255467 kJ/mol
# Density = 2.377184 g / cm^3
# Si number density = 23.826073 Si / 1000 Ang^3
#
#
#
# Elastic Constant Matrix: (Units=GPa)
#
#
# Indices 1 2 3 4 5 6 
#
# 1 132.6676 9.7000 39.1948 0.0000 0.0000 0.0000
# 2 9.7000 46.5346 22.8526 0.0000 0.0000 0.0000
# 3 39.1948 22.8526 111.3460 0.0000 0.0000 0.0000
# 4 0.0000 0.0000 0.0000 31.7589 0.0000 0.0000
# 5 0.0000 0.0000 0.0000 0.0000 11.6346 0.0000
# 6 0.0000 0.0000 0.0000 0.0000 0.0000 54.8475
#
#
#
# Elastic Compliance Matrix: (Units=1/GPa)
#
#
# Indices 1 2 3 4 5 6 
#
# 1 0.008417 -0.000333 -0.002895 0.000000 0.000000 0.000000
# 2 -0.000333 0.023911 -0.004790 0.000000 0.000000 0.000000
# 3 -0.002895 -0.004790 0.010983 0.000000 0.000000 0.000000
# 4 0.000000 0.000000 0.000000 0.031487 0.000000 0.000000
# 5 0.000000 0.000000 0.000000 0.000000 0.085950 0.000000
# 6 0.000000 0.000000 0.000000 0.000000 0.000000 0.018232
#
#
# Mechanical properties :
#
#
# Convention : Reuss Voigt Hill
#
# Bulk Modulus (GPa) = 36.66268 48.22700 42.44484
# Shear Modulus (GPa) = 24.49672 34.23493 29.36583
#
# Velocity S-wave (km/s) = 3.20995 3.79472 3.51452
# Velocity P-wave (km/s) = 5.39995 6.28371 5.85852
#
# Compressibility (1/GPa) = 0.02727569
#
# Stress axis : x y z
#
# Youngs Moduli (GPa) = 118.80513 41.82128 91.04904
#
# Poissons Ratio (x) = 0.01393 0.26355
# Poissons Ratio (y) = 0.03957 0.43615
# Poissons Ratio (z) = 0.34389 0.20034
#
# Static dielectric constant tensor:
#      x y z
#    x 1.888650 0.000000 0.000000 
#    y 0.000000 1.970970 0.000000 
#    z 0.000000 0.000000 1.898550 
# 
# From -- ./inp_files/2892.got.cif
#   From: 2010.05.17/outbox.cif.g08.bks.cpg/sg18_2_cif.got.tgz:2892.got - 2010.06.03 22:40:56.
