data_PCOD9312353
_publ_section_title
;
Structure prediction by ZEFSAII (Michael W. Deem and Ramdas Pophale) SiO2 
 PCOD9312353
Probable space group: P 21 21 2
;
_chemical_formula_sum "Si O2"
_cell_formula_units_Z 26
_cell_length_a 17.979594
_cell_length_b 5.205015
_cell_length_c 12.539058
_cell_angle_alpha 90.000000
_cell_angle_beta 90.000000
_cell_angle_gamma 90.000000
_cell_volume 1173.455912
_symmetry_space_group_name_H-M "P 21 21 2"
_symmetry_group_IT_number 18
_symmetry_cell_setting 'orthorhombic'
loop_
_space_group_symop_operation_xyz
x,y,z
-x,-y,z
1/2+x,1/2-y,-z
1/2-x,1/2+y,-z
loop_
_atom_site_type_symbol
_atom_site_label
_atom_site_fract_x
_atom_site_fract_y
_atom_site_fract_z
Si Si1 0.739257 0.447438 0.159113
Si Si2 0.500000 0.500000 0.473699
Si Si3 0.891731 0.613318 0.829991
Si Si4 0.728784 0.229013 0.637865
Si Si5 0.654576 0.721164 0.548694
Si Si6 0.000000 0.500000 0.663625
Si Si7 0.647046 0.727550 0.984559
Si Si8 0.000000 0.000000 0.951056
O O1 0.677394 0.271453 0.214573
O O2 0.755254 0.676590 0.238938
O O3 0.700169 0.531771 0.048433
O O4 0.814256 0.309341 0.123574
O O5 0.570078 0.622603 0.536270
O O6 0.522608 0.252793 0.402107
O O7 0.862571 0.458535 0.931449
O O8 0.929730 0.441649 0.739869
O O9 0.956018 0.801138 0.875451
O O10 0.672471 0.003967 0.595573
O O11 0.695138 0.507781 0.619740
O O12 0.802896 0.207899 0.565378
O O13 0.564244 0.620007 0.976751
#
# Coordination Sequence:
#
# PCOD9312353 Si02
#       8
#     4   2   4   4   4   2   4   2
#     4  11  24  38  64  95 129 178 224 269 325 392
#     4  12  25  42  69  98 130 162 216 283 345 390
#     4  11  22  37  59  94 134 164 213 270 320 395
#     4  10  23  42  68  92 130 172 216 264 335 391
#     4  10  23  44  66  95 127 165 213 281 326 392
#     4  12  24  36  66 100 130 170 212 270 354 396
#     4  11  22  39  61  94 135 171 220 276 318 388
#     4  10  21  40  59  82 136 182 204 269 331 372
#
# _framework density 22.156775
#
# number of rings (size 3 to 8) (size 9 to 14) (size 15 to 20)
#    0.000    1.231    3.077    2.308    6.462    1.231 
#    0.000    0.769    3.385    0.000    0.000    0.000 
#    0.000    0.000    0.000    0.000    0.000    0.000 
#
# Total GULP energy -145385.693908 kJ/mol
# GULP energy per Si atom -5591.757458 kJ/mol
# Density = 2.210634 g / cm^3
# Si number density = 22.156775 Si / 1000 Ang^3
#
#
#
# Elastic Constant Matrix: (Units=GPa)
#
#
# Indices 1 2 3 4 5 6 
#
# 1 111.6952 7.8041 18.6837 0.0000 0.0000 0.0000
# 2 7.8041 68.5501 -5.6946 0.0000 0.0000 0.0000
# 3 18.6837 -5.6946 42.7059 0.0000 0.0000 0.0000
# 4 0.0000 0.0000 0.0000 11.3269 0.0000 0.0000
# 5 0.0000 0.0000 0.0000 0.0000 18.4259 0.0000
# 6 0.0000 0.0000 0.0000 0.0000 0.0000 33.7772
#
#
#
# Elastic Compliance Matrix: (Units=1/GPa)
#
#
# Indices 1 2 3 4 5 6 
#
# 1 0.009808 -0.001490 -0.004490 0.000000 0.000000 0.000000
# 2 -0.001490 0.014977 0.002649 0.000000 0.000000 0.000000
# 3 -0.004490 0.002649 0.025733 0.000000 0.000000 0.000000
# 4 0.000000 0.000000 0.000000 0.088286 0.000000 0.000000
# 5 0.000000 0.000000 0.000000 0.000000 0.054271 0.000000
# 6 0.000000 0.000000 0.000000 0.000000 0.000000 0.029606
#
#
# Mechanical properties :
#
#
# Convention : Reuss Voigt Hill
#
# Bulk Modulus (GPa) = 22.80074 29.39307 26.09690
# Shear Modulus (GPa) = 20.49503 26.18319 23.33911
#
# Velocity S-wave (km/s) = 3.04468 3.44135 3.24908
# Velocity P-wave (km/s) = 4.76163 5.39308 5.08716
#
# Compressibility (1/GPa) = 0.04385823
#
# Stress axis : x y z
#
# Youngs Moduli (GPa) = 101.95752 66.76689 38.86003
#
# Poissons Ratio (x) = 0.09945 0.17447
# Poissons Ratio (y) = 0.15187 -0.10293
# Poissons Ratio (z) = 0.45775 -0.17685
#
# Static dielectric constant tensor:
#      x y z
#    x 1.833200 0.000000 0.000000 
#    y 0.000000 1.878140 0.000000 
#    z 0.000000 0.000000 1.792060 
# 
# From -- ./inp_files/5169.got.cif
#   From: 2010.05.17/outbox.cif.g08.bks.cpg/sg18_3_cif.got.tgz:5169.got - 2010.06.03 22:40:56.
