data_PCOD9312891
_publ_section_title
;
Structure prediction by ZEFSAII (Michael W. Deem and Ramdas Pophale) SiO2 
 PCOD9312891
Probable space group: P 21 21 2
;
_chemical_formula_sum "Si O2"
_cell_formula_units_Z 32
_cell_length_a 18.993106
_cell_length_b 14.363929
_cell_length_c 5.293946
_cell_angle_alpha 90.000000
_cell_angle_beta 90.000000
_cell_angle_gamma 90.000000
_cell_volume 1444.271192
_symmetry_space_group_name_H-M "P 21 21 2"
_symmetry_group_IT_number 18
_symmetry_cell_setting 'orthorhombic'
loop_
_space_group_symop_operation_xyz
x,y,z
-x,-y,z
1/2+x,1/2-y,-z
1/2-x,1/2+y,-z
loop_
_atom_site_type_symbol
_atom_site_label
_atom_site_fract_x
_atom_site_fract_y
_atom_site_fract_z
Si Si1 0.274335 0.002282 0.467362
Si Si2 0.601829 0.634410 0.214870
Si Si3 0.929326 0.558338 0.544195
Si Si4 0.959442 0.761836 0.790662
Si Si5 0.123468 0.311663 0.169190
Si Si6 0.080639 0.981979 0.287597
Si Si7 0.660067 0.350503 0.516393
Si Si8 0.245676 0.886149 0.981567
O O1 0.357509 0.998178 0.392339
O O2 0.263576 0.945435 0.728608
O O3 0.235120 0.100084 0.525433
O O4 0.237978 0.951231 0.226226
O O5 0.538424 0.706182 0.252253
O O6 0.609908 0.581094 0.480654
O O7 0.676358 0.669854 0.102708
O O8 0.580972 0.564282 0.987992
O O9 0.943711 0.658098 0.681229
O O10 0.910865 0.593242 0.261648
O O11 0.000000 0.500000 0.564910
O O12 0.900952 0.835220 0.692781
O O13 0.942124 0.749886 0.084602
O O14 0.166215 0.252887 0.375100
O O15 0.184456 0.326600 0.965046
O O16 0.122939 0.078017 0.291343
O O17 0.000000 0.000000 0.357793
#
# Coordination Sequence:
#
# PCOD9312891 Si02
#       8
#     4   4   4   4   4   4   4   4
#     4  11  23  43  70  97 131 180 233 281 343 416
#     4  12  24  38  66  98 139 179 225 280 347 416
#     4  10  24  48  72  97 136 188 242 293 350 420
#     4  11  24  42  65 101 140 180 227 299 351 408
#     4  10  24  43  67  95 140 177 230 290 356 396
#     4  12  23  38  60  99 137 179 219 271 340 425
#     4  11  23  39  66  97 134 179 225 278 351 422
#     4  11  22  44  63  95 134 182 223 282 343 412
#
# _framework density 22.156504000000002
#
# number of rings (size 3 to 8) (size 9 to 14) (size 15 to 20)
#    0.000    1.000    5.000    1.125    5.250    1.500 
#    0.000    1.250    0.000    0.000    0.000    0.000 
#    0.000    0.000    0.000    0.000    0.000    0.000 
#
# Total GULP energy -178245.267446 kJ/mol
# GULP energy per Si atom -5570.164608 kJ/mol
# Density = 2.210608 g / cm^3
# Si number density = 22.156504 Si / 1000 Ang^3
#
#
#
# Elastic Constant Matrix: (Units=GPa)
#
#
# Indices 1 2 3 4 5 6 
#
# 1 174.7081 59.0968 26.8075 0.0000 0.0000 0.0000
# 2 59.0968 75.9251 17.4563 0.0000 0.0000 0.0000
# 3 26.8075 17.4563 83.4826 0.0000 0.0000 0.0000
# 4 0.0000 0.0000 0.0000 26.2062 0.0000 0.0000
# 5 0.0000 0.0000 0.0000 0.0000 32.3689 0.0000
# 6 0.0000 0.0000 0.0000 0.0000 0.0000 41.0356
#
#
#
# Elastic Compliance Matrix: (Units=1/GPa)
#
#
# Indices 1 2 3 4 5 6 
#
# 1 0.007904 -0.005850 -0.001315 0.000000 0.000000 0.000000
# 2 -0.005850 0.018166 -0.001920 0.000000 0.000000 0.000000
# 3 -0.001315 -0.001920 0.012802 0.000000 0.000000 0.000000
# 4 0.000000 0.000000 0.000000 0.038159 0.000000 0.000000
# 5 0.000000 0.000000 0.000000 0.000000 0.030894 0.000000
# 6 0.000000 0.000000 0.000000 0.000000 0.000000 0.024369
#
#
# Mechanical properties :
#
#
# Convention : Reuss Voigt Hill
#
# Bulk Modulus (GPa) = 48.30346 60.09299 54.19823
# Shear Modulus (GPa) = 31.77319 35.30582 33.53950
#
# Velocity S-wave (km/s) = 3.79097 3.99617 3.89492
# Velocity P-wave (km/s) = 6.40393 6.96228 6.68894
#
# Compressibility (1/GPa) = 0.02070245
#
# Stress axis : x y z
#
# Youngs Moduli (GPa) = 126.51038 55.04838 78.11123
#
# Poissons Ratio (x) = 0.32204 0.10271
# Poissons Ratio (y) = 0.74011 0.14997
# Poissons Ratio (z) = 0.16636 0.10569
#
# Static dielectric constant tensor:
#      x y z
#    x 1.880460 0.000000 0.000000 
#    y 0.000000 1.820060 0.000000 
#    z 0.000000 0.000000 1.925230 
# 
# From -- ./inp_files/1870.got.cif
#   From: 2010.05.17/outbox.cif.g08.bks.cpg/sg18_1_cif.got.tgz:1870.got - 2010.06.03 22:40:56.
