data_PCOD9312376
_publ_section_title
;
Structure prediction by ZEFSAII (Michael W. Deem and Ramdas Pophale) SiO2 
 PCOD9312376
Probable space group: P 21 21 2
;
_chemical_formula_sum "Si O2"
_cell_formula_units_Z 32
_cell_length_a 17.827702
_cell_length_b 15.358454
_cell_length_c 5.384859
_cell_angle_alpha 90.000000
_cell_angle_beta 90.000000
_cell_angle_gamma 90.000000
_cell_volume 1474.406386
_symmetry_space_group_name_H-M "P 21 21 2"
_symmetry_group_IT_number 18
_symmetry_cell_setting 'orthorhombic'
loop_
_space_group_symop_operation_xyz
x,y,z
-x,-y,z
1/2+x,1/2-y,-z
1/2-x,1/2+y,-z
loop_
_atom_site_type_symbol
_atom_site_label
_atom_site_fract_x
_atom_site_fract_y
_atom_site_fract_z
Si Si1 0.952085 0.218731 0.703081
Si Si2 0.885532 0.044899 0.932361
Si Si3 0.325171 0.188111 0.068856
Si Si4 0.146945 0.830922 0.320006
Si Si5 0.318636 0.704086 0.623165
Si Si6 0.806407 0.606319 0.543402
Si Si7 0.893689 0.853722 0.853836
Si Si8 0.706257 0.009861 0.943827
O O1 0.912426 0.124784 0.762631
O O2 0.910356 0.293630 0.853658
O O3 0.919337 0.228896 0.428633
O O4 0.037428 0.206343 0.769239
O O5 0.922171 0.952195 0.888159
O O6 0.796190 0.025076 0.931643
O O7 0.896810 0.087820 0.200345
O O8 0.268909 0.200755 0.301679
O O9 0.310468 0.267813 0.879099
O O10 0.310594 0.091704 0.975749
O O11 0.217004 0.873435 0.460939
O O12 0.340283 0.800333 0.529877
O O13 0.337647 0.645723 0.383289
O O14 0.358997 0.676743 0.882246
O O15 0.825335 0.542894 0.317207
O O16 0.821339 0.564695 0.814104
#
# Coordination Sequence:
#
# PCOD9312376 Si02
#       8
#     4   4   4   4   4   4   4   4
#     4  11  24  43  65  97 142 189 218 281 351 417
#     4  10  22  40  60  99 142 183 220 262 340 422
#     4  11  24  41  71  98 135 178 238 281 338 403
#     4  10  21  40  69  94 143 182 223 281 339 405
#     4  12  25  45  66  98 138 181 230 289 336 401
#     4  11  22  41  65  97 129 172 221 284 341 381
#     4  12  28  41  67  99 144 184 228 275 344 427
#     4  11  23  37  69 104 127 168 229 286 331 396
#
# _framework density 21.703652000000002
#
# number of rings (size 3 to 8) (size 9 to 14) (size 15 to 20)
#    0.000    1.000    3.750    3.375    8.750    0.000 
#    0.000    0.000    0.000    4.500    0.000    0.000 
#    0.000    0.000    0.000    0.000    0.000    0.000 
#
# Total GULP energy -178472.731651 kJ/mol
# GULP energy per Si atom -5577.272864 kJ/mol
# Density = 2.165425 g / cm^3
# Si number density = 21.703652 Si / 1000 Ang^3
#
#
#
# Elastic Constant Matrix: (Units=GPa)
#
#
# Indices 1 2 3 4 5 6 
#
# 1 26.8237 2.0153 20.2860 0.0000 0.0000 0.0000
# 2 2.0153 99.0440 36.9736 0.0000 0.0000 0.0000
# 3 20.2860 36.9736 130.1176 0.0000 0.0000 0.0000
# 4 0.0000 0.0000 0.0000 27.4841 0.0000 0.0000
# 5 0.0000 0.0000 0.0000 0.0000 18.6624 0.0000
# 6 0.0000 0.0000 0.0000 0.0000 0.0000 30.7189
#
#
#
# Elastic Compliance Matrix: (Units=1/GPa)
#
#
# Indices 1 2 3 4 5 6 
#
# 1 0.042549 0.001802 -0.007146 0.000000 0.000000 0.000000
# 2 0.001802 0.011371 -0.003512 0.000000 0.000000 0.000000
# 3 -0.007146 -0.003512 0.009797 0.000000 0.000000 0.000000
# 4 0.000000 0.000000 0.000000 0.036385 0.000000 0.000000
# 5 0.000000 0.000000 0.000000 0.000000 0.053584 0.000000
# 6 0.000000 0.000000 0.000000 0.000000 0.000000 0.032553
#
#
# Mechanical properties :
#
#
# Convention : Reuss Voigt Hill
#
# Bulk Modulus (GPa) = 21.73649 41.61499 31.67574
# Shear Modulus (GPa) = 22.80129 28.48710 25.64420
#
# Velocity S-wave (km/s) = 3.24477 3.62684 3.44111
# Velocity P-wave (km/s) = 4.90662 6.06255 5.51495
#
# Compressibility (1/GPa) = 0.04600559
#
# Stress axis : x y z
#
# Youngs Moduli (GPa) = 23.50230 87.94367 102.06853
#
# Poissons Ratio (x) = -0.15845 0.72934
# Poissons Ratio (y) = -0.04234 0.35846
# Poissons Ratio (z) = 0.16794 0.30886
#
# Static dielectric constant tensor:
#      x y z
#    x 1.802540 0.000000 0.000000 
#    y 0.000000 1.786890 0.000000 
#    z 0.000000 0.000000 2.032510 
# 
# From -- ./inp_files/1869.got.cif
#   From: 2010.05.17/outbox.cif.g08.bks.cpg/sg18_1_cif.got.tgz:1869.got - 2010.06.03 22:40:56.
