data_PCOD9312753
_publ_section_title
;
Structure prediction by ZEFSAII (Michael W. Deem and Ramdas Pophale) SiO2 
 PCOD9312753
Probable space group: P 21 21 2
;
_chemical_formula_sum "Si O2"
_cell_formula_units_Z 24
_cell_length_a 17.158627
_cell_length_b 5.065750
_cell_length_c 13.184718
_cell_angle_alpha 90.000000
_cell_angle_beta 90.000000
_cell_angle_gamma 90.000000
_cell_volume 1146.033023
_symmetry_space_group_name_H-M "P 21 21 2"
_symmetry_group_IT_number 18
_symmetry_cell_setting 'orthorhombic'
loop_
_space_group_symop_operation_xyz
x,y,z
-x,-y,z
1/2+x,1/2-y,-z
1/2-x,1/2+y,-z
loop_
_atom_site_type_symbol
_atom_site_label
_atom_site_fract_x
_atom_site_fract_y
_atom_site_fract_z
Si Si1 0.417358 0.132321 0.111041
Si Si2 0.197795 0.736486 0.496770
Si Si3 0.913582 0.060882 0.104989
Si Si4 0.815677 0.161535 0.716332
Si Si5 0.196720 0.287259 0.995932
Si Si6 0.703539 0.665258 0.723025
O O1 0.383400 0.308237 0.201170
O O2 0.500000 0.000000 0.131681
O O3 0.352920 0.905210 0.095087
O O4 0.421014 0.285993 0.002926
O O5 0.227345 0.434814 0.497114
O O6 0.153751 0.795792 0.601302
O O7 0.336979 0.307013 0.612569
O O8 0.858575 0.196971 0.187402
O O9 0.000000 0.000000 0.141917
O O10 0.866989 0.793365 0.078488
O O11 0.749345 0.387914 0.731106
O O12 0.755730 0.979861 0.973968
O O13 0.230359 0.111160 0.724379
#
# Coordination Sequence:
#
# PCOD9312753 Si02
#       6
#     4   4   4   4   4   4
#     4  12  27  42  60  93 137 172 205 260 322 375
#     4   8  16  38  60  94 122 148 206 272 314 352
#     4  12  27  42  60  93 137 172 205 260 322 375
#     4  10  23  38  68  94 121 164 214 263 310 373
#     4  12  26  42  64  88 124 168 222 260 298 374
#     4  10  23  38  68  94 121 164 214 263 310 373
#
# _framework density 20.941806
#
# number of rings (size 3 to 8) (size 9 to 14) (size 15 to 20)
#    0.000    1.333    3.333    1.000    9.333    0.000 
#    0.000    0.000    0.000   14.000    0.000    0.000 
#    0.000    0.000    0.000    0.000    0.000    0.000 
#
# Total GULP energy -134120.747967 kJ/mol
# GULP energy per Si atom -5588.364499 kJ/mol
# Density = 2.089414 g / cm^3
# Si number density = 20.941806 Si / 1000 Ang^3
#
#
#
# Elastic Constant Matrix: (Units=GPa)
#
#
# Indices 1 2 3 4 5 6 
#
# 1 42.0861 1.1729 5.3665 0.0000 0.0000 0.0000
# 2 1.1729 98.2839 -8.0586 0.0000 0.0000 0.0000
# 3 5.3665 -8.0586 139.4939 0.0000 0.0000 0.0000
# 4 0.0000 0.0000 0.0000 40.5606 0.0000 0.0000
# 5 0.0000 0.0000 0.0000 0.0000 10.3844 0.0000
# 6 0.0000 0.0000 0.0000 0.0000 0.0000 21.7014
#
#
#
# Elastic Compliance Matrix: (Units=1/GPa)
#
#
# Indices 1 2 3 4 5 6 
#
# 1 0.023891 -0.000362 -0.000940 0.000000 0.000000 0.000000
# 2 -0.000362 0.010229 0.000605 0.000000 0.000000 0.000000
# 3 -0.000940 0.000605 0.007240 0.000000 0.000000 0.000000
# 4 0.000000 0.000000 0.000000 0.024654 0.000000 0.000000
# 5 0.000000 0.000000 0.000000 0.000000 0.096298 0.000000
# 6 0.000000 0.000000 0.000000 0.000000 0.000000 0.046080
#
#
# Mechanical properties :
#
#
# Convention : Reuss Voigt Hill
#
# Bulk Modulus (GPa) = 25.02226 30.75839 27.89033
# Shear Modulus (GPa) = 22.41066 33.28816 27.84941
#
# Velocity S-wave (km/s) = 3.27485 3.99125 3.65066
# Velocity P-wave (km/s) = 5.12581 5.99663 5.57824
#
# Compressibility (1/GPa) = 0.03996441
#
# Stress axis : x y z
#
# Youngs Moduli (GPa) = 41.85714 97.76581 138.12383
#
# Poissons Ratio (x) = 0.03541 0.12984
# Poissons Ratio (y) = 0.01516 -0.08354
# Poissons Ratio (z) = 0.03935 -0.05913
#
# Static dielectric constant tensor:
#      x y z
#    x 1.706650 0.000000 0.000000 
#    y 0.000000 1.805550 0.000000 
#    z 0.000000 0.000000 1.845700 
# 
# From -- ./inp_files/6172.got.cif
#   From: 2010.05.17/outbox.cif.g08.bks.cpg/sg18_4_cif.got.tgz:6172.got - 2010.06.03 22:40:56.
