data_PCOD9312472
_publ_section_title
;
Structure prediction by ZEFSAII (Michael W. Deem and Ramdas Pophale) SiO2 
 PCOD9312472
Probable space group: P 21 21 2
;
_chemical_formula_sum "Si O2"
_cell_formula_units_Z 28
_cell_length_a 16.684016
_cell_length_b 11.384634
_cell_length_c 6.001141
_cell_angle_alpha 90.000000
_cell_angle_beta 90.000000
_cell_angle_gamma 90.000000
_cell_volume 1139.865218
_symmetry_space_group_name_H-M "P 21 21 2"
_symmetry_group_IT_number 18
_symmetry_cell_setting 'orthorhombic'
loop_
_space_group_symop_operation_xyz
x,y,z
-x,-y,z
1/2+x,1/2-y,-z
1/2-x,1/2+y,-z
loop_
_atom_site_type_symbol
_atom_site_label
_atom_site_fract_x
_atom_site_fract_y
_atom_site_fract_z
Si Si1 0.833632 0.382805 0.530141
Si Si2 0.035316 0.768124 0.744278
Si Si3 0.788742 0.924443 0.823901
Si Si4 0.254093 0.424214 0.785892
Si Si5 0.595417 0.531552 0.547137
Si Si6 0.079963 0.184455 0.132087
Si Si7 0.896585 0.629290 0.512613
O O1 0.785740 0.363103 0.300230
O O2 0.768640 0.445804 0.688648
O O3 0.894898 0.489823 0.472499
O O4 0.879052 0.288673 0.682422
O O5 0.036800 0.884928 0.593445
O O6 0.970530 0.675661 0.654233
O O7 0.001172 0.796354 0.988557
O O8 0.851658 0.968086 0.640672
O O9 0.758950 0.042820 0.954357
O O10 0.843121 0.843308 0.979999
O O11 0.340714 0.391606 0.690635
O O12 0.183545 0.352649 0.663639
O O13 0.569778 0.432374 0.721672
O O14 0.100021 0.294395 0.289380
#
# Coordination Sequence:
#
# PCOD9312472 Si02
#       7
#     4   4   4   4   4   4   4
#     4   9  23  47  70 111 145 190 261 318 371 469
#     4  12  26  44  74 104 155 208 245 315 384 464
#     4  10  21  47  75 104 147 198 254 318 381 453
#     4   8  21  43  74 100 145 189 248 314 379 448
#     4  10  24  45  67 113 149 196 268 310 368 467
#     4  11  26  45  73 111 151 212 246 326 390 454
#     4  10  24  45  72 109 151 189 258 311 376 467
#
# _framework density 24.564308
#
# number of rings (size 3 to 8) (size 9 to 14) (size 15 to 20)
#    0.857    1.143    0.000    1.286    2.000   11.429 
#    2.571    1.429    0.000    0.000    0.000    0.000 
#    0.000    0.000    0.000    0.000    0.000    0.000 
#
# Total GULP energy -156285.518531 kJ/mol
# GULP energy per Si atom -5581.625662 kJ/mol
# Density = 2.450840 g / cm^3
# Si number density = 24.564308 Si / 1000 Ang^3
#
#
#
# Elastic Constant Matrix: (Units=GPa)
#
#
# Indices 1 2 3 4 5 6 
#
# 1 107.0134 31.9506 68.3049 0.0000 0.0000 0.0000
# 2 31.9506 78.1804 42.8833 0.0000 0.0000 0.0000
# 3 68.3049 42.8833 128.6694 0.0000 0.0000 0.0000
# 4 0.0000 0.0000 0.0000 33.7941 0.0000 0.0000
# 5 0.0000 0.0000 0.0000 0.0000 54.7857 0.0000
# 6 0.0000 0.0000 0.0000 0.0000 0.0000 49.9734
#
#
#
# Elastic Compliance Matrix: (Units=1/GPa)
#
#
# Indices 1 2 3 4 5 6 
#
# 1 0.014402 -0.002071 -0.006955 0.000000 0.000000 0.000000
# 2 -0.002071 0.015950 -0.004217 0.000000 0.000000 0.000000
# 3 -0.006955 -0.004217 0.012870 0.000000 0.000000 0.000000
# 4 0.000000 0.000000 0.000000 0.029591 0.000000 0.000000
# 5 0.000000 0.000000 0.000000 0.000000 0.018253 0.000000
# 6 0.000000 0.000000 0.000000 0.000000 0.000000 0.020011
#
#
# Mechanical properties :
#
#
# Convention : Reuss Voigt Hill
#
# Bulk Modulus (GPa) = 59.75013 66.68233 63.21623
# Shear Modulus (GPa) = 34.93055 39.09226 37.01140
#
# Velocity S-wave (km/s) = 3.77504 3.99359 3.88585
# Velocity P-wave (km/s) = 6.58620 6.96204 6.77673
#
# Compressibility (1/GPa) = 0.01673637
#
# Stress axis : x y z
#
# Youngs Moduli (GPa) = 69.43255 62.69554 77.70281
#
# Poissons Ratio (x) = 0.12983 0.54046
# Poissons Ratio (y) = 0.14378 0.32764
# Poissons Ratio (z) = 0.48294 0.26436
#
# Static dielectric constant tensor:
#      x y z
#    x 2.104810 0.000000 0.000000 
#    y 0.000000 1.997950 0.000000 
#    z 0.000000 0.000000 1.995050 
# 
# From -- ./inp_files/1896.got.cif
#   From: 2010.05.17/outbox.cif.g08.bks.cpg/sg18_1_cif.got.tgz:1896.got - 2010.06.03 22:40:56.
