data_PCOD9312350
_publ_section_title
;
Structure prediction by ZEFSAII (Michael W. Deem and Ramdas Pophale) SiO2 
 PCOD9312350
Probable space group: P 21 21 2
;
_chemical_formula_sum "Si O2"
_cell_formula_units_Z 26
_cell_length_a 8.759778
_cell_length_b 16.338604
_cell_length_c 8.993976
_cell_angle_alpha 90.000000
_cell_angle_beta 90.000000
_cell_angle_gamma 90.000000
_cell_volume 1287.240725
_symmetry_space_group_name_H-M "P 21 21 2"
_symmetry_group_IT_number 18
_symmetry_cell_setting 'orthorhombic'
loop_
_space_group_symop_operation_xyz
x,y,z
-x,-y,z
1/2+x,1/2-y,-z
1/2-x,1/2+y,-z
loop_
_atom_site_type_symbol
_atom_site_label
_atom_site_fract_x
_atom_site_fract_y
_atom_site_fract_z
Si Si1 0.488596 0.212055 0.061328
Si Si2 0.500000 0.000000 0.745614
Si Si3 0.709201 0.774658 0.339485
Si Si4 0.549894 0.361324 0.848306
Si Si5 0.940674 0.644363 0.477675
Si Si6 0.787290 0.596360 0.778855
Si Si7 0.204860 0.549513 0.999776
O O1 0.389847 0.251860 0.194965
O O2 0.641843 0.173891 0.131931
O O3 0.393968 0.132588 0.009417
O O4 0.519785 0.275089 0.930470
O O5 0.490685 0.920438 0.644433
O O6 0.648781 0.994107 0.851194
O O7 0.821264 0.845449 0.276262
O O8 0.817128 0.706078 0.408425
O O9 0.587453 0.807934 0.457962
O O10 0.394490 0.394260 0.779748
O O11 0.622933 0.420777 0.972403
O O12 0.862346 0.599256 0.617609
O O13 0.827539 0.514225 0.867612
#
# Coordination Sequence:
#
# PCOD9312350 Si02
#       7
#     4   2   4   4   4   4   4
#     4  10  21  39  71  94 132 168 223 272 326 389
#     4  12  26  40  72  92 140 170 230 270 340 396
#     4  10  23  42  66  99 132 176 227 268 328 406
#     4  11  23  39  71  99 132 169 226 277 326 387
#     4  11  26  43  70  97 137 183 217 276 339 404
#     4  11  22  41  66  97 135 174 213 273 335 400
#     4  11  23  42  66  97 126 178 224 270 327 395
#
# _framework density 20.198242
#
# number of rings (size 3 to 8) (size 9 to 14) (size 15 to 20)
#    0.000    1.231    1.538    4.154    8.615    2.462 
#    0.000    0.000    0.000    0.000    0.000    0.000 
#    0.000    0.000    0.000    0.000    0.000    0.000 
#
# Total GULP energy -145331.193955 kJ/mol
# GULP energy per Si atom -5589.661306 kJ/mol
# Density = 2.015227 g / cm^3
# Si number density = 20.198242 Si / 1000 Ang^3
#
#
#
# Elastic Constant Matrix: (Units=GPa)
#
#
# Indices 1 2 3 4 5 6 
#
# 1 112.2953 29.1766 18.7524 0.0000 0.0000 0.0000
# 2 29.1766 81.4713 45.4488 0.0000 0.0000 0.0000
# 3 18.7524 45.4488 79.9646 0.0000 0.0000 0.0000
# 4 0.0000 0.0000 0.0000 33.4051 0.0000 0.0000
# 5 0.0000 0.0000 0.0000 0.0000 26.5079 0.0000
# 6 0.0000 0.0000 0.0000 0.0000 0.0000 35.0372
#
#
#
# Elastic Compliance Matrix: (Units=1/GPa)
#
#
# Indices 1 2 3 4 5 6 
#
# 1 0.009830 -0.003272 -0.000446 0.000000 0.000000 0.000000
# 2 -0.003272 0.019062 -0.010067 0.000000 0.000000 0.000000
# 3 -0.000446 -0.010067 0.018332 0.000000 0.000000 0.000000
# 4 0.000000 0.000000 0.000000 0.029936 0.000000 0.000000
# 5 0.000000 0.000000 0.000000 0.000000 0.037725 0.000000
# 6 0.000000 0.000000 0.000000 0.000000 0.000000 0.028541
#
#
# Mechanical properties :
#
#
# Convention : Reuss Voigt Hill
#
# Bulk Modulus (GPa) = 50.87794 51.16517 51.02156
# Shear Modulus (GPa) = 28.16217 31.01361 29.58789
#
# Velocity S-wave (km/s) = 3.73807 3.92275 3.83152
# Velocity P-wave (km/s) = 6.62381 6.77523 6.69995
#
# Compressibility (1/GPa) = 0.01965488
#
# Stress axis : x y z
#
# Youngs Moduli (GPa) = 101.73426 52.46168 54.55080
#
# Poissons Ratio (x) = 0.17163 0.02431
# Poissons Ratio (y) = 0.33283 0.54914
# Poissons Ratio (z) = 0.04534 0.52811
#
# Static dielectric constant tensor:
#      x y z
#    x 1.734700 0.000000 0.000000 
#    y 0.000000 1.711610 0.000000 
#    z 0.000000 0.000000 1.702580 
# 
# From -- ./inp_files/3385.got.cif
#   From: 2010.05.17/outbox.cif.g08.bks.cpg/sg18_2_cif.got.tgz:3385.got - 2010.06.03 22:40:56.
