data_PCOD9312242
_publ_section_title
;
Structure prediction by ZEFSAII (Michael W. Deem and Ramdas Pophale) SiO2 
 PCOD9312242
Probable space group: P 21 21 2
;
_chemical_formula_sum "Si O2"
_cell_formula_units_Z 30
_cell_length_a 9.179593
_cell_length_b 11.466096
_cell_length_c 13.004999
_cell_angle_alpha 90.000000
_cell_angle_beta 90.000000
_cell_angle_gamma 90.000000
_cell_volume 1368.829395
_symmetry_space_group_name_H-M "P 21 21 2"
_symmetry_group_IT_number 18
_symmetry_cell_setting 'orthorhombic'
loop_
_space_group_symop_operation_xyz
x,y,z
-x,-y,z
1/2+x,1/2-y,-z
1/2-x,1/2+y,-z
loop_
_atom_site_type_symbol
_atom_site_label
_atom_site_fract_x
_atom_site_fract_y
_atom_site_fract_z
Si Si1 0.459494 0.377498 0.992256
Si Si2 0.125535 0.679393 0.678671
Si Si3 0.645563 0.571314 0.218705
Si Si4 0.827578 0.999146 0.427389
Si Si5 0.681848 0.212215 0.099495
Si Si6 0.000000 0.500000 0.844703
Si Si7 0.335179 0.038246 0.626792
Si Si8 0.309152 0.777175 0.339225
O O1 0.500000 0.500000 0.940296
O O2 0.373725 0.411937 0.097258
O O3 0.598847 0.304188 0.028313
O O4 0.350169 0.300861 0.926431
O O5 0.160652 0.801994 0.730532
O O6 0.251905 0.619917 0.612352
O O7 0.088644 0.586231 0.768951
O O8 0.973131 0.702584 0.617776
O O9 0.500000 0.500000 0.253245
O O10 0.782577 0.500603 0.260440
O O11 0.763617 0.024007 0.540502
O O12 0.773268 0.102018 0.353620
O O13 0.000000 0.000000 0.430082
O O14 0.664498 0.247119 0.218441
O O15 0.604188 0.085491 0.091375
O O16 0.288766 0.173365 0.617580
O O17 0.500000 0.000000 0.609466
#
# Coordination Sequence:
#
# PCOD9312242 Si02
#       8
#     4   4   4   4   4   2   4   4
#     4  11  25  43  69 103 141 183 237 288 348 423
#     4  11  20  44  73  90 131 178 231 279 345 403
#     4  11  22  45  69  97 135 186 228 286 352 408
#     4  12  28  42  69 106 135 181 234 291 352 418
#     4  11  24  45  70 102 141 186 236 283 356 414
#     4  10  20  44  70  94 130 190 224 284 350 406
#     4  12  28  45  69 102 141 185 231 289 359 422
#     4  11  23  48  72  95 140 183 236 288 346 425
#
# _framework density 21.916537000000002
#
# number of rings (size 3 to 8) (size 9 to 14) (size 15 to 20)
#    0.000    0.800    6.667    2.000    5.600    1.600 
#    1.200    0.000    0.000    0.000    0.000    0.000 
#    0.000    0.000    0.000    0.000    0.000    0.000 
#
# Total GULP energy -167703.587895 kJ/mol
# GULP energy per Si atom -5590.119597 kJ/mol
# Density = 2.186665 g / cm^3
# Si number density = 21.916537 Si / 1000 Ang^3
#
#
#
# Elastic Constant Matrix: (Units=GPa)
#
#
# Indices 1 2 3 4 5 6 
#
# 1 140.3205 34.0802 14.3354 0.0000 0.0000 0.0000
# 2 34.0802 123.6204 2.2171 0.0000 0.0000 0.0000
# 3 14.3354 2.2171 11.6957 0.0000 0.0000 0.0000
# 4 0.0000 0.0000 0.0000 6.9216 0.0000 0.0000
# 5 0.0000 0.0000 0.0000 0.0000 27.8085 0.0000
# 6 0.0000 0.0000 0.0000 0.0000 0.0000 38.7895
#
#
#
# Elastic Compliance Matrix: (Units=1/GPa)
#
#
# Indices 1 2 3 4 5 6 
#
# 1 0.008713 -0.002218 -0.010259 0.000000 0.000000 0.000000
# 2 -0.002218 0.008682 0.001073 0.000000 0.000000 0.000000
# 3 -0.010259 0.001073 0.097873 0.000000 0.000000 0.000000
# 4 0.000000 0.000000 0.000000 0.144476 0.000000 0.000000
# 5 0.000000 0.000000 0.000000 0.000000 0.035960 0.000000
# 6 0.000000 0.000000 0.000000 0.000000 0.000000 0.025780
#
#
# Mechanical properties :
#
#
# Convention : Reuss Voigt Hill
#
# Bulk Modulus (GPa) = 10.81562 41.87799 26.34680
# Shear Modulus (GPa) = 13.32931 29.70419 21.51675
#
# Velocity S-wave (km/s) = 2.46882 3.68548 3.13670
# Velocity P-wave (km/s) = 3.61557 6.10408 5.01658
#
# Compressibility (1/GPa) = 0.09245888
#
# Stress axis : x y z
#
# Youngs Moduli (GPa) = 114.76582 115.18693 10.21732
#
# Poissons Ratio (x) = 0.25550 0.10482
# Poissons Ratio (y) = 0.25457 -0.01096
# Poissons Ratio (z) = 1.17744 -0.12360
#
# Static dielectric constant tensor:
#      x y z
#    x 1.811980 0.000000 0.000000 
#    y 0.000000 1.857640 0.000000 
#    z 0.000000 0.000000 1.809750 
# 
# From -- ./inp_files/6739.got.cif
#   From: 2010.05.17/outbox.cif.g08.bks.cpg/sg18_4_cif.got.tgz:6739.got - 2010.06.03 22:40:56.
