data_PCOD9312512
_publ_section_title
;
Structure prediction by ZEFSAII (Michael W. Deem and Ramdas Pophale) SiO2 
 PCOD9312512
Probable space group: P 21 21 2
;
_chemical_formula_sum "Si O2"
_cell_formula_units_Z 30
_cell_length_a 11.652336
_cell_length_b 19.640034
_cell_length_c 6.632013
_cell_angle_alpha 90.000000
_cell_angle_beta 90.000000
_cell_angle_gamma 90.000000
_cell_volume 1517.751264
_symmetry_space_group_name_H-M "P 21 21 2"
_symmetry_group_IT_number 18
_symmetry_cell_setting 'orthorhombic'
loop_
_space_group_symop_operation_xyz
x,y,z
-x,-y,z
1/2+x,1/2-y,-z
1/2-x,1/2+y,-z
loop_
_atom_site_type_symbol
_atom_site_label
_atom_site_fract_x
_atom_site_fract_y
_atom_site_fract_z
Si Si1 0.530358 0.306687 0.036635
Si Si2 0.714748 0.863595 0.005696
Si Si3 0.205805 0.991360 0.071456
Si Si4 0.470980 0.186655 0.310647
Si Si5 0.500000 0.500000 0.631167
Si Si6 0.369638 0.250372 0.705591
Si Si7 0.615362 0.589493 0.304039
Si Si8 0.704265 0.126529 0.368023
O O1 0.534535 0.234154 0.147177
O O2 0.452484 0.352576 0.183973
O O3 0.653294 0.338884 0.992781
O O4 0.460760 0.293659 0.833306
O O5 0.639897 0.843617 0.199872
O O6 0.716274 0.945331 0.004096
O O7 0.661179 0.819496 0.822547
O O8 0.265199 0.929442 0.195617
O O9 0.146049 0.964281 0.869214
O O10 0.107138 0.016734 0.225744
O O11 0.424886 0.231082 0.494420
O O12 0.567764 0.134267 0.384236
O O13 0.535522 0.560517 0.481773
O O14 0.261601 0.300543 0.684595
O O15 0.732343 0.608367 0.421719
#
# Coordination Sequence:
#
# PCOD9312512 Si02
#       8
#     4   4   4   4   2   4   4   4
#     4  11  22  39  69 101 133 168 221 286 346 402
#     4  11  26  42  67  99 136 179 222 281 347 415
#     4  11  24  43  66  97 144 176 229 282 340 418
#     4  11  26  43  65  97 138 178 234 285 340 418
#     4  10  22  38  64 104 132 176 214 280 354 394
#     4  11  24  42  66  99 131 176 226 286 344 398
#     4  11  22  39  69 100 134 178 221 281 346 405
#     4  11  24  44  67  96 134 185 225 278 350 405
#
# _framework density 19.766085
#
# number of rings (size 3 to 8) (size 9 to 14) (size 15 to 20)
#    0.000    1.067    4.000    2.000    3.733    5.867 
#    0.000    0.000    0.000    0.000    0.000    0.000 
#    0.000    0.000    0.000    0.000    0.000    0.000 
#
# Total GULP energy -167489.181411 kJ/mol
# GULP energy per Si atom -5582.972714 kJ/mol
# Density = 1.972110 g / cm^3
# Si number density = 19.766085 Si / 1000 Ang^3
#
#
#
# Elastic Constant Matrix: (Units=GPa)
#
#
# Indices 1 2 3 4 5 6 
#
# 1 67.6866 32.2129 51.9213 0.0000 0.0000 0.0000
# 2 32.2129 78.7624 34.4923 0.0000 0.0000 0.0000
# 3 51.9213 34.4923 105.2438 0.0000 0.0000 0.0000
# 4 0.0000 0.0000 0.0000 24.0766 0.0000 0.0000
# 5 0.0000 0.0000 0.0000 0.0000 20.8126 0.0000
# 6 0.0000 0.0000 0.0000 0.0000 0.0000 26.5783
#
#
#
# Elastic Compliance Matrix: (Units=1/GPa)
#
#
# Indices 1 2 3 4 5 6 
#
# 1 0.025874 -0.005829 -0.010855 0.000000 0.000000 0.000000
# 2 -0.005829 0.016137 -0.002413 0.000000 0.000000 0.000000
# 3 -0.010855 -0.002413 0.015648 0.000000 0.000000 0.000000
# 4 0.000000 0.000000 0.000000 0.041534 0.000000 0.000000
# 5 0.000000 0.000000 0.000000 0.000000 0.048048 0.000000
# 6 0.000000 0.000000 0.000000 0.000000 0.000000 0.037625
#
#
# Mechanical properties :
#
#
# Convention : Reuss Voigt Hill
#
# Bulk Modulus (GPa) = 51.37146 54.32730 52.84938
# Shear Modulus (GPa) = 21.78198 23.16459 22.47329
#
# Velocity S-wave (km/s) = 3.32322 3.42707 3.37554
# Velocity P-wave (km/s) = 6.38523 6.57301 6.47980
#
# Compressibility (1/GPa) = 0.01946606
#
# Stress axis : x y z
#
# Youngs Moduli (GPa) = 38.64827 61.96901 63.90722
#
# Poissons Ratio (x) = 0.36120 0.69369
# Poissons Ratio (y) = 0.22527 0.15422
# Poissons Ratio (z) = 0.41951 0.14954
#
# Static dielectric constant tensor:
#      x y z
#    x 1.707720 0.000000 0.000000 
#    y 0.000000 1.740770 0.000000 
#    z 0.000000 0.000000 1.667050 
# 
# From -- ./inp_files/1274.got.cif
#   From: 2010.05.17/outbox.cif.g08.bks.cpg/sg18_1_cif.got.tgz:1274.got - 2010.06.03 22:40:56.
