data_PCOD9312522
_publ_section_title
;
Structure prediction by ZEFSAII (Michael W. Deem and Ramdas Pophale) SiO2 
 PCOD9312522
Probable space group: P 21 21 2
;
_chemical_formula_sum "Si O2"
_cell_formula_units_Z 24
_cell_length_a 19.782225
_cell_length_b 8.628213
_cell_length_c 5.333251
_cell_angle_alpha 90.000000
_cell_angle_beta 90.000000
_cell_angle_gamma 90.000000
_cell_volume 910.307285
_symmetry_space_group_name_H-M "P 21 21 2"
_symmetry_group_IT_number 18
_symmetry_cell_setting 'orthorhombic'
loop_
_space_group_symop_operation_xyz
x,y,z
-x,-y,z
1/2+x,1/2-y,-z
1/2-x,1/2+y,-z
loop_
_atom_site_type_symbol
_atom_site_label
_atom_site_fract_x
_atom_site_fract_y
_atom_site_fract_z
Si Si1 0.723861 0.855526 0.445868
Si Si2 0.963929 0.334493 0.046828
Si Si3 0.342958 0.349717 0.099399
Si Si4 0.205729 0.342851 0.816003
Si Si5 0.363777 0.655717 0.836648
Si Si6 0.518477 0.321343 0.459932
O O1 0.693055 0.024471 0.392587
O O2 0.673550 0.711478 0.381040
O O3 0.762923 0.813649 0.696486
O O4 0.787313 0.854444 0.258200
O O5 0.883942 0.299793 0.005027
O O6 0.000000 0.500000 0.050000
O O7 0.998349 0.248626 0.807844
O O8 0.977150 0.261880 0.318775
O O9 0.268834 0.383347 0.992556
O O10 0.382652 0.502697 0.001406
O O11 0.140058 0.301394 0.975788
O O12 0.407512 0.681870 0.588169
O O13 0.500000 0.500000 0.449616
#
# Coordination Sequence:
#
# PCOD9312522 Si02
#       6
#     4   4   4   4   4   4
#     4  10  22  38  68  99 137 187 231 307 371 443
#     4  12  29  50  73 111 150 199 249 317 378 451
#     4  10  23  44  67  98 144 186 240 307 376 439
#     4  10  22  41  68 105 139 187 245 301 381 440
#     4  10  23  43  66 100 136 185 245 308 352 456
#     4  12  27  49  78 108 144 203 256 302 374 451
#
# _framework density 26.364723000000001
#
# number of rings (size 3 to 8) (size 9 to 14) (size 15 to 20)
#    0.000    1.333    1.667    2.000    7.000    1.333 
#    0.000    0.000    0.000    0.000    0.000    0.000 
#    0.000    0.000    0.000    0.000    0.000    0.000 
#
# Total GULP energy -133975.136589 kJ/mol
# GULP energy per Si atom -5582.297358 kJ/mol
# Density = 2.630472 g / cm^3
# Si number density = 26.364723 Si / 1000 Ang^3
#
#
#
# Elastic Constant Matrix: (Units=GPa)
#
#
# Indices 1 2 3 4 5 6 
#
# 1 54.0732 -5.8050 14.7137 0.0000 0.0000 0.0000
# 2 -5.8050 96.1468 38.9985 0.0000 0.0000 0.0000
# 3 14.7137 38.9985 71.8278 0.0000 0.0000 0.0000
# 4 0.0000 0.0000 0.0000 30.9472 0.0000 0.0000
# 5 0.0000 0.0000 0.0000 0.0000 -24.0770 0.0000
# 6 0.0000 0.0000 0.0000 0.0000 0.0000 29.0806
#
#
#
# Elastic Compliance Matrix: (Units=1/GPa)
#
#
# Indices 1 2 3 4 5 6 
#
# 1 0.020609 0.003792 -0.006281 0.000000 0.000000 0.000000
# 2 0.003792 0.014036 -0.008397 0.000000 0.000000 0.000000
# 3 -0.006281 -0.008397 0.019768 0.000000 0.000000 0.000000
# 4 0.000000 0.000000 0.000000 0.032313 0.000000 0.000000
# 5 0.000000 0.000000 0.000000 0.000000 -0.041533 0.000000
# 6 0.000000 0.000000 0.000000 0.000000 0.000000 0.034387
#
#
# Mechanical properties :
#
#
# Convention : Reuss Voigt Hill
#
# Bulk Modulus (GPa) = 30.63622 35.31801 32.97711
# Shear Modulus (GPa) = 44.55029 18.79955 31.67492
#
# Velocity S-wave (km/s) = 4.11514 2.67321 3.46990
# Velocity P-wave (km/s) = 5.85017 4.79094 5.34685
#
# Compressibility (1/GPa) = 0.03264110
#
# Stress axis : x y z
#
# Youngs Moduli (GPa) = 48.52135 71.24646 50.58669
#
# Poissons Ratio (x) = -0.27015 0.31771
# Poissons Ratio (y) = -0.18398 0.42480
# Poissons Ratio (z) = 0.30474 0.59828
#
# Static dielectric constant tensor:
#      x y z
#    x 2.202680 0.000000 0.000000 
#    y 0.000000 2.289020 0.000000 
#    z 0.000000 0.000000 2.057740 
# 
# From -- ./inp_files/2080.got.cif
#   From: 2010.05.17/outbox.cif.g08.bks.cpg/sg18_2_cif.got.tgz:2080.got - 2010.06.03 22:40:56.
