data_PCOD9312656
_publ_section_title
;
Structure prediction by ZEFSAII (Michael W. Deem and Ramdas Pophale) SiO2 
 PCOD9312656
Probable space group: P 21 21 2
;
_chemical_formula_sum "Si O2"
_cell_formula_units_Z 24
_cell_length_a 8.573123
_cell_length_b 11.174810
_cell_length_c 10.413852
_cell_angle_alpha 90.000000
_cell_angle_beta 90.000000
_cell_angle_gamma 90.000000
_cell_volume 997.678478
_symmetry_space_group_name_H-M "P 21 21 2"
_symmetry_group_IT_number 18
_symmetry_cell_setting 'orthorhombic'
loop_
_space_group_symop_operation_xyz
x,y,z
-x,-y,z
1/2+x,1/2-y,-z
1/2-x,1/2+y,-z
loop_
_atom_site_type_symbol
_atom_site_label
_atom_site_fract_x
_atom_site_fract_y
_atom_site_fract_z
Si Si1 0.438667 0.368207 0.017159
Si Si2 0.178512 0.868884 0.337158
Si Si3 0.618362 0.350474 0.283329
Si Si4 0.698292 0.612160 0.373502
Si Si5 0.887667 0.794713 0.203311
Si Si6 0.182381 0.500102 0.905965
O O1 0.500000 0.500000 0.970140
O O2 0.534986 0.339525 0.144329
O O3 0.483207 0.273531 0.908102
O O4 0.259288 0.409986 0.012583
O O5 0.239703 0.733927 0.316849
O O6 0.231652 0.908923 0.477733
O O7 0.271689 0.939910 0.228775
O O8 0.993974 0.870388 0.304576
O O9 0.671693 0.486285 0.303347
O O10 0.471871 0.324454 0.375797
O O11 0.812921 0.692036 0.289020
O O12 0.753587 0.866381 0.121791
O O13 0.000000 0.500000 0.925911
#
# Coordination Sequence:
#
# PCOD9312656 Si02
#       6
#     4   4   4   4   4   4
#     4   9  19  44  68  97 138 176 235 289 354 418
#     4  11  24  41  68 105 140 190 234 300 359 425
#     4  11  24  43  69  99 143 190 237 302 359 413
#     4  11  24  41  69  99 144 187 244 295 354 425
#     4  10  23  41  69 102 139 187 237 291 360 422
#     4  10  22  42  74 103 137 190 237 293 359 433
#
# _framework density 24.055847
#
# number of rings (size 3 to 8) (size 9 to 14) (size 15 to 20)
#    0.000    1.667    1.667    3.500    7.000    3.333 
#    0.000    3.333    0.000    0.000    0.000    0.000 
#    0.000    0.000    0.000    0.000    0.000    0.000 
#
# Total GULP energy -133943.919424 kJ/mol
# GULP energy per Si atom -5580.996643 kJ/mol
# Density = 2.400110 g / cm^3
# Si number density = 24.055847 Si / 1000 Ang^3
#
#
#
# Elastic Constant Matrix: (Units=GPa)
#
#
# Indices 1 2 3 4 5 6 
#
# 1 117.2227 23.3018 3.5845 0.0000 0.0000 0.0000
# 2 23.3018 39.6193 7.1076 0.0000 0.0000 0.0000
# 3 3.5845 7.1076 126.0019 0.0000 0.0000 0.0000
# 4 0.0000 0.0000 0.0000 25.3386 0.0000 0.0000
# 5 0.0000 0.0000 0.0000 0.0000 22.6705 0.0000
# 6 0.0000 0.0000 0.0000 0.0000 0.0000 41.4254
#
#
#
# Elastic Compliance Matrix: (Units=1/GPa)
#
#
# Indices 1 2 3 4 5 6 
#
# 1 0.009660 -0.005690 0.000046 0.000000 0.000000 0.000000
# 2 -0.005690 0.028850 -0.001465 0.000000 0.000000 0.000000
# 3 0.000046 -0.001465 0.008018 0.000000 0.000000 0.000000
# 4 0.000000 0.000000 0.000000 0.039466 0.000000 0.000000
# 5 0.000000 0.000000 0.000000 0.000000 0.044110 0.000000
# 6 0.000000 0.000000 0.000000 0.000000 0.000000 0.024140
#
#
# Mechanical properties :
#
#
# Convention : Reuss Voigt Hill
#
# Bulk Modulus (GPa) = 30.95098 38.98129 34.96613
# Shear Modulus (GPa) = 27.89683 34.47689 31.18686
#
# Velocity S-wave (km/s) = 3.40909 3.78987 3.60451
# Velocity P-wave (km/s) = 5.32823 5.94899 5.64715
#
# Compressibility (1/GPa) = 0.03230916
#
# Stress axis : x y z
#
# Youngs Moduli (GPa) = 103.51502 34.66242 124.72339
#
# Poissons Ratio (x) = 0.19723 -0.00576
# Poissons Ratio (y) = 0.58900 0.18278
# Poissons Ratio (z) = -0.00478 0.05080
#
# Static dielectric constant tensor:
#      x y z
#    x 2.056600 0.000000 0.000000 
#    y 0.000000 2.002900 0.000000 
#    z 0.000000 0.000000 1.953130 
# 
# From -- ./inp_files/5505.got.cif
#   From: 2010.05.17/outbox.cif.g08.bks.cpg/sg18_3_cif.got.tgz:5505.got - 2010.06.03 22:40:56.
