data_PCOD9312086
_publ_section_title
;
Structure prediction by ZEFSAII (Michael W. Deem and Ramdas Pophale) SiO2 
 PCOD9312086
Probable space group: P 21 21 2
;
_chemical_formula_sum "Si O2"
_cell_formula_units_Z 20
_cell_length_a 8.200209
_cell_length_b 16.933491
_cell_length_c 6.347437
_cell_angle_alpha 90.000000
_cell_angle_beta 90.000000
_cell_angle_gamma 90.000000
_cell_volume 881.393456
_symmetry_space_group_name_H-M "P 21 21 2"
_symmetry_group_IT_number 18
_symmetry_cell_setting 'orthorhombic'
loop_
_space_group_symop_operation_xyz
x,y,z
-x,-y,z
1/2+x,1/2-y,-z
1/2-x,1/2+y,-z
loop_
_atom_site_type_symbol
_atom_site_label
_atom_site_fract_x
_atom_site_fract_y
_atom_site_fract_z
Si Si1 0.558771 0.394367 0.298432
Si Si2 0.735230 0.523862 0.535684
Si Si3 0.596637 0.150613 0.674694
Si Si4 0.271766 0.250874 0.643830
Si Si5 0.302571 0.403131 0.941917
O O1 0.707526 0.449061 0.384193
O O2 0.419910 0.421419 0.464196
O O3 0.618877 0.305040 0.300353
O O4 0.468669 0.409794 0.077043
O O5 0.892480 0.576498 0.483641
O O6 0.722397 0.522066 0.787529
O O7 0.428525 0.195930 0.665933
O O8 0.728167 0.214731 0.586759
O O9 0.658116 0.112953 0.891642
O O10 0.297413 0.324300 0.799675
#
# Coordination Sequence:
#
# PCOD9312086 Si02
#       5
#     4   4   4   4   4
#     4  10  21  38  63  89 120 158 202 252 307 363
#     4   9  21  38  58  85 119 159 200 248 300 366
#     4  10  21  36  57  85 120 152 196 245 297 359
#     4  11  21  37  62  91 120 157 198 253 306 358
#     4  10  20  38  60  86 117 157 202 246 302 368
#
# _framework density 22.691341000000001
#
# number of rings (size 3 to 8) (size 9 to 14) (size 15 to 20)
#    0.000    2.000    0.000    4.800    0.000    8.800 
#    0.000    0.000    0.000   14.400    0.000    0.000 
#    0.000    0.000    0.000    0.000    0.000    0.000 
#
# Total GULP energy -111474.925275 kJ/mol
# GULP energy per Si atom -5573.746264 kJ/mol
# Density = 2.263969 g / cm^3
# Si number density = 22.691341 Si / 1000 Ang^3
#
#
#
# Elastic Constant Matrix: (Units=GPa)
#
#
# Indices 1 2 3 4 5 6 
#
# 1 55.9936 14.1509 13.1180 0.0000 0.0000 0.0000
# 2 14.1509 80.9366 25.5235 0.0000 0.0000 0.0000
# 3 13.1180 25.5235 122.0413 0.0000 0.0000 0.0000
# 4 0.0000 0.0000 0.0000 34.4517 0.0000 0.0000
# 5 0.0000 0.0000 0.0000 0.0000 10.6376 0.0000
# 6 0.0000 0.0000 0.0000 0.0000 0.0000 41.2660
#
#
#
# Elastic Compliance Matrix: (Units=1/GPa)
#
#
# Indices 1 2 3 4 5 6 
#
# 1 0.018917 -0.002854 -0.001436 0.000000 0.000000 0.000000
# 2 -0.002854 0.013658 -0.002550 0.000000 0.000000 0.000000
# 3 -0.001436 -0.002550 0.008882 0.000000 0.000000 0.000000
# 4 0.000000 0.000000 0.000000 0.029026 0.000000 0.000000
# 5 0.000000 0.000000 0.000000 0.000000 0.094006 0.000000
# 6 0.000000 0.000000 0.000000 0.000000 0.000000 0.024233
#
#
# Mechanical properties :
#
#
# Convention : Reuss Voigt Hill
#
# Bulk Modulus (GPa) = 36.00224 40.50624 38.25424
# Shear Modulus (GPa) = 23.62250 31.01633 27.31942
#
# Velocity S-wave (km/s) = 3.23001 3.70114 3.47357
# Velocity P-wave (km/s) = 5.45996 6.01285 5.74306
#
# Compressibility (1/GPa) = 0.02777605
#
# Stress axis : x y z
#
# Youngs Moduli (GPa) = 52.86223 73.21465 112.59263
#
# Poissons Ratio (x) = 0.20899 0.16173
# Poissons Ratio (y) = 0.15089 0.28708
# Poissons Ratio (z) = 0.07593 0.18667
#
# Static dielectric constant tensor:
#      x y z
#    x 1.923480 0.000000 0.000000 
#    y 0.000000 1.919130 0.000000 
#    z 0.000000 0.000000 1.874390 
# 
# From -- ./inp_files/520.got.cif
#   From: 2010.05.17/outbox.cif.g08.bks.cpg/sg18_1_cif.got.tgz:520.got - 2010.06.03 22:40:56.
