data_PCOD9312389
_publ_section_title
;
Structure prediction by ZEFSAII (Michael W. Deem and Ramdas Pophale) SiO2 
 PCOD9312389
Probable space group: P 21 21 2
;
_chemical_formula_sum "Si O2"
_cell_formula_units_Z 26
_cell_length_a 8.989227
_cell_length_b 9.503597
_cell_length_c 15.625420
_cell_angle_alpha 90.000000
_cell_angle_beta 90.000000
_cell_angle_gamma 90.000000
_cell_volume 1334.879486
_symmetry_space_group_name_H-M "P 21 21 2"
_symmetry_group_IT_number 18
_symmetry_cell_setting 'orthorhombic'
loop_
_space_group_symop_operation_xyz
x,y,z
-x,-y,z
1/2+x,1/2-y,-z
1/2-x,1/2+y,-z
loop_
_atom_site_type_symbol
_atom_site_label
_atom_site_fract_x
_atom_site_fract_y
_atom_site_fract_z
Si Si1 0.988031 0.769360 0.861429
Si Si2 0.830005 0.495435 0.314996
Si Si3 0.500000 0.000000 0.020052
Si Si4 0.329947 0.277107 0.428849
Si Si5 0.752025 0.003539 0.879699
Si Si6 0.669342 0.513966 0.590310
Si Si7 0.375680 0.776410 0.329532
O O1 0.012824 0.634492 0.919252
O O2 0.955441 0.732730 0.762435
O O3 0.128172 0.872112 0.871489
O O4 0.844538 0.859513 0.890161
O O5 0.742489 0.627005 0.354607
O O6 0.828350 0.500249 0.212179
O O7 0.738145 0.354769 0.338107
O O8 0.000000 0.500000 0.346757
O O9 0.359758 0.980080 0.957572
O O10 0.332244 0.375663 0.511960
O O11 0.496321 0.236092 0.400680
O O12 0.234266 0.135744 0.438778
O O13 0.500000 0.500000 0.621714
O O14 0.780874 0.582095 0.659049
#
# Coordination Sequence:
#
# PCOD9312389 Si02
#       7
#     4   4   2   4   4   4   4
#     4  10  23  40  66  93 132 169 213 261 322 396
#     4  11  21  39  66  92 126 166 219 270 321 378
#     4  12  22  38  68  96 130 162 216 268 324 368
#     4  12  24  42  68  92 130 171 218 267 325 385
#     4  10  21  41  62  96 123 171 211 263 318 393
#     4  12  26  42  63  97 132 166 220 274 319 378
#     4  11  24  43  66  93 128 177 219 261 330 389
#
# _framework density 19.477415000000001
#
# number of rings (size 3 to 8) (size 9 to 14) (size 15 to 20)
#    0.000    0.923    2.308    5.538    2.154    1.231 
#    0.000    0.000    3.385    0.000    0.000    0.000 
#    0.000    0.000    0.000    0.000    0.000    0.000 
#
# Total GULP energy -145437.581831 kJ/mol
# GULP energy per Si atom -5593.753147 kJ/mol
# Density = 1.943308 g / cm^3
# Si number density = 19.477415 Si / 1000 Ang^3
#
#
#
# Elastic Constant Matrix: (Units=GPa)
#
#
# Indices 1 2 3 4 5 6 
#
# 1 108.2012 21.4801 21.4026 0.0000 0.0000 0.0000
# 2 21.4801 97.4653 30.5778 0.0000 0.0000 0.0000
# 3 21.4026 30.5778 65.8967 0.0000 0.0000 0.0000
# 4 0.0000 0.0000 0.0000 26.9257 0.0000 0.0000
# 5 0.0000 0.0000 0.0000 0.0000 29.9721 0.0000
# 6 0.0000 0.0000 0.0000 0.0000 0.0000 27.3570
#
#
#
# Elastic Compliance Matrix: (Units=1/GPa)
#
#
# Indices 1 2 3 4 5 6 
#
# 1 0.010035 -0.001392 -0.002614 0.000000 0.000000 0.000000
# 2 -0.001392 0.012201 -0.005210 0.000000 0.000000 0.000000
# 3 -0.002614 -0.005210 0.018442 0.000000 0.000000 0.000000
# 4 0.000000 0.000000 0.000000 0.037139 0.000000 0.000000
# 5 0.000000 0.000000 0.000000 0.000000 0.033364 0.000000
# 6 0.000000 0.000000 0.000000 0.000000 0.000000 0.036554
#
#
# Mechanical properties :
#
#
# Convention : Reuss Voigt Hill
#
# Bulk Modulus (GPa) = 44.94752 46.49824 45.72288
# Shear Modulus (GPa) = 28.80496 30.05783 29.43140
#
# Velocity S-wave (km/s) = 3.84981 3.93264 3.89144
# Velocity P-wave (km/s) = 6.54891 6.67425 6.61187
#
# Compressibility (1/GPa) = 0.02224817
#
# Stress axis : x y z
#
# Youngs Moduli (GPa) = 99.64834 81.95917 54.22540
#
# Poissons Ratio (x) = 0.11406 0.14172
# Poissons Ratio (y) = 0.13868 0.28250
# Poissons Ratio (z) = 0.26044 0.42698
#
# Static dielectric constant tensor:
#      x y z
#    x 1.678150 0.000000 0.000000 
#    y 0.000000 1.661230 0.000000 
#    z 0.000000 0.000000 1.665210 
# 
# From -- ./inp_files/7332.got.cif
#   From: 2010.05.17/outbox.cif.g08.bks.cpg/sg18_4_cif.got.tgz:7332.got - 2010.06.03 22:40:56.
