data_PCOD9312175
_publ_section_title
;
Structure prediction by ZEFSAII (Michael W. Deem and Ramdas Pophale) SiO2 
 PCOD9312175
Probable space group: P 21 21 2
;
_chemical_formula_sum "Si O2"
_cell_formula_units_Z 22
_cell_length_a 9.440111
_cell_length_b 10.366219
_cell_length_c 9.482172
_cell_angle_alpha 90.000000
_cell_angle_beta 90.000000
_cell_angle_gamma 90.000000
_cell_volume 927.908834
_symmetry_space_group_name_H-M "P 21 21 2"
_symmetry_group_IT_number 18
_symmetry_cell_setting 'orthorhombic'
loop_
_space_group_symop_operation_xyz
x,y,z
-x,-y,z
1/2+x,1/2-y,-z
1/2-x,1/2+y,-z
loop_
_atom_site_type_symbol
_atom_site_label
_atom_site_fract_x
_atom_site_fract_y
_atom_site_fract_z
Si Si1 0.000000 0.500000 0.759472
Si Si2 0.697858 0.502193 0.658870
Si Si3 0.467697 0.283908 0.123880
Si Si4 0.149990 0.245636 0.143605
Si Si5 0.116623 0.145231 0.593129
Si Si6 0.565670 0.761605 0.652549
O O1 0.136598 0.471010 0.665736
O O2 0.977316 0.371268 0.850550
O O3 0.683478 0.371366 0.748153
O O4 0.643365 0.482314 0.500269
O O5 0.609023 0.621147 0.717197
O O6 0.300055 0.311569 0.107066
O O7 0.532964 0.352654 0.260967
O O8 0.570199 0.308442 0.992758
O O9 0.035118 0.328368 0.232412
O O10 0.279770 0.185055 0.619104
O O11 0.026479 0.238164 0.488278
#
# Coordination Sequence:
#
# PCOD9312175 Si02
#       6
#     2   4   4   4   4   4
#     4  10  20  40  64  94 118 170 200 260 304 390
#     4  10  22  40  66  92 124 166 215 241 322 369
#     4  11  22  40  65  91 124 160 213 256 312 364
#     4  10  22  39  64  90 120 165 206 254 313 370
#     4  11  21  36  65  93 124 163 205 258 300 366
#     4  11  21  40  64  92 126 167 205 254 309 374
#
# _framework density 23.709225
#
# number of rings (size 3 to 8) (size 9 to 14) (size 15 to 20)
#    0.000    1.455    1.818    6.545    0.000    0.000 
#    0.000    3.636   32.000    1.091    0.000    0.000 
#    0.000    0.000    0.000    0.000    0.000    0.000 
#
# Total GULP energy -122877.251191 kJ/mol
# GULP energy per Si atom -5585.329600 kJ/mol
# Density = 2.365526 g / cm^3
# Si number density = 23.709225 Si / 1000 Ang^3
#
#
#
# Elastic Constant Matrix: (Units=GPa)
#
#
# Indices 1 2 3 4 5 6 
#
# 1 229.3593 -15.8379 62.2500 0.0000 0.0000 0.0000
# 2 -15.8379 36.3402 -17.9831 0.0000 0.0000 0.0000
# 3 62.2500 -17.9831 142.0634 0.0000 0.0000 0.0000
# 4 0.0000 0.0000 0.0000 11.6384 0.0000 0.0000
# 5 0.0000 0.0000 0.0000 0.0000 48.8502 0.0000
# 6 0.0000 0.0000 0.0000 0.0000 0.0000 22.8589
#
#
#
# Elastic Compliance Matrix: (Units=1/GPa)
#
#
# Indices 1 2 3 4 5 6 
#
# 1 0.004994 0.001167 -0.002041 0.000000 0.000000 0.000000
# 2 0.001167 0.029629 0.003239 0.000000 0.000000 0.000000
# 3 -0.002041 0.003239 0.008343 0.000000 0.000000 0.000000
# 4 0.000000 0.000000 0.000000 0.085922 0.000000 0.000000
# 5 0.000000 0.000000 0.000000 0.000000 0.020471 0.000000
# 6 0.000000 0.000000 0.000000 0.000000 0.000000 0.043747
#
#
# Mechanical properties :
#
#
# Convention : Reuss Voigt Hill
#
# Bulk Modulus (GPa) = 20.96529 51.62453 36.29491
# Shear Modulus (GPa) = 24.47677 41.95843 33.21760
#
# Velocity S-wave (km/s) = 3.21654 4.21135 3.74711
# Velocity P-wave (km/s) = 4.75991 6.74304 5.83632
#
# Compressibility (1/GPa) = 0.04769788
#
# Stress axis : x y z
#
# Youngs Moduli (GPa) = 200.22313 33.75038 119.85509
#
# Poissons Ratio (x) = -0.03938 0.24460
# Poissons Ratio (y) = -0.23362 -0.38825
# Poissons Ratio (z) = 0.40861 -0.10933
#
# Static dielectric constant tensor:
#      x y z
#    x 1.999240 0.000000 0.000000 
#    y 0.000000 1.694860 0.000000 
#    z 0.000000 0.000000 1.884570 
# 
# From -- ./inp_files/3143.got.cif
#   From: 2010.05.17/outbox.cif.g08.bks.cpg/sg18_2_cif.got.tgz:3143.got - 2010.06.03 22:40:56.
