data_PCOD9312374
_publ_section_title
;
Structure prediction by ZEFSAII (Michael W. Deem and Ramdas Pophale) SiO2 
 PCOD9312374
Probable space group: P 21 21 2
;
_chemical_formula_sum "Si O2"
_cell_formula_units_Z 32
_cell_length_a 11.844530
_cell_length_b 8.871748
_cell_length_c 13.923506
_cell_angle_alpha 90.000000
_cell_angle_beta 90.000000
_cell_angle_gamma 90.000000
_cell_volume 1463.105476
_symmetry_space_group_name_H-M "P 21 21 2"
_symmetry_group_IT_number 18
_symmetry_cell_setting 'orthorhombic'
loop_
_space_group_symop_operation_xyz
x,y,z
-x,-y,z
1/2+x,1/2-y,-z
1/2-x,1/2+y,-z
loop_
_atom_site_type_symbol
_atom_site_label
_atom_site_fract_x
_atom_site_fract_y
_atom_site_fract_z
Si Si1 0.223881 0.898675 0.150823
Si Si2 0.938360 0.656711 0.460469
Si Si3 0.146756 0.225768 0.150673
Si Si4 0.700044 0.022467 0.712551
Si Si5 0.523565 0.174522 0.187230
Si Si6 0.577492 0.364104 0.364875
Si Si7 0.466303 0.323966 0.998888
Si Si8 0.438071 0.271265 0.709206
O O1 0.345142 0.824146 0.155212
O O2 0.142788 0.824930 0.070245
O O3 0.162984 0.874104 0.253884
O O4 0.221350 0.077830 0.134434
O O5 0.844936 0.613084 0.380808
O O6 0.893564 0.748207 0.550576
O O7 0.000000 0.500000 0.488283
O O8 0.027985 0.760022 0.401569
O O9 0.210156 0.366636 0.197113
O O10 0.070826 0.254644 0.057023
O O11 0.048306 0.187883 0.229147
O O12 0.812377 0.936182 0.683316
O O13 0.604784 0.897248 0.734726
O O14 0.511225 0.273279 0.282348
O O15 0.500000 0.000000 0.206466
O O16 0.453235 0.243680 0.099951
O O17 0.500000 0.500000 0.401353
O O18 0.500000 0.500000 0.011197
#
# Coordination Sequence:
#
# PCOD9312374 Si02
#       8
#     4   4   4   4   4   4   4   4
#     4  10  21  41  68  99 132 173 222 275 331 393
#     4   9  21  42  67  95 128 167 224 284 321 391
#     4   9  19  37  67 102 128 164 217 285 329 383
#     4  10  21  40  67  98 127 170 222 279 342 387
#     4  12  27  45  64  99 139 183 222 272 331 398
#     4  12  27  45  61  93 138 187 216 267 342 407
#     4   9  21  43  66  98 132 170 226 270 325 393
#     4   9  17  39  68  98 126 164 224 281 330 379
#
# _framework density 21.871286999999999
#
# number of rings (size 3 to 8) (size 9 to 14) (size 15 to 20)
#    0.000    2.000    1.250    3.000    1.750    8.000 
#    9.000    0.000    0.000    0.000    0.000    0.000 
#    0.000    0.000    0.000    0.000    0.000    0.000 
#
# Total GULP energy -178810.343297 kJ/mol
# GULP energy per Si atom -5587.823228 kJ/mol
# Density = 2.182151 g / cm^3
# Si number density = 21.871287 Si / 1000 Ang^3
#
#
#
# Elastic Constant Matrix: (Units=GPa)
#
#
# Indices 1 2 3 4 5 6 
#
# 1 55.0234 18.3183 6.8881 0.0000 0.0000 0.0000
# 2 18.3183 68.6315 56.2468 0.0000 0.0000 0.0000
# 3 6.8881 56.2468 91.7540 0.0000 0.0000 0.0000
# 4 0.0000 0.0000 0.0000 31.0773 0.0000 0.0000
# 5 0.0000 0.0000 0.0000 0.0000 16.2948 0.0000
# 6 0.0000 0.0000 0.0000 0.0000 0.0000 35.2660
#
#
#
# Elastic Compliance Matrix: (Units=1/GPa)
#
#
# Indices 1 2 3 4 5 6 
#
# 1 0.020539 -0.008477 0.003655 0.000000 0.000000 0.000000
# 2 -0.008477 0.032780 -0.019459 0.000000 0.000000 0.000000
# 3 0.003655 -0.019459 0.022553 0.000000 0.000000 0.000000
# 4 0.000000 0.000000 0.000000 0.032178 0.000000 0.000000
# 5 0.000000 0.000000 0.000000 0.000000 0.061369 0.000000
# 6 0.000000 0.000000 0.000000 0.000000 0.000000 0.028356
#
#
# Mechanical properties :
#
#
# Convention : Reuss Voigt Hill
#
# Bulk Modulus (GPa) = 36.61664 42.03503 39.32583
# Shear Modulus (GPa) = 19.57404 25.45800 22.51602
#
# Velocity S-wave (km/s) = 2.99484 3.41543 3.21203
# Velocity P-wave (km/s) = 5.36069 5.90039 5.63700
#
# Compressibility (1/GPa) = 0.02730999
#
# Stress axis : x y z
#
# Youngs Moduli (GPa) = 48.68832 30.50599 44.34043
#
# Poissons Ratio (x) = 0.25861 -0.16206
# Poissons Ratio (y) = 0.41274 0.86280
# Poissons Ratio (z) = -0.17795 0.59360
#
# Static dielectric constant tensor:
#      x y z
#    x 1.831490 0.000000 0.000000 
#    y 0.000000 1.801370 0.000000 
#    z 0.000000 0.000000 1.775350 
# 
# From -- ./inp_files/6912.got.cif
#   From: 2010.05.17/outbox.cif.g08.bks.cpg/sg18_4_cif.got.tgz:6912.got - 2010.06.03 22:40:56.
