data_PCOD9312432
_publ_section_title
;
Structure prediction by ZEFSAII (Michael W. Deem and Ramdas Pophale) SiO2 
 PCOD9312432
Probable space group: P 21 21 2
;
_chemical_formula_sum "Si O2"
_cell_formula_units_Z 18
_cell_length_a 14.026679
_cell_length_b 5.211902
_cell_length_c 11.170551
_cell_angle_alpha 90.000000
_cell_angle_beta 90.000000
_cell_angle_gamma 90.000000
_cell_volume 816.630686
_symmetry_space_group_name_H-M "P 21 21 2"
_symmetry_group_IT_number 18
_symmetry_cell_setting 'orthorhombic'
loop_
_space_group_symop_operation_xyz
x,y,z
-x,-y,z
1/2+x,1/2-y,-z
1/2-x,1/2+y,-z
loop_
_atom_site_type_symbol
_atom_site_label
_atom_site_fract_x
_atom_site_fract_y
_atom_site_fract_z
Si Si1 0.438667 0.739313 0.399976
Si Si2 0.500000 0.500000 0.025764
Si Si3 0.346900 0.130083 0.942443
Si Si4 0.654207 0.188781 0.162471
Si Si5 0.500000 0.500000 0.623077
Si Si6 0.000000 0.500000 0.222440
O O1 0.500000 0.500000 0.346900
O O2 0.357797 0.812385 0.304728
O O3 0.580279 0.385278 0.530924
O O4 0.500000 0.000000 0.415707
O O5 0.416667 0.372704 0.948252
O O6 0.555438 0.298088 0.109153
O O7 0.246497 0.154958 0.878602
O O8 0.410956 0.936607 0.864223
O O9 0.332354 0.064628 0.082183
O O10 0.473577 0.249227 0.698894
#
# Coordination Sequence:
#
# PCOD9312432 Si02
#       6
#     4   2   4   4   2   2
#     4  10  21  42  72  97 128 186 235 292 337 399
#     4  12  20  44  60  96 148 180 222 284 354 430
#     4  12  26  38  69 105 143 185 227 296 372 440
#     4  12  24  42  67 106 141 180 238 286 364 440
#     4  10  22  46  70  98 132 190 246 278 350 412
#     4  12  24  44  68 100 146 186 224 296 360 418
#
# _framework density 22.041786999999999
#
# number of rings (size 3 to 8) (size 9 to 14) (size 15 to 20)
#    0.667    0.000    6.667    2.000    0.000    0.000 
#    0.000    2.222    0.000    0.000    0.000    0.000 
#    0.000    0.000    0.000    0.000    0.000    0.000 
#
# Total GULP energy -100220.160428 kJ/mol
# GULP energy per Si atom -5567.786690 kJ/mol
# Density = 2.199162 g / cm^3
# Si number density = 22.041787 Si / 1000 Ang^3
#
#
#
# Elastic Constant Matrix: (Units=GPa)
#
#
# Indices 1 2 3 4 5 6 
#
# 1 81.8816 18.8401 10.5907 0.0000 0.0000 0.0000
# 2 18.8401 118.2340 34.6887 0.0000 0.0000 0.0000
# 3 10.5907 34.6887 109.1859 0.0000 0.0000 0.0000
# 4 0.0000 0.0000 0.0000 16.3840 0.0000 0.0000
# 5 0.0000 0.0000 0.0000 0.0000 58.9270 0.0000
# 6 0.0000 0.0000 0.0000 0.0000 0.0000 29.1935
#
#
#
# Elastic Compliance Matrix: (Units=1/GPa)
#
#
# Indices 1 2 3 4 5 6 
#
# 1 0.012719 -0.001836 -0.000650 0.000000 0.000000 0.000000
# 2 -0.001836 0.009592 -0.002869 0.000000 0.000000 0.000000
# 3 -0.000650 -0.002869 0.010133 0.000000 0.000000 0.000000
# 4 0.000000 0.000000 0.000000 0.061035 0.000000 0.000000
# 5 0.000000 0.000000 0.000000 0.000000 0.016970 0.000000
# 6 0.000000 0.000000 0.000000 0.000000 0.000000 0.034254
#
#
# Mechanical properties :
#
#
# Convention : Reuss Voigt Hill
#
# Bulk Modulus (GPa) = 46.01220 48.61559 47.31389
# Shear Modulus (GPa) = 30.73884 37.24634 33.99259
#
# Velocity S-wave (km/s) = 3.73845 4.11518 3.93133
# Velocity P-wave (km/s) = 6.28927 6.68458 6.48994
#
# Compressibility (1/GPa) = 0.02173337
#
# Stress axis : x y z
#
# Youngs Moduli (GPa) = 78.62058 104.25129 98.68355
#
# Poissons Ratio (x) = 0.19140 0.06419
# Poissons Ratio (y) = 0.14434 0.28316
# Poissons Ratio (z) = 0.05114 0.29914
#
# Static dielectric constant tensor:
#      x y z
#    x 1.823800 0.000000 0.000000 
#    y 0.000000 1.824630 0.000000 
#    z 0.000000 0.000000 1.901680 
# 
# From -- ./inp_files/5053.got.cif
#   From: 2010.05.17/outbox.cif.g08.bks.cpg/sg18_3_cif.got.tgz:5053.got - 2010.06.03 22:40:56.
