data_PCOD9312945
_publ_section_title
;
Structure prediction by ZEFSAII (Michael W. Deem and Ramdas Pophale) SiO2 
 PCOD9312945
Probable space group: P 21 21 2
;
_chemical_formula_sum "Si O2"
_cell_formula_units_Z 16
_cell_length_a 14.411534
_cell_length_b 8.173133
_cell_length_c 5.091988
_cell_angle_alpha 90.000000
_cell_angle_beta 90.000000
_cell_angle_gamma 90.000000
_cell_volume 599.771946
_symmetry_space_group_name_H-M "P 21 21 2"
_symmetry_group_IT_number 18
_symmetry_cell_setting 'orthorhombic'
loop_
_space_group_symop_operation_xyz
x,y,z
-x,-y,z
1/2+x,1/2-y,-z
1/2-x,1/2+y,-z
loop_
_atom_site_type_symbol
_atom_site_label
_atom_site_fract_x
_atom_site_fract_y
_atom_site_fract_z
Si Si1 0.438089 0.136628 0.700733
Si Si2 0.063910 0.154843 0.641933
Si Si3 0.743892 0.486730 0.512125
Si Si4 0.154011 0.925841 0.988371
O O1 0.502247 0.197762 0.458437
O O2 0.342441 0.064830 0.591160
O O3 0.500000 0.000000 0.841697
O O4 0.408695 0.283705 0.893680
O O5 0.164036 0.154488 0.502257
O O6 0.096287 0.093669 0.931971
O O7 0.000000 0.000000 0.556050
O O8 0.696275 0.608805 0.298082
O O9 0.736945 0.548157 0.807443
#
# Coordination Sequence:
#
# PCOD9312945 Si02
#       4
#     4   4   4   4
#     4  12  27  52  87 133 160 217 306 355 411 516
#     4  10  24  48  83 107 165 222 264 326 438 497
#     4  10  26  48  81 110 170 215 270 334 431 496
#     4  10  25  52  74 115 167 226 257 346 436 493
#
# _framework density 26.676807
#
# number of rings (size 3 to 8) (size 9 to 14) (size 15 to 20)
#    1.500    0.000    2.500    0.000    7.000    4.000 
#    4.500    8.750    0.000    0.000    0.000    0.000 
#    0.000    0.000    0.000    0.000    0.000    0.000 
#
# Total GULP energy -89401.003834 kJ/mol
# GULP energy per Si atom -5587.562740 kJ/mol
# Density = 2.661609 g / cm^3
# Si number density = 26.676807 Si / 1000 Ang^3
#
#
#
# Elastic Constant Matrix: (Units=GPa)
#
#
# Indices 1 2 3 4 5 6 
#
# 1 187.3774 48.4278 38.2523 0.0000 0.0000 0.0000
# 2 48.4278 83.7507 50.2660 0.0000 0.0000 0.0000
# 3 38.2523 50.2660 131.9567 0.0000 0.0000 0.0000
# 4 0.0000 0.0000 0.0000 30.1350 0.0000 0.0000
# 5 0.0000 0.0000 0.0000 0.0000 25.7286 0.0000
# 6 0.0000 0.0000 0.0000 0.0000 0.0000 54.1229
#
#
#
# Elastic Compliance Matrix: (Units=1/GPa)
#
#
# Indices 1 2 3 4 5 6 
#
# 1 0.006307 -0.003305 -0.000569 0.000000 0.000000 0.000000
# 2 -0.003305 0.017211 -0.005598 0.000000 0.000000 0.000000
# 3 -0.000569 -0.005598 0.009876 0.000000 0.000000 0.000000
# 4 0.000000 0.000000 0.000000 0.033184 0.000000 0.000000
# 5 0.000000 0.000000 0.000000 0.000000 0.038867 0.000000
# 6 0.000000 0.000000 0.000000 0.000000 0.000000 0.018476
#
#
# Mechanical properties :
#
#
# Convention : Reuss Voigt Hill
#
# Bulk Modulus (GPa) = 69.20973 75.21968 72.21471
# Shear Modulus (GPa) = 33.85601 39.73989 36.79795
#
# Velocity S-wave (km/s) = 3.56633 3.86382 3.71805
# Velocity P-wave (km/s) = 6.55427 6.93998 6.74988
#
# Compressibility (1/GPa) = 0.01444883
#
# Stress axis : x y z
#
# Youngs Moduli (GPa) = 158.54547 58.10076 101.25818
#
# Poissons Ratio (x) = 0.19205 0.05764
# Poissons Ratio (y) = 0.52407 0.56686
# Poissons Ratio (z) = 0.09025 0.32526
#
# Static dielectric constant tensor:
#      x y z
#    x 2.043340 0.000000 0.000000 
#    y 0.000000 2.226060 0.000000 
#    z 0.000000 0.000000 2.058730 
# 
# From -- ./inp_files/1706.got.cif
#   From: 2010.05.17/outbox.cif.g08.bks.cpg/sg18_1_cif.got.tgz:1706.got - 2010.06.03 22:40:56.
