data_PCOD9312122
_publ_section_title
;
Structure prediction by ZEFSAII (Michael W. Deem and Ramdas Pophale) SiO2 
 PCOD9312122
Probable space group: P 21 21 2
;
_chemical_formula_sum "Si O2"
_cell_formula_units_Z 28
_cell_length_a 14.236019
_cell_length_b 12.463253
_cell_length_c 7.733191
_cell_angle_alpha 90.000000
_cell_angle_beta 90.000000
_cell_angle_gamma 90.000000
_cell_volume 1372.077703
_symmetry_space_group_name_H-M "P 21 21 2"
_symmetry_group_IT_number 18
_symmetry_cell_setting 'orthorhombic'
loop_
_space_group_symop_operation_xyz
x,y,z
-x,-y,z
1/2+x,1/2-y,-z
1/2-x,1/2+y,-z
loop_
_atom_site_type_symbol
_atom_site_label
_atom_site_fract_x
_atom_site_fract_y
_atom_site_fract_z
Si Si1 0.027138 0.224040 0.004108
Si Si2 0.637581 0.581988 0.931260
Si Si3 0.411193 0.068559 0.938218
Si Si4 0.713999 0.952587 0.256549
Si Si5 0.716064 0.991058 0.631799
Si Si6 0.225791 0.285939 0.168102
Si Si7 0.911700 0.934754 0.737853
O O1 0.122049 0.258182 0.099138
O O2 0.963806 0.134445 0.101956
O O3 0.957126 0.323075 0.994939
O O4 0.053412 0.177447 0.815454
O O5 0.690862 0.519704 0.780486
O O6 0.708011 0.671094 0.012346
O O7 0.621098 0.498142 0.088033
O O8 0.500000 0.000000 0.879596
O O9 0.340634 0.074052 0.777628
O O10 0.354367 0.017859 0.097540
O O11 0.733670 0.825310 0.241810
O O12 0.673519 0.982454 0.442140
O O13 0.721941 0.114069 0.698705
O O14 0.820103 0.939213 0.621238
O O15 0.000000 0.000000 0.664429
#
# Coordination Sequence:
#
# PCOD9312122 Si02
#       7
#     4   4   4   4   4   4   4
#     4  11  20  37  74  92 129 180 221 272 347 385
#     4  10  20  38  70  94 126 173 222 274 331 400
#     4  12  23  43  68  97 135 181 224 279 333 411
#     4  12  24  44  70  97 136 178 227 276 349 402
#     4  11  25  44  66  96 143 174 223 283 338 403
#     4  11  21  43  65  96 135 171 221 280 328 399
#     4   9  19  40  65  96 127 168 221 282 326 397
#
# _framework density 20.407007
#
# number of rings (size 3 to 8) (size 9 to 14) (size 15 to 20)
#    0.000    1.143    7.143    0.000    0.000    1.714 
#    5.143    0.000    0.000    0.000    0.000    0.000 
#    0.000    0.000    0.000    0.000    0.000    0.000 
#
# Total GULP energy -156299.469643 kJ/mol
# GULP energy per Si atom -5582.123916 kJ/mol
# Density = 2.036056 g / cm^3
# Si number density = 20.407007 Si / 1000 Ang^3
#
#
#
# Elastic Constant Matrix: (Units=GPa)
#
#
# Indices 1 2 3 4 5 6 
#
# 1 98.4709 14.9868 25.5068 0.0000 0.0000 0.0000
# 2 14.9868 81.8262 3.1974 0.0000 0.0000 0.0000
# 3 25.5068 3.1974 78.0600 0.0000 0.0000 0.0000
# 4 0.0000 0.0000 0.0000 16.0612 0.0000 0.0000
# 5 0.0000 0.0000 0.0000 0.0000 0.3767 0.0000
# 6 0.0000 0.0000 0.0000 0.0000 0.0000 45.6833
#
#
#
# Elastic Compliance Matrix: (Units=1/GPa)
#
#
# Indices 1 2 3 4 5 6 
#
# 1 0.011395 -0.001945 -0.003644 0.000000 0.000000 0.000000
# 2 -0.001945 0.012572 0.000120 0.000000 0.000000 0.000000
# 3 -0.003644 0.000120 0.013996 0.000000 0.000000 0.000000
# 4 0.000000 0.000000 0.000000 0.062262 0.000000 0.000000
# 5 0.000000 0.000000 0.000000 0.000000 2.654435 0.000000
# 6 0.000000 0.000000 0.000000 0.000000 0.000000 0.021890
#
#
# Mechanical properties :
#
#
# Convention : Reuss Voigt Hill
#
# Bulk Modulus (GPa) = 36.99874 38.41544 37.70709
# Shear Modulus (GPa) = 1.78795 26.73530 14.26163
#
# Velocity S-wave (km/s) = 0.93704 3.62346 2.64646
# Velocity P-wave (km/s) = 4.39778 6.03088 5.27788
#
# Compressibility (1/GPa) = 0.02702795
#
# Stress axis : x y z
#
# Youngs Moduli (GPa) = 87.75697 79.53872 71.44708
#
# Poissons Ratio (x) = 0.15468 0.26034
# Poissons Ratio (y) = 0.17066 -0.00861
# Poissons Ratio (z) = 0.31977 -0.00958
#
# Static dielectric constant tensor:
#      x y z
#    x 1.753770 0.000000 0.000000 
#    y 0.000000 1.792980 0.000000 
#    z 0.000000 0.000000 1.686380 
# 
# From -- ./inp_files/4332.got.cif
#   From: 2010.05.17/outbox.cif.g08.bks.cpg/sg18_3_cif.got.tgz:4332.got - 2010.06.03 22:40:56.
