data_PCOD9312930
_publ_section_title
;
Structure prediction by ZEFSAII (Michael W. Deem and Ramdas Pophale) SiO2 
 PCOD9312930
Probable space group: P 21 21 2
;
_chemical_formula_sum "Si O2"
_cell_formula_units_Z 18
_cell_length_a 12.711180
_cell_length_b 7.019624
_cell_length_c 8.812840
_cell_angle_alpha 90.000000
_cell_angle_beta 90.000000
_cell_angle_gamma 90.000000
_cell_volume 786.349481
_symmetry_space_group_name_H-M "P 21 21 2"
_symmetry_group_IT_number 18
_symmetry_cell_setting 'orthorhombic'
loop_
_space_group_symop_operation_xyz
x,y,z
-x,-y,z
1/2+x,1/2-y,-z
1/2-x,1/2+y,-z
loop_
_atom_site_type_symbol
_atom_site_label
_atom_site_fract_x
_atom_site_fract_y
_atom_site_fract_z
Si Si1 0.262241 0.545072 0.680243
Si Si2 0.103187 0.790654 0.508619
Si Si3 0.588584 0.342486 0.919309
Si Si4 0.500000 0.000000 0.722417
Si Si5 0.565770 0.192370 0.250468
O O1 0.203298 0.723340 0.607281
O O2 0.361788 0.476658 0.582614
O O3 0.301993 0.585873 0.849530
O O4 0.176180 0.377763 0.682871
O O5 0.074588 0.625726 0.386812
O O6 0.006412 0.793655 0.625043
O O7 0.500000 0.500000 0.886139
O O8 0.560655 0.149775 0.828465
O O9 0.586993 0.307253 0.098120
O O10 0.500000 0.000000 0.210546
#
# Coordination Sequence:
#
# PCOD9312930 Si02
#       5
#     4   4   4   2   4
#     4  11  24  41  75 107 134 190 245 278 362 433
#     4  11  23  45  72 103 145 184 234 305 350 418
#     4  12  26  43  73 103 140 190 236 288 360 426
#     4  12  22  46  72  98 146 180 224 306 346 416
#     4  10  24  47  68  99 150 182 228 304 356 410
#
# _framework density 22.890588000000001
#
# number of rings (size 3 to 8) (size 9 to 14) (size 15 to 20)
#    0.000    0.889    6.667    1.333    0.000    7.111 
#    0.000    0.000    0.000    0.000    0.000    0.000 
#    0.000    0.000    0.000    0.000    0.000    0.000 
#
# Total GULP energy -100788.020577 kJ/mol
# GULP energy per Si atom -5599.334476 kJ/mol
# Density = 2.283849 g / cm^3
# Si number density = 22.890588 Si / 1000 Ang^3
#
#
#
# Elastic Constant Matrix: (Units=GPa)
#
#
# Indices 1 2 3 4 5 6 
#
# 1 91.1229 18.6826 57.0141 0.0000 0.0000 0.0000
# 2 18.6826 62.7788 29.5359 0.0000 0.0000 0.0000
# 3 57.0141 29.5359 149.2172 0.0000 0.0000 0.0000
# 4 0.0000 0.0000 0.0000 54.1170 0.0000 0.0000
# 5 0.0000 0.0000 0.0000 0.0000 25.1579 0.0000
# 6 0.0000 0.0000 0.0000 0.0000 0.0000 13.9550
#
#
#
# Elastic Compliance Matrix: (Units=1/GPa)
#
#
# Indices 1 2 3 4 5 6 
#
# 1 0.014625 -0.001900 -0.005212 0.000000 0.000000 0.000000
# 2 -0.001900 0.017812 -0.002800 0.000000 0.000000 0.000000
# 3 -0.005212 -0.002800 0.009247 0.000000 0.000000 0.000000
# 4 0.000000 0.000000 0.000000 0.018478 0.000000 0.000000
# 5 0.000000 0.000000 0.000000 0.000000 0.039749 0.000000
# 6 0.000000 0.000000 0.000000 0.000000 0.000000 0.071659
#
#
# Mechanical properties :
#
#
# Convention : Reuss Voigt Hill
#
# Bulk Modulus (GPa) = 45.74503 57.06490 51.40496
# Shear Modulus (GPa) = 25.16617 31.83840 28.50228
#
# Velocity S-wave (km/s) = 3.31933 3.73352 3.53250
# Velocity P-wave (km/s) = 5.89222 6.60069 6.25649
#
# Compressibility (1/GPa) = 0.02186030
#
# Stress axis : x y z
#
# Youngs Moduli (GPa) = 68.37735 56.14332 108.14143
#
# Poissons Ratio (x) = 0.10668 0.56361
# Poissons Ratio (y) = 0.12993 0.30275
# Poissons Ratio (z) = 0.35637 0.15718
#
# Static dielectric constant tensor:
#      x y z
#    x 1.835770 0.000000 0.000000 
#    y 0.000000 1.868450 0.000000 
#    z 0.000000 0.000000 1.823100 
# 
# From -- ./inp_files/2960.got.cif
#   From: 2010.05.17/outbox.cif.g08.bks.cpg/sg18_2_cif.got.tgz:2960.got - 2010.06.03 22:40:56.
