data_PCOD9312061
_publ_section_title
;
Structure prediction by ZEFSAII (Michael W. Deem and Ramdas Pophale) SiO2 
 PCOD9312061
Probable space group: P 21 21 2
;
_chemical_formula_sum "Si O2"
_cell_formula_units_Z 28
_cell_length_a 8.649510
_cell_length_b 20.342103
_cell_length_c 8.473160
_cell_angle_alpha 90.000000
_cell_angle_beta 90.000000
_cell_angle_gamma 90.000000
_cell_volume 1490.845921
_symmetry_space_group_name_H-M "P 21 21 2"
_symmetry_group_IT_number 18
_symmetry_cell_setting 'orthorhombic'
loop_
_space_group_symop_operation_xyz
x,y,z
-x,-y,z
1/2+x,1/2-y,-z
1/2-x,1/2+y,-z
loop_
_atom_site_type_symbol
_atom_site_label
_atom_site_fract_x
_atom_site_fract_y
_atom_site_fract_z
Si Si1 0.687796 0.180632 0.333253
Si Si2 0.882101 0.551868 0.842712
Si Si3 0.653833 0.205900 0.697664
Si Si4 0.915063 0.369418 0.084834
Si Si5 0.863081 0.956283 0.010641
Si Si6 0.443521 0.255168 0.128807
Si Si7 0.023363 0.170816 0.177278
O O1 0.635722 0.108616 0.282633
O O2 0.692390 0.187374 0.520048
O O3 0.565025 0.232174 0.260782
O O4 0.852145 0.183762 0.245129
O O5 0.734646 0.511030 0.896189
O O6 0.000000 0.500000 0.774028
O O7 0.959589 0.584149 0.998248
O O8 0.506402 0.165992 0.770037
O O9 0.805089 0.199647 0.807574
O O10 0.625807 0.284752 0.706890
O O11 0.759291 0.413989 0.096828
O O12 0.883538 0.310858 0.958980
O O13 0.930798 0.903607 0.137593
O O14 0.000000 0.000000 0.932541
O O15 0.530146 0.294029 0.992229
#
# Coordination Sequence:
#
# PCOD9312061 Si02
#       7
#     4   4   4   4   4   4   4
#     4  11  22  37  59  92 123 161 198 254 323 371
#     4   9  19  37  59  83 115 160 215 250 292 373
#     4  11  22  37  60  91 126 156 196 266 327 366
#     4   9  20  37  60  88 117 156 208 257 307 362
#     4  11  20  35  63  93 113 160 220 259 298 364
#     4  10  20  37  60  88 119 157 202 259 309 367
#     4  11  21  37  62  91 119 160 209 260 309 372
#
# _framework density 18.781282999999998
#
# number of rings (size 3 to 8) (size 9 to 14) (size 15 to 20)
#    0.000    1.714    2.857    3.429    2.000    0.000 
#    0.000    2.143    0.000    5.143    0.000    0.000 
#    0.000    0.000    0.000    0.000    0.000    0.000 
#
# Total GULP energy -155957.794672 kJ/mol
# GULP energy per Si atom -5569.921238 kJ/mol
# Density = 1.873854 g / cm^3
# Si number density = 18.781283 Si / 1000 Ang^3
#
#
#
# Elastic Constant Matrix: (Units=GPa)
#
#
# Indices 1 2 3 4 5 6 
#
# 1 87.8131 37.7991 17.8988 0.0000 0.0000 0.0000
# 2 37.7991 90.3739 28.1849 0.0000 0.0000 0.0000
# 3 17.8988 28.1849 59.1864 0.0000 0.0000 0.0000
# 4 0.0000 0.0000 0.0000 16.5543 0.0000 0.0000
# 5 0.0000 0.0000 0.0000 0.0000 12.1546 0.0000
# 6 0.0000 0.0000 0.0000 0.0000 0.0000 45.2754
#
#
#
# Elastic Compliance Matrix: (Units=1/GPa)
#
#
# Indices 1 2 3 4 5 6 
#
# 1 0.014033 -0.005339 -0.001701 0.000000 0.000000 0.000000
# 2 -0.005339 0.015026 -0.005541 0.000000 0.000000 0.000000
# 3 -0.001701 -0.005541 0.020049 0.000000 0.000000 0.000000
# 4 0.000000 0.000000 0.000000 0.060407 0.000000 0.000000
# 5 0.000000 0.000000 0.000000 0.000000 0.082273 0.000000
# 6 0.000000 0.000000 0.000000 0.000000 0.000000 0.022087
#
#
# Mechanical properties :
#
#
# Convention : Reuss Voigt Hill
#
# Bulk Modulus (GPa) = 41.76125 45.01545 43.38835
# Shear Modulus (GPa) = 20.24134 25.02956 22.63545
#
# Velocity S-wave (km/s) = 3.28646 3.65456 3.47538
# Velocity P-wave (km/s) = 6.05681 6.46746 6.26550
#
# Compressibility (1/GPa) = 0.02394564
#
# Stress axis : x y z
#
# Youngs Moduli (GPa) = 71.26261 66.55083 49.87785
#
# Poissons Ratio (x) = 0.35529 0.08486
# Poissons Ratio (y) = 0.38044 0.27638
# Poissons Ratio (z) = 0.12125 0.36876
#
# Static dielectric constant tensor:
#      x y z
#    x 1.775180 0.000000 0.000000 
#    y 0.000000 1.707100 0.000000 
#    z 0.000000 0.000000 1.601910 
# 
# From -- ./inp_files/3455.got.cif
#   From: 2010.05.17/outbox.cif.g08.bks.cpg/sg18_2_cif.got.tgz:3455.got - 2010.06.03 22:40:56.
