data_PCOD9312277
_publ_section_title
;
Structure prediction by ZEFSAII (Michael W. Deem and Ramdas Pophale) SiO2 
 PCOD9312277
Probable space group: P 21 21 2
;
_chemical_formula_sum "Si O2"
_cell_formula_units_Z 30
_cell_length_a 5.465986
_cell_length_b 16.633133
_cell_length_c 14.838997
_cell_angle_alpha 90.000000
_cell_angle_beta 90.000000
_cell_angle_gamma 90.000000
_cell_volume 1349.109257
_symmetry_space_group_name_H-M "P 21 21 2"
_symmetry_group_IT_number 18
_symmetry_cell_setting 'orthorhombic'
loop_
_space_group_symop_operation_xyz
x,y,z
-x,-y,z
1/2+x,1/2-y,-z
1/2-x,1/2+y,-z
loop_
_atom_site_type_symbol
_atom_site_label
_atom_site_fract_x
_atom_site_fract_y
_atom_site_fract_z
Si Si1 0.949658 0.226948 0.607550
Si Si2 0.000000 0.500000 0.602581
Si Si3 0.757513 0.693906 0.884752
Si Si4 0.329288 0.628405 0.534021
Si Si5 0.584762 0.683635 0.210595
Si Si6 0.969498 0.645449 0.063670
Si Si7 0.743851 0.953179 0.809408
Si Si8 0.300099 0.357654 0.691304
O O1 0.004729 0.147159 0.551376
O O2 0.170620 0.276639 0.654109
O O3 0.838759 0.292059 0.539407
O O4 0.789531 0.204653 0.694970
O O5 0.814971 0.453872 0.536698
O O6 0.877387 0.568102 0.665136
O O7 0.590766 0.765922 0.924970
O O8 0.645867 0.650787 0.797139
O O9 0.995021 0.738094 0.842859
O O10 0.844621 0.639473 0.967121
O O11 0.468058 0.628648 0.628913
O O12 0.766646 0.640416 0.142059
O O13 0.340645 0.631175 0.233054
O O14 0.166011 0.577853 0.090631
O O15 0.500000 0.000000 0.773797
O O16 0.000000 0.000000 0.806130
#
# Coordination Sequence:
#
# PCOD9312277 Si02
#       8
#     4   2   4   4   4   4   4   4
#     4  10  21  37  67  98 124 167 224 269 343 407
#     4  10  24  40  62  90 138 176 218 278 344 410
#     4  10  21  36  65  97 124 169 217 279 333 396
#     4  11  20  41  66  95 132 172 220 282 342 415
#     4  10  21  39  62  94 127 168 218 280 330 400
#     4  11  20  38  67  95 134 167 227 278 338 394
#     4  11  23  43  63  88 130 185 216 271 338 403
#     4  10  21  41  62  91 133 173 216 275 335 408
#
# _framework density 22.236892999999998
#
# number of rings (size 3 to 8) (size 9 to 14) (size 15 to 20)
#    0.000    1.600    4.000    1.200    0.000    0.000 
#    2.400    1.333    2.933    0.000    0.000    0.000 
#    0.000    0.000    0.000    0.000    0.000    0.000 
#
# Total GULP energy -167288.969525 kJ/mol
# GULP energy per Si atom -5576.298984 kJ/mol
# Density = 2.218628 g / cm^3
# Si number density = 22.236893 Si / 1000 Ang^3
#
#
#
# Elastic Constant Matrix: (Units=GPa)
#
#
# Indices 1 2 3 4 5 6 
#
# 1 59.1505 15.5212 7.8373 0.0000 0.0000 0.0000
# 2 15.5212 71.5909 17.2926 0.0000 0.0000 0.0000
# 3 7.8373 17.2926 109.5733 0.0000 0.0000 0.0000
# 4 0.0000 0.0000 0.0000 14.4227 0.0000 0.0000
# 5 0.0000 0.0000 0.0000 0.0000 18.3122 0.0000
# 6 0.0000 0.0000 0.0000 0.0000 0.0000 21.6864
#
#
#
# Elastic Compliance Matrix: (Units=1/GPa)
#
#
# Indices 1 2 3 4 5 6 
#
# 1 0.017977 -0.003729 -0.000697 0.000000 0.000000 0.000000
# 2 -0.003729 0.015295 -0.002147 0.000000 0.000000 0.000000
# 3 -0.000697 -0.002147 0.009515 0.000000 0.000000 0.000000
# 4 0.000000 0.000000 0.000000 0.069335 0.000000 0.000000
# 5 0.000000 0.000000 0.000000 0.000000 0.054608 0.000000
# 6 0.000000 0.000000 0.000000 0.000000 0.000000 0.046112
#
#
# Mechanical properties :
#
#
# Convention : Reuss Voigt Hill
#
# Bulk Modulus (GPa) = 33.73781 35.73522 34.73651
# Shear Modulus (GPa) = 21.19815 24.19517 22.69666
#
# Velocity S-wave (km/s) = 3.09088 3.30216 3.19827
# Velocity P-wave (km/s) = 5.28612 5.53572 5.41235
#
# Compressibility (1/GPa) = 0.02964034
#
# Stress axis : x y z
#
# Youngs Moduli (GPa) = 55.62684 65.37925 105.09669
#
# Poissons Ratio (x) = 0.24380 0.07328
# Poissons Ratio (y) = 0.20744 0.22566
# Poissons Ratio (z) = 0.03879 0.14038
#
# Static dielectric constant tensor:
#      x y z
#    x 1.911030 0.000000 0.000000 
#    y 0.000000 1.935150 0.000000 
#    z 0.000000 0.000000 1.828200 
# 
# From -- ./inp_files/6530.got.cif
#   From: 2010.05.17/outbox.cif.g08.bks.cpg/sg18_4_cif.got.tgz:6530.got - 2010.06.03 22:40:56.
