data_PCOD9312078
_publ_section_title
;
Structure prediction by ZEFSAII (Michael W. Deem and Ramdas Pophale) SiO2 
 PCOD9312078
Probable space group: P 21 21 2
;
_chemical_formula_sum "Si O2"
_cell_formula_units_Z 32
_cell_length_a 8.156188
_cell_length_b 26.330191
_cell_length_c 7.176033
_cell_angle_alpha 90.000000
_cell_angle_beta 90.000000
_cell_angle_gamma 90.000000
_cell_volume 1541.081704
_symmetry_space_group_name_H-M "P 21 21 2"
_symmetry_group_IT_number 18
_symmetry_cell_setting 'orthorhombic'
loop_
_space_group_symop_operation_xyz
x,y,z
-x,-y,z
1/2+x,1/2-y,-z
1/2-x,1/2+y,-z
loop_
_atom_site_type_symbol
_atom_site_label
_atom_site_fract_x
_atom_site_fract_y
_atom_site_fract_z
Si Si1 0.325836 0.094692 0.112064
Si Si2 0.378518 0.196497 0.644390
Si Si3 0.196061 0.203836 0.001070
Si Si4 0.086506 0.847102 0.769568
Si Si5 0.063833 0.395656 0.195296
Si Si6 0.913222 0.452220 0.502636
Si Si7 0.386236 0.550056 0.215000
Si Si8 0.781070 0.738931 0.370653
O O1 0.281605 0.154057 0.088844
O O2 0.349600 0.081967 0.327464
O O3 0.494393 0.084695 0.998778
O O4 0.191590 0.063611 0.988873
O O5 0.420121 0.141361 0.722713
O O6 0.254085 0.210042 0.483109
O O7 0.550605 0.214754 0.564231
O O8 0.303381 0.223234 0.826527
O O9 0.189290 0.246509 0.156436
O O10 0.024699 0.183560 0.917369
O O11 0.264718 0.867717 0.832596
O O12 0.140187 0.804217 0.618473
O O13 0.983627 0.898239 0.723571
O O14 0.061798 0.434485 0.365286
O O15 0.760553 0.459731 0.361689
O O16 0.000000 0.500000 0.598223
O O17 0.500000 0.500000 0.205801
#
# Coordination Sequence:
#
# PCOD9312078 Si02
#       8
#     4   4   4   4   4   4   4   4
#     4   9  21  38  60  85 115 152 193 240 291 351
#     4  10  21  35  56  81 111 152 190 229 285 345
#     4  10  20  38  58  82 116 152 192 240 292 348
#     4  10  21  38  61  86 116 158 199 241 302 358
#     4   9  20  40  57  81 116 151 193 239 291 349
#     4  11  22  37  61  87 112 151 196 244 301 357
#     4  10  22  41  62  87 123 157 194 249 299 353
#     4  11  21  35  57  85 118 151 192 242 286 347
#
# _framework density 20.764634999999998
#
# number of rings (size 3 to 8) (size 9 to 14) (size 15 to 20)
#    0.000    2.000    0.000    3.750    0.000    4.500 
#    0.000   12.500    0.000    0.000    0.000    0.000 
#    0.000    0.000    0.000    0.000    0.000    0.000 
#
# Total GULP energy -178192.341346 kJ/mol
# GULP energy per Si atom -5568.510667 kJ/mol
# Density = 2.071737 g / cm^3
# Si number density = 20.764635 Si / 1000 Ang^3
#
#
#
# Elastic Constant Matrix: (Units=GPa)
#
#
# Indices 1 2 3 4 5 6 
#
# 1 67.8083 29.2223 10.8220 0.0000 0.0000 0.0000
# 2 29.2223 60.8133 0.4618 0.0000 0.0000 0.0000
# 3 10.8220 0.4618 56.2151 0.0000 0.0000 0.0000
# 4 0.0000 0.0000 0.0000 22.1986 0.0000 0.0000
# 5 0.0000 0.0000 0.0000 0.0000 14.0396 0.0000
# 6 0.0000 0.0000 0.0000 0.0000 0.0000 38.7293
#
#
#
# Elastic Compliance Matrix: (Units=1/GPa)
#
#
# Indices 1 2 3 4 5 6 
#
# 1 0.019317 -0.009255 -0.003643 0.000000 0.000000 0.000000
# 2 -0.009255 0.020879 0.001610 0.000000 0.000000 0.000000
# 3 -0.003643 0.001610 0.018477 0.000000 0.000000 0.000000
# 4 0.000000 0.000000 0.000000 0.045048 0.000000 0.000000
# 5 0.000000 0.000000 0.000000 0.000000 0.071227 0.000000
# 6 0.000000 0.000000 0.000000 0.000000 0.000000 0.025820
#
#
# Mechanical properties :
#
#
# Convention : Reuss Voigt Hill
#
# Bulk Modulus (GPa) = 27.70236 29.53878 28.62057
# Shear Modulus (GPa) = 21.24266 24.61553 22.92910
#
# Velocity S-wave (km/s) = 3.20194 3.44678 3.32661
# Velocity P-wave (km/s) = 5.20000 5.48605 5.34494
#
# Compressibility (1/GPa) = 0.03609801
#
# Stress axis : x y z
#
# Youngs Moduli (GPa) = 51.76737 47.89579 54.12176
#
# Poissons Ratio (x) = 0.44326 0.19715
# Poissons Ratio (y) = 0.47909 -0.08714
# Poissons Ratio (z) = 0.18857 -0.07712
#
# Static dielectric constant tensor:
#      x y z
#    x 1.775590 0.000000 0.000000 
#    y 0.000000 1.831150 0.000000 
#    z 0.000000 0.000000 1.744380 
# 
# From -- ./inp_files/804.got.cif
#   From: 2010.05.17/outbox.cif.g08.bks.cpg/sg18_1_cif.got.tgz:804.got - 2010.06.03 22:40:56.
