data_PCOD9312827
_publ_section_title
;
Structure prediction by ZEFSAII (Michael W. Deem and Ramdas Pophale) SiO2 
 PCOD9312827
Probable space group: P 21 21 2
;
_chemical_formula_sum "Si O2"
_cell_formula_units_Z 20
_cell_length_a 17.032243
_cell_length_b 6.610716
_cell_length_c 7.479387
_cell_angle_alpha 90.000000
_cell_angle_beta 90.000000
_cell_angle_gamma 90.000000
_cell_volume 842.143983
_symmetry_space_group_name_H-M "P 21 21 2"
_symmetry_group_IT_number 18
_symmetry_cell_setting 'orthorhombic'
loop_
_space_group_symop_operation_xyz
x,y,z
-x,-y,z
1/2+x,1/2-y,-z
1/2-x,1/2+y,-z
loop_
_atom_site_type_symbol
_atom_site_label
_atom_site_fract_x
_atom_site_fract_y
_atom_site_fract_z
Si Si1 0.811541 0.877804 0.796969
Si Si2 0.687942 0.129174 0.658658
Si Si3 0.589841 0.038493 0.322459
Si Si4 0.674724 0.547597 0.806526
Si Si5 0.914932 0.400615 0.063439
O O1 0.892549 0.768279 0.746147
O O2 0.777986 0.063795 0.681692
O O3 0.810403 0.945435 0.001366
O O4 0.746202 0.701172 0.769432
O O5 0.645503 0.020720 0.493458
O O6 0.673214 0.368208 0.663891
O O7 0.645279 0.046528 0.836136
O O8 0.500000 0.000000 0.374931
O O9 0.605096 0.899838 0.147680
O O10 0.597993 0.685709 0.840685
O O11 0.000000 0.500000 0.079968
#
# Coordination Sequence:
#
# PCOD9312827 Si02
#       5
#     4   4   4   4   4
#     4  11  22  41  71 105 134 186 245 305 356 439
#     4  11  24  42  72 103 139 185 251 303 362 431
#     4  11  25  46  69 103 150 190 238 304 377 449
#     4  11  21  42  74 104 139 184 249 301 363 427
#     4  10  23  45  69  96 145 192 234 295 361 440
#
# _framework density 23.748909000000001
#
# number of rings (size 3 to 8) (size 9 to 14) (size 15 to 20)
#    0.000    1.200    4.000    1.800    2.800    0.800 
#    3.600    0.000    4.400    0.000    0.000    0.000 
#    0.000    0.000    0.000    0.000    0.000    0.000 
#
# Total GULP energy -111821.793506 kJ/mol
# GULP energy per Si atom -5591.089675 kJ/mol
# Density = 2.369486 g / cm^3
# Si number density = 23.748909 Si / 1000 Ang^3
#
#
#
# Elastic Constant Matrix: (Units=GPa)
#
#
# Indices 1 2 3 4 5 6 
#
# 1 114.0383 56.7945 33.3062 0.0000 0.0000 0.0000
# 2 56.7945 120.3105 16.3672 0.0000 0.0000 0.0000
# 3 33.3062 16.3672 77.6724 0.0000 0.0000 0.0000
# 4 0.0000 0.0000 0.0000 27.0628 0.0000 0.0000
# 5 0.0000 0.0000 0.0000 0.0000 34.9378 0.0000
# 6 0.0000 0.0000 0.0000 0.0000 0.0000 36.9781
#
#
#
# Elastic Compliance Matrix: (Units=1/GPa)
#
#
# Indices 1 2 3 4 5 6 
#
# 1 0.012730 -0.005422 -0.004316 0.000000 0.000000 0.000000
# 2 -0.005422 0.010867 0.000035 0.000000 0.000000 0.000000
# 3 -0.004316 0.000035 0.014718 0.000000 0.000000 0.000000
# 4 0.000000 0.000000 0.000000 0.036951 0.000000 0.000000
# 5 0.000000 0.000000 0.000000 0.000000 0.028622 0.000000
# 6 0.000000 0.000000 0.000000 0.000000 0.000000 0.027043
#
#
# Mechanical properties :
#
#
# Convention : Reuss Voigt Hill
#
# Bulk Modulus (GPa) = 52.88650 58.32856 55.60753
# Shear Modulus (GPa) = 31.92032 33.49928 32.70980
#
# Velocity S-wave (km/s) = 3.67014 3.75982 3.71525
# Velocity P-wave (km/s) = 6.34644 6.59258 6.47068
#
# Compressibility (1/GPa) = 0.01890842
#
# Stress axis : x y z
#
# Youngs Moduli (GPa) = 78.55470 92.02434 67.94446
#
# Poissons Ratio (x) = 0.49898 0.29325
# Poissons Ratio (y) = 0.42594 -0.00239
# Poissons Ratio (z) = 0.33905 -0.00324
#
# Static dielectric constant tensor:
#      x y z
#    x 1.912850 0.000000 0.000000 
#    y 0.000000 1.970710 0.000000 
#    z 0.000000 0.000000 1.915450 
# 
# From -- ./inp_files/3083.got.cif
#   From: 2010.05.17/outbox.cif.g08.bks.cpg/sg18_2_cif.got.tgz:3083.got - 2010.06.03 22:40:56.
