data_PCOD9312825
_publ_section_title
;
Structure prediction by ZEFSAII (Michael W. Deem and Ramdas Pophale) SiO2 
 PCOD9312825
Probable space group: P 21 21 2
;
_chemical_formula_sum "Si O2"
_cell_formula_units_Z 16
_cell_length_a 10.825901
_cell_length_b 4.906097
_cell_length_c 11.449893
_cell_angle_alpha 90.000000
_cell_angle_beta 90.000000
_cell_angle_gamma 90.000000
_cell_volume 608.137256
_symmetry_space_group_name_H-M "P 21 21 2"
_symmetry_group_IT_number 18
_symmetry_cell_setting 'orthorhombic'
loop_
_space_group_symop_operation_xyz
x,y,z
-x,-y,z
1/2+x,1/2-y,-z
1/2-x,1/2+y,-z
loop_
_atom_site_type_symbol
_atom_site_label
_atom_site_fract_x
_atom_site_fract_y
_atom_site_fract_z
Si Si1 0.111155 0.181195 0.228564
Si Si2 0.670087 0.106286 0.536163
Si Si3 0.500000 0.500000 0.990791
Si Si4 0.880287 0.307758 0.809344
Si Si5 0.000000 0.000000 0.608607
O O1 0.134402 0.404905 0.327263
O O2 0.247315 0.053646 0.206899
O O3 0.000000 0.000000 0.279734
O O4 0.060130 0.220696 0.097505
O O5 0.781952 0.319039 0.509505
O O6 0.560111 0.258370 0.466567
O O7 0.396380 0.367592 0.072991
O O8 0.000000 0.500000 0.807714
O O9 0.899113 0.106947 0.700823
#
# Coordination Sequence:
#
# PCOD9312825 Si02
#       5
#     4   4   2   4   2
#     4  10  23  45  67 107 143 186 249 304 370 444
#     4  12  25  46  73 107 152 192 249 308 381 453
#     4   9  25  42  68 102 143 183 256 294 374 439
#     4  11  23  44  71  98 142 193 243 309 376 447
#     4  11  23  42  70 102 141 195 244 306 384 449
#
# _framework density 26.309851999999999
#
# number of rings (size 3 to 8) (size 9 to 14) (size 15 to 20)
#    0.750    0.500    3.750    1.500    3.500    0.000 
#    4.500    0.000    0.000    0.000    0.000    0.000 
#    0.000    0.000    0.000    0.000    0.000    0.000 
#
# Total GULP energy -89427.763779 kJ/mol
# GULP energy per Si atom -5589.235236 kJ/mol
# Density = 2.624997 g / cm^3
# Si number density = 26.309852 Si / 1000 Ang^3
#
#
#
# Elastic Constant Matrix: (Units=GPa)
#
#
# Indices 1 2 3 4 5 6 
#
# 1 185.7320 26.3503 29.4535 0.0000 0.0000 0.0000
# 2 26.3503 81.7495 33.9763 0.0000 0.0000 0.0000
# 3 29.4535 33.9763 201.0994 0.0000 0.0000 0.0000
# 4 0.0000 0.0000 0.0000 -8.6640 0.0000 0.0000
# 5 0.0000 0.0000 0.0000 0.0000 32.0933 0.0000
# 6 0.0000 0.0000 0.0000 0.0000 0.0000 47.4326
#
#
#
# Elastic Compliance Matrix: (Units=1/GPa)
#
#
# Indices 1 2 3 4 5 6 
#
# 1 0.005701 -0.001603 -0.000564 0.000000 0.000000 0.000000
# 2 -0.001603 0.013607 -0.002064 0.000000 0.000000 0.000000
# 3 -0.000564 -0.002064 0.005404 0.000000 0.000000 0.000000
# 4 0.000000 0.000000 0.000000 -0.115420 0.000000 0.000000
# 5 0.000000 0.000000 0.000000 0.000000 0.031159 0.000000
# 6 0.000000 0.000000 0.000000 0.000000 0.000000 0.021083
#
#
# Mechanical properties :
#
#
# Convention : Reuss Voigt Hill
#
# Bulk Modulus (GPa) = 61.54109 72.01567 66.77838
# Shear Modulus (GPa) = -203.36197 39.42577 -81.96810
#
# Velocity S-wave (km/s) = -8.80129 3.87527 -5.58771
# Velocity P-wave (km/s) = 8.93544 6.88877 4.02411
#
# Compressibility (1/GPa) = 0.01624931
#
# Stress axis : x y z
#
# Youngs Moduli (GPa) = 175.40774 73.49088 185.04699
#
# Poissons Ratio (x) = 0.11782 0.10439
# Poissons Ratio (y) = 0.28120 0.38197
# Poissons Ratio (z) = 0.09895 0.15170
#
# Static dielectric constant tensor:
#      x y z
#    x 2.186670 0.000000 0.000000 
#    y 0.000000 2.051980 0.000000 
#    z 0.000000 0.000000 2.030970 
# 
# From -- ./inp_files/4984.got.cif
#   From: 2010.05.17/outbox.cif.g08.bks.cpg/sg18_3_cif.got.tgz:4984.got - 2010.06.03 22:40:56.
