data_PCOD9312342
_publ_section_title
;
Structure prediction by ZEFSAII (Michael W. Deem and Ramdas Pophale) SiO2 
 PCOD9312342
Probable space group: P 21 21 2
;
_chemical_formula_sum "Si O2"
_cell_formula_units_Z 32
_cell_length_a 12.470674
_cell_length_b 9.096119
_cell_length_c 13.443213
_cell_angle_alpha 90.000000
_cell_angle_beta 90.000000
_cell_angle_gamma 90.000000
_cell_volume 1524.927300
_symmetry_space_group_name_H-M "P 21 21 2"
_symmetry_group_IT_number 18
_symmetry_cell_setting 'orthorhombic'
loop_
_space_group_symop_operation_xyz
x,y,z
-x,-y,z
1/2+x,1/2-y,-z
1/2-x,1/2+y,-z
loop_
_atom_site_type_symbol
_atom_site_label
_atom_site_fract_x
_atom_site_fract_y
_atom_site_fract_z
Si Si1 0.821514 0.162365 0.212049
Si Si2 0.326176 0.688455 0.809958
Si Si3 0.382030 0.297686 0.558999
Si Si4 0.878623 0.852776 0.756461
Si Si5 0.226126 0.046026 0.551212
Si Si6 0.007513 0.822561 0.048085
Si Si7 0.573880 0.139296 0.626994
Si Si8 0.404297 0.326912 0.167036
O O1 0.862258 0.203080 0.322143
O O2 0.704347 0.233356 0.202829
O O3 0.902246 0.221424 0.128353
O O4 0.822252 0.986777 0.202707
O O5 0.393006 0.728597 0.909631
O O6 0.389930 0.760562 0.718519
O O7 0.206298 0.747619 0.812735
O O8 0.354364 0.458863 0.519922
O O9 0.501528 0.233005 0.549799
O O10 0.295133 0.184475 0.512396
O O11 0.000980 0.798854 0.753950
O O12 0.837151 0.904140 0.649336
O O13 0.880297 0.997997 0.826183
O O14 0.320087 0.932921 0.581841
O O15 0.045611 0.780988 0.938622
O O16 0.000000 0.000000 0.048758
O O17 0.500000 0.000000 0.658460
#
# Coordination Sequence:
#
# PCOD9312342 Si02
#       8
#     4   4   4   4   4   4   4   4
#     4  10  23  40  66  94 130 165 215 279 331 384
#     4  11  23  40  67  97 130 172 221 281 330 393
#     4  10  22  42  65  94 130 166 222 275 327 399
#     4  10  22  44  64  91 132 177 218 266 338 402
#     4  10  22  42  66  95 128 174 218 275 335 394
#     4  10  21  39  64  97 127 166 216 273 330 382
#     4  10  21  42  66  96 132 172 225 279 333 402
#     4  11  23  40  68  90 131 178 219 271 326 412
#
# _framework density 20.984605999999999
#
# number of rings (size 3 to 8) (size 9 to 14) (size 15 to 20)
#    0.000    1.750    3.750    0.000    3.500    0.500 
#    9.000    0.000    8.250    0.000    0.000    0.000 
#    0.000    0.000    0.000    0.000    0.000    0.000 
#
# Total GULP energy -178755.686351 kJ/mol
# GULP energy per Si atom -5586.115198 kJ/mol
# Density = 2.093684 g / cm^3
# Si number density = 20.984606 Si / 1000 Ang^3
#
#
#
# Elastic Constant Matrix: (Units=GPa)
#
#
# Indices 1 2 3 4 5 6 
#
# 1 163.0853 44.2610 32.0381 0.0000 0.0000 0.0000
# 2 44.2610 66.5186 16.2999 0.0000 0.0000 0.0000
# 3 32.0381 16.2999 43.7863 0.0000 0.0000 0.0000
# 4 0.0000 0.0000 0.0000 23.6794 0.0000 0.0000
# 5 0.0000 0.0000 0.0000 0.0000 22.3845 0.0000
# 6 0.0000 0.0000 0.0000 0.0000 0.0000 37.4389
#
#
#
# Elastic Compliance Matrix: (Units=1/GPa)
#
#
# Indices 1 2 3 4 5 6 
#
# 1 0.008173 -0.004372 -0.004353 0.000000 0.000000 0.000000
# 2 -0.004372 0.018881 -0.003830 0.000000 0.000000 0.000000
# 3 -0.004353 -0.003830 0.027449 0.000000 0.000000 0.000000
# 4 0.000000 0.000000 0.000000 0.042231 0.000000 0.000000
# 5 0.000000 0.000000 0.000000 0.000000 0.044674 0.000000
# 6 0.000000 0.000000 0.000000 0.000000 0.000000 0.026710
#
#
# Mechanical properties :
#
#
# Convention : Reuss Voigt Hill
#
# Bulk Modulus (GPa) = 34.02049 50.95425 42.48737
# Shear Modulus (GPa) = 24.62750 28.75329 26.69040
#
# Velocity S-wave (km/s) = 3.42950 3.70565 3.57024
# Velocity P-wave (km/s) = 5.65060 6.53020 6.10626
#
# Compressibility (1/GPa) = 0.02939405
#
# Stress axis : x y z
#
# Youngs Moduli (GPa) = 122.34780 52.96376 36.43139
#
# Poissons Ratio (x) = 0.23155 0.15858
# Poissons Ratio (y) = 0.53489 0.13952
# Poissons Ratio (z) = 0.53257 0.20284
#
# Static dielectric constant tensor:
#      x y z
#    x 1.776850 0.000000 0.000000 
#    y 0.000000 1.757620 0.000000 
#    z 0.000000 0.000000 1.752960 
# 
# From -- ./inp_files/6934.got.cif
#   From: 2010.05.17/outbox.cif.g08.bks.cpg/sg18_4_cif.got.tgz:6934.got - 2010.06.03 22:40:56.
