data_PCOD9312524
_publ_section_title
;
Structure prediction by ZEFSAII (Michael W. Deem and Ramdas Pophale) SiO2 
 PCOD9312524
Probable space group: P 21 21 2
;
_chemical_formula_sum "Si O2"
_cell_formula_units_Z 26
_cell_length_a 12.149569
_cell_length_b 12.709995
_cell_length_c 6.433785
_cell_angle_alpha 90.000000
_cell_angle_beta 90.000000
_cell_angle_gamma 90.000000
_cell_volume 993.511264
_symmetry_space_group_name_H-M "P 21 21 2"
_symmetry_group_IT_number 18
_symmetry_cell_setting 'orthorhombic'
loop_
_space_group_symop_operation_xyz
x,y,z
-x,-y,z
1/2+x,1/2-y,-z
1/2-x,1/2+y,-z
loop_
_atom_site_type_symbol
_atom_site_label
_atom_site_fract_x
_atom_site_fract_y
_atom_site_fract_z
Si Si1 0.310388 0.451335 0.940153
Si Si2 0.441498 0.854058 0.441149
Si Si3 0.175642 0.513941 0.276906
Si Si4 0.534053 0.656756 0.611865
Si Si5 0.127934 0.606080 0.858302
Si Si6 0.293672 0.676355 0.572833
Si Si7 0.000000 0.000000 0.766355
O O1 0.234278 0.422311 0.138975
O O2 0.399694 0.519161 0.073648
O O3 0.379881 0.378609 0.785638
O O4 0.215133 0.510804 0.809293
O O5 0.596741 0.047078 0.570637
O O6 0.530413 0.780034 0.560331
O O7 0.506341 0.884836 0.233697
O O8 0.836057 0.723747 0.561752
O O9 0.253999 0.588486 0.411331
O O10 0.122328 0.589661 0.102984
O O11 0.407182 0.637243 0.680576
O O12 0.536839 0.592399 0.393407
O O13 0.201663 0.695841 0.748309
#
# Coordination Sequence:
#
# PCOD9312524 Si02
#       7
#     4   4   4   4   4   4   2
#     4  10  22  38  82 111 156 214 274 325 422 480
#     4  10  25  51  82 120 166 219 284 336 417 509
#     4  10  24  50  83 113 165 230 265 347 426 486
#     4  10  22  42  79 115 164 209 273 341 398 498
#     4  10  23  49  80 109 165 217 276 334 419 488
#     4  10  22  49  80 115 168 210 276 346 411 487
#     4  12  18  38  80 120 158 222 260 334 420 492
#
# _framework density 26.169806999999999
#
# number of rings (size 3 to 8) (size 9 to 14) (size 15 to 20)
#    1.846    0.000    1.538    2.308    0.000    1.846 
#    0.000   12.308   13.538    0.000    0.000    0.000 
#    0.000    0.000    0.000    0.000    0.000    0.000 
#
# Total GULP energy -144882.395674 kJ/mol
# GULP energy per Si atom -5572.399834 kJ/mol
# Density = 2.611024 g / cm^3
# Si number density = 26.169807 Si / 1000 Ang^3
#
#
#
# Elastic Constant Matrix: (Units=GPa)
#
#
# Indices 1 2 3 4 5 6 
#
# 1 122.6134 45.1843 58.3471 0.0000 0.0000 0.0000
# 2 45.1843 73.4861 28.4274 0.0000 0.0000 0.0000
# 3 58.3471 28.4274 136.2477 0.0000 0.0000 0.0000
# 4 0.0000 0.0000 0.0000 19.3749 0.0000 0.0000
# 5 0.0000 0.0000 0.0000 0.0000 49.5866 0.0000
# 6 0.0000 0.0000 0.0000 0.0000 0.0000 50.6068
#
#
#
# Elastic Compliance Matrix: (Units=1/GPa)
#
#
# Indices 1 2 3 4 5 6 
#
# 1 0.012271 -0.005996 -0.004004 0.000000 0.000000 0.000000
# 2 -0.005996 0.017733 -0.001132 0.000000 0.000000 0.000000
# 3 -0.004004 -0.001132 0.009290 0.000000 0.000000 0.000000
# 4 0.000000 0.000000 0.000000 0.051613 0.000000 0.000000
# 5 0.000000 0.000000 0.000000 0.000000 0.020167 0.000000
# 6 0.000000 0.000000 0.000000 0.000000 0.000000 0.019760
#
#
# Mechanical properties :
#
#
# Convention : Reuss Voigt Hill
#
# Bulk Modulus (GPa) = 58.72006 66.25163 62.48584
# Shear Modulus (GPa) = 31.49134 37.27290 34.38212
#
# Velocity S-wave (km/s) = 3.47269 3.77805 3.62858
# Velocity P-wave (km/s) = 6.21017 6.66352 6.44084
#
# Compressibility (1/GPa) = 0.01702996
#
# Stress axis : x y z
#
# Youngs Moduli (GPa) = 81.49617 56.39307 107.63858
#
# Poissons Ratio (x) = 0.33813 0.43096
# Poissons Ratio (y) = 0.48865 0.12186
# Poissons Ratio (z) = 0.32629 0.06384
#
# Static dielectric constant tensor:
#      x y z
#    x 2.154460 0.000000 0.000000 
#    y 0.000000 2.178660 0.000000 
#    z 0.000000 0.000000 2.013040 
# 
# From -- ./inp_files/1884.got.cif
#   From: 2010.05.17/outbox.cif.g08.bks.cpg/sg18_1_cif.got.tgz:1884.got - 2010.06.03 22:40:56.
