data_PCOD9312888
_publ_section_title
;
Structure prediction by ZEFSAII (Michael W. Deem and Ramdas Pophale) SiO2 
 PCOD9312888
Probable space group: P 21 21 2
;
_chemical_formula_sum "Si O2"
_cell_formula_units_Z 24
_cell_length_a 7.428680
_cell_length_b 11.295820
_cell_length_c 14.117650
_cell_angle_alpha 90.000000
_cell_angle_beta 90.000000
_cell_angle_gamma 90.000000
_cell_volume 1184.654818
_symmetry_space_group_name_H-M "P 21 21 2"
_symmetry_group_IT_number 18
_symmetry_cell_setting 'orthorhombic'
loop_
_space_group_symop_operation_xyz
x,y,z
-x,-y,z
1/2+x,1/2-y,-z
1/2-x,1/2+y,-z
loop_
_atom_site_type_symbol
_atom_site_label
_atom_site_fract_x
_atom_site_fract_y
_atom_site_fract_z
Si Si1 0.577955 0.129823 0.417508
Si Si2 0.753794 0.691362 0.386533
Si Si3 0.709357 0.614436 0.180099
Si Si4 0.493030 0.298708 0.890519
Si Si5 0.557456 0.627905 0.683319
Si Si6 0.848343 0.862892 0.915327
O O1 0.421220 0.228525 0.410828
O O2 0.672092 0.126294 0.520750
O O3 0.741014 0.158998 0.346919
O O4 0.500000 0.000000 0.395288
O O5 0.718792 0.610268 0.294179
O O6 0.914249 0.778965 0.355729
O O7 0.865551 0.697275 0.140126
O O8 0.518160 0.670869 0.150262
O O9 0.717695 0.486995 0.129097
O O10 0.457123 0.372047 0.796276
O O11 0.308951 0.232617 0.917185
O O12 0.573849 0.369761 0.978602
O O13 0.500000 0.500000 0.644913
#
# Coordination Sequence:
#
# PCOD9312888 Si02
#       6
#     4   4   4   4   4   4
#     4  12  24  44  72 100 134 180 227 276 347 408
#     4  11  24  45  67  99 137 176 223 287 336 408
#     4  10  24  43  64  96 133 175 224 272 340 403
#     4  11  23  40  69  92 134 171 222 284 325 398
#     4  11  24  42  65  96 132 177 227 272 335 401
#     4  11  22  43  65  97 130 175 222 273 340 397
#
# _framework density 20.259067000000002
#
# number of rings (size 3 to 8) (size 9 to 14) (size 15 to 20)
#    0.000    1.000    5.000    1.500    2.333    2.667 
#    9.000    0.000    0.000    0.000    0.000    0.000 
#    0.000    0.000    0.000    0.000    0.000    0.000 
#
# Total GULP energy -134116.004474 kJ/mol
# GULP energy per Si atom -5588.166853 kJ/mol
# Density = 2.021296 g / cm^3
# Si number density = 20.259067 Si / 1000 Ang^3
#
#
#
# Elastic Constant Matrix: (Units=GPa)
#
#
# Indices 1 2 3 4 5 6 
#
# 1 116.3635 18.7072 31.1098 0.0000 0.0000 0.0000
# 2 18.7072 20.4493 -3.8179 0.0000 0.0000 0.0000
# 3 31.1098 -3.8179 93.5601 0.0000 0.0000 0.0000
# 4 0.0000 0.0000 0.0000 24.4267 0.0000 0.0000
# 5 0.0000 0.0000 0.0000 0.0000 33.6889 0.0000
# 6 0.0000 0.0000 0.0000 0.0000 0.0000 21.0756
#
#
#
# Elastic Compliance Matrix: (Units=1/GPa)
#
#
# Indices 1 2 3 4 5 6 
#
# 1 0.011580 -0.011399 -0.004316 0.000000 0.000000 0.000000
# 2 -0.011399 0.060498 0.006259 0.000000 0.000000 0.000000
# 3 -0.004316 0.006259 0.012379 0.000000 0.000000 0.000000
# 4 0.000000 0.000000 0.000000 0.040939 0.000000 0.000000
# 5 0.000000 0.000000 0.000000 0.000000 0.029683 0.000000
# 6 0.000000 0.000000 0.000000 0.000000 0.000000 0.047448
#
#
# Mechanical properties :
#
#
# Convention : Reuss Voigt Hill
#
# Bulk Modulus (GPa) = 15.25663 35.81903 25.53783
# Shear Modulus (GPa) = 20.55179 28.12984 24.34081
#
# Velocity S-wave (km/s) = 3.18850 3.73031 3.46999
# Velocity P-wave (km/s) = 4.59374 6.02266 5.35607
#
# Compressibility (1/GPa) = 0.06554525
#
# Stress axis : x y z
#
# Youngs Moduli (GPa) = 86.35433 16.52940 80.78361
#
# Poissons Ratio (x) = 0.18843 0.34864
# Poissons Ratio (y) = 0.98439 -0.50564
# Poissons Ratio (z) = 0.37268 -0.10346
#
# Static dielectric constant tensor:
#      x y z
#    x 1.707820 0.000000 0.000000 
#    y 0.000000 1.720040 0.000000 
#    z 0.000000 0.000000 1.729880 
# 
# From -- ./inp_files/5509.got.cif
#   From: 2010.05.17/outbox.cif.g08.bks.cpg/sg18_3_cif.got.tgz:5509.got - 2010.06.03 22:40:56.
