data_PCOD9312483
_publ_section_title
;
Structure prediction by ZEFSAII (Michael W. Deem and Ramdas Pophale) SiO2 
 PCOD9312483
Probable space group: P 21 21 2
;
_chemical_formula_sum "Si O2"
_cell_formula_units_Z 30
_cell_length_a 12.154939
_cell_length_b 4.994820
_cell_length_c 22.380306
_cell_angle_alpha 90.000000
_cell_angle_beta 90.000000
_cell_angle_gamma 90.000000
_cell_volume 1358.747149
_symmetry_space_group_name_H-M "P 21 21 2"
_symmetry_group_IT_number 18
_symmetry_cell_setting 'orthorhombic'
loop_
_space_group_symop_operation_xyz
x,y,z
-x,-y,z
1/2+x,1/2-y,-z
1/2-x,1/2+y,-z
loop_
_atom_site_type_symbol
_atom_site_label
_atom_site_fract_x
_atom_site_fract_y
_atom_site_fract_z
Si Si1 0.119581 0.923898 0.669440
Si Si2 0.572919 0.744234 0.936893
Si Si3 0.288174 0.724249 0.124033
Si Si4 0.295946 0.195029 0.592564
Si Si5 0.000000 0.000000 0.429669
Si Si6 0.617694 0.079153 0.243911
Si Si7 0.394487 0.202889 0.071034
Si Si8 0.883261 0.599315 0.520643
O O1 0.132028 0.644805 0.704607
O O2 0.231622 0.978310 0.632069
O O3 0.115364 0.144126 0.721278
O O4 0.000000 0.000000 0.637540
O O5 0.500000 0.500000 0.913158
O O6 0.664590 0.849983 0.891410
O O7 0.500000 0.000000 0.948918
O O8 0.609674 0.674616 0.004759
O O9 0.367397 0.464016 0.112940
O O10 0.303493 0.975142 0.079083
O O11 0.413807 0.323369 0.609165
O O12 0.194711 0.387597 0.577451
O O13 0.323088 0.091296 0.526120
O O14 0.078439 0.164123 0.475246
O O15 0.696215 0.137076 0.188369
O O16 0.500000 0.000000 0.216596
O O17 0.500000 0.000000 0.081477
O O18 0.000000 0.500000 0.543306
#
# Coordination Sequence:
#
# PCOD9312483 Si02
#       8
#     4   4   4   4   2   4   4   4
#     4  10  24  41  66  94 130 166 216 277 344 395
#     4  11  23  39  58  91 137 174 222 270 318 398
#     4  12  22  39  67  89 129 178 219 270 340 400
#     4  11  22  38  65  91 133 174 217 266 335 407
#     4  10  22  40  56  94 134 168 216 266 324 392
#     4  10  23  43  62  96 126 158 214 283 334 389
#     4  11  22  36  60 100 134 168 213 265 339 414
#     4  10  22  36  59  94 131 169 212 262 321 402
#
# _framework density 22.079162
#
# number of rings (size 3 to 8) (size 9 to 14) (size 15 to 20)
#    0.000    1.333    1.333    4.800    2.800    3.733 
#    0.000    0.000    1.467    2.400    0.000    0.000 
#    0.000    0.000    0.000    0.000    0.000    0.000 
#
# Total GULP energy -167015.203006 kJ/mol
# GULP energy per Si atom -5567.173434 kJ/mol
# Density = 2.202891 g / cm^3
# Si number density = 22.079162 Si / 1000 Ang^3
#
#
#
# Elastic Constant Matrix: (Units=GPa)
#
#
# Indices 1 2 3 4 5 6 
#
# 1 87.8051 22.0218 42.6575 0.0000 0.0000 0.0000
# 2 22.0218 98.2608 22.6882 0.0000 0.0000 0.0000
# 3 42.6575 22.6882 66.0125 0.0000 0.0000 0.0000
# 4 0.0000 0.0000 0.0000 15.4802 0.0000 0.0000
# 5 0.0000 0.0000 0.0000 0.0000 19.8476 0.0000
# 6 0.0000 0.0000 0.0000 0.0000 0.0000 32.3240
#
#
#
# Elastic Compliance Matrix: (Units=1/GPa)
#
#
# Indices 1 2 3 4 5 6 
#
# 1 0.016767 -0.001364 -0.010366 0.000000 0.000000 0.000000
# 2 -0.001364 0.011165 -0.002956 0.000000 0.000000 0.000000
# 3 -0.010366 -0.002956 0.022863 0.000000 0.000000 0.000000
# 4 0.000000 0.000000 0.000000 0.064598 0.000000 0.000000
# 5 0.000000 0.000000 0.000000 0.000000 0.050384 0.000000
# 6 0.000000 0.000000 0.000000 0.000000 0.000000 0.030937
#
#
# Mechanical properties :
#
#
# Convention : Reuss Voigt Hill
#
# Bulk Modulus (GPa) = 46.67854 47.42372 47.05113
# Shear Modulus (GPa) = 21.43825 24.51109 22.97467
#
# Velocity S-wave (km/s) = 3.11942 3.33550 3.22927
# Velocity P-wave (km/s) = 5.84480 6.02990 5.93807
#
# Compressibility (1/GPa) = 0.02142312
#
# Stress axis : x y z
#
# Youngs Moduli (GPa) = 59.64074 89.56354 43.73853
#
# Poissons Ratio (x) = 0.12219 0.45340
# Poissons Ratio (y) = 0.08137 0.12928
# Poissons Ratio (z) = 0.61824 0.26474
#
# Static dielectric constant tensor:
#      x y z
#    x 2.622070 0.000000 0.000000 
#    y 0.000000 1.903560 0.000000 
#    z 0.000000 0.000000 1.783710 
# 
# From -- ./inp_files/7586.got.cif
#   From: 2010.05.17/outbox.cif.g08.bks.cpg/sg18_4_cif.got.tgz:7586.got - 2010.06.03 22:40:56.
