data_PCOD9312911
_publ_section_title
;
Structure prediction by ZEFSAII (Michael W. Deem and Ramdas Pophale) SiO2 
 PCOD9312911
Probable space group: P 21 21 2
;
_chemical_formula_sum "Si O2"
_cell_formula_units_Z 26
_cell_length_a 21.306268
_cell_length_b 5.528501
_cell_length_c 9.036115
_cell_angle_alpha 90.000000
_cell_angle_beta 90.000000
_cell_angle_gamma 90.000000
_cell_volume 1064.379564
_symmetry_space_group_name_H-M "P 21 21 2"
_symmetry_group_IT_number 18
_symmetry_cell_setting 'orthorhombic'
loop_
_space_group_symop_operation_xyz
x,y,z
-x,-y,z
1/2+x,1/2-y,-z
1/2-x,1/2+y,-z
loop_
_atom_site_type_symbol
_atom_site_label
_atom_site_fract_x
_atom_site_fract_y
_atom_site_fract_z
Si Si1 0.000000 0.000000 0.073778
Si Si2 0.320682 0.993443 0.575970
Si Si3 0.500000 0.000000 0.243039
Si Si4 0.575230 0.303632 0.690324
Si Si5 0.180747 0.862052 0.187837
Si Si6 0.500000 0.500000 0.430183
Si Si7 0.215882 0.656003 0.729067
Si Si8 0.107089 0.711418 0.926913
O O1 0.018948 0.210242 0.191803
O O2 0.944097 0.089735 0.971677
O O3 0.391171 0.928739 0.625268
O O4 0.268496 0.818819 0.649048
O O5 0.307609 0.247433 0.652321
O O6 0.315120 0.000002 0.401215
O O7 0.504143 0.750792 0.338111
O O8 0.563049 0.997810 0.141304
O O9 0.628036 0.438526 0.785179
O O10 0.556727 0.461030 0.546827
O O11 0.246311 0.991588 0.152276
O O12 0.149818 0.674517 0.073459
O O13 0.158928 0.792587 0.807855
#
# Coordination Sequence:
#
# PCOD9312911 Si02
#       8
#     2   4   2   4   4   2   4   4
#     4   9  21  50  68 108 144 198 254 308 376 466
#     4  11  22  42  71 104 142 186 240 308 385 449
#     4  12  28  48  70 112 154 202 248 316 376 456
#     4   9  22  42  76 100 143 193 249 310 374 463
#     4  10  24  45  68 103 143 190 245 306 390 459
#     4  11  25  46  72 114 148 198 260 312 384 442
#     4  11  24  44  69 108 138 186 245 313 381 453
#     4  11  26  46  71 104 149 197 248 311 385 466
#
# _framework density 24.427378000000001
#
# number of rings (size 3 to 8) (size 9 to 14) (size 15 to 20)
#    0.000    1.538    1.538    1.385    8.615    0.000 
#    8.308    0.000    0.000    0.000    0.000    0.000 
#    0.000    0.000    0.000    0.000    0.000    0.000 
#
# Total GULP energy -145090.432102 kJ/mol
# GULP energy per Si atom -5580.401235 kJ/mol
# Density = 2.437178 g / cm^3
# Si number density = 24.427378 Si / 1000 Ang^3
#
#
#
# Elastic Constant Matrix: (Units=GPa)
#
#
# Indices 1 2 3 4 5 6 
#
# 1 114.3558 28.1434 67.9400 0.0000 0.0000 0.0000
# 2 28.1434 68.6617 27.4279 0.0000 0.0000 0.0000
# 3 67.9400 27.4279 116.2349 0.0000 0.0000 0.0000
# 4 0.0000 0.0000 0.0000 21.1507 0.0000 0.0000
# 5 0.0000 0.0000 0.0000 0.0000 46.2204 0.0000
# 6 0.0000 0.0000 0.0000 0.0000 0.0000 32.2380
#
#
#
# Elastic Compliance Matrix: (Units=1/GPa)
#
#
# Indices 1 2 3 4 5 6 
#
# 1 0.013834 -0.002694 -0.007450 0.000000 0.000000 0.000000
# 2 -0.002694 0.016605 -0.002343 0.000000 0.000000 0.000000
# 3 -0.007450 -0.002343 0.013511 0.000000 0.000000 0.000000
# 4 0.000000 0.000000 0.000000 0.047280 0.000000 0.000000
# 5 0.000000 0.000000 0.000000 0.000000 0.021635 0.000000
# 6 0.000000 0.000000 0.000000 0.000000 0.000000 0.031019
#
#
# Mechanical properties :
#
#
# Convention : Reuss Voigt Hill
#
# Bulk Modulus (GPa) = 52.70439 60.69721 56.70080
# Shear Modulus (GPa) = 28.54136 31.63791 30.08964
#
# Velocity S-wave (km/s) = 3.42192 3.60277 3.51351
# Velocity P-wave (km/s) = 6.10209 6.49681 6.30254
#
# Compressibility (1/GPa) = 0.01897375
#
# Stress axis : x y z
#
# Youngs Moduli (GPa) = 72.28577 60.22434 74.01395
#
# Poissons Ratio (x) = 0.16226 0.55143
# Poissons Ratio (y) = 0.19475 0.17344
# Poissons Ratio (z) = 0.53855 0.14113
#
# Static dielectric constant tensor:
#      x y z
#    x 2.012040 0.000000 0.000000 
#    y 0.000000 2.003080 0.000000 
#    z 0.000000 0.000000 1.964820 
# 
# From -- ./inp_files/4745.got.cif
#   From: 2010.05.17/outbox.cif.g08.bks.cpg/sg18_3_cif.got.tgz:4745.got - 2010.06.03 22:40:56.
