data_PCOD9312560
_publ_section_title
;
Structure prediction by ZEFSAII (Michael W. Deem and Ramdas Pophale) SiO2 
 PCOD9312560
Probable space group: P 21 21 2
;
_chemical_formula_sum "Si O2"
_cell_formula_units_Z 22
_cell_length_a 11.981747
_cell_length_b 12.743963
_cell_length_c 5.852502
_cell_angle_alpha 90.000000
_cell_angle_beta 90.000000
_cell_angle_gamma 90.000000
_cell_volume 893.647444
_symmetry_space_group_name_H-M "P 21 21 2"
_symmetry_group_IT_number 18
_symmetry_cell_setting 'orthorhombic'
loop_
_space_group_symop_operation_xyz
x,y,z
-x,-y,z
1/2+x,1/2-y,-z
1/2-x,1/2+y,-z
loop_
_atom_site_type_symbol
_atom_site_label
_atom_site_fract_x
_atom_site_fract_y
_atom_site_fract_z
Si Si1 0.802210 0.931927 0.562891
Si Si2 0.488379 0.708475 0.567267
Si Si3 0.500000 0.000000 0.864888
Si Si4 0.285935 0.271306 0.823942
Si Si5 0.372864 0.155244 0.210336
Si Si6 0.320506 0.879160 0.576661
O O1 0.927953 0.896263 0.514723
O O2 0.754163 0.843660 0.735702
O O3 0.717505 0.914584 0.347078
O O4 0.790108 0.052862 0.635447
O O5 0.591095 0.696418 0.737034
O O6 0.541912 0.786307 0.378886
O O7 0.382179 0.773490 0.661253
O O8 0.408185 0.958942 0.688194
O O9 0.557203 0.913755 0.029587
O O10 0.202316 0.349419 0.691970
O O11 0.306175 0.249622 0.087205
#
# Coordination Sequence:
#
# PCOD9312560 Si02
#       6
#     4   4   2   4   4   4
#     4  10  22  41  62  97 134 173 222 280 336 391
#     4  10  22  41  64  92 137 176 215 285 340 388
#     4  12  20  40  72 102 130 176 236 274 342 398
#     4  10  22  40  62  96 132 173 225 272 341 397
#     4  11  21  40  68  99 125 177 231 269 334 419
#     4  11  21  41  66  95 137 175 214 292 330 392
#
# _framework density 24.618207999999999
#
# number of rings (size 3 to 8) (size 9 to 14) (size 15 to 20)
#    0.000    1.455    3.636    2.182    0.000    3.636 
#   16.364    0.000    0.000    6.545    0.000    0.000 
#    0.000    0.000    0.000    0.000    0.000    0.000 
#
# Total GULP energy -122547.522151 kJ/mol
# GULP energy per Si atom -5570.341916 kJ/mol
# Density = 2.456218 g / cm^3
# Si number density = 24.618208 Si / 1000 Ang^3
#
#
#
# Elastic Constant Matrix: (Units=GPa)
#
#
# Indices 1 2 3 4 5 6 
#
# 1 139.2646 20.2451 64.8640 0.0000 0.0000 0.0000
# 2 20.2451 94.4875 30.5756 0.0000 0.0000 0.0000
# 3 64.8640 30.5756 66.4387 0.0000 0.0000 0.0000
# 4 0.0000 0.0000 0.0000 21.8919 0.0000 0.0000
# 5 0.0000 0.0000 0.0000 0.0000 36.2482 0.0000
# 6 0.0000 0.0000 0.0000 0.0000 0.0000 45.0062
#
#
#
# Elastic Compliance Matrix: (Units=1/GPa)
#
#
# Indices 1 2 3 4 5 6 
#
# 1 0.013371 0.001597 -0.013789 0.000000 0.000000 0.000000
# 2 0.001597 0.012626 -0.007370 0.000000 0.000000 0.000000
# 3 -0.013789 -0.007370 0.031905 0.000000 0.000000 0.000000
# 4 0.000000 0.000000 0.000000 0.045679 0.000000 0.000000
# 5 0.000000 0.000000 0.000000 0.000000 0.027588 0.000000
# 6 0.000000 0.000000 0.000000 0.000000 0.000000 0.022219
#
#
# Mechanical properties :
#
#
# Convention : Reuss Voigt Hill
#
# Bulk Modulus (GPa) = 53.25162 59.06223 56.15693
# Shear Modulus (GPa) = 25.15470 32.92968 29.04219
#
# Velocity S-wave (km/s) = 3.20002 3.66131 3.43841
# Velocity P-wave (km/s) = 5.94402 6.47433 6.21484
#
# Compressibility (1/GPa) = 0.01877877
#
# Stress axis : x y z
#
# Youngs Moduli (GPa) = 74.79065 79.20124 31.34299
#
# Poissons Ratio (x) = -0.12650 0.43218
# Poissons Ratio (y) = -0.11945 0.23099
# Poissons Ratio (z) = 1.03127 0.58370
#
# Static dielectric constant tensor:
#      x y z
#    x 2.013390 0.000000 0.000000 
#    y 0.000000 2.348150 0.000000 
#    z 0.000000 0.000000 2.067350 
# 
# From -- ./inp_files/1054.got.cif
#   From: 2010.05.17/outbox.cif.g08.bks.cpg/sg18_1_cif.got.tgz:1054.got - 2010.06.03 22:40:56.
