data_PCOD9312145
_publ_section_title
;
Structure prediction by ZEFSAII (Michael W. Deem and Ramdas Pophale) SiO2 
 PCOD9312145
Probable space group: P 21 21 2
;
_chemical_formula_sum "Si O2"
_cell_formula_units_Z 32
_cell_length_a 14.633421
_cell_length_b 11.615720
_cell_length_c 9.538206
_cell_angle_alpha 90.000000
_cell_angle_beta 90.000000
_cell_angle_gamma 90.000000
_cell_volume 1621.282518
_symmetry_space_group_name_H-M "P 21 21 2"
_symmetry_group_IT_number 18
_symmetry_cell_setting 'orthorhombic'
loop_
_space_group_symop_operation_xyz
x,y,z
-x,-y,z
1/2+x,1/2-y,-z
1/2-x,1/2+y,-z
loop_
_atom_site_type_symbol
_atom_site_label
_atom_site_fract_x
_atom_site_fract_y
_atom_site_fract_z
Si Si1 0.102252 0.136536 0.854241
Si Si2 0.681181 0.775094 0.372885
Si Si3 0.897748 0.136536 0.854241
Si Si4 0.186630 0.869244 0.134651
Si Si5 0.813370 0.869244 0.134651
Si Si6 0.500000 0.867680 0.504348
Si Si7 0.181181 0.275094 0.627115
Si Si8 0.500000 0.370082 0.687229
O O1 0.138478 0.162188 0.699230
O O2 1.000000 0.185234 0.866551
O O3 0.097059 1.000000 0.873896
O O4 0.163914 0.183121 0.982107
O O5 0.638478 0.662188 0.300770
O O6 0.740838 0.823741 0.245552
O O7 0.595078 0.852640 0.419192
O O8 0.750000 0.750000 0.500000
O O9 0.836086 0.183121 0.982107
O O10 0.259162 0.823741 0.245552
O O11 0.089736 0.867476 0.216130
O O12 0.215041 0.000000 0.106856
O O13 0.910264 0.867476 0.216130
O O14 0.404922 0.852640 0.419192
O O15 0.500000 0.749500 0.598934
O O16 0.500000 0.000000 0.564138
O O17 0.500000 0.500000 0.617425
#
# Coordination Sequence:
#
# PCOD9312145 Si02
#       8
#     4   4   4   4   4   4   4   4
#     4  10  21  39  66  95 122 156 212 277 323 376
#     4  12  24  40  62  90 129 178 216 261 318 401
#     4  10  21  39  66  95 122 156 212 277 323 376
#     4  10  20  39  66  94 122 160 214 273 327 380
#     4  10  20  39  66  94 122 160 214 273 327 380
#     4  12  26  43  60  94 142 178 212 274 333 385
#     4  12  24  40  62  90 129 178 216 261 318 401
#     4  10  20  39  68  96 124 168 222 274 321 385
#
# _framework density 19.737459999999999
#
# number of rings (size 3 to 8) (size 9 to 14) (size 15 to 20)
#    0.000    1.250    5.000    1.500    0.000    3.000 
#    0.000    0.000    0.000    3.000    0.000    0.000 
#    0.000    0.000    0.000    0.000    0.000    0.000 
#
# Total GULP energy -178140.051524 kJ/mol
# GULP energy per Si atom -5566.876610 kJ/mol
# Density = 1.969254 g / cm^3
# Si number density = 19.737460 Si / 1000 Ang^3
#
#
#
# Elastic Constant Matrix: (Units=GPa)
#
#
# Indices 1 2 3 4 5 6 
#
# 1 106.3720 20.6078 48.5359 0.0000 0.0000 0.0000
# 2 20.6078 70.9060 46.1199 0.0000 0.0000 0.0000
# 3 48.5359 46.1199 126.7522 0.0000 0.0000 0.0000
# 4 0.0000 0.0000 0.0000 31.0385 0.0000 0.0000
# 5 0.0000 0.0000 0.0000 0.0000 26.8891 0.0000
# 6 0.0000 0.0000 0.0000 0.0000 0.0000 15.6071
#
#
#
# Elastic Compliance Matrix: (Units=1/GPa)
#
#
# Indices 1 2 3 4 5 6 
#
# 1 0.011412 -0.000621 -0.004144 0.000000 0.000000 0.000000
# 2 -0.000621 0.018510 -0.006497 0.000000 0.000000 0.000000
# 3 -0.004144 -0.006497 0.011840 0.000000 0.000000 0.000000
# 4 0.000000 0.000000 0.000000 0.032218 0.000000 0.000000
# 5 0.000000 0.000000 0.000000 0.000000 0.037190 0.000000
# 6 0.000000 0.000000 0.000000 0.000000 0.000000 0.064074
#
#
# Mechanical properties :
#
#
# Convention : Reuss Voigt Hill
#
# Bulk Modulus (GPa) = 51.98185 59.39526 55.68855
# Shear Modulus (GPa) = 24.48818 27.29138 25.88978
#
# Velocity S-wave (km/s) = 3.52617 3.72253 3.62568
# Velocity P-wave (km/s) = 6.55533 6.97383 6.76781
#
# Compressibility (1/GPa) = 0.01923748
#
# Stress axis : x y z
#
# Youngs Moduli (GPa) = 87.62617 54.02588 84.45872
#
# Poissons Ratio (x) = 0.03358 0.34998
# Poissons Ratio (y) = 0.05446 0.54872
# Poissons Ratio (z) = 0.36310 0.35100
#
# Static dielectric constant tensor:
#      x y z
#    x 1.737220 0.000000 0.000000 
#    y 0.000000 1.734370 0.000000 
#    z 0.000000 0.000000 1.699060 
# 
# From -- ./inp_files/4306.got.cif
#   From: 2010.05.17/outbox.cif.g08.bks.cpg/sg18_3_cif.got.tgz:4306.got - 2010.06.03 22:40:56.
