data_PCOD9312274
_publ_section_title
;
Structure prediction by ZEFSAII (Michael W. Deem and Ramdas Pophale) SiO2 
 PCOD9312274
Probable space group: P 21 21 2
;
_chemical_formula_sum "Si O2"
_cell_formula_units_Z 16
_cell_length_a 7.279930
_cell_length_b 12.510712
_cell_length_c 8.923167
_cell_angle_alpha 90.000000
_cell_angle_beta 90.000000
_cell_angle_gamma 90.000000
_cell_volume 812.696241
_symmetry_space_group_name_H-M "P 21 21 2"
_symmetry_group_IT_number 18
_symmetry_cell_setting 'orthorhombic'
loop_
_space_group_symop_operation_xyz
x,y,z
-x,-y,z
1/2+x,1/2-y,-z
1/2-x,1/2+y,-z
loop_
_atom_site_type_symbol
_atom_site_label
_atom_site_fract_x
_atom_site_fract_y
_atom_site_fract_z
Si Si1 0.407036 0.388672 0.831346
Si Si2 0.641335 0.246975 0.343326
Si Si3 0.967589 0.687225 0.320578
Si Si4 0.369886 0.400033 0.186451
O O1 0.500000 0.500000 0.787771
O O2 0.225530 0.357773 0.737293
O O3 0.541954 0.290381 0.790003
O O4 0.364242 0.390900 0.007128
O O5 0.595516 0.221887 0.514209
O O6 0.470030 0.297116 0.258168
O O7 0.813348 0.329603 0.331034
O O8 0.833236 0.598394 0.255684
O O9 0.500000 0.500000 0.223788
#
# Coordination Sequence:
#
# PCOD9312274 Si02
#       4
#     4   4   4   4
#     4   9  21  39  60  83 116 151 191 238 288 337
#     4  10  21  36  61  84 117 149 192 231 289 335
#     4  10  21  36  61  84 117 149 192 231 289 335
#     4  11  21  39  60  85 116 151 191 240 284 339
#
# _framework density 19.687550999999999
#
# number of rings (size 3 to 8) (size 9 to 14) (size 15 to 20)
#    1.500    0.500    2.500    1.500    0.000    5.000 
#    0.000    1.250    0.000    0.000    0.000    0.000 
#    0.000    0.000    0.000    0.000    0.000    0.000 
#
# Total GULP energy -89115.330333 kJ/mol
# GULP energy per Si atom -5569.708146 kJ/mol
# Density = 1.964274 g / cm^3
# Si number density = 19.687551 Si / 1000 Ang^3
#
#
#
# Elastic Constant Matrix: (Units=GPa)
#
#
# Indices 1 2 3 4 5 6 
#
# 1 76.3950 -7.8165 11.4930 0.0000 0.0000 0.0000
# 2 -7.8165 27.4451 -0.1245 0.0000 0.0000 0.0000
# 3 11.4930 -0.1245 38.1183 0.0000 0.0000 0.0000
# 4 0.0000 0.0000 0.0000 -13.9790 0.0000 0.0000
# 5 0.0000 0.0000 0.0000 0.0000 22.9000 0.0000
# 6 0.0000 0.0000 0.0000 0.0000 0.0000 29.5311
#
#
#
# Elastic Compliance Matrix: (Units=1/GPa)
#
#
# Indices 1 2 3 4 5 6 
#
# 1 0.014139 0.004008 -0.004250 0.000000 0.000000 0.000000
# 2 0.004008 0.037573 -0.001086 0.000000 0.000000 0.000000
# 3 -0.004250 -0.001086 0.027512 0.000000 0.000000 0.000000
# 4 0.000000 0.000000 0.000000 -0.071536 0.000000 0.000000
# 5 0.000000 0.000000 0.000000 0.000000 0.043668 0.000000
# 6 0.000000 0.000000 0.000000 0.000000 0.000000 0.033863
#
#
# Mechanical properties :
#
#
# Convention : Reuss Voigt Hill
#
# Bulk Modulus (GPa) = 13.06028 16.56251 14.81140
# Shear Modulus (GPa) = 44.09256 16.91751 30.50503
#
# Velocity S-wave (km/s) = 4.73759 2.93456 3.94059
# Velocity P-wave (km/s) = 6.04769 4.46242 5.31449
#
# Compressibility (1/GPa) = 0.07656801
#
# Stress axis : x y z
#
# Youngs Moduli (GPa) = 70.72494 26.61497 36.34777
#
# Poissons Ratio (x) = -0.10666 0.15448
# Poissons Ratio (y) = -0.28344 0.03946
# Poissons Ratio (z) = 0.30058 0.02889
#
# Static dielectric constant tensor:
#      x y z
#    x 1.708560 0.000000 0.000000 
#    y 0.000000 1.708460 0.000000 
#    z 0.000000 0.000000 1.636390 
# 
# From -- ./inp_files/2822.got.cif
#   From: 2010.05.17/outbox.cif.g08.bks.cpg/sg18_2_cif.got.tgz:2822.got - 2010.06.03 22:40:56.
