data_PCOD9312682
_publ_section_title
;
Structure prediction by ZEFSAII (Michael W. Deem and Ramdas Pophale) SiO2 
 PCOD9312682
Probable space group: P 21 21 2
;
_chemical_formula_sum "Si O2"
_cell_formula_units_Z 32
_cell_length_a 5.948176
_cell_length_b 13.531023
_cell_length_c 17.284085
_cell_angle_alpha 90.000000
_cell_angle_beta 90.000000
_cell_angle_gamma 90.000000
_cell_volume 1391.107961
_symmetry_space_group_name_H-M "P 21 21 2"
_symmetry_group_IT_number 18
_symmetry_cell_setting 'orthorhombic'
loop_
_space_group_symop_operation_xyz
x,y,z
-x,-y,z
1/2+x,1/2-y,-z
1/2-x,1/2+y,-z
loop_
_atom_site_type_symbol
_atom_site_label
_atom_site_fract_x
_atom_site_fract_y
_atom_site_fract_z
Si Si1 0.335208 0.406027 0.306967
Si Si2 0.395493 0.099371 0.457338
Si Si3 0.674710 0.415966 0.699263
Si Si4 0.156465 0.588192 0.869708
Si Si5 0.597979 0.305945 0.001566
Si Si6 0.419249 0.694927 0.435411
Si Si7 0.067489 0.705252 0.295184
Si Si8 0.924041 0.796175 0.832018
O O1 0.500000 0.500000 0.310377
O O2 0.375055 0.347249 0.386809
O O3 0.069812 0.396462 0.298806
O O4 0.415872 0.345825 0.231217
O O5 0.366742 0.090040 0.365233
O O6 0.536238 0.198328 0.470892
O O7 0.160106 0.121155 0.498474
O O8 0.500000 0.000000 0.489173
O O9 0.500000 0.500000 0.673780
O O10 0.751858 0.442389 0.785634
O O11 0.571042 0.306543 0.700442
O O12 0.000000 0.500000 0.900640
O O13 0.009580 0.686523 0.852813
O O14 0.348345 0.621903 0.930016
O O15 0.585926 0.352835 0.086956
O O16 0.343418 0.256419 0.992568
O O17 0.234803 0.704751 0.367659
O O18 0.191659 0.709260 0.213209
#
# Coordination Sequence:
#
# PCOD9312682 Si02
#       8
#     4   4   4   4   4   4   4   4
#     4  11  25  44  70 100 132 185 238 293 361 425
#     4  12  26  44  67 101 140 183 237 294 359 432
#     4  12  22  39  68 101 137 181 229 287 356 432
#     4  11  22  42  66 104 143 186 234 288 358 441
#     4  10  23  43  70 101 143 190 235 293 359 427
#     4  11  26  44  67  98 139 180 234 292 355 432
#     4  11  21  43  70  95 137 179 228 297 351 428
#     4  10  22  43  68  99 139 180 233 294 353 427
#
# _framework density 23.003247999999999
#
# number of rings (size 3 to 8) (size 9 to 14) (size 15 to 20)
#    0.000    1.000    2.500    4.125    3.500    3.000 
#    2.250    0.625    0.000    0.000    0.000    0.000 
#    0.000    0.000    0.000    0.000    0.000    0.000 
#
# Total GULP energy -178714.078320 kJ/mol
# GULP energy per Si atom -5584.814947 kJ/mol
# Density = 2.295089 g / cm^3
# Si number density = 23.003248 Si / 1000 Ang^3
#
#
#
# Elastic Constant Matrix: (Units=GPa)
#
#
# Indices 1 2 3 4 5 6 
#
# 1 47.9213 13.5817 1.0424 0.0000 0.0000 0.0000
# 2 13.5817 95.2508 7.2192 0.0000 0.0000 0.0000
# 3 1.0424 7.2192 118.8692 0.0000 0.0000 0.0000
# 4 0.0000 0.0000 0.0000 -6.9791 0.0000 0.0000
# 5 0.0000 0.0000 0.0000 0.0000 22.9101 0.0000
# 6 0.0000 0.0000 0.0000 0.0000 0.0000 39.6406
#
#
#
# Elastic Compliance Matrix: (Units=1/GPa)
#
#
# Indices 1 2 3 4 5 6 
#
# 1 0.021746 -0.003101 -0.000002 0.000000 0.000000 0.000000
# 2 -0.003101 0.010989 -0.000640 0.000000 0.000000 0.000000
# 3 -0.000002 -0.000640 0.008452 0.000000 0.000000 0.000000
# 4 0.000000 0.000000 0.000000 -0.143284 0.000000 0.000000
# 5 0.000000 0.000000 0.000000 0.000000 0.043649 0.000000
# 6 0.000000 0.000000 0.000000 0.000000 0.000000 0.025227
#
#
# Mechanical properties :
#
#
# Convention : Reuss Voigt Hill
#
# Bulk Modulus (GPa) = 29.67298 33.96976 31.82137
# Shear Modulus (GPa) = -344.79532 27.12751 -158.83390
#
# Velocity S-wave (km/s) = -12.25623 3.43781 -8.31856
# Velocity P-wave (km/s) = 13.68793 5.52788 8.85444
#
# Compressibility (1/GPa) = 0.03370069
#
# Stress axis : x y z
#
# Youngs Moduli (GPa) = 45.98466 90.99809 118.32200
#
# Poissons Ratio (x) = 0.28215 0.00028
# Poissons Ratio (y) = 0.14258 0.07575
# Poissons Ratio (z) = 0.00011 0.05826
#
# Static dielectric constant tensor:
#      x y z
#    x 1.998960 0.000000 0.000000 
#    y 0.000000 1.887740 0.000000 
#    z 0.000000 0.000000 1.848390 
# 
# From -- ./inp_files/7205.got.cif
#   From: 2010.05.17/outbox.cif.g08.bks.cpg/sg18_4_cif.got.tgz:7205.got - 2010.06.03 22:40:56.
