data_PCOD9312509
_publ_section_title
;
Structure prediction by ZEFSAII (Michael W. Deem and Ramdas Pophale) SiO2 
 PCOD9312509
Probable space group: P 21 21 2
;
_chemical_formula_sum "Si O2"
_cell_formula_units_Z 16
_cell_length_a 8.253003
_cell_length_b 15.298707
_cell_length_c 4.971248
_cell_angle_alpha 90.000000
_cell_angle_beta 90.000000
_cell_angle_gamma 90.000000
_cell_volume 627.671138
_symmetry_space_group_name_H-M "P 21 21 2"
_symmetry_group_IT_number 18
_symmetry_cell_setting 'orthorhombic'
loop_
_space_group_symop_operation_xyz
x,y,z
-x,-y,z
1/2+x,1/2-y,-z
1/2-x,1/2+y,-z
loop_
_atom_site_type_symbol
_atom_site_label
_atom_site_fract_x
_atom_site_fract_y
_atom_site_fract_z
Si Si1 0.500000 0.500000 0.748214
Si Si2 0.905450 0.259566 0.246365
Si Si3 0.000000 0.500000 0.582010
Si Si4 0.800879 0.937189 0.733374
Si Si5 0.908505 0.681162 0.757731
O O1 0.434771 0.567170 0.508727
O O2 0.364113 0.524066 0.982288
O O3 0.784812 0.343165 0.233703
O O4 0.020305 0.274651 0.495049
O O5 0.785136 0.177917 0.246030
O O6 0.022991 0.262151 0.997342
O O7 0.841339 0.497340 0.394080
O O8 0.015296 0.414576 0.762324
#
# Coordination Sequence:
#
# PCOD9312509 Si02
#       5
#     2   4   2   4   4
#     4  10  22  38  62  94 132 170 210 266 324 380
#     4  11  24  44  66  94 130 170 216 268 323 384
#     4  10  24  44  68  96 130 174 220 266 320 388
#     4  10  22  40  63  95 130 166 214 263 321 387
#     4  11  25  44  68  95 131 171 217 267 324 386
#
# _framework density 25.491053000000001
#
# number of rings (size 3 to 8) (size 9 to 14) (size 15 to 20)
#    0.000    1.500    0.000    4.500    0.000   15.000 
#    0.000    0.000    0.000    0.000    0.000    0.000 
#    0.000    0.000    0.000    0.000    0.000    0.000 
#
# Total GULP energy -89360.234263 kJ/mol
# GULP energy per Si atom -5585.014641 kJ/mol
# Density = 2.543303 g / cm^3
# Si number density = 25.491053 Si / 1000 Ang^3
#
#
#
# Elastic Constant Matrix: (Units=GPa)
#
#
# Indices 1 2 3 4 5 6 
#
# 1 94.4039 9.9376 58.7317 0.0000 0.0000 0.0000
# 2 9.9376 37.6838 24.3827 0.0000 0.0000 0.0000
# 3 58.7317 24.3827 204.3957 0.0000 0.0000 0.0000
# 4 0.0000 0.0000 0.0000 32.1792 0.0000 0.0000
# 5 0.0000 0.0000 0.0000 0.0000 54.5555 0.0000
# 6 0.0000 0.0000 0.0000 0.0000 0.0000 45.6745
#
#
#
# Elastic Compliance Matrix: (Units=1/GPa)
#
#
# Indices 1 2 3 4 5 6 
#
# 1 0.012940 -0.001091 -0.003588 0.000000 0.000000 0.000000
# 2 -0.001091 0.028848 -0.003128 0.000000 0.000000 0.000000
# 3 -0.003588 -0.003128 0.006297 0.000000 0.000000 0.000000
# 4 0.000000 0.000000 0.000000 0.031076 0.000000 0.000000
# 5 0.000000 0.000000 0.000000 0.000000 0.018330 0.000000
# 6 0.000000 0.000000 0.000000 0.000000 0.000000 0.021894
#
#
# Mechanical properties :
#
#
# Convention : Reuss Voigt Hill
#
# Bulk Modulus (GPa) = 30.79659 58.06525 44.43092
# Shear Modulus (GPa) = 34.28842 42.71060 38.49951
#
# Velocity S-wave (km/s) = 3.67156 4.09774 3.89049
# Velocity P-wave (km/s) = 5.48465 6.72434 6.13589
#
# Compressibility (1/GPa) = 0.03247113
#
# Stress axis : x y z
#
# Youngs Moduli (GPa) = 77.28063 34.66427 158.81558
#
# Poissons Ratio (x) = 0.03781 0.56984
# Poissons Ratio (y) = 0.08429 0.49676
# Poissons Ratio (z) = 0.27729 0.10843
#
# Static dielectric constant tensor:
#      x y z
#    x 2.035540 0.000000 0.000000 
#    y 0.000000 2.086210 0.000000 
#    z 0.000000 0.000000 1.883580 
# 
# From -- ./inp_files/71.got.cif
#   From: 2010.05.17/outbox.cif.g08.bks.cpg/sg18_1_cif.got.tgz:71.got - 2010.06.03 22:40:56.
