data_PCOD9312714
_publ_section_title
;
Structure prediction by ZEFSAII (Michael W. Deem and Ramdas Pophale) SiO2 
 PCOD9312714
Probable space group: P 21 21 2
;
_chemical_formula_sum "Si O2"
_cell_formula_units_Z 18
_cell_length_a 12.629112
_cell_length_b 9.584818
_cell_length_c 6.882123
_cell_angle_alpha 90.000000
_cell_angle_beta 90.000000
_cell_angle_gamma 90.000000
_cell_volume 833.065436
_symmetry_space_group_name_H-M "P 21 21 2"
_symmetry_group_IT_number 18
_symmetry_cell_setting 'orthorhombic'
loop_
_space_group_symop_operation_xyz
x,y,z
-x,-y,z
1/2+x,1/2-y,-z
1/2-x,1/2+y,-z
loop_
_atom_site_type_symbol
_atom_site_label
_atom_site_fract_x
_atom_site_fract_y
_atom_site_fract_z
Si Si1 0.000000 0.000000 0.235280
Si Si2 0.983096 0.846712 0.854287
Si Si3 0.107094 0.587341 0.869478
Si Si4 0.721862 0.553706 0.585334
Si Si5 0.243343 0.648304 0.250199
O O1 0.107955 0.007271 0.352674
O O2 0.994034 0.129101 0.083480
O O3 0.860467 0.815185 0.827878
O O4 0.062210 0.730758 0.777317
O O5 0.000000 0.000000 0.766219
O O6 0.188912 0.506424 0.732094
O O7 0.000000 0.500000 0.906978
O O8 0.167348 0.624283 0.068131
O O9 0.750942 0.493059 0.375607
O O10 0.714944 0.719759 0.614824
#
# Coordination Sequence:
#
# PCOD9312714 Si02
#       5
#     2   4   4   4   4
#     4  10  22  44  72  96 136 192 228 282 354 428
#     4  10  22  44  72  96 139 189 235 284 351 420
#     4  12  25  48  75 103 145 188 241 297 359 426
#     4  12  28  45  71 107 145 185 239 295 362 424
#     4  12  27  45  70 109 143 189 236 296 357 426
#
# _framework density 21.606946000000001
#
# number of rings (size 3 to 8) (size 9 to 14) (size 15 to 20)
#    0.667    0.000    6.667    0.000    4.667    2.667 
#    0.000    0.000    0.000    0.000    0.000    0.000 
#    0.000    0.000    0.000    0.000    0.000    0.000 
#
# Total GULP energy -100577.694935 kJ/mol
# GULP energy per Si atom -5587.649719 kJ/mol
# Density = 2.155777 g / cm^3
# Si number density = 21.606946 Si / 1000 Ang^3
#
#
#
# Elastic Constant Matrix: (Units=GPa)
#
#
# Indices 1 2 3 4 5 6 
#
# 1 157.5369 27.3354 43.0856 0.0000 0.0000 0.0000
# 2 27.3354 79.9127 9.6849 0.0000 0.0000 0.0000
# 3 43.0856 9.6849 69.3838 0.0000 0.0000 0.0000
# 4 0.0000 0.0000 0.0000 21.5912 0.0000 0.0000
# 5 0.0000 0.0000 0.0000 0.0000 19.6291 0.0000
# 6 0.0000 0.0000 0.0000 0.0000 0.0000 37.8885
#
#
#
# Elastic Compliance Matrix: (Units=1/GPa)
#
#
# Indices 1 2 3 4 5 6 
#
# 1 0.008000 -0.002171 -0.004665 0.000000 0.000000 0.000000
# 2 -0.002171 0.013318 -0.000511 0.000000 0.000000 0.000000
# 3 -0.004665 -0.000511 0.017381 0.000000 0.000000 0.000000
# 4 0.000000 0.000000 0.000000 0.046315 0.000000 0.000000
# 5 0.000000 0.000000 0.000000 0.000000 0.050945 0.000000
# 6 0.000000 0.000000 0.000000 0.000000 0.000000 0.026393
#
#
# Mechanical properties :
#
#
# Convention : Reuss Voigt Hill
#
# Bulk Modulus (GPa) = 41.65721 51.89391 46.77556
# Shear Modulus (GPa) = 27.02002 30.93693 28.97847
#
# Velocity S-wave (km/s) = 3.54011 3.78802 3.66616
# Velocity P-wave (km/s) = 6.00260 6.57279 6.29416
#
# Compressibility (1/GPa) = 0.02400545
#
# Stress axis : x y z
#
# Youngs Moduli (GPa) = 124.99522 75.08488 57.53514
#
# Poissons Ratio (x) = 0.16303 0.26840
# Poissons Ratio (y) = 0.27140 0.02938
# Poissons Ratio (z) = 0.58309 0.03835
#
# Static dielectric constant tensor:
#      x y z
#    x 1.745830 0.000000 0.000000 
#    y 0.000000 1.834370 0.000000 
#    z 0.000000 0.000000 1.767370 
# 
# From -- ./inp_files/902.got.cif
#   From: 2010.05.17/outbox.cif.g08.bks.cpg/sg18_1_cif.got.tgz:902.got - 2010.06.03 22:40:56.
