data_PCOD9312728
_publ_section_title
;
Structure prediction by ZEFSAII (Michael W. Deem and Ramdas Pophale) SiO2 
 PCOD9312728
Probable space group: P 21 21 2
;
_chemical_formula_sum "Si O2"
_cell_formula_units_Z 18
_cell_length_a 9.432563
_cell_length_b 12.312109
_cell_length_c 7.324588
_cell_angle_alpha 90.000000
_cell_angle_beta 90.000000
_cell_angle_gamma 90.000000
_cell_volume 850.639151
_symmetry_space_group_name_H-M "P 21 21 2"
_symmetry_group_IT_number 18
_symmetry_cell_setting 'orthorhombic'
loop_
_space_group_symop_operation_xyz
x,y,z
-x,-y,z
1/2+x,1/2-y,-z
1/2-x,1/2+y,-z
loop_
_atom_site_type_symbol
_atom_site_label
_atom_site_fract_x
_atom_site_fract_y
_atom_site_fract_z
Si Si1 0.868576 0.200510 0.127381
Si Si2 0.448852 0.799240 0.582060
Si Si3 0.842712 0.295377 0.727767
Si Si4 0.697864 0.038221 0.349348
Si Si5 0.000000 0.000000 0.281407
O O1 0.729380 0.138674 0.209044
O O2 0.933840 0.292998 0.258576
O O3 0.985347 0.104318 0.150486
O O4 0.849014 0.242871 0.925864
O O5 0.308057 0.734727 0.638188
O O6 0.534551 0.753570 0.407640
O O7 0.388734 0.914826 0.517235
O O8 0.859586 0.426639 0.735364
O O9 0.859467 0.007198 0.400773
#
# Coordination Sequence:
#
# PCOD9312728 Si02
#       5
#     4   4   4   4   2
#     4  10  23  45  74 100 144 195 228 298 368 423
#     4  12  24  46  71 107 140 191 235 301 361 421
#     4  12  25  47  74 102 154 180 251 299 351 436
#     4  10  22  46  67 107 143 184 238 299 350 434
#     4   8  18  44  68  98 144 184 238 280 372 420
#
# _framework density 21.160558000000002
#
# number of rings (size 3 to 8) (size 9 to 14) (size 15 to 20)
#    1.333    0.000    4.444    0.667    3.111    0.000 
#   12.000    0.000    0.000    0.000    0.000    0.000 
#    0.000    0.000    0.000    0.000    0.000    0.000 
#
# Total GULP energy -100204.870207 kJ/mol
# GULP energy per Si atom -5566.937234 kJ/mol
# Density = 2.111240 g / cm^3
# Si number density = 21.160558 Si / 1000 Ang^3
#
#
#
# Elastic Constant Matrix: (Units=GPa)
#
#
# Indices 1 2 3 4 5 6 
#
# 1 92.7652 48.2614 70.9522 0.0000 0.0000 0.0000
# 2 48.2614 112.4712 61.8259 0.0000 0.0000 0.0000
# 3 70.9522 61.8259 137.5183 0.0000 0.0000 0.0000
# 4 0.0000 0.0000 0.0000 33.2831 0.0000 0.0000
# 5 0.0000 0.0000 0.0000 0.0000 17.4132 0.0000
# 6 0.0000 0.0000 0.0000 0.0000 0.0000 35.2835
#
#
#
# Elastic Compliance Matrix: (Units=1/GPa)
#
#
# Indices 1 2 3 4 5 6 
#
# 1 0.018869 -0.003646 -0.008096 0.000000 0.000000 0.000000
# 2 -0.003646 0.012514 -0.003745 0.000000 0.000000 0.000000
# 3 -0.008096 -0.003745 0.013133 0.000000 0.000000 0.000000
# 4 0.000000 0.000000 0.000000 0.030045 0.000000 0.000000
# 5 0.000000 0.000000 0.000000 0.000000 0.057428 0.000000
# 6 0.000000 0.000000 0.000000 0.000000 0.000000 0.028342
#
#
# Mechanical properties :
#
#
# Convention : Reuss Voigt Hill
#
# Bulk Modulus (GPa) = 73.84771 78.31486 76.08128
# Shear Modulus (GPa) = 25.53359 27.97695 26.75527
#
# Velocity S-wave (km/s) = 3.47747 3.64005 3.55969
# Velocity P-wave (km/s) = 7.14830 7.39978 7.27513
#
# Compressibility (1/GPa) = 0.01354138
#
# Stress axis : x y z
#
# Youngs Moduli (GPa) = 52.99571 79.90780 76.14568
#
# Poissons Ratio (x) = 0.29137 0.61650
# Poissons Ratio (y) = 0.19324 0.28516
# Poissons Ratio (z) = 0.42907 0.29925
#
# Static dielectric constant tensor:
#      x y z
#    x 1.844080 0.000000 0.000000 
#    y 0.000000 1.847490 0.000000 
#    z 0.000000 0.000000 1.711690 
# 
# From -- ./inp_files/928.got.cif
#   From: 2010.05.17/outbox.cif.g08.bks.cpg/sg18_1_cif.got.tgz:928.got - 2010.06.03 22:40:56.
