data_PCOD9312132
_publ_section_title
;
Structure prediction by ZEFSAII (Michael W. Deem and Ramdas Pophale) SiO2 
 PCOD9312132
Probable space group: P 21 21 2
;
_chemical_formula_sum "Si O2"
_cell_formula_units_Z 24
_cell_length_a 7.909223
_cell_length_b 17.625174
_cell_length_c 7.403851
_cell_angle_alpha 90.000000
_cell_angle_beta 90.000000
_cell_angle_gamma 90.000000
_cell_volume 1032.107429
_symmetry_space_group_name_H-M "P 21 21 2"
_symmetry_group_IT_number 18
_symmetry_cell_setting 'orthorhombic'
loop_
_space_group_symop_operation_xyz
x,y,z
-x,-y,z
1/2+x,1/2-y,-z
1/2-x,1/2+y,-z
loop_
_atom_site_type_symbol
_atom_site_label
_atom_site_fract_x
_atom_site_fract_y
_atom_site_fract_z
Si Si1 0.962179 0.682070 0.610314
Si Si2 0.331478 0.050469 0.555874
Si Si3 0.371714 0.416020 0.572113
Si Si4 0.956459 0.918921 0.818018
Si Si5 0.610891 0.740096 0.069611
Si Si6 0.958717 0.784660 0.269868
O O1 0.108960 0.625489 0.545651
O O2 0.990020 0.705467 0.815328
O O3 0.788326 0.638786 0.586516
O O4 0.962799 0.752003 0.472198
O O5 0.234220 0.073214 0.740432
O O6 0.500000 0.000000 0.592938
O O7 0.209535 0.000073 0.424999
O O8 0.440232 0.415268 0.369397
O O9 0.503884 0.374149 0.703790
O O10 0.025640 0.843654 0.913464
O O11 0.000000 0.000000 0.909262
O O12 0.788486 0.755592 0.169733
O O13 0.604117 0.752800 0.855878
#
# Coordination Sequence:
#
# PCOD9312132 Si02
#       6
#     4   4   4   4   4   4
#     4  11  21  41  69  95 133 173 224 286 338 402
#     4   9  21  37  69 100 126 179 227 272 350 411
#     4  10  20  41  66  94 129 176 219 278 340 406
#     4  10  20  39  62  91 129 173 222 270 337 401
#     4  12  26  40  66 103 132 182 232 280 347 406
#     4  12  24  40  67  98 138 176 233 285 338 417
#
# _framework density 23.253395000000001
#
# number of rings (size 3 to 8) (size 9 to 14) (size 15 to 20)
#    0.000    1.333    3.333    2.000    4.667    0.000 
#    0.000    4.167    0.000    3.000    0.000    0.000 
#    0.000    0.000    0.000    0.000    0.000    0.000 
#
# Total GULP energy -133942.872057 kJ/mol
# GULP energy per Si atom -5580.953002 kJ/mol
# Density = 2.320047 g / cm^3
# Si number density = 23.253395 Si / 1000 Ang^3
#
#
#
# Elastic Constant Matrix: (Units=GPa)
#
#
# Indices 1 2 3 4 5 6 
#
# 1 84.9007 53.4700 4.1053 0.0000 0.0000 0.0000
# 2 53.4700 111.5329 4.9010 0.0000 0.0000 0.0000
# 3 4.1053 4.9010 37.6649 0.0000 0.0000 0.0000
# 4 0.0000 0.0000 0.0000 28.9446 0.0000 0.0000
# 5 0.0000 0.0000 0.0000 0.0000 19.5613 0.0000
# 6 0.0000 0.0000 0.0000 0.0000 0.0000 46.8117
#
#
#
# Elastic Compliance Matrix: (Units=1/GPa)
#
#
# Indices 1 2 3 4 5 6 
#
# 1 0.016896 -0.008065 -0.000792 0.000000 0.000000 0.000000
# 2 -0.008065 0.012868 -0.000795 0.000000 0.000000 0.000000
# 3 -0.000792 -0.000795 0.026740 0.000000 0.000000 0.000000
# 4 0.000000 0.000000 0.000000 0.034549 0.000000 0.000000
# 5 0.000000 0.000000 0.000000 0.000000 0.051121 0.000000
# 6 0.000000 0.000000 0.000000 0.000000 0.000000 0.021362
#
#
# Mechanical properties :
#
#
# Convention : Reuss Voigt Hill
#
# Bulk Modulus (GPa) = 26.88319 39.89455 33.38887
# Shear Modulus (GPa) = 25.60938 30.50501 28.05719
#
# Velocity S-wave (km/s) = 3.32221 3.62588 3.47736
# Velocity P-wave (km/s) = 5.12857 5.89262 5.52382
#
# Compressibility (1/GPa) = 0.03719796
#
# Stress axis : x y z
#
# Youngs Moduli (GPa) = 59.18437 77.71470 37.39755
#
# Poissons Ratio (x) = 0.62681 0.02962
# Poissons Ratio (y) = 0.47735 0.02974
# Poissons Ratio (z) = 0.04688 0.06180
#
# Static dielectric constant tensor:
#      x y z
#    x 1.980340 0.000000 0.000000 
#    y 0.000000 1.915630 0.000000 
#    z 0.000000 0.000000 1.861010 
# 
# From -- ./inp_files/3293.got.cif
#   From: 2010.05.17/outbox.cif.g08.bks.cpg/sg18_2_cif.got.tgz:3293.got - 2010.06.03 22:40:56.
