data_PCOD9312461
_publ_section_title
;
Structure prediction by ZEFSAII (Michael W. Deem and Ramdas Pophale) SiO2 
 PCOD9312461
Probable space group: P 21 21 2
;
_chemical_formula_sum "Si O2"
_cell_formula_units_Z 30
_cell_length_a 26.500612
_cell_length_b 5.707557
_cell_length_c 8.565092
_cell_angle_alpha 90.000000
_cell_angle_beta 90.000000
_cell_angle_gamma 90.000000
_cell_volume 1295.502314
_symmetry_space_group_name_H-M "P 21 21 2"
_symmetry_group_IT_number 18
_symmetry_cell_setting 'orthorhombic'
loop_
_space_group_symop_operation_xyz
x,y,z
-x,-y,z
1/2+x,1/2-y,-z
1/2-x,1/2+y,-z
loop_
_atom_site_type_symbol
_atom_site_label
_atom_site_fract_x
_atom_site_fract_y
_atom_site_fract_z
Si Si1 0.917377 0.929486 0.573994
Si Si2 0.140777 0.435298 0.371662
Si Si3 0.500000 0.000000 0.919174
Si Si4 0.837293 0.300450 0.662814
Si Si5 0.857739 0.910187 0.112414
Si Si6 0.776192 0.203828 0.963876
Si Si7 0.439306 0.319938 0.718333
Si Si8 0.089254 0.361520 0.853891
O O1 0.865280 0.064266 0.611845
O O2 0.948148 0.099280 0.459706
O O3 0.899924 0.715211 0.468120
O O4 0.936898 0.822992 0.735176
O O5 0.175233 0.557687 0.503907
O O6 0.165022 0.261910 0.244347
O O7 0.105299 0.627143 0.291325
O O8 0.486885 0.214052 0.804749
O O9 0.548092 0.035868 0.029552
O O10 0.880927 0.444483 0.755137
O O11 0.793823 0.249450 0.786369
O O12 0.824421 0.133844 0.069850
O O13 0.912092 0.983782 0.178405
O O14 0.868189 0.770148 0.954421
O O15 0.753679 0.453610 0.021792
#
# Coordination Sequence:
#
# PCOD9312461 Si02
#       8
#     4   4   2   4   4   4   4   4
#     4   9  20  41  68  91 125 190 226 272 356 430
#     4   9  20  40  72  94 126 186 232 271 346 444
#     4  12  24  38  64 102 144 172 244 310 352 406
#     4  10  21  44  70  97 137 184 230 280 365 437
#     4  11  22  43  73  95 131 190 233 283 367 434
#     4  12  27  42  74 112 144 179 238 309 364 431
#     4  10  22  41  66  93 134 184 229 291 351 429
#     4  11  22  40  69  98 134 181 238 293 347 427
#
# _framework density 23.157042000000001
#
# number of rings (size 3 to 8) (size 9 to 14) (size 15 to 20)
#    0.000    1.600    2.667    1.600    3.733    0.533 
#    0.000    7.333    8.800    0.000    0.000    0.000 
#    0.000    0.000    0.000    0.000    0.000    0.000 
#
# Total GULP energy -167583.757040 kJ/mol
# GULP energy per Si atom -5586.125235 kJ/mol
# Density = 2.310434 g / cm^3
# Si number density = 23.157042 Si / 1000 Ang^3
#
#
#
# Elastic Constant Matrix: (Units=GPa)
#
#
# Indices 1 2 3 4 5 6 
#
# 1 63.6634 24.5450 20.3919 0.0000 0.0000 0.0000
# 2 24.5450 80.6633 32.9893 0.0000 0.0000 0.0000
# 3 20.3919 32.9893 116.1655 0.0000 0.0000 0.0000
# 4 0.0000 0.0000 0.0000 47.3879 0.0000 0.0000
# 5 0.0000 0.0000 0.0000 0.0000 17.0811 0.0000
# 6 0.0000 0.0000 0.0000 0.0000 0.0000 39.1227
#
#
#
# Elastic Compliance Matrix: (Units=1/GPa)
#
#
# Indices 1 2 3 4 5 6 
#
# 1 0.018132 -0.004770 -0.001828 0.000000 0.000000 0.000000
# 2 -0.004770 0.015281 -0.003502 0.000000 0.000000 0.000000
# 3 -0.001828 -0.003502 0.009924 0.000000 0.000000 0.000000
# 4 0.000000 0.000000 0.000000 0.021102 0.000000 0.000000
# 5 0.000000 0.000000 0.000000 0.000000 0.058544 0.000000
# 6 0.000000 0.000000 0.000000 0.000000 0.000000 0.025561
#
#
# Mechanical properties :
#
#
# Convention : Reuss Voigt Hill
#
# Bulk Modulus (GPa) = 43.22210 46.26051 44.74131
# Shear Modulus (GPa) = 28.33550 32.88940 30.61245
#
# Velocity S-wave (km/s) = 3.50183 3.77274 3.63981
# Velocity P-wave (km/s) = 5.92078 6.24487 6.08498
#
# Compressibility (1/GPa) = 0.02313631
#
# Stress axis : x y z
#
# Youngs Moduli (GPa) = 55.15058 65.44113 100.76609
#
# Poissons Ratio (x) = 0.31213 0.18424
# Poissons Ratio (y) = 0.26305 0.35291
# Poissons Ratio (z) = 0.10084 0.22919
#
# Static dielectric constant tensor:
#      x y z
#    x 1.867520 0.000000 0.000000 
#    y 0.000000 1.899800 0.000000 
#    z 0.000000 0.000000 1.859520 
# 
# From -- ./inp_files/4846.got.cif
#   From: 2010.05.17/outbox.cif.g08.bks.cpg/sg18_3_cif.got.tgz:4846.got - 2010.06.03 22:40:56.
