data_PCOD9312151
_publ_section_title
;
Structure prediction by ZEFSAII (Michael W. Deem and Ramdas Pophale) SiO2 
 PCOD9312151
Probable space group: P 21 21 2
;
_chemical_formula_sum "Si O2"
_cell_formula_units_Z 32
_cell_length_a 12.769133
_cell_length_b 10.902017
_cell_length_c 9.556889
_cell_angle_alpha 90.000000
_cell_angle_beta 90.000000
_cell_angle_gamma 90.000000
_cell_volume 1330.407876
_symmetry_space_group_name_H-M "P 21 21 2"
_symmetry_group_IT_number 18
_symmetry_cell_setting 'orthorhombic'
loop_
_space_group_symop_operation_xyz
x,y,z
-x,-y,z
1/2+x,1/2-y,-z
1/2-x,1/2+y,-z
loop_
_atom_site_type_symbol
_atom_site_label
_atom_site_fract_x
_atom_site_fract_y
_atom_site_fract_z
Si Si1 0.997097 0.142418 0.919875
Si Si2 0.520236 0.816543 0.655667
Si Si3 0.902453 0.091162 0.199477
Si Si4 0.673611 0.046891 0.149659
Si Si5 0.861414 0.304581 0.754572
Si Si6 0.158188 0.308939 0.572177
Si Si7 0.704040 0.929903 0.534173
Si Si8 0.350363 0.788858 0.895359
O O1 0.951309 0.208007 0.784645
O O2 0.914468 0.156960 0.048808
O O3 0.000000 0.000000 0.890201
O O4 0.103543 0.189199 0.993194
O O5 0.588253 0.692785 0.681326
O O6 0.446616 0.806360 0.520381
O O7 0.607215 0.921885 0.642488
O O8 0.442249 0.818259 0.786686
O O9 0.793765 0.020668 0.196282
O O10 0.000000 0.000000 0.213866
O O11 0.639848 0.141691 0.270684
O O12 0.609856 0.922379 0.151933
O O13 0.674304 0.099151 0.995870
O O14 0.843694 0.364682 0.604301
O O15 0.751489 0.250676 0.809527
O O16 0.207405 0.171184 0.574001
O O17 0.223091 0.425665 0.499942
#
# Coordination Sequence:
#
# PCOD9312151 Si02
#       8
#     4   4   4   4   4   4   4   4
#     4  10  22  42  65  97 142 183 225 291 354 419
#     4  11  23  45  70 102 140 183 237 295 353 424
#     4  10  20  39  73 100 137 185 232 288 361 432
#     4  11  23  44  68 103 141 190 233 292 368 424
#     4  11  23  44  70 100 146 189 234 294 357 432
#     4  11  25  46  71 101 145 190 236 297 356 430
#     4  11  25  47  71 103 141 189 241 293 361 425
#     4  11  24  43  71 107 136 180 239 294 358 426
#
# _framework density 24.052776000000001
#
# number of rings (size 3 to 8) (size 9 to 14) (size 15 to 20)
#    0.000    1.250    3.750    2.625    3.500    0.500 
#   13.500    0.625    0.000    0.000    0.000    0.000 
#    0.000    0.000    0.000    0.000    0.000    0.000 
#
# Total GULP energy -178811.048811 kJ/mol
# GULP energy per Si atom -5587.845275 kJ/mol
# Density = 2.399803 g / cm^3
# Si number density = 24.052776 Si / 1000 Ang^3
#
#
#
# Elastic Constant Matrix: (Units=GPa)
#
#
# Indices 1 2 3 4 5 6 
#
# 1 76.3882 22.9148 5.1798 0.0000 0.0000 0.0000
# 2 22.9148 80.5426 14.8370 0.0000 0.0000 0.0000
# 3 5.1798 14.8370 63.3449 0.0000 0.0000 0.0000
# 4 0.0000 0.0000 0.0000 41.6941 0.0000 0.0000
# 5 0.0000 0.0000 0.0000 0.0000 30.7500 0.0000
# 6 0.0000 0.0000 0.0000 0.0000 0.0000 32.7989
#
#
#
# Elastic Compliance Matrix: (Units=1/GPa)
#
#
# Indices 1 2 3 4 5 6 
#
# 1 0.014316 -0.004031 -0.000226 0.000000 0.000000 0.000000
# 2 -0.004031 0.014111 -0.002975 0.000000 0.000000 0.000000
# 3 -0.000226 -0.002975 0.016502 0.000000 0.000000 0.000000
# 4 0.000000 0.000000 0.000000 0.023984 0.000000 0.000000
# 5 0.000000 0.000000 0.000000 0.000000 0.032520 0.000000
# 6 0.000000 0.000000 0.000000 0.000000 0.000000 0.030489
#
#
# Mechanical properties :
#
#
# Convention : Reuss Voigt Hill
#
# Bulk Modulus (GPa) = 32.82738 34.01543 33.42140
# Shear Modulus (GPa) = 31.94029 32.87153 32.40591
#
# Velocity S-wave (km/s) = 3.64802 3.70082 3.67452
# Velocity P-wave (km/s) = 5.60551 5.69510 5.65048
#
# Compressibility (1/GPa) = 0.03046238
#
# Stress axis : x y z
#
# Youngs Moduli (GPa) = 69.85364 70.86767 60.59863
#
# Poissons Ratio (x) = 0.28568 0.01372
# Poissons Ratio (y) = 0.28159 0.18031
# Poissons Ratio (z) = 0.01581 0.21086
#
# Static dielectric constant tensor:
#      x y z
#    x 1.957990 0.000000 0.000000 
#    y 0.000000 1.947500 0.000000 
#    z 0.000000 0.000000 1.921600 
# 
# From -- ./inp_files/4310.got.cif
#   From: 2010.05.17/outbox.cif.g08.bks.cpg/sg18_3_cif.got.tgz:4310.got - 2010.06.03 22:40:56.
