data_PCOD9312845
_publ_section_title
;
Structure prediction by ZEFSAII (Michael W. Deem and Ramdas Pophale) SiO2 
 PCOD9312845
Probable space group: P 21 21 2
;
_chemical_formula_sum "Si O2"
_cell_formula_units_Z 22
_cell_length_a 5.516843
_cell_length_b 13.956206
_cell_length_c 12.499143
_cell_angle_alpha 90.000000
_cell_angle_beta 90.000000
_cell_angle_gamma 90.000000
_cell_volume 962.361483
_symmetry_space_group_name_H-M "P 21 21 2"
_symmetry_group_IT_number 18
_symmetry_cell_setting 'orthorhombic'
loop_
_space_group_symop_operation_xyz
x,y,z
-x,-y,z
1/2+x,1/2-y,-z
1/2-x,1/2+y,-z
loop_
_atom_site_type_symbol
_atom_site_label
_atom_site_fract_x
_atom_site_fract_y
_atom_site_fract_z
Si Si1 0.883130 0.347502 0.095210
Si Si2 0.000000 0.000000 0.551106
Si Si3 0.000000 0.000000 0.193018
Si Si4 0.317697 0.843716 0.462419
Si Si5 0.346286 0.153250 0.651431
Si Si6 0.000000 0.500000 0.678323
Si Si7 0.112468 0.865086 0.001941
O O1 0.894529 0.336111 0.223090
O O2 0.618347 0.390633 0.071215
O O3 0.130079 0.394828 0.049857
O O4 0.872706 0.247604 0.029333
O O5 0.795867 0.945496 0.622591
O O6 0.091232 0.914753 0.473871
O O7 0.747570 0.994467 0.255591
O O8 0.952629 0.088494 0.114756
O O9 0.406798 0.837829 0.583947
O O10 0.292154 0.744619 0.400437
O O11 0.505304 0.907070 0.396382
#
# Coordination Sequence:
#
# PCOD9312845 Si02
#       7
#     4   2   2   4   4   2   4
#     4  10  24  44  72  99 139 189 234 295 370 432
#     4  12  25  49  66 106 152 188 249 305 350 448
#     4  12  25  45  74 104 136 188 239 305 374 414
#     4  12  26  45  71 107 150 194 248 303 356 452
#     4  12  26  45  75 103 147 203 238 298 381 438
#     4  12  26  44  74 106 146 190 250 300 356 438
#     4  10  23  47  68 102 140 175 246 305 350 437
#
# _framework density 22.860430999999998
#
# number of rings (size 3 to 8) (size 9 to 14) (size 15 to 20)
#    0.000    0.727    3.636    2.727    2.545    5.091 
#    3.273    0.000    0.000    0.000    0.000    0.000 
#    0.000    0.000    0.000    0.000    0.000    0.000 
#
# Total GULP energy -122857.092194 kJ/mol
# GULP energy per Si atom -5584.413282 kJ/mol
# Density = 2.280840 g / cm^3
# Si number density = 22.860431 Si / 1000 Ang^3
#
#
#
# Elastic Constant Matrix: (Units=GPa)
#
#
# Indices 1 2 3 4 5 6 
#
# 1 152.4448 28.6835 70.0200 0.0000 0.0000 0.0000
# 2 28.6835 81.6173 -0.4574 0.0000 0.0000 0.0000
# 3 70.0200 -0.4574 138.0636 0.0000 0.0000 0.0000
# 4 0.0000 0.0000 0.0000 20.9181 0.0000 0.0000
# 5 0.0000 0.0000 0.0000 0.0000 51.4353 0.0000
# 6 0.0000 0.0000 0.0000 0.0000 0.0000 37.3405
#
#
#
# Elastic Compliance Matrix: (Units=1/GPa)
#
#
# Indices 1 2 3 4 5 6 
#
# 1 0.009373 -0.003321 -0.004765 0.000000 0.000000 0.000000
# 2 -0.003321 0.013429 0.001729 0.000000 0.000000 0.000000
# 3 -0.004765 0.001729 0.009665 0.000000 0.000000 0.000000
# 4 0.000000 0.000000 0.000000 0.047806 0.000000 0.000000
# 5 0.000000 0.000000 0.000000 0.000000 0.019442 0.000000
# 6 0.000000 0.000000 0.000000 0.000000 0.000000 0.026781
#
#
# Mechanical properties :
#
#
# Convention : Reuss Voigt Hill
#
# Bulk Modulus (GPa) = 50.62318 63.17976 56.90147
# Shear Modulus (GPa) = 34.29512 40.19740 37.24626
#
# Velocity S-wave (km/s) = 3.87744 4.19786 4.04082
# Velocity P-wave (km/s) = 6.49912 7.15494 6.83490
#
# Compressibility (1/GPa) = 0.01975380
#
# Stress axis : x y z
#
# Youngs Moduli (GPa) = 106.68920 74.46550 103.46435
#
# Poissons Ratio (x) = 0.24728 0.49297
# Poissons Ratio (y) = 0.35429 -0.17885
# Poissons Ratio (z) = 0.50833 -0.12872
#
# Static dielectric constant tensor:
#      x y z
#    x 1.742840 0.000000 0.000000 
#    y 0.000000 2.027260 0.000000 
#    z 0.000000 0.000000 1.824550 
# 
# From -- ./inp_files/5114.got.cif
#   From: 2010.05.17/outbox.cif.g08.bks.cpg/sg18_3_cif.got.tgz:5114.got - 2010.06.03 22:40:56.
