data_PCOD9312025
_publ_section_title
;
Structure prediction by ZEFSAII (Michael W. Deem and Ramdas Pophale) SiO2 
 PCOD9312025
Probable space group: P 21 21 2
;
_chemical_formula_sum "Si O2"
_cell_formula_units_Z 32
_cell_length_a 5.227692
_cell_length_b 15.351206
_cell_length_c 17.587417
_cell_angle_alpha 90.000000
_cell_angle_beta 90.000000
_cell_angle_gamma 90.000000
_cell_volume 1411.414429
_symmetry_space_group_name_H-M "P 21 21 2"
_symmetry_group_IT_number 18
_symmetry_cell_setting 'orthorhombic'
loop_
_space_group_symop_operation_xyz
x,y,z
-x,-y,z
1/2+x,1/2-y,-z
1/2-x,1/2+y,-z
loop_
_atom_site_type_symbol
_atom_site_label
_atom_site_fract_x
_atom_site_fract_y
_atom_site_fract_z
Si Si1 0.242679 0.944052 0.750188
Si Si2 0.465211 0.403179 0.495564
Si Si3 0.846337 0.591385 0.648961
Si Si4 0.278963 0.223822 0.425386
Si Si5 0.923054 0.735982 0.278662
Si Si6 0.596141 0.196686 0.209694
Si Si7 0.091376 0.292346 0.971589
Si Si8 0.743560 0.555095 0.077354
O O1 0.299460 0.857483 0.705198
O O2 0.191679 0.912162 0.836950
O O3 0.500000 0.000000 0.748523
O O4 0.000000 0.000000 0.726231
O O5 0.500000 0.500000 0.459322
O O6 0.342746 0.423660 0.578044
O O7 0.315883 0.321111 0.457095
O O8 0.726230 0.349652 0.511193
O O9 0.794790 0.616556 0.737979
O O10 0.000000 0.500000 0.652164
O O11 0.996776 0.678932 0.622458
O O12 0.052846 0.224660 0.362722
O O13 0.700543 0.786016 0.231912
O O14 0.192073 0.730742 0.235001
O O15 0.600934 0.192696 0.118695
O O16 0.301823 0.219944 0.997081
O O17 0.207907 0.372553 0.016475
O O18 0.500000 0.500000 0.054889
O O19 0.000000 0.500000 0.082823
#
# Coordination Sequence:
#
# PCOD9312025 Si02
#       8
#     4   4   4   4   4   4   4   4
#     4  10  20  36  59  86 121 165 212 265 331 404
#     4  12  23  42  70 101 138 186 237 294 364 434
#     4  11  23  42  67  98 135 185 236 296 362 433
#     4  11  24  41  68  98 138 181 232 290 357 425
#     4  11  23  42  64  94 130 173 220 280 340 410
#     4  11  24  41  66  96 131 176 229 284 350 421
#     4  12  24  41  66  96 131 176 231 290 347 413
#     4  10  21  37  58  85 121 165 208 263 337 401
#
# _framework density 22.672291999999999
#
# number of rings (size 3 to 8) (size 9 to 14) (size 15 to 20)
#    0.000    1.000    3.750    3.750    0.000    3.000 
#    0.000    3.750    0.000    0.000    0.000    0.000 
#    0.000    0.000    0.000    0.000    0.000    0.000 
#
# Total GULP energy -178334.745936 kJ/mol
# GULP energy per Si atom -5572.960810 kJ/mol
# Density = 2.262069 g / cm^3
# Si number density = 22.672292 Si / 1000 Ang^3
#
#
#
# Elastic Constant Matrix: (Units=GPa)
#
#
# Indices 1 2 3 4 5 6 
#
# 1 69.7661 11.9237 15.5753 0.0000 0.0000 0.0000
# 2 11.9237 109.4092 42.9817 0.0000 0.0000 0.0000
# 3 15.5753 42.9817 99.0808 0.0000 0.0000 0.0000
# 4 0.0000 0.0000 0.0000 34.8351 0.0000 0.0000
# 5 0.0000 0.0000 0.0000 0.0000 15.4086 0.0000
# 6 0.0000 0.0000 0.0000 0.0000 0.0000 32.6372
#
#
#
# Elastic Compliance Matrix: (Units=1/GPa)
#
#
# Indices 1 2 3 4 5 6 
#
# 1 0.014920 -0.000849 -0.001977 0.000000 0.000000 0.000000
# 2 -0.000849 0.011066 -0.004667 0.000000 0.000000 0.000000
# 3 -0.001977 -0.004667 0.012428 0.000000 0.000000 0.000000
# 4 0.000000 0.000000 0.000000 0.028707 0.000000 0.000000
# 5 0.000000 0.000000 0.000000 0.000000 0.064899 0.000000
# 6 0.000000 0.000000 0.000000 0.000000 0.000000 0.030640
#
#
# Mechanical properties :
#
#
# Convention : Reuss Voigt Hill
#
# Bulk Modulus (GPa) = 42.68462 46.57972 44.63217
# Shear Modulus (GPa) = 26.96068 30.42787 28.69427
#
# Velocity S-wave (km/s) = 3.45214 3.66741 3.56140
# Velocity P-wave (km/s) = 5.89554 6.20665 6.05309
#
# Compressibility (1/GPa) = 0.02342764
#
# Stress axis : x y z
#
# Youngs Moduli (GPa) = 67.02356 90.36693 80.46289
#
# Poissons Ratio (x) = 0.07676 0.15907
# Poissons Ratio (y) = 0.05693 0.37552
# Poissons Ratio (z) = 0.13250 0.42174
#
# Static dielectric constant tensor:
#      x y z
#    x 1.905750 0.000000 0.000000 
#    y 0.000000 1.919740 0.000000 
#    z 0.000000 0.000000 1.913930 
# 
# From -- ./inp_files/7211.got.cif
#   From: 2010.05.17/outbox.cif.g08.bks.cpg/sg18_4_cif.got.tgz:7211.got - 2010.06.03 22:40:56.
