data_PCOD9312760
_publ_section_title
;
Structure prediction by ZEFSAII (Michael W. Deem and Ramdas Pophale) SiO2 
 PCOD9312760
Probable space group: P 21 21 2
;
_chemical_formula_sum "Si O2"
_cell_formula_units_Z 26
_cell_length_a 17.190877
_cell_length_b 11.181747
_cell_length_c 6.929628
_cell_angle_alpha 90.000000
_cell_angle_beta 90.000000
_cell_angle_gamma 90.000000
_cell_volume 1332.041071
_symmetry_space_group_name_H-M "P 21 21 2"
_symmetry_group_IT_number 18
_symmetry_cell_setting 'orthorhombic'
loop_
_space_group_symop_operation_xyz
x,y,z
-x,-y,z
1/2+x,1/2-y,-z
1/2-x,1/2+y,-z
loop_
_atom_site_type_symbol
_atom_site_label
_atom_site_fract_x
_atom_site_fract_y
_atom_site_fract_z
Si Si1 0.752794 0.238079 0.292064
Si Si2 0.500000 0.000000 0.681607
Si Si3 0.207711 0.670980 0.703514
Si Si4 0.132712 0.852386 0.973358
Si Si5 0.982081 0.695265 0.998333
Si Si6 0.388886 0.944708 0.331341
Si Si7 0.656204 0.376230 0.974200
O O1 0.784029 0.304659 0.478976
O O2 0.686948 0.140227 0.346568
O O3 0.823481 0.180768 0.172346
O O4 0.709923 0.329775 0.148855
O O5 0.509881 0.889050 0.827022
O O6 0.429602 0.968596 0.536366
O O7 0.187930 0.795548 0.809054
O O8 0.141907 0.572034 0.746274
O O9 0.287489 0.620156 0.790244
O O10 0.051786 0.784285 0.948703
O O11 0.124133 0.994243 0.971197
O O12 0.910063 0.778562 0.060695
O O13 0.948706 0.617671 0.818436
#
# Coordination Sequence:
#
# PCOD9312760 Si02
#       7
#     4   2   4   4   4   4   4
#     4  10  23  40  63  93 126 167 213 262 320 375
#     4  12  22  38  64  88 124 174 204 260 322 370
#     4  11  22  39  63  91 124 166 213 260 321 376
#     4  11  22  40  64  92 124 168 211 261 318 381
#     4  11  24  42  62  93 129 166 211 263 321 382
#     4  11  23  41  61  94 129 160 218 271 311 384
#     4  10  23  41  63  91 127 164 209 264 316 383
#
# _framework density 19.518916999999998
#
# number of rings (size 3 to 8) (size 9 to 14) (size 15 to 20)
#    0.000    1.231    1.538    4.615    2.154    1.231 
#    0.000    0.000    0.000    5.538    0.000    0.000 
#    0.000    0.000    0.000    0.000    0.000    0.000 
#
# Total GULP energy -145281.317909 kJ/mol
# GULP energy per Si atom -5587.742997 kJ/mol
# Density = 1.947449 g / cm^3
# Si number density = 19.518917 Si / 1000 Ang^3
#
#
#
# Elastic Constant Matrix: (Units=GPa)
#
#
# Indices 1 2 3 4 5 6 
#
# 1 62.7348 12.0580 16.0025 0.0000 0.0000 0.0000
# 2 12.0580 108.4754 26.2097 0.0000 0.0000 0.0000
# 3 16.0025 26.2097 76.1782 0.0000 0.0000 0.0000
# 4 0.0000 0.0000 0.0000 17.4035 0.0000 0.0000
# 5 0.0000 0.0000 0.0000 0.0000 28.8322 0.0000
# 6 0.0000 0.0000 0.0000 0.0000 0.0000 37.6328
#
#
#
# Elastic Compliance Matrix: (Units=1/GPa)
#
#
# Indices 1 2 3 4 5 6 
#
# 1 0.016966 -0.001118 -0.003179 0.000000 0.000000 0.000000
# 2 -0.001118 0.010128 -0.003250 0.000000 0.000000 0.000000
# 3 -0.003179 -0.003250 0.014913 0.000000 0.000000 0.000000
# 4 0.000000 0.000000 0.000000 0.057460 0.000000 0.000000
# 5 0.000000 0.000000 0.000000 0.000000 0.034683 0.000000
# 6 0.000000 0.000000 0.000000 0.000000 0.000000 0.026573
#
#
# Mechanical properties :
#
#
# Convention : Reuss Voigt Hill
#
# Bulk Modulus (GPa) = 37.15644 39.54765 38.35205
# Shear Modulus (GPa) = 27.05804 29.64826 28.35315
#
# Velocity S-wave (km/s) = 3.72727 3.90160 3.81543
# Velocity P-wave (km/s) = 6.13195 6.37196 6.25311
#
# Compressibility (1/GPa) = 0.02691323
#
# Stress axis : x y z
#
# Youngs Moduli (GPa) = 58.94158 98.73467 67.05494
#
# Poissons Ratio (x) = 0.11036 0.21320
# Poissons Ratio (y) = 0.06588 0.21792
# Poissons Ratio (z) = 0.18740 0.32088
#
# Static dielectric constant tensor:
#      x y z
#    x 1.691330 0.000000 0.000000 
#    y 0.000000 1.681920 0.000000 
#    z 0.000000 0.000000 1.652710 
# 
# From -- ./inp_files/1145.got.cif
#   From: 2010.05.17/outbox.cif.g08.bks.cpg/sg18_1_cif.got.tgz:1145.got - 2010.06.03 22:40:56.
