data_PCOD9312732
_publ_section_title
;
Structure prediction by ZEFSAII (Michael W. Deem and Ramdas Pophale) SiO2 
 PCOD9312732
Probable space group: P 21 21 2
;
_chemical_formula_sum "Si O2"
_cell_formula_units_Z 32
_cell_length_a 13.800154
_cell_length_b 12.358344
_cell_length_c 8.738700
_cell_angle_alpha 90.000000
_cell_angle_beta 90.000000
_cell_angle_gamma 90.000000
_cell_volume 1490.359509
_symmetry_space_group_name_H-M "P 21 21 2"
_symmetry_group_IT_number 18
_symmetry_cell_setting 'orthorhombic'
loop_
_space_group_symop_operation_xyz
x,y,z
-x,-y,z
1/2+x,1/2-y,-z
1/2-x,1/2+y,-z
loop_
_atom_site_type_symbol
_atom_site_label
_atom_site_fract_x
_atom_site_fract_y
_atom_site_fract_z
Si Si1 0.115290 0.486717 0.578083
Si Si2 0.885208 0.505119 0.921892
Si Si3 0.180994 0.707066 0.085772
Si Si4 0.403166 0.444385 0.333918
Si Si5 0.223372 0.307076 0.407949
Si Si6 0.036494 0.881304 0.009993
Si Si7 0.257280 0.124525 0.614965
Si Si8 0.858783 0.725993 0.078871
O O1 0.146247 0.459923 0.751560
O O2 0.151630 0.405197 0.448045
O O3 0.178006 0.589865 0.529870
O O4 0.000000 0.500000 0.572568
O O5 0.000000 0.500000 0.916821
O O6 0.852936 0.384651 0.966957
O O7 0.860497 0.598068 0.043557
O O8 0.133950 0.825327 0.071411
O O9 0.169518 0.656747 0.251792
O O10 0.293425 0.721478 0.052192
O O11 0.500000 0.500000 0.407321
O O12 0.335060 0.350714 0.408066
O O13 0.321718 0.538908 0.324072
O O14 0.441813 0.398677 0.171143
O O15 0.203292 0.227311 0.547614
O O16 0.192320 0.260886 0.243322
O O17 0.959019 0.789712 0.058865
O O18 0.000000 0.000000 0.064727
#
# Coordination Sequence:
#
# PCOD9312732 Si02
#       8
#     4   4   4   4   4   4   4   4
#     4  10  24  40  66  96 139 176 217 282 342 424
#     4  11  23  44  70 105 132 177 240 281 349 408
#     4  12  24  42  70  99 135 182 227 297 346 418
#     4  10  22  46  70  95 138 188 234 293 353 430
#     4  11  24  45  65 103 139 182 232 281 362 424
#     4  11  25  44  67 102 133 178 241 289 354 416
#     4  11  25  44  66 101 139 184 228 284 358 426
#     4  12  25  42  74  98 138 179 233 301 342 423
#
# _framework density 21.471328
#
# number of rings (size 3 to 8) (size 9 to 14) (size 15 to 20)
#    0.000    1.000    2.500    4.500    3.500    2.000 
#    4.500    0.000    0.000    0.000    0.000    0.000 
#    0.000    0.000    0.000    0.000    0.000    0.000 
#
# Total GULP energy -178375.777856 kJ/mol
# GULP energy per Si atom -5574.243058 kJ/mol
# Density = 2.142246 g / cm^3
# Si number density = 21.471328 Si / 1000 Ang^3
#
#
#
# Elastic Constant Matrix: (Units=GPa)
#
#
# Indices 1 2 3 4 5 6 
#
# 1 58.7128 -3.2898 14.2118 0.0000 0.0000 0.0000
# 2 -3.2898 70.2838 13.9350 0.0000 0.0000 0.0000
# 3 14.2118 13.9350 71.5459 0.0000 0.0000 0.0000
# 4 0.0000 0.0000 0.0000 2556.0436 0.0000 0.0000
# 5 0.0000 0.0000 0.0000 0.0000 -1.8195 0.0000
# 6 0.0000 0.0000 0.0000 0.0000 0.0000 35.5577
#
#
#
# Elastic Compliance Matrix: (Units=1/GPa)
#
#
# Indices 1 2 3 4 5 6 
#
# 1 0.018068 0.001620 -0.003905 0.000000 0.000000 0.000000
# 2 0.001620 0.014945 -0.003233 0.000000 0.000000 0.000000
# 3 -0.003905 -0.003233 0.015382 0.000000 0.000000 0.000000
# 4 0.000000 0.000000 0.000000 0.000391 0.000000 0.000000
# 5 0.000000 0.000000 0.000000 0.000000 -0.549591 0.000000
# 6 0.000000 0.000000 0.000000 0.000000 0.000000 0.028123
#
#
# Mechanical properties :
#
#
# Convention : Reuss Voigt Hill
#
# Bulk Modulus (GPa) = 26.76623 27.80629 27.28626
# Shear Modulus (GPa) = -11.13105 529.66870 259.26883
#
# Velocity S-wave (km/s) = -2.27934 15.72330 11.00061
# Velocity P-wave (km/s) = 2.35922 18.50967 13.19420
#
# Compressibility (1/GPa) = 0.03736051
#
# Stress axis : x y z
#
# Youngs Moduli (GPa) = 55.34662 66.91307 65.01006
#
# Poissons Ratio (x) = -0.10839 0.25383
# Poissons Ratio (y) = -0.08965 0.21015
# Poissons Ratio (z) = 0.21610 0.21630
#
# Static dielectric constant tensor:
#      x y z
#    x -2.350120 0.000000 0.000000 
#    y 0.000000 2.039530 0.000000 
#    z 0.000000 0.000000 1.737440 
# 
# From -- ./inp_files/4326.got.cif
#   From: 2010.05.17/outbox.cif.g08.bks.cpg/sg18_3_cif.got.tgz:4326.got - 2010.06.03 22:40:56.
