data_PCOD9312183
_publ_section_title
;
Structure prediction by ZEFSAII (Michael W. Deem and Ramdas Pophale) SiO2 
 PCOD9312183
Probable space group: P 21 21 2
;
_chemical_formula_sum "Si O2"
_cell_formula_units_Z 24
_cell_length_a 11.674022
_cell_length_b 9.508627
_cell_length_c 9.541579
_cell_angle_alpha 90.000000
_cell_angle_beta 90.000000
_cell_angle_gamma 90.000000
_cell_volume 1059.152680
_symmetry_space_group_name_H-M "P 21 21 2"
_symmetry_group_IT_number 18
_symmetry_cell_setting 'orthorhombic'
loop_
_space_group_symop_operation_xyz
x,y,z
-x,-y,z
1/2+x,1/2-y,-z
1/2-x,1/2+y,-z
loop_
_atom_site_type_symbol
_atom_site_label
_atom_site_fract_x
_atom_site_fract_y
_atom_site_fract_z
Si Si1 0.149791 0.398774 0.598501
Si Si2 0.985885 0.161861 0.691479
Si Si3 0.787510 0.306314 0.553507
Si Si4 0.679307 0.991055 0.092259
Si Si5 0.979755 0.720233 0.990677
Si Si6 0.404914 0.604235 0.767053
O O1 0.158955 0.542504 0.508030
O O2 0.260637 0.302191 0.571029
O O3 0.140004 0.468515 0.750606
O O4 0.052538 0.279877 0.599662
O O5 0.858411 0.215574 0.665821
O O6 0.024171 0.180713 0.853160
O O7 0.000000 0.000000 0.650606
O O8 0.672262 0.342199 0.639898
O O9 0.637031 0.127340 0.008698
O O10 0.595022 0.870516 0.035128
O O11 0.812229 0.956337 0.117654
O O12 0.979565 0.789599 0.141140
O O13 0.500000 0.500000 0.709908
#
# Coordination Sequence:
#
# PCOD9312183 Si02
#       6
#     4   4   4   4   4   4
#     4  10  21  40  66  94 131 187 224 292 347 410
#     4  11  21  38  67  96 127 182 242 276 354 428
#     4  11  23  42  65  98 144 174 238 295 349 421
#     4   9  21  41  63  91 131 176 230 281 349 406
#     4  10  20  40  66  87 132 181 221 283 343 423
#     4  11  24  37  65 100 137 174 228 290 352 409
#
# _framework density 22.659621000000001
#
# number of rings (size 3 to 8) (size 9 to 14) (size 15 to 20)
#    0.000    1.667    3.333    2.000    2.333    4.667 
#    0.000    0.000   11.000    0.000    0.000    0.000 
#    0.000    0.000    0.000    0.000    0.000    0.000 
#
# Total GULP energy -133678.559711 kJ/mol
# GULP energy per Si atom -5569.939988 kJ/mol
# Density = 2.260805 g / cm^3
# Si number density = 22.659621 Si / 1000 Ang^3
#
#
#
# Elastic Constant Matrix: (Units=GPa)
#
#
# Indices 1 2 3 4 5 6 
#
# 1 78.5428 55.2985 28.7622 0.0000 0.0000 0.0000
# 2 55.2985 152.4305 18.2800 0.0000 0.0000 0.0000
# 3 28.7622 18.2800 34.9176 0.0000 0.0000 0.0000
# 4 0.0000 0.0000 0.0000 16.2980 0.0000 0.0000
# 5 0.0000 0.0000 0.0000 0.0000 28.9479 0.0000
# 6 0.0000 0.0000 0.0000 0.0000 0.0000 51.7620
#
#
#
# Elastic Compliance Matrix: (Units=1/GPa)
#
#
# Indices 1 2 3 4 5 6 
#
# 1 0.022980 -0.006473 -0.015540 0.000000 0.000000 0.000000
# 2 -0.006473 0.008823 0.000713 0.000000 0.000000 0.000000
# 3 -0.015540 0.000713 0.041067 0.000000 0.000000 0.000000
# 4 0.000000 0.000000 0.000000 0.061357 0.000000 0.000000
# 5 0.000000 0.000000 0.000000 0.000000 0.034545 0.000000
# 6 0.000000 0.000000 0.000000 0.000000 0.000000 0.019319
#
#
# Mechanical properties :
#
#
# Convention : Reuss Voigt Hill
#
# Bulk Modulus (GPa) = 33.03738 52.28581 42.66159
# Shear Modulus (GPa) = 20.76572 30.30494 25.53533
#
# Velocity S-wave (km/s) = 3.03053 3.66101 3.36059
# Velocity P-wave (km/s) = 5.18237 6.40275 5.82461
#
# Compressibility (1/GPa) = 0.03026875
#
# Stress axis : x y z
#
# Youngs Moduli (GPa) = 43.51589 113.33814 24.35073
#
# Poissons Ratio (x) = 0.73364 0.37842
# Poissons Ratio (y) = 0.28168 -0.01736
# Poissons Ratio (z) = 0.67625 -0.08079
#
# Static dielectric constant tensor:
#      x y z
#    x 1.931650 0.000000 0.000000 
#    y 0.000000 1.981160 0.000000 
#    z 0.000000 0.000000 1.805640 
# 
# From -- ./inp_files/5829.got.cif
#   From: 2010.05.17/outbox.cif.g08.bks.cpg/sg18_3_cif.got.tgz:5829.got - 2010.06.03 22:40:56.
