data_PCOD9312316
_publ_section_title
;
Structure prediction by ZEFSAII (Michael W. Deem and Ramdas Pophale) SiO2 
 PCOD9312316
Probable space group: P 21 21 2
;
_chemical_formula_sum "Si O2"
_cell_formula_units_Z 32
_cell_length_a 13.655618
_cell_length_b 9.344840
_cell_length_c 12.056268
_cell_angle_alpha 90.000000
_cell_angle_beta 90.000000
_cell_angle_gamma 90.000000
_cell_volume 1538.495119
_symmetry_space_group_name_H-M "P 21 21 2"
_symmetry_group_IT_number 18
_symmetry_cell_setting 'orthorhombic'
loop_
_space_group_symop_operation_xyz
x,y,z
-x,-y,z
1/2+x,1/2-y,-z
1/2-x,1/2+y,-z
loop_
_atom_site_type_symbol
_atom_site_label
_atom_site_fract_x
_atom_site_fract_y
_atom_site_fract_z
Si Si1 0.311054 0.449531 0.222846
Si Si2 0.607838 0.068063 0.731083
Si Si3 0.639367 0.568454 0.973657
Si Si4 0.139174 0.408601 0.893078
Si Si5 0.130499 0.659412 0.716599
Si Si6 0.886718 0.551842 0.525883
Si Si7 0.913906 0.788423 0.691392
Si Si8 0.045813 0.234781 0.085913
O O1 0.200282 0.507214 0.208377
O O2 0.295681 0.288625 0.266176
O O3 0.377564 0.549742 0.299999
O O4 0.364877 0.427720 0.106500
O O5 0.639170 0.061002 0.602314
O O6 0.584281 0.214439 0.795310
O O7 0.500000 0.000000 0.738100
O O8 0.750427 0.586257 0.936493
O O9 0.602908 0.410495 0.942956
O O10 0.567263 0.687732 0.923030
O O11 0.117767 0.554189 0.823010
O O12 0.130090 0.284932 0.801189
O O13 0.072007 0.357981 0.995962
O O14 0.159794 0.562107 0.611428
O O15 0.027911 0.743314 0.697186
O O16 0.875470 0.705483 0.583658
O O17 0.000000 0.500000 0.529250
#
# Coordination Sequence:
#
# PCOD9312316 Si02
#       8
#     4   4   4   4   4   4   4   4
#     4  12  23  39  63  99 134 166 214 278 322 382
#     4  11  25  42  66  88 129 178 221 258 321 395
#     4  11  25  40  60  95 140 161 213 270 320 395
#     4  11  21  40  65  94 124 170 215 257 320 390
#     4  10  22  39  68  95 128 166 214 271 331 375
#     4   8  19  43  64  91 127 167 219 268 312 394
#     4  10  21  38  66  98 124 167 212 273 326 371
#     4  11  24  42  61  91 129 174 202 266 331 378
#
# _framework density 20.799545999999999
#
# number of rings (size 3 to 8) (size 9 to 14) (size 15 to 20)
#    0.000    1.500    2.500    3.000    3.500    3.000 
#    0.000    0.000   16.500    0.000    0.000    0.000 
#    0.000    0.000    0.000    0.000    0.000    0.000 
#
# Total GULP energy -178515.545201 kJ/mol
# GULP energy per Si atom -5578.610788 kJ/mol
# Density = 2.075221 g / cm^3
# Si number density = 20.799546 Si / 1000 Ang^3
#
#
#
# Elastic Constant Matrix: (Units=GPa)
#
#
# Indices 1 2 3 4 5 6 
#
# 1 81.8648 36.8768 17.7081 0.0000 0.0000 0.0000
# 2 36.8768 116.2640 50.8455 0.0000 0.0000 0.0000
# 3 17.7081 50.8455 85.1758 0.0000 0.0000 0.0000
# 4 0.0000 0.0000 0.0000 69.1972 0.0000 0.0000
# 5 0.0000 0.0000 0.0000 0.0000 7.2952 0.0000
# 6 0.0000 0.0000 0.0000 0.0000 0.0000 21.3031
#
#
#
# Elastic Compliance Matrix: (Units=1/GPa)
#
#
# Indices 1 2 3 4 5 6 
#
# 1 0.014260 -0.004366 -0.000358 0.000000 0.000000 0.000000
# 2 -0.004366 0.012977 -0.006839 0.000000 0.000000 0.000000
# 3 -0.000358 -0.006839 0.015897 0.000000 0.000000 0.000000
# 4 0.000000 0.000000 0.000000 0.014451 0.000000 0.000000
# 5 0.000000 0.000000 0.000000 0.000000 0.137076 0.000000
# 6 0.000000 0.000000 0.000000 0.000000 0.000000 0.046941
#
#
# Mechanical properties :
#
#
# Convention : Reuss Voigt Hill
#
# Bulk Modulus (GPa) = 49.98163 54.90728 52.44445
# Shear Modulus (GPa) = 18.42313 31.41738 24.92026
#
# Velocity S-wave (km/s) = 2.97938 3.89071 3.46514
# Velocity P-wave (km/s) = 5.99316 6.82928 6.42484
#
# Compressibility (1/GPa) = 0.02000735
#
# Stress axis : x y z
#
# Youngs Moduli (GPa) = 70.12845 77.06078 62.90399
#
# Poissons Ratio (x) = 0.33647 0.02253
# Poissons Ratio (y) = 0.30620 0.43018
# Poissons Ratio (z) = 0.02512 0.52700
#
# Static dielectric constant tensor:
#      x y z
#    x 1.661290 0.000000 0.000000 
#    y 0.000000 1.795220 0.000000 
#    z 0.000000 0.000000 1.738210 
# 
# From -- ./inp_files/6121.got.cif
#   From: 2010.05.17/outbox.cif.g08.bks.cpg/sg18_4_cif.got.tgz:6121.got - 2010.06.03 22:40:56.
