data_PCOD9312777
_publ_section_title
;
Structure prediction by ZEFSAII (Michael W. Deem and Ramdas Pophale) SiO2 
 PCOD9312777
Probable space group: P 21 21 2
;
_chemical_formula_sum "Si O2"
_cell_formula_units_Z 18
_cell_length_a 8.014888
_cell_length_b 8.618551
_cell_length_c 11.641121
_cell_angle_alpha 90.000000
_cell_angle_beta 90.000000
_cell_angle_gamma 90.000000
_cell_volume 804.130467
_symmetry_space_group_name_H-M "P 21 21 2"
_symmetry_group_IT_number 18
_symmetry_cell_setting 'orthorhombic'
loop_
_space_group_symop_operation_xyz
x,y,z
-x,-y,z
1/2+x,1/2-y,-z
1/2-x,1/2+y,-z
loop_
_atom_site_type_symbol
_atom_site_label
_atom_site_fract_x
_atom_site_fract_y
_atom_site_fract_z
Si Si1 0.500000 0.000000 0.017720
Si Si2 0.675909 0.695281 0.927119
Si Si3 0.255138 0.501201 0.311547
Si Si4 0.000000 0.000000 0.487164
Si Si5 0.013663 0.243765 0.296261
Si Si6 0.000000 0.000000 0.877078
O O1 0.360800 0.885324 0.077601
O O2 0.620874 0.876969 0.950150
O O3 0.575018 0.660480 0.810364
O O4 0.593400 0.614658 0.037934
O O5 0.352951 0.454925 0.425872
O O6 0.119450 0.629780 0.340022
O O7 0.374397 0.575532 0.215222
O O8 0.170637 0.347698 0.258809
O O9 0.056665 0.134484 0.401576
#
# Coordination Sequence:
#
# PCOD9312777 Si02
#       6
#     2   4   4   2   4   2
#     4  12  26  44  68 102 146 188 234 282 346 422
#     4  12  24  42  68 102 139 184 231 283 345 413
#     4  10  23  42  63  90 130 176 216 274 348 404
#     4  11  23  40  64  92 119 165 228 280 328 401
#     4  11  22  41  65  92 129 170 221 278 337 405
#     4  11  23  42  68  98 139 181 226 278 342 415
#
# _framework density 22.384425
#
# number of rings (size 3 to 8) (size 9 to 14) (size 15 to 20)
#    0.000    0.889    0.000    8.667    0.000    1.778 
#    0.000    4.444    0.000    0.000    0.000    0.000 
#    0.000    0.000    0.000    0.000    0.000    0.000 
#
# Total GULP energy -100333.381636 kJ/mol
# GULP energy per Si atom -5574.076758 kJ/mol
# Density = 2.233348 g / cm^3
# Si number density = 22.384425 Si / 1000 Ang^3
#
#
#
# Elastic Constant Matrix: (Units=GPa)
#
#
# Indices 1 2 3 4 5 6 
#
# 1 102.9047 49.0790 47.7321 0.0000 0.0000 0.0000
# 2 49.0790 94.6367 28.6670 0.0000 0.0000 0.0000
# 3 47.7321 28.6670 120.5785 0.0000 0.0000 0.0000
# 4 0.0000 0.0000 0.0000 40.9479 0.0000 0.0000
# 5 0.0000 0.0000 0.0000 0.0000 32.4512 0.0000
# 6 0.0000 0.0000 0.0000 0.0000 0.0000 42.5965
#
#
#
# Elastic Compliance Matrix: (Units=1/GPa)
#
#
# Indices 1 2 3 4 5 6 
#
# 1 0.014749 -0.006337 -0.004332 0.000000 0.000000 0.000000
# 2 -0.006337 0.014109 -0.000846 0.000000 0.000000 0.000000
# 3 -0.004332 -0.000846 0.010209 0.000000 0.000000 0.000000
# 4 0.000000 0.000000 0.000000 0.024421 0.000000 0.000000
# 5 0.000000 0.000000 0.000000 0.000000 0.030815 0.000000
# 6 0.000000 0.000000 0.000000 0.000000 0.000000 0.023476
#
#
# Mechanical properties :
#
#
# Convention : Reuss Voigt Hill
#
# Bulk Modulus (GPa) = 62.35081 63.23070 62.79075
# Shear Modulus (GPa) = 34.20979 36.04191 35.12585
#
# Velocity S-wave (km/s) = 3.91357 4.01700 3.96562
# Velocity P-wave (km/s) = 6.95244 7.05861 7.00573
#
# Compressibility (1/GPa) = 0.01603828
#
# Stress axis : x y z
#
# Youngs Moduli (GPa) = 67.79905 70.87526 97.94911
#
# Poissons Ratio (x) = 0.44913 0.42433
# Poissons Ratio (y) = 0.42963 0.08286
# Poissons Ratio (z) = 0.29372 0.05995
#
# Static dielectric constant tensor:
#      x y z
#    x 1.959350 0.000000 0.000000 
#    y 0.000000 1.923490 0.000000 
#    z 0.000000 0.000000 1.763200 
# 
# From -- ./inp_files/5385.got.cif
#   From: 2010.05.17/outbox.cif.g08.bks.cpg/sg18_3_cif.got.tgz:5385.got - 2010.06.03 22:40:56.
