data_PCOD9312755
_publ_section_title
;
Structure prediction by ZEFSAII (Michael W. Deem and Ramdas Pophale) SiO2 
 PCOD9312755
Probable space group: P 21 21 2
;
_chemical_formula_sum "Si O2"
_cell_formula_units_Z 30
_cell_length_a 11.904197
_cell_length_b 22.511210
_cell_length_c 5.420470
_cell_angle_alpha 90.000000
_cell_angle_beta 90.000000
_cell_angle_gamma 90.000000
_cell_volume 1452.566051
_symmetry_space_group_name_H-M "P 21 21 2"
_symmetry_group_IT_number 18
_symmetry_cell_setting 'orthorhombic'
loop_
_space_group_symop_operation_xyz
x,y,z
-x,-y,z
1/2+x,1/2-y,-z
1/2-x,1/2+y,-z
loop_
_atom_site_type_symbol
_atom_site_label
_atom_site_fract_x
_atom_site_fract_y
_atom_site_fract_z
Si Si1 0.858222 0.616111 0.002424
Si Si2 0.000000 0.000000 0.725232
Si Si3 0.599742 0.836842 0.034363
Si Si4 0.703911 0.396618 0.710612
Si Si5 0.325364 0.200775 0.535189
Si Si6 0.239070 0.324944 0.501275
Si Si7 0.545283 0.609242 0.632800
Si Si8 0.693536 0.518316 0.920352
O O1 0.810385 0.648094 0.248676
O O2 0.818320 0.647631 0.746519
O O3 0.808332 0.549346 0.001355
O O4 0.992068 0.621991 0.001728
O O5 0.978067 0.058509 0.568058
O O6 0.887193 0.988428 0.880257
O O7 0.713730 0.874452 0.072595
O O8 0.594514 0.801152 0.293804
O O9 0.612948 0.795797 0.795440
O O10 0.761001 0.362398 0.483096
O O11 0.576573 0.373925 0.733097
O O12 0.707701 0.467986 0.712701
O O13 0.237710 0.253980 0.503583
O O14 0.371415 0.342012 0.523544
O O15 0.617178 0.573757 0.835336
#
# Coordination Sequence:
#
# PCOD9312755 Si02
#       8
#     4   2   4   4   4   4   4   4
#     4  11  24  43  69  95 134 180 220 276 336 409
#     4  12  18  36  64  98 132 160 210 282 344 392
#     4  10  24  44  65  92 134 177 224 271 328 406
#     4  10  23  39  64  96 135 171 219 274 339 396
#     4  10  24  45  64  99 129 179 226 277 329 394
#     4  11  24  44  67 100 128 175 231 273 344 399
#     4  11  22  37  64 100 129 171 214 284 343 397
#     4  11  22  38  64  98 131 166 220 276 339 399
#
# _framework density 20.653105
#
# number of rings (size 3 to 8) (size 9 to 14) (size 15 to 20)
#    0.800    0.533    4.000    1.600    1.867    2.667 
#    0.000    1.333    2.933    0.000    0.000    0.000 
#    0.000    0.000    0.000    0.000    0.000    0.000 
#
# Total GULP energy -167175.768303 kJ/mol
# GULP energy per Si atom -5572.525610 kJ/mol
# Density = 2.060610 g / cm^3
# Si number density = 20.653105 Si / 1000 Ang^3
#
#
#
# Elastic Constant Matrix: (Units=GPa)
#
#
# Indices 1 2 3 4 5 6 
#
# 1 92.6302 17.7598 41.1957 0.0000 0.0000 0.0000
# 2 17.7598 37.1923 10.7833 0.0000 0.0000 0.0000
# 3 41.1957 10.7833 100.8869 0.0000 0.0000 0.0000
# 4 0.0000 0.0000 0.0000 55.0479 0.0000 0.0000
# 5 0.0000 0.0000 0.0000 0.0000 12.2449 0.0000
# 6 0.0000 0.0000 0.0000 0.0000 0.0000 23.5105
#
#
#
# Elastic Compliance Matrix: (Units=1/GPa)
#
#
# Indices 1 2 3 4 5 6 
#
# 1 0.014113 -0.005230 -0.005204 0.000000 0.000000 0.000000
# 2 -0.005230 0.029686 -0.001037 0.000000 0.000000 0.000000
# 3 -0.005204 -0.001037 0.012148 0.000000 0.000000 0.000000
# 4 0.000000 0.000000 0.000000 0.018166 0.000000 0.000000
# 5 0.000000 0.000000 0.000000 0.000000 0.081667 0.000000
# 6 0.000000 0.000000 0.000000 0.000000 0.000000 0.042534
#
#
# Mechanical properties :
#
#
# Convention : Reuss Voigt Hill
#
# Bulk Modulus (GPa) = 30.29965 41.13189 35.71577
# Shear Modulus (GPa) = 21.52792 28.89202 25.20997
#
# Velocity S-wave (km/s) = 3.23206 3.74427 3.49755
# Velocity P-wave (km/s) = 5.35078 6.21704 5.80011
#
# Compressibility (1/GPa) = 0.03300368
#
# Stress axis : x y z
#
# Youngs Moduli (GPa) = 70.85843 33.68639 82.31942
#
# Poissons Ratio (x) = 0.17619 0.42836
# Poissons Ratio (y) = 0.37061 0.08538
# Poissons Ratio (z) = 0.36872 0.03494
#
# Static dielectric constant tensor:
#      x y z
#    x 1.754100 0.000000 0.000000 
#    y 0.000000 1.727190 0.000000 
#    z 0.000000 0.000000 1.784510 
# 
# From -- ./inp_files/1305.got.cif
#   From: 2010.05.17/outbox.cif.g08.bks.cpg/sg18_1_cif.got.tgz:1305.got - 2010.06.03 22:40:56.
