data_PCOD9312443
_publ_section_title
;
Structure prediction by ZEFSAII (Michael W. Deem and Ramdas Pophale) SiO2 
 PCOD9312443
Probable space group: P 21 21 2
;
_chemical_formula_sum "Si O2"
_cell_formula_units_Z 16
_cell_length_a 9.059721
_cell_length_b 9.442075
_cell_length_c 6.940545
_cell_angle_alpha 90.000000
_cell_angle_beta 90.000000
_cell_angle_gamma 90.000000
_cell_volume 593.712023
_symmetry_space_group_name_H-M "P 21 21 2"
_symmetry_group_IT_number 18
_symmetry_cell_setting 'orthorhombic'
loop_
_space_group_symop_operation_xyz
x,y,z
-x,-y,z
1/2+x,1/2-y,-z
1/2-x,1/2+y,-z
loop_
_atom_site_type_symbol
_atom_site_label
_atom_site_fract_x
_atom_site_fract_y
_atom_site_fract_z
Si Si1 0.626887 0.659727 0.186987
Si Si2 0.168781 0.261969 0.687869
Si Si3 0.041093 0.849932 0.390960
Si Si4 0.161262 0.524340 0.929166
O O1 0.448546 0.684040 0.170597
O O2 0.631320 0.613598 0.410956
O O3 0.716452 0.551671 0.058383
O O4 0.686190 0.815825 0.136604
O O5 0.344706 0.243535 0.711294
O O6 0.102737 0.222883 0.479891
O O7 0.152436 0.426921 0.737349
O O8 0.000000 0.000000 0.295782
O O9 0.000000 0.500000 0.021825
#
# Coordination Sequence:
#
# PCOD9312443 Si02
#       4
#     4   4   4   4
#     4   9  23  40  70 101 144 189 240 297 358 436
#     4   9  23  43  68 104 143 186 243 295 367 425
#     4  10  23  43  72 106 146 187 243 303 365 436
#     4  10  21  43  67 101 147 185 242 300 358 428
#
# _framework density 26.949090999999999
#
# number of rings (size 3 to 8) (size 9 to 14) (size 15 to 20)
#    1.500    1.000    0.000    0.000    7.000    0.000 
#    9.000    5.000    0.000    0.000    0.000    0.000 
#    0.000    0.000    0.000    0.000    0.000    0.000 
#
# Total GULP energy -89304.461715 kJ/mol
# GULP energy per Si atom -5581.528857 kJ/mol
# Density = 2.688775 g / cm^3
# Si number density = 26.949091 Si / 1000 Ang^3
#
#
#
# Elastic Constant Matrix: (Units=GPa)
#
#
# Indices 1 2 3 4 5 6 
#
# 1 183.9163 93.6847 44.6536 0.0000 0.0000 0.0000
# 2 93.6847 151.3095 34.7225 0.0000 0.0000 0.0000
# 3 44.6536 34.7225 79.6769 0.0000 0.0000 0.0000
# 4 0.0000 0.0000 0.0000 21.9821 0.0000 0.0000
# 5 0.0000 0.0000 0.0000 0.0000 42.9057 0.0000
# 6 0.0000 0.0000 0.0000 0.0000 0.0000 60.5917
#
#
#
# Elastic Compliance Matrix: (Units=1/GPa)
#
#
# Indices 1 2 3 4 5 6 
#
# 1 0.008444 -0.004602 -0.002726 0.000000 0.000000 0.000000
# 2 -0.004602 0.009852 -0.001714 0.000000 0.000000 0.000000
# 3 -0.002726 -0.001714 0.014826 0.000000 0.000000 0.000000
# 4 0.000000 0.000000 0.000000 0.045492 0.000000 0.000000
# 5 0.000000 0.000000 0.000000 0.000000 0.023307 0.000000
# 6 0.000000 0.000000 0.000000 0.000000 0.000000 0.016504
#
#
# Mechanical properties :
#
#
# Convention : Reuss Voigt Hill
#
# Bulk Modulus (GPa) = 66.50920 84.55825 75.53373
# Shear Modulus (GPa) = 35.33048 41.21869 38.27459
#
# Velocity S-wave (km/s) = 3.62471 3.91513 3.77272
# Velocity P-wave (km/s) = 6.50009 7.20297 6.86054
#
# Compressibility (1/GPa) = 0.01503551
#
# Stress axis : x y z
#
# Youngs Moduli (GPa) = 118.43381 101.50393 67.45060
#
# Poissons Ratio (x) = 0.46714 0.18390
# Poissons Ratio (y) = 0.54506 0.11562
# Poissons Ratio (z) = 0.32290 0.17399
#
# Static dielectric constant tensor:
#      x y z
#    x 2.254850 0.000000 0.000000 
#    y 0.000000 2.051470 0.000000 
#    z 0.000000 0.000000 2.152970 
# 
# From -- ./inp_files/3579.got.cif
#   From: 2010.05.17/outbox.cif.g08.bks.cpg/sg18_2_cif.got.tgz:3579.got - 2010.06.03 22:40:56.
