data_PCOD9312021
_publ_section_title
;
Structure prediction by ZEFSAII (Michael W. Deem and Ramdas Pophale) SiO2 
 PCOD9312021
Probable space group: P 21 21 2
;
_chemical_formula_sum "Si O2"
_cell_formula_units_Z 26
_cell_length_a 16.431638
_cell_length_b 11.294941
_cell_length_c 5.941397
_cell_angle_alpha 90.000000
_cell_angle_beta 90.000000
_cell_angle_gamma 90.000000
_cell_volume 1102.689903
_symmetry_space_group_name_H-M "P 21 21 2"
_symmetry_group_IT_number 18
_symmetry_cell_setting 'orthorhombic'
loop_
_space_group_symop_operation_xyz
x,y,z
-x,-y,z
1/2+x,1/2-y,-z
1/2-x,1/2+y,-z
loop_
_atom_site_type_symbol
_atom_site_label
_atom_site_fract_x
_atom_site_fract_y
_atom_site_fract_z
Si Si1 0.754734 0.077279 0.869827
Si Si2 0.612954 0.585871 0.445534
Si Si3 0.000000 0.500000 0.223285
Si Si4 0.608278 0.133810 0.122627
Si Si5 0.059062 0.171005 0.521044
Si Si6 0.697869 0.413473 0.752454
Si Si7 0.150722 0.548364 0.507161
O O1 0.697855 0.159444 0.022171
O O2 0.776157 0.954600 0.000811
O O3 0.835179 0.132925 0.762582
O O4 0.697856 0.039676 0.661779
O O5 0.581392 0.456023 0.368489
O O6 0.536743 0.661800 0.524263
O O7 0.668987 0.543109 0.652452
O O8 0.932713 0.430503 0.372252
O O9 0.954792 0.596839 0.069457
O O10 0.578780 0.229241 0.300574
O O11 0.621643 0.014883 0.266707
O O12 0.119369 0.167375 0.304378
O O13 0.774188 0.371358 0.598436
#
# Coordination Sequence:
#
# PCOD9312021 Si02
#       7
#     4   4   2   4   4   4   4
#     4   9  17  35  59  78 107 160 185 232 289 341
#     4   8  17  36  55  82 123 144 185 236 296 336
#     4  10  20  36  58  80 112 160 188 234 288 328
#     4  10  20  36  59  83 116 153 201 233 286 339
#     4   9  18  37  55  87 116 151 185 239 284 342
#     4   8  16  34  56  76 109 150 186 229 296 329
#     4   9  18  35  58  76 108 151 189 235 277 339
#
# _framework density 23.578706
#
# number of rings (size 3 to 8) (size 9 to 14) (size 15 to 20)
#    0.923    2.154    0.000    0.462    0.000    0.000 
#   13.846    0.000   30.462    0.000    0.000    0.000 
#    0.000    0.000    0.000    0.000    0.000    0.000 
#
# Total GULP energy -144754.240472 kJ/mol
# GULP energy per Si atom -5567.470787 kJ/mol
# Density = 2.352504 g / cm^3
# Si number density = 23.578706 Si / 1000 Ang^3
#
#
#
# Elastic Constant Matrix: (Units=GPa)
#
#
# Indices 1 2 3 4 5 6 
#
# 1 148.2301 20.4364 49.1313 0.0000 0.0000 0.0000
# 2 20.4364 57.7752 -2.2287 0.0000 0.0000 0.0000
# 3 49.1313 -2.2287 46.6025 0.0000 0.0000 0.0000
# 4 0.0000 0.0000 0.0000 23.4307 0.0000 0.0000
# 5 0.0000 0.0000 0.0000 0.0000 16.9229 0.0000
# 6 0.0000 0.0000 0.0000 0.0000 0.0000 12.8346
#
#
#
# Elastic Compliance Matrix: (Units=1/GPa)
#
#
# Indices 1 2 3 4 5 6 
#
# 1 0.011438 -0.004519 -0.012275 0.000000 0.000000 0.000000
# 2 -0.004519 0.019126 0.005679 0.000000 0.000000 0.000000
# 3 -0.012275 0.005679 0.034670 0.000000 0.000000 0.000000
# 4 0.000000 0.000000 0.000000 0.042679 0.000000 0.000000
# 5 0.000000 0.000000 0.000000 0.000000 0.059091 0.000000
# 6 0.000000 0.000000 0.000000 0.000000 0.000000 0.077914
#
#
# Mechanical properties :
#
#
# Convention : Reuss Voigt Hill
#
# Bulk Modulus (GPa) = 23.25316 43.03178 33.14247
# Shear Modulus (GPa) = 17.76304 22.98890 20.37597
#
# Velocity S-wave (km/s) = 2.74770 3.12586 2.94286
# Velocity P-wave (km/s) = 4.46652 5.59624 5.06299
#
# Compressibility (1/GPa) = 0.04300491
#
# Stress axis : x y z
#
# Youngs Moduli (GPa) = 87.42940 52.28454 28.84307
#
# Poissons Ratio (x) = 0.23629 0.35404
# Poissons Ratio (y) = 0.39512 -0.16381
# Poissons Ratio (z) = 1.07316 -0.29694
#
# Static dielectric constant tensor:
#      x y z
#    x 1.968670 0.000000 0.000000 
#    y 0.000000 1.927500 0.000000 
#    z 0.000000 0.000000 1.878230 
# 
# From -- ./inp_files/1827.got.cif
#   From: 2010.05.17/outbox.cif.g08.bks.cpg/sg18_1_cif.got.tgz:1827.got - 2010.06.03 22:40:56.
