data_PCOD9312419
_publ_section_title
;
Structure prediction by ZEFSAII (Michael W. Deem and Ramdas Pophale) SiO2 
 PCOD9312419
Probable space group: P 21 21 2
;
_chemical_formula_sum "Si O2"
_cell_formula_units_Z 24
_cell_length_a 7.952993
_cell_length_b 13.363679
_cell_length_c 8.939821
_cell_angle_alpha 90.000000
_cell_angle_beta 90.000000
_cell_angle_gamma 90.000000
_cell_volume 950.135311
_symmetry_space_group_name_H-M "P 21 21 2"
_symmetry_group_IT_number 18
_symmetry_cell_setting 'orthorhombic'
loop_
_space_group_symop_operation_xyz
x,y,z
-x,-y,z
1/2+x,1/2-y,-z
1/2-x,1/2+y,-z
loop_
_atom_site_type_symbol
_atom_site_label
_atom_site_fract_x
_atom_site_fract_y
_atom_site_fract_z
Si Si1 0.275131 0.397321 0.733844
Si Si2 0.051476 0.892717 0.788892
Si Si3 0.230423 0.620029 0.647750
Si Si4 0.448559 0.267708 0.508121
Si Si5 0.085410 0.173340 0.083628
Si Si6 0.403647 0.897471 0.963525
O O1 0.260149 0.501831 0.647204
O O2 0.302828 0.306040 0.620853
O O3 0.444530 0.392687 0.834170
O O4 0.130888 0.390800 0.858113
O O5 0.072500 0.820261 0.651221
O O6 0.224776 0.901984 0.879110
O O7 0.000000 0.000000 0.728239
O O8 0.913992 0.857376 0.910946
O O9 0.384676 0.686178 0.581611
O O10 0.076484 0.652799 0.541288
O O11 0.244532 0.650923 0.824329
O O12 0.029066 0.289274 0.089622
O O13 0.500000 0.000000 0.931184
#
# Coordination Sequence:
#
# PCOD9312419 Si02
#       6
#     4   4   4   4   4   4
#     4  10  24  43  69  98 142 191 224 296 368 426
#     4  11  23  42  70 100 136 183 231 292 361 424
#     4  11  23  46  69  98 143 186 236 291 363 432
#     4  11  24  44  67 103 133 189 235 290 352 432
#     4  10  21  42  66  98 133 178 231 284 353 414
#     4  11  25  43  70 106 139 181 237 300 356 430
#
# _framework density 25.259558999999999
#
# number of rings (size 3 to 8) (size 9 to 14) (size 15 to 20)
#    0.000    1.333    1.667    5.000    4.667    2.667 
#    9.000    0.833    0.000    0.000    0.000    0.000 
#    0.000    0.000    0.000    0.000    0.000    0.000 
#
# Total GULP energy -134284.115369 kJ/mol
# GULP energy per Si atom -5595.171474 kJ/mol
# Density = 2.520207 g / cm^3
# Si number density = 25.259559 Si / 1000 Ang^3
#
#
#
# Elastic Constant Matrix: (Units=GPa)
#
#
# Indices 1 2 3 4 5 6 
#
# 1 79.9230 12.1189 16.5572 0.0000 0.0000 0.0000
# 2 12.1189 143.5051 5.8868 0.0000 0.0000 0.0000
# 3 16.5572 5.8868 104.0147 0.0000 0.0000 0.0000
# 4 0.0000 0.0000 0.0000 30.3299 0.0000 0.0000
# 5 0.0000 0.0000 0.0000 0.0000 23.3982 0.0000
# 6 0.0000 0.0000 0.0000 0.0000 0.0000 38.4367
#
#
#
# Elastic Compliance Matrix: (Units=1/GPa)
#
#
# Indices 1 2 3 4 5 6 
#
# 1 0.013087 -0.001022 -0.002025 0.000000 0.000000 0.000000
# 2 -0.001022 0.007064 -0.000237 0.000000 0.000000 0.000000
# 3 -0.002025 -0.000237 0.009950 0.000000 0.000000 0.000000
# 4 0.000000 0.000000 0.000000 0.032971 0.000000 0.000000
# 5 0.000000 0.000000 0.000000 0.000000 0.042738 0.000000
# 6 0.000000 0.000000 0.000000 0.000000 0.000000 0.026017
#
#
# Mechanical properties :
#
#
# Convention : Reuss Voigt Hill
#
# Bulk Modulus (GPa) = 42.49555 44.06319 43.27937
# Shear Modulus (GPa) = 34.19045 37.95830 36.07437
#
# Velocity S-wave (km/s) = 3.68307 3.88071 3.78318
# Velocity P-wave (km/s) = 5.91158 6.12878 6.02116
#
# Compressibility (1/GPa) = 0.02353188
#
# Stress axis : x y z
#
# Youngs Moduli (GPa) = 76.41413 141.55420 100.50419
#
# Poissons Ratio (x) = 0.14468 0.20355
# Poissons Ratio (y) = 0.07810 0.02383
# Poissons Ratio (z) = 0.15476 0.03357
#
# Static dielectric constant tensor:
#      x y z
#    x 2.134230 0.000000 0.000000 
#    y 0.000000 2.027770 0.000000 
#    z 0.000000 0.000000 1.976650 
# 
# From -- ./inp_files/3133.got.cif
#   From: 2010.05.17/outbox.cif.g08.bks.cpg/sg18_2_cif.got.tgz:3133.got - 2010.06.03 22:40:56.
