data_PCOD9312592
_publ_section_title
;
Structure prediction by ZEFSAII (Michael W. Deem and Ramdas Pophale) SiO2 
 PCOD9312592
Probable space group: P 21 21 2
;
_chemical_formula_sum "Si O2"
_cell_formula_units_Z 24
_cell_length_a 7.846333
_cell_length_b 9.447778
_cell_length_c 14.231534
_cell_angle_alpha 90.000000
_cell_angle_beta 90.000000
_cell_angle_gamma 90.000000
_cell_volume 1054.989483
_symmetry_space_group_name_H-M "P 21 21 2"
_symmetry_group_IT_number 18
_symmetry_cell_setting 'orthorhombic'
loop_
_space_group_symop_operation_xyz
x,y,z
-x,-y,z
1/2+x,1/2-y,-z
1/2-x,1/2+y,-z
loop_
_atom_site_type_symbol
_atom_site_label
_atom_site_fract_x
_atom_site_fract_y
_atom_site_fract_z
Si Si1 0.269484 0.596382 0.096099
Si Si2 0.725352 0.397263 0.598167
Si Si3 0.878069 0.872709 0.700204
Si Si4 0.616128 0.868983 0.208092
Si Si5 0.350957 0.307394 0.035691
Si Si6 0.651587 0.705186 0.551846
O O1 0.276068 0.571667 0.207605
O O2 0.238783 0.448492 0.043553
O O3 0.457972 0.647061 0.063252
O O4 0.153582 0.724509 0.061629
O O5 0.761791 0.416556 0.707824
O O6 0.739727 0.551084 0.550296
O O7 0.538674 0.331294 0.584057
O O8 0.848997 0.286271 0.546965
O O9 0.753367 0.807081 0.623096
O O10 0.995238 0.748872 0.743638
O O11 0.000000 0.000000 0.665500
O O12 0.703826 0.800097 0.118139
O O13 0.500000 0.000000 0.178179
#
# Coordination Sequence:
#
# PCOD9312592 Si02
#       6
#     4   4   4   4   4   4
#     4  10  22  41  61  95 127 168 219 265 332 388
#     4  11  26  44  65 102 133 175 229 275 342 398
#     4  11  22  44  67  92 133 178 221 274 334 399
#     4  11  22  42  67  93 130 176 223 268 334 401
#     4  10  23  39  63  93 128 170 215 270 324 394
#     4  11  26  43  69  97 136 178 222 283 335 402
#
# _framework density 22.749041999999999
#
# number of rings (size 3 to 8) (size 9 to 14) (size 15 to 20)
#    0.000    1.333    5.000    1.000    9.333    1.333 
#    0.000    3.333    0.000    0.000    0.000    0.000 
#    0.000    0.000    0.000    0.000    0.000    0.000 
#
# Total GULP energy -134243.001543 kJ/mol
# GULP energy per Si atom -5593.458398 kJ/mol
# Density = 2.269726 g / cm^3
# Si number density = 22.749042 Si / 1000 Ang^3
#
#
#
# Elastic Constant Matrix: (Units=GPa)
#
#
# Indices 1 2 3 4 5 6 
#
# 1 35.0950 27.0571 20.0360 0.0000 0.0000 0.0000
# 2 27.0571 138.7074 35.6834 0.0000 0.0000 0.0000
# 3 20.0360 35.6834 81.6561 0.0000 0.0000 0.0000
# 4 0.0000 0.0000 0.0000 33.6461 0.0000 0.0000
# 5 0.0000 0.0000 0.0000 0.0000 27.7950 0.0000
# 6 0.0000 0.0000 0.0000 0.0000 0.0000 36.4654
#
#
#
# Elastic Compliance Matrix: (Units=1/GPa)
#
#
# Indices 1 2 3 4 5 6 
#
# 1 0.036419 -0.005414 -0.006570 0.000000 0.000000 0.000000
# 2 -0.005414 0.008927 -0.002573 0.000000 0.000000 0.000000
# 3 -0.006570 -0.002573 0.014983 0.000000 0.000000 0.000000
# 4 0.000000 0.000000 0.000000 0.029721 0.000000 0.000000
# 5 0.000000 0.000000 0.000000 0.000000 0.035978 0.000000
# 6 0.000000 0.000000 0.000000 0.000000 0.000000 0.027423
#
#
# Mechanical properties :
#
#
# Convention : Reuss Voigt Hill
#
# Bulk Modulus (GPa) = 32.03549 46.77906 39.40727
# Shear Modulus (GPa) = 25.91067 31.09343 28.50205
#
# Velocity S-wave (km/s) = 3.37854 3.70104 3.54346
# Velocity P-wave (km/s) = 5.41591 6.23469 5.83966
#
# Compressibility (1/GPa) = 0.03121538
#
# Stress axis : x y z
#
# Youngs Moduli (GPa) = 27.45812 112.01522 66.74244
#
# Poissons Ratio (x) = 0.60643 0.43852
# Poissons Ratio (y) = 0.14865 0.17172
# Poissons Ratio (z) = 0.18041 0.28820
#
# Static dielectric constant tensor:
#      x y z
#    x 1.883590 0.000000 0.000000 
#    y 0.000000 1.862260 0.000000 
#    z 0.000000 0.000000 1.857760 
# 
# From -- ./inp_files/6651.got.cif
#   From: 2010.05.17/outbox.cif.g08.bks.cpg/sg18_4_cif.got.tgz:6651.got - 2010.06.03 22:40:56.
