data_PCOD9312814
_publ_section_title
;
Structure prediction by ZEFSAII (Michael W. Deem and Ramdas Pophale) SiO2 
 PCOD9312814
Probable space group: P 21 21 2
;
_chemical_formula_sum "Si O2"
_cell_formula_units_Z 28
_cell_length_a 20.921990
_cell_length_b 11.921636
_cell_length_c 5.119195
_cell_angle_alpha 90.000000
_cell_angle_beta 90.000000
_cell_angle_gamma 90.000000
_cell_volume 1276.851881
_symmetry_space_group_name_H-M "P 21 21 2"
_symmetry_group_IT_number 18
_symmetry_cell_setting 'orthorhombic'
loop_
_space_group_symop_operation_xyz
x,y,z
-x,-y,z
1/2+x,1/2-y,-z
1/2-x,1/2+y,-z
loop_
_atom_site_type_symbol
_atom_site_label
_atom_site_fract_x
_atom_site_fract_y
_atom_site_fract_z
Si Si1 0.103679 0.754403 0.434439
Si Si2 0.095383 0.069122 0.921533
Si Si3 0.178414 0.214516 0.618547
Si Si4 0.533665 0.677765 0.071221
Si Si5 0.801064 0.644289 0.096411
Si Si6 0.304111 0.444213 0.763614
Si Si7 0.797656 0.431750 0.401889
O O1 0.048934 0.770699 0.648638
O O2 0.144975 0.644990 0.499189
O O3 0.152630 0.860920 0.409926
O O4 0.070593 0.754651 0.151476
O O5 0.125008 0.119084 0.655960
O O6 0.039675 0.154541 0.002169
O O7 0.064166 0.946764 0.903536
O O8 0.153758 0.043709 0.115467
O O9 0.189047 0.273719 0.342321
O O10 0.244829 0.155635 0.701970
O O11 0.164226 0.305362 0.843959
O O12 0.821419 0.520991 0.190091
O O13 0.727530 0.625711 0.002414
O O14 0.244574 0.496653 0.607222
#
# Coordination Sequence:
#
# PCOD9312814 Si02
#       7
#     4   4   4   4   4   4   4
#     4  11  25  40  67  94 136 168 218 271 324 401
#     4  10  23  44  69  94 134 175 217 275 330 381
#     4  12  25  38  66  95 133 174 210 267 329 393
#     4  10  25  44  66  99 128 173 226 271 322 386
#     4  12  25  40  57 104 133 166 213 257 332 404
#     4  11  23  42  64 104 134 169 214 269 333 412
#     4  12  24  39  67  94 140 175 210 268 346 386
#
# _framework density 21.928934999999999
#
# number of rings (size 3 to 8) (size 9 to 14) (size 15 to 20)
#    0.000    0.857    4.286    1.714    8.000    8.000 
#    0.000    0.000    0.000    5.143    0.000    0.000 
#    0.000    0.000    0.000    0.000    0.000    0.000 
#
# Total GULP energy -156425.952176 kJ/mol
# GULP energy per Si atom -5586.641149 kJ/mol
# Density = 2.187902 g / cm^3
# Si number density = 21.928935 Si / 1000 Ang^3
#
#
#
# Elastic Constant Matrix: (Units=GPa)
#
#
# Indices 1 2 3 4 5 6 
#
# 1 48.3736 -1.1896 17.9543 0.0000 0.0000 0.0000
# 2 -1.1896 49.2706 25.2738 0.0000 0.0000 0.0000
# 3 17.9543 25.2738 120.5580 0.0000 0.0000 0.0000
# 4 0.0000 0.0000 0.0000 30.4686 0.0000 0.0000
# 5 0.0000 0.0000 0.0000 0.0000 23.5586 0.0000
# 6 0.0000 0.0000 0.0000 0.0000 0.0000 26.3525
#
#
#
# Elastic Compliance Matrix: (Units=1/GPa)
#
#
# Indices 1 2 3 4 5 6 
#
# 1 0.022152 0.002495 -0.003822 0.000000 0.000000 0.000000
# 2 0.002495 0.023023 -0.005198 0.000000 0.000000 0.000000
# 3 -0.003822 -0.005198 0.009954 0.000000 0.000000 0.000000
# 4 0.000000 0.000000 0.000000 0.032821 0.000000 0.000000
# 5 0.000000 0.000000 0.000000 0.000000 0.042447 0.000000
# 6 0.000000 0.000000 0.000000 0.000000 0.000000 0.037947
#
#
# Mechanical properties :
#
#
# Convention : Reuss Voigt Hill
#
# Bulk Modulus (GPa) = 23.76473 33.58657 28.67565
# Shear Modulus (GPa) = 25.58590 27.82019 26.70305
#
# Velocity S-wave (km/s) = 3.41950 3.56568 3.49335
# Velocity P-wave (km/s) = 5.14308 5.68344 5.42000
#
# Compressibility (1/GPa) = 0.04207917
#
# Stress axis : x y z
#
# Youngs Moduli (GPa) = 45.14168 43.43534 100.46483
#
# Poissons Ratio (x) = -0.10839 0.38400
# Poissons Ratio (y) = -0.11265 0.52223
# Poissons Ratio (z) = 0.17254 0.22578
#
# Static dielectric constant tensor:
#      x y z
#    x 1.824750 0.000000 0.000000 
#    y 0.000000 1.853060 0.000000 
#    z 0.000000 0.000000 1.858320 
# 
# From -- ./inp_files/1965.got.cif
#   From: 2010.05.17/outbox.cif.g08.bks.cpg/sg18_1_cif.got.tgz:1965.got - 2010.06.03 22:40:56.
