data_PCOD9312614
_publ_section_title
;
Structure prediction by ZEFSAII (Michael W. Deem and Ramdas Pophale) SiO2 
 PCOD9312614
Probable space group: P 21 21 2
;
_chemical_formula_sum "Si O2"
_cell_formula_units_Z 30
_cell_length_a 12.530344
_cell_length_b 5.580583
_cell_length_c 19.180621
_cell_angle_alpha 90.000000
_cell_angle_beta 90.000000
_cell_angle_gamma 90.000000
_cell_volume 1341.236086
_symmetry_space_group_name_H-M "P 21 21 2"
_symmetry_group_IT_number 18
_symmetry_cell_setting 'orthorhombic'
loop_
_space_group_symop_operation_xyz
x,y,z
-x,-y,z
1/2+x,1/2-y,-z
1/2-x,1/2+y,-z
loop_
_atom_site_type_symbol
_atom_site_label
_atom_site_fract_x
_atom_site_fract_y
_atom_site_fract_z
Si Si1 0.382162 0.489954 0.652259
Si Si2 0.624349 0.554284 0.252058
Si Si3 0.281077 0.374382 0.398533
Si Si4 0.500000 0.000000 0.934004
Si Si5 0.109961 0.648236 0.479751
Si Si6 0.893138 0.109343 0.965310
Si Si7 0.313956 0.685751 0.905038
Si Si8 0.232382 0.422297 0.778654
O O1 0.500000 0.500000 0.683217
O O2 0.320430 0.731668 0.632540
O O3 0.397115 0.349524 0.579878
O O4 0.305652 0.382659 0.710873
O O5 0.500000 0.500000 0.246987
O O6 0.660838 0.513798 0.332466
O O7 0.675882 0.332030 0.209820
O O8 0.661223 0.831562 0.234975
O O9 0.222398 0.528738 0.457431
O O10 0.369559 0.227170 0.441152
O O11 0.434704 0.176336 0.985226
O O12 0.587843 0.139588 0.889308
O O13 0.000000 0.500000 0.475573
O O14 0.842769 0.920052 0.019144
O O15 0.800980 0.192895 0.914397
O O16 0.000000 0.000000 0.931637
O O17 0.302098 0.487774 0.846052
#
# Coordination Sequence:
#
# PCOD9312614 Si02
#       8
#     4   4   4   2   4   4   4   4
#     4  11  23  42  64  95 136 184 234 297 356 438
#     4  11  26  50  71 100 144 193 244 301 360 438
#     4  11  24  40  67  99 136 176 238 295 366 428
#     4  10  22  42  68 108 142 188 232 304 372 434
#     4  12  23  39  69 101 134 177 234 299 371 434
#     4  10  22  41  71 104 145 189 233 308 371 437
#     4  11  23  44  73 107 148 185 250 301 372 446
#     4  11  27  46  74 105 143 196 241 301 361 436
#
# _framework density 22.367426999999999
#
# number of rings (size 3 to 8) (size 9 to 14) (size 15 to 20)
#    0.000    1.067    5.333    0.400    1.867    5.867 
#    2.400    0.000    1.467    0.000    0.000    0.000 
#    0.000    0.000    0.000    0.000    0.000    0.000 
#
# Total GULP energy -167472.662885 kJ/mol
# GULP energy per Si atom -5582.422096 kJ/mol
# Density = 2.231652 g / cm^3
# Si number density = 22.367427 Si / 1000 Ang^3
#
#
#
# Elastic Constant Matrix: (Units=GPa)
#
#
# Indices 1 2 3 4 5 6 
#
# 1 123.6332 44.2181 26.1758 0.0000 0.0000 0.0000
# 2 44.2181 71.4599 9.7620 0.0000 0.0000 0.0000
# 3 26.1758 9.7620 69.0007 0.0000 0.0000 0.0000
# 4 0.0000 0.0000 0.0000 12.1506 0.0000 0.0000
# 5 0.0000 0.0000 0.0000 0.0000 7.3313 0.0000
# 6 0.0000 0.0000 0.0000 0.0000 0.0000 20.4860
#
#
#
# Elastic Compliance Matrix: (Units=1/GPa)
#
#
# Indices 1 2 3 4 5 6 
#
# 1 0.011077 -0.006404 -0.003296 0.000000 0.000000 0.000000
# 2 -0.006404 0.017972 -0.000113 0.000000 0.000000 0.000000
# 3 -0.003296 -0.000113 0.015759 0.000000 0.000000 0.000000
# 4 0.000000 0.000000 0.000000 0.082301 0.000000 0.000000
# 5 0.000000 0.000000 0.000000 0.000000 0.136402 0.000000
# 6 0.000000 0.000000 0.000000 0.000000 0.000000 0.048814
#
#
# Mechanical properties :
#
#
# Convention : Reuss Voigt Hill
#
# Bulk Modulus (GPa) = 39.71189 47.15617 43.43403
# Shear Modulus (GPa) = 14.69103 20.25610 17.47356
#
# Velocity S-wave (km/s) = 2.56560 3.01260 2.79804
# Velocity P-wave (km/s) = 5.15454 5.76448 5.46802
#
# Compressibility (1/GPa) = 0.02518137
#
# Stress axis : x y z
#
# Youngs Moduli (GPa) = 90.28033 55.64250 63.45590
#
# Poissons Ratio (x) = 0.35632 0.20915
# Poissons Ratio (y) = 0.57813 0.00719
# Poissons Ratio (z) = 0.29756 0.00630
#
# Static dielectric constant tensor:
#      x y z
#    x 1.895500 0.000000 0.000000 
#    y 0.000000 1.943450 0.000000 
#    z 0.000000 0.000000 1.796550 
# 
# From -- ./inp_files/7589.got.cif
#   From: 2010.05.17/outbox.cif.g08.bks.cpg/sg18_4_cif.got.tgz:7589.got - 2010.06.03 22:40:56.
