data_PCOD9312547
_publ_section_title
;
Structure prediction by ZEFSAII (Michael W. Deem and Ramdas Pophale) SiO2 
 PCOD9312547
Probable space group: P 21 21 2
;
_chemical_formula_sum "Si O2"
_cell_formula_units_Z 32
_cell_length_a 11.246245
_cell_length_b 15.828311
_cell_length_c 9.177427
_cell_angle_alpha 90.000000
_cell_angle_beta 90.000000
_cell_angle_gamma 90.000000
_cell_volume 1633.665185
_symmetry_space_group_name_H-M "P 21 21 2"
_symmetry_group_IT_number 18
_symmetry_cell_setting 'orthorhombic'
loop_
_space_group_symop_operation_xyz
x,y,z
-x,-y,z
1/2+x,1/2-y,-z
1/2-x,1/2+y,-z
loop_
_atom_site_type_symbol
_atom_site_label
_atom_site_fract_x
_atom_site_fract_y
_atom_site_fract_z
Si Si1 0.070343 0.412955 0.866172
Si Si2 0.421884 0.755679 0.300697
Si Si3 0.869655 0.721260 0.361745
Si Si4 0.257362 0.198670 0.931826
Si Si5 0.158507 0.937266 0.097143
Si Si6 0.977743 0.400641 0.175740
Si Si7 0.082818 0.127009 0.161882
Si Si8 0.852864 0.169271 0.826168
O O1 0.023162 0.344010 0.755368
O O2 0.209412 0.425522 0.846461
O O3 0.000000 0.500000 0.855506
O O4 0.055062 0.380898 0.031410
O O5 0.386461 0.766230 0.467498
O O6 0.301737 0.741588 0.208009
O O7 0.522048 0.687362 0.254244
O O8 0.976069 0.662488 0.299196
O O9 0.874139 0.814740 0.292317
O O10 0.750334 0.678254 0.295575
O O11 0.345422 0.124591 0.877489
O O12 0.142343 0.167295 0.019908
O O13 0.324488 0.259822 0.047628
O O14 0.059358 0.874817 0.161675
O O15 0.123036 0.030581 0.147896
O O16 0.152182 0.916771 0.922936
O O17 0.000000 0.500000 0.209133
#
# Coordination Sequence:
#
# PCOD9312547 Si02
#       8
#     4   4   4   4   4   4   4   4
#     4  11  22  38  65  97 125 167 230 277 319 389
#     4  12  25  41  65  98 133 180 212 271 346 407
#     4  11  26  41  62  95 140 177 211 266 352 406
#     4  11  21  39  67  94 124 169 232 277 314 390
#     4  11  20  38  70  91 121 163 230 279 317 371
#     4  11  22  40  66  96 130 171 222 282 325 387
#     4  10  22  39  65  95 121 170 224 277 321 388
#     4  11  22  42  66  95 129 171 227 276 317 395
#
# _framework density 19.587857
#
# number of rings (size 3 to 8) (size 9 to 14) (size 15 to 20)
#    0.000    1.000    5.000    3.000    3.500    0.500 
#    0.000    1.250    5.500    0.000    0.000    0.000 
#    0.000    0.000    0.000    0.000    0.000    0.000 
#
# Total GULP energy -178496.938020 kJ/mol
# GULP energy per Si atom -5578.029313 kJ/mol
# Density = 1.954327 g / cm^3
# Si number density = 19.587857 Si / 1000 Ang^3
#
#
#
# Elastic Constant Matrix: (Units=GPa)
#
#
# Indices 1 2 3 4 5 6 
#
# 1 83.4781 16.4315 14.0630 0.0000 0.0000 0.0000
# 2 16.4315 75.5655 36.2900 0.0000 0.0000 0.0000
# 3 14.0630 36.2900 117.0122 0.0000 0.0000 0.0000
# 4 0.0000 0.0000 0.0000 13.6221 0.0000 0.0000
# 5 0.0000 0.0000 0.0000 0.0000 13.8193 0.0000
# 6 0.0000 0.0000 0.0000 0.0000 0.0000 28.4193
#
#
#
# Elastic Compliance Matrix: (Units=1/GPa)
#
#
# Indices 1 2 3 4 5 6 
#
# 1 0.012575 -0.002360 -0.000779 0.000000 0.000000 0.000000
# 2 -0.002360 0.015993 -0.004676 0.000000 0.000000 0.000000
# 3 -0.000779 -0.004676 0.010090 0.000000 0.000000 0.000000
# 4 0.000000 0.000000 0.000000 0.073410 0.000000 0.000000
# 5 0.000000 0.000000 0.000000 0.000000 0.072362 0.000000
# 6 0.000000 0.000000 0.000000 0.000000 0.000000 0.035187
#
#
# Mechanical properties :
#
#
# Convention : Reuss Voigt Hill
#
# Bulk Modulus (GPa) = 43.42887 45.51389 44.47138
# Shear Modulus (GPa) = 20.58252 25.12356 22.85304
#
# Velocity S-wave (km/s) = 3.24509 3.58524 3.41940
# Velocity P-wave (km/s) = 6.02165 6.35805 6.19213
#
# Compressibility (1/GPa) = 0.02302616
#
# Stress axis : x y z
#
# Youngs Moduli (GPa) = 79.52264 62.52930 99.10739
#
# Poissons Ratio (x) = 0.14758 0.07724
# Poissons Ratio (y) = 0.18768 0.46345
# Poissons Ratio (z) = 0.06198 0.29240
#
# Static dielectric constant tensor:
#      x y z
#    x 1.725230 0.000000 0.000000 
#    y 0.000000 1.785900 0.000000 
#    z 0.000000 0.000000 1.655960 
# 
# From -- ./inp_files/3936.got.cif
#   From: 2010.05.17/outbox.cif.g08.bks.cpg/sg18_2_cif.got.tgz:3936.got - 2010.06.03 22:40:56.
