data_PCOD9312540
_publ_section_title
;
Structure prediction by ZEFSAII (Michael W. Deem and Ramdas Pophale) SiO2 
 PCOD9312540
Probable space group: P 21 21 2
;
_chemical_formula_sum "Si O2"
_cell_formula_units_Z 18
_cell_length_a 10.871795
_cell_length_b 8.164459
_cell_length_c 9.158532
_cell_angle_alpha 90.000000
_cell_angle_beta 90.000000
_cell_angle_gamma 90.000000
_cell_volume 812.932590
_symmetry_space_group_name_H-M "P 21 21 2"
_symmetry_group_IT_number 18
_symmetry_cell_setting 'orthorhombic'
loop_
_space_group_symop_operation_xyz
x,y,z
-x,-y,z
1/2+x,1/2-y,-z
1/2-x,1/2+y,-z
loop_
_atom_site_type_symbol
_atom_site_label
_atom_site_fract_x
_atom_site_fract_y
_atom_site_fract_z
Si Si1 0.665058 0.756048 0.945456
Si Si2 0.858903 0.011713 0.829527
Si Si3 0.139127 0.932995 0.333154
Si Si4 0.209669 0.569125 0.428706
Si Si5 0.500000 0.000000 0.777908
O O1 0.665406 0.600199 0.837059
O O2 0.546564 0.857374 0.886288
O O3 0.777135 0.874110 0.907243
O O4 0.675707 0.689186 0.107907
O O5 0.833772 0.971114 0.661212
O O6 0.000000 0.000000 0.866532
O O7 0.158154 0.751640 0.404935
O O8 0.248807 0.035606 0.407841
O O9 0.000000 0.000000 0.351111
O O10 0.110825 0.461474 0.335822
#
# Coordination Sequence:
#
# PCOD9312540 Si02
#       5
#     4   4   4   4   2
#     4  10  23  40  66  91 129 169 213 255 332 369
#     4  10  22  39  63  93 128 163 212 265 308 385
#     4  10  22  40  65  95 127 170 213 257 317 382
#     4  10  23  39  65  90 132 164 216 259 318 373
#     4   8  20  40  58  88 122 174 200 260 308 382
#
# _framework density 22.142057999999999
#
# number of rings (size 3 to 8) (size 9 to 14) (size 15 to 20)
#    0.000    2.667    0.000    1.333   12.444    1.778 
#    0.000    0.000    0.000    0.000    0.000    0.000 
#    0.000    0.000    0.000    0.000    0.000    0.000 
#
# Total GULP energy -100258.214402 kJ/mol
# GULP energy per Si atom -5569.900800 kJ/mol
# Density = 2.209166 g / cm^3
# Si number density = 22.142058 Si / 1000 Ang^3
#
#
#
# Elastic Constant Matrix: (Units=GPa)
#
#
# Indices 1 2 3 4 5 6 
#
# 1 83.2872 38.3186 5.6312 0.0000 0.0000 0.0000
# 2 38.3186 57.2858 47.8959 0.0000 0.0000 0.0000
# 3 5.6312 47.8959 56.0574 0.0000 0.0000 0.0000
# 4 0.0000 0.0000 0.0000 31.8869 0.0000 0.0000
# 5 0.0000 0.0000 0.0000 0.0000 142.9756 0.0000
# 6 0.0000 0.0000 0.0000 0.0000 0.0000 41.8629
#
#
#
# Elastic Compliance Matrix: (Units=1/GPa)
#
#
# Indices 1 2 3 4 5 6 
#
# 1 0.070884 -0.145150 0.116897 0.000000 0.000000 0.000000
# 2 -0.145150 0.358342 -0.291590 0.000000 0.000000 0.000000
# 3 0.116897 -0.291590 0.255233 0.000000 0.000000 0.000000
# 4 0.000000 0.000000 0.000000 0.031361 0.000000 0.000000
# 5 0.000000 0.000000 0.000000 0.000000 0.006994 0.000000
# 6 0.000000 0.000000 0.000000 0.000000 0.000000 0.023888
#
#
# Mechanical properties :
#
#
# Convention : Reuss Voigt Hill
#
# Bulk Modulus (GPa) = 22.33507 42.25801 32.29654
# Shear Modulus (GPa) = 3.56809 50.33073 26.94941
#
# Velocity S-wave (km/s) = 1.27081 4.77286 3.49250
# Velocity P-wave (km/s) = 3.50176 7.03562 5.55708
#
# Compressibility (1/GPa) = 0.04477264
#
# Stress axis : x y z
#
# Youngs Moduli (GPa) = 14.10765 2.79063 3.91799
#
# Poissons Ratio (x) = 0.40506 -0.45800
# Poissons Ratio (y) = 2.04773 1.14245
# Poissons Ratio (z) = -1.64915 0.81372
#
# Static dielectric constant tensor:
#      x y z
#    x 1.840190 0.000000 0.000000 
#    y 0.000000 1.879390 0.000000 
#    z 0.000000 0.000000 1.829590 
# 
# From -- ./inp_files/5815.got.cif
#   From: 2010.05.17/outbox.cif.g08.bks.cpg/sg18_3_cif.got.tgz:5815.got - 2010.06.03 22:40:56.
