data_PCOD9312559
_publ_section_title
;
Structure prediction by ZEFSAII (Michael W. Deem and Ramdas Pophale) SiO2 
 PCOD9312559
Probable space group: P 21 21 2
;
_chemical_formula_sum "Si O2"
_cell_formula_units_Z 14
_cell_length_a 8.126782
_cell_length_b 5.014538
_cell_length_c 13.080932
_cell_angle_alpha 90.000000
_cell_angle_beta 90.000000
_cell_angle_gamma 90.000000
_cell_volume 533.074889
_symmetry_space_group_name_H-M "P 21 21 2"
_symmetry_group_IT_number 18
_symmetry_cell_setting 'orthorhombic'
loop_
_space_group_symop_operation_xyz
x,y,z
-x,-y,z
1/2+x,1/2-y,-z
1/2-x,1/2+y,-z
loop_
_atom_site_type_symbol
_atom_site_label
_atom_site_fract_x
_atom_site_fract_y
_atom_site_fract_z
Si Si1 0.500000 0.000000 0.468072
Si Si2 0.000000 0.000000 0.783765
Si Si3 0.775140 0.711593 0.935881
Si Si4 0.500000 0.000000 0.807291
Si Si5 0.784651 0.730231 0.352281
O O1 0.348947 0.065827 0.393644
O O2 0.598015 0.186530 0.548722
O O3 0.152622 0.965923 0.705115
O O4 0.934301 0.773849 0.864156
O O5 0.627740 0.845366 0.875161
O O6 0.728051 0.409802 0.965159
O O7 0.581924 0.225118 0.736068
#
# Coordination Sequence:
#
# PCOD9312559 Si02
#       5
#     2   2   4   2   4
#     4  11  22  42  67  92 134 180 227 282 354 419
#     4  10  22  40  62  96 132 168 232 286 344 410
#     4  11  23  42  67  96 136 182 230 286 350 418
#     4   9  22  42  63  98 134 172 231 290 348 413
#     4  10  22  40  64  95 131 175 226 285 345 415
#
# _framework density 26.262727999999999
#
# number of rings (size 3 to 8) (size 9 to 14) (size 15 to 20)
#    0.000    1.714    0.000    3.429    0.000    4.571 
#    0.000   11.429    0.000    0.000    0.000    0.000 
#    0.000    0.000    0.000    0.000    0.000    0.000 
#
# Total GULP energy -77934.129137 kJ/mol
# GULP energy per Si atom -5566.723510 kJ/mol
# Density = 2.620295 g / cm^3
# Si number density = 26.262728 Si / 1000 Ang^3
#
#
#
# Elastic Constant Matrix: (Units=GPa)
#
#
# Indices 1 2 3 4 5 6 
#
# 1 133.8965 33.0446 29.3731 0.0000 0.0000 0.0000
# 2 33.0446 81.1116 28.6735 0.0000 0.0000 0.0000
# 3 29.3731 28.6735 124.1423 0.0000 0.0000 0.0000
# 4 0.0000 0.0000 0.0000 -19.7475 0.0000 0.0000
# 5 0.0000 0.0000 0.0000 0.0000 137.8236 0.0000
# 6 0.0000 0.0000 0.0000 0.0000 0.0000 45.7994
#
#
#
# Elastic Compliance Matrix: (Units=1/GPa)
#
#
# Indices 1 2 3 4 5 6 
#
# 1 0.008497 -0.002996 -0.001319 0.000000 0.000000 0.000000
# 2 -0.002996 0.014481 -0.002636 0.000000 0.000000 0.000000
# 3 -0.001319 -0.002636 0.008976 0.000000 0.000000 0.000000
# 4 0.000000 0.000000 0.000000 -0.050639 0.000000 0.000000
# 5 0.000000 0.000000 0.000000 0.000000 0.007256 0.000000
# 6 0.000000 0.000000 0.000000 0.000000 0.000000 0.021834
#
#
# Mechanical properties :
#
#
# Convention : Reuss Voigt Hill
#
# Bulk Modulus (GPa) = 55.38965 57.92586 56.65775
# Shear Modulus (GPa) = 164.89370 49.31238 107.10304
#
# Velocity S-wave (km/s) = 7.93237 4.33789 6.39296
# Velocity P-wave (km/s) = 10.24856 6.86979 8.72431
#
# Compressibility (1/GPa) = 0.01805391
#
# Stress axis : x y z
#
# Youngs Moduli (GPa) = 117.68880 69.05667 111.40717
#
# Poissons Ratio (x) = 0.20686 0.14690
# Poissons Ratio (y) = 0.35254 0.29366
# Poissons Ratio (z) = 0.15518 0.18203
#
# Static dielectric constant tensor:
#      x y z
#    x 3.169330 0.000000 0.000000 
#    y 0.000000 2.145610 0.000000 
#    z 0.000000 0.000000 2.124320 
# 
# From -- ./inp_files/4929.got.cif
#   From: 2010.05.17/outbox.cif.g08.bks.cpg/sg18_3_cif.got.tgz:4929.got - 2010.06.03 22:40:56.
