data_PCOD9312340
_publ_section_title
;
Structure prediction by ZEFSAII (Michael W. Deem and Ramdas Pophale) SiO2 
 PCOD9312340
Probable space group: P 21 21 2
;
_chemical_formula_sum "Si O2"
_cell_formula_units_Z 22
_cell_length_a 12.339746
_cell_length_b 6.944667
_cell_length_c 9.599967
_cell_angle_alpha 90.000000
_cell_angle_beta 90.000000
_cell_angle_gamma 90.000000
_cell_volume 822.673270
_symmetry_space_group_name_H-M "P 21 21 2"
_symmetry_group_IT_number 18
_symmetry_cell_setting 'orthorhombic'
loop_
_space_group_symop_operation_xyz
x,y,z
-x,-y,z
1/2+x,1/2-y,-z
1/2-x,1/2+y,-z
loop_
_atom_site_type_symbol
_atom_site_label
_atom_site_fract_x
_atom_site_fract_y
_atom_site_fract_z
Si Si1 0.180348 0.236930 0.839463
Si Si2 0.419051 0.237657 0.474953
Si Si3 0.000000 0.500000 0.280751
Si Si4 0.217297 0.991938 0.373583
Si Si5 0.860501 0.743105 0.121952
Si Si6 0.500000 0.500000 0.059427
Si Si7 0.000000 0.500000 0.761498
O O1 0.249866 0.293156 0.705986
O O2 0.102008 0.429121 0.846334
O O3 0.226351 0.247093 0.996860
O O4 0.106489 0.041773 0.844584
O O5 0.482489 0.174761 0.612825
O O6 0.369986 0.443304 0.508667
O O7 0.485724 0.185515 0.338222
O O8 0.319280 0.090100 0.446724
O O9 0.895370 0.541982 0.187393
O O10 0.176373 0.125909 0.249523
O O11 0.971035 0.829335 0.050396
#
# Coordination Sequence:
#
# PCOD9312340 Si02
#       7
#     4   4   2   4   4   2   2
#     4   9  21  39  61  89 126 163 209 267 320 382
#     4  10  23  37  62  89 123 174 209 263 317 373
#     4  11  21  40  66  90 129 171 222 260 316 393
#     4  11  22  42  60  95 134 161 220 264 329 378
#     4  10  21  39  64  94 125 167 214 270 326 389
#     4   8  20  38  56  92 114 168 210 242 330 366
#     4   9  19  42  60  88 119 169 220 252 312 389
#
# _framework density 26.742087000000001
#
# number of rings (size 3 to 8) (size 9 to 14) (size 15 to 20)
#    1.091    1.091    0.000    2.727    0.000    2.909 
#    6.545    0.000    0.000    0.000    0.000    0.000 
#    0.000    0.000    0.000    0.000    0.000    0.000 
#
# Total GULP energy -122618.750827 kJ/mol
# GULP energy per Si atom -5573.579583 kJ/mol
# Density = 2.668122 g / cm^3
# Si number density = 26.742087 Si / 1000 Ang^3
#
#
#
# Elastic Constant Matrix: (Units=GPa)
#
#
# Indices 1 2 3 4 5 6 
#
# 1 45.7154 15.1786 24.4458 0.0000 0.0000 0.0000
# 2 15.1786 48.7296 35.8495 0.0000 0.0000 0.0000
# 3 24.4458 35.8495 124.8306 0.0000 0.0000 0.0000
# 4 0.0000 0.0000 0.0000 40.5536 0.0000 0.0000
# 5 0.0000 0.0000 0.0000 0.0000 35.4917 0.0000
# 6 0.0000 0.0000 0.0000 0.0000 0.0000 55.6337
#
#
#
# Elastic Compliance Matrix: (Units=1/GPa)
#
#
# Indices 1 2 3 4 5 6 
#
# 1 0.025512 -0.005415 -0.003441 0.000000 0.000000 0.000000
# 2 -0.005415 0.027168 -0.006742 0.000000 0.000000 0.000000
# 3 -0.003441 -0.006742 0.010621 0.000000 0.000000 0.000000
# 4 0.000000 0.000000 0.000000 0.024659 0.000000 0.000000
# 5 0.000000 0.000000 0.000000 0.000000 0.028176 0.000000
# 6 0.000000 0.000000 0.000000 0.000000 0.000000 0.017975
#
#
# Mechanical properties :
#
#
# Convention : Reuss Voigt Hill
#
# Bulk Modulus (GPa) = 31.14756 41.13593 36.14174
# Shear Modulus (GPa) = 28.40779 35.92259 32.16519
#
# Velocity S-wave (km/s) = 3.26281 3.66908 3.47189
# Velocity P-wave (km/s) = 5.08599 5.77628 5.44209
#
# Compressibility (1/GPa) = 0.03210525
#
# Stress axis : x y z
#
# Youngs Moduli (GPa) = 39.19653 36.80804 94.15452
#
# Poissons Ratio (x) = 0.19933 0.32398
# Poissons Ratio (y) = 0.21226 0.63477
# Poissons Ratio (z) = 0.13487 0.24815
#
# Static dielectric constant tensor:
#      x y z
#    x 2.164160 0.000000 0.000000 
#    y 0.000000 2.105130 0.000000 
#    z 0.000000 0.000000 2.061740 
# 
# From -- ./inp_files/4150.got.cif
#   From: 2010.05.17/outbox.cif.g08.bks.cpg/sg18_3_cif.got.tgz:4150.got - 2010.06.03 22:40:56.
