data_PCOD9312515
_publ_section_title
;
Structure prediction by ZEFSAII (Michael W. Deem and Ramdas Pophale) SiO2 
 PCOD9312515
Probable space group: P 21 21 2
;
_chemical_formula_sum "Si O2"
_cell_formula_units_Z 28
_cell_length_a 21.074025
_cell_length_b 11.681637
_cell_length_c 4.875930
_cell_angle_alpha 90.000000
_cell_angle_beta 90.000000
_cell_angle_gamma 90.000000
_cell_volume 1200.352109
_symmetry_space_group_name_H-M "P 21 21 2"
_symmetry_group_IT_number 18
_symmetry_cell_setting 'orthorhombic'
loop_
_space_group_symop_operation_xyz
x,y,z
-x,-y,z
1/2+x,1/2-y,-z
1/2-x,1/2+y,-z
loop_
_atom_site_type_symbol
_atom_site_label
_atom_site_fract_x
_atom_site_fract_y
_atom_site_fract_z
Si Si1 0.933320 0.104506 0.219501
Si Si2 0.202798 0.941400 0.967391
Si Si3 0.500000 0.000000 0.234949
Si Si4 0.124881 0.444015 0.486236
Si Si5 0.592729 0.848351 0.893838
Si Si6 0.500000 0.500000 0.265673
Si Si7 0.791031 0.381030 0.799636
Si Si8 0.758711 0.683859 0.532604
O O1 0.869210 0.058996 0.074576
O O2 0.926377 0.239661 0.287002
O O3 0.947543 0.034309 0.499342
O O4 0.986529 0.096670 0.972983
O O5 0.241442 0.850208 0.158925
O O6 0.235096 0.064982 0.021492
O O7 0.217688 0.903401 0.657839
O O8 0.553556 0.065014 0.409647
O O9 0.534943 0.901737 0.062698
O O10 0.119839 0.539499 0.254314
O O11 0.168377 0.510265 0.703204
O O12 0.167789 0.333516 0.442285
O O13 0.652294 0.806123 0.071610
O O14 0.763250 0.309258 0.550204
#
# Coordination Sequence:
#
# PCOD9312515 Si02
#       8
#     4   4   2   4   4   2   4   4
#     4  11  23  44  72  92 134 176 226 274 335 396
#     4  11  22  39  67 101 130 168 220 273 326 403
#     4  10  24  40  62  98 132 178 232 274 330 398
#     4  10  22  41  63  97 138 171 229 279 324 413
#     4  11  21  40  71  92 128 182 226 269 338 407
#     4  10  26  46  64 100 126 174 234 278 308 394
#     4  10  22  38  65 101 129 174 216 269 344 400
#     4  11  22  39  65 100 136 164 215 279 335 387
#
# _framework density 23.326488999999999
#
# number of rings (size 3 to 8) (size 9 to 14) (size 15 to 20)
#    0.000    1.429    2.857    2.143    4.000    0.000 
#    2.571    1.429    0.000    0.000    0.000    0.000 
#    0.000    0.000    0.000    0.000    0.000    0.000 
#
# Total GULP energy -155998.608503 kJ/mol
# GULP energy per Si atom -5571.378875 kJ/mol
# Density = 2.327340 g / cm^3
# Si number density = 23.326489 Si / 1000 Ang^3
#
#
#
# Elastic Constant Matrix: (Units=GPa)
#
#
# Indices 1 2 3 4 5 6 
#
# 1 103.0793 40.6853 25.6353 0.0000 0.0000 0.0000
# 2 40.6853 49.3893 7.0756 0.0000 0.0000 0.0000
# 3 25.6353 7.0756 87.0317 0.0000 0.0000 0.0000
# 4 0.0000 0.0000 0.0000 25.3228 0.0000 0.0000
# 5 0.0000 0.0000 0.0000 0.0000 30.4485 0.0000
# 6 0.0000 0.0000 0.0000 0.0000 0.0000 11.5299
#
#
#
# Elastic Compliance Matrix: (Units=1/GPa)
#
#
# Indices 1 2 3 4 5 6 
#
# 1 0.015384 -0.012165 -0.003542 0.000000 0.000000 0.000000
# 2 -0.012165 0.030106 0.001136 0.000000 0.000000 0.000000
# 3 -0.003542 0.001136 0.012441 0.000000 0.000000 0.000000
# 4 0.000000 0.000000 0.000000 0.039490 0.000000 0.000000
# 5 0.000000 0.000000 0.000000 0.000000 0.032842 0.000000
# 6 0.000000 0.000000 0.000000 0.000000 0.000000 0.086731
#
#
# Mechanical properties :
#
#
# Convention : Reuss Voigt Hill
#
# Bulk Modulus (GPa) = 34.73766 42.92142 38.82954
# Shear Modulus (GPa) = 19.55159 24.53385 22.04272
#
# Velocity S-wave (km/s) = 2.89826 3.24660 3.07736
# Velocity P-wave (km/s) = 5.11118 5.70036 5.41379
#
# Compressibility (1/GPa) = 0.02878720
#
# Stress axis : x y z
#
# Youngs Moduli (GPa) = 65.00339 33.21611 80.37857
#
# Poissons Ratio (x) = 0.40408 0.28473
# Poissons Ratio (y) = 0.79078 -0.09129
# Poissons Ratio (z) = 0.23026 -0.03772
#
# Static dielectric constant tensor:
#      x y z
#    x 2.013960 0.000000 0.000000 
#    y 0.000000 2.012530 0.000000 
#    z 0.000000 0.000000 2.015360 
# 
# From -- ./inp_files/1985.got.cif
#   From: 2010.05.17/outbox.cif.g08.bks.cpg/sg18_1_cif.got.tgz:1985.got - 2010.06.03 22:40:56.
