data_PCOD9312781
_publ_section_title
;
Structure prediction by ZEFSAII (Michael W. Deem and Ramdas Pophale) SiO2 
 PCOD9312781
Probable space group: P 21 21 2
;
_chemical_formula_sum "Si O2"
_cell_formula_units_Z 20
_cell_length_a 31.992132
_cell_length_b 4.898458
_cell_length_c 5.126273
_cell_angle_alpha 90.000000
_cell_angle_beta 90.000000
_cell_angle_gamma 90.000000
_cell_volume 803.349084
_symmetry_space_group_name_H-M "P 21 21 2"
_symmetry_group_IT_number 18
_symmetry_cell_setting 'orthorhombic'
loop_
_space_group_symop_operation_xyz
x,y,z
-x,-y,z
1/2+x,1/2-y,-z
1/2-x,1/2+y,-z
loop_
_atom_site_type_symbol
_atom_site_label
_atom_site_fract_x
_atom_site_fract_y
_atom_site_fract_z
Si Si1 0.029425 0.247308 0.406490
Si Si2 0.801846 0.977543 0.389329
Si Si3 0.637471 0.709610 0.975331
Si Si4 0.415981 0.767241 0.087401
Si Si5 0.215238 0.528015 0.749798
O O1 0.054816 0.162321 0.148134
O O2 0.000000 0.500000 0.334925
O O3 0.058955 0.327611 0.648534
O O4 0.000000 0.000000 0.494290
O O5 0.846997 0.025941 0.267335
O O6 0.789194 0.264038 0.510258
O O7 0.798217 0.756313 0.618254
O O8 0.764209 0.928180 0.179656
O O9 0.616751 0.474953 0.151382
O O10 0.605195 0.958710 0.972248
O O11 0.680288 0.864175 0.054960
#
# Coordination Sequence:
#
# PCOD9312781 Si02
#       5
#     4   4   4   4   4
#     4  12  26  52  78 106 146 186 238 292 372 474
#     4  10  23  42  66  96 141 200 254 302 363 430
#     4  12  26  42  70 104 152 182 248 314 366 428
#     4  12  28  44  78 114 142 192 236 306 380 438
#     4  10  23  42  66  96 141 200 254 302 363 430
#
# _framework density 24.895779000000001
#
# number of rings (size 3 to 8) (size 9 to 14) (size 15 to 20)
#    0.000    0.800    0.000    6.000    8.400    6.400 
#    0.000    0.000    0.000    0.000    0.000    0.000 
#    0.000    0.000    0.000    0.000    0.000    0.000 
#
# Total GULP energy -111835.337468 kJ/mol
# GULP energy per Si atom -5591.766873 kJ/mol
# Density = 2.483912 g / cm^3
# Si number density = 24.895779 Si / 1000 Ang^3
#
#
#
# Elastic Constant Matrix: (Units=GPa)
#
#
# Indices 1 2 3 4 5 6 
#
# 1 36.7761 111.1557 13.1498 0.0000 0.0000 0.0000
# 2 111.1557 -19.4482 50.6942 0.0000 0.0000 0.0000
# 3 13.1498 50.6942 86.0143 0.0000 0.0000 0.0000
# 4 0.0000 0.0000 0.0000 36.9845 0.0000 0.0000
# 5 0.0000 0.0000 0.0000 0.0000 -9.5448 0.0000
# 6 0.0000 0.0000 0.0000 0.0000 0.0000 41.0492
#
#
#
# Elastic Compliance Matrix: (Units=1/GPa)
#
#
# Indices 1 2 3 4 5 6 
#
# 1 0.003975 0.008334 -0.005520 0.000000 0.000000 0.000000
# 2 0.008334 -0.002802 0.000377 0.000000 0.000000 0.000000
# 3 -0.005520 0.000377 0.012247 0.000000 0.000000 0.000000
# 4 0.000000 0.000000 0.000000 0.027038 0.000000 0.000000
# 5 0.000000 0.000000 0.000000 0.000000 -0.104769 0.000000
# 6 0.000000 0.000000 0.000000 0.000000 0.000000 0.024361
#
#
# Mechanical properties :
#
#
# Convention : Reuss Voigt Hill
#
# Bulk Modulus (GPa) = 50.49374 50.37129 50.43252
# Shear Modulus (GPa) = -125.84704 8.92061 -58.46322
#
# Velocity S-wave (km/s) = -7.11753 1.89498 -4.85120
# Velocity P-wave (km/s) = 6.87165 5.00647 3.32828
#
# Compressibility (1/GPa) = 0.01980443
#
# Stress axis : x y z
#
# Youngs Moduli (GPa) = 251.54288 -356.89069 81.64967
#
# Poissons Ratio (x) = 2.97435 0.45068
# Poissons Ratio (y) = -2.09638 -0.03081
# Poissons Ratio (z) = 1.38842 0.13465
#
# Static dielectric constant tensor:
#      x y z
#    x 1.936570 0.000000 0.000000 
#    y 0.000000 1.957170 0.000000 
#    z 0.000000 0.000000 2.244730 
# 
# From -- ./inp_files/2246.got.cif
#   From: 2010.05.17/outbox.cif.g08.bks.cpg/sg18_2_cif.got.tgz:2246.got - 2010.06.03 22:40:56.
