data_PCOD9312199
_publ_section_title
;
Structure prediction by ZEFSAII (Michael W. Deem and Ramdas Pophale) SiO2 
 PCOD9312199
Probable space group: P 21 21 2
;
_chemical_formula_sum "Si O2"
_cell_formula_units_Z 18
_cell_length_a 13.263566
_cell_length_b 8.239217
_cell_length_c 8.612163
_cell_angle_alpha 90.000000
_cell_angle_beta 90.000000
_cell_angle_gamma 90.000000
_cell_volume 941.149216
_symmetry_space_group_name_H-M "P 21 21 2"
_symmetry_group_IT_number 18
_symmetry_cell_setting 'orthorhombic'
loop_
_space_group_symop_operation_xyz
x,y,z
-x,-y,z
1/2+x,1/2-y,-z
1/2-x,1/2+y,-z
loop_
_atom_site_type_symbol
_atom_site_label
_atom_site_fract_x
_atom_site_fract_y
_atom_site_fract_z
Si Si1 0.938115 0.335171 0.450092
Si Si2 0.500000 0.500000 0.111123
Si Si3 0.236454 0.490849 0.615714
Si Si4 0.116195 0.153456 0.613014
Si Si5 0.902831 0.100257 0.184816
O O1 0.850992 0.381909 0.572913
O O2 0.897611 0.261732 0.288579
O O3 0.000000 0.500000 0.418532
O O4 0.015480 0.208367 0.524060
O O5 0.577882 0.405401 0.220387
O O6 0.432981 0.387063 0.995534
O O7 0.183532 0.316048 0.616219
O O8 0.319471 0.519520 0.480285
O O9 0.301977 0.500076 0.773367
O O10 0.000000 0.000000 0.243281
#
# Coordination Sequence:
#
# PCOD9312199 Si02
#       5
#     4   2   4   4   4
#     4  10  21  38  66  95 122 161 228 275 305 371
#     4  10  24  40  62  90 144 168 190 268 356 382
#     4  11  21  37  70  95 118 173 233 258 310 390
#     4  11  21  40  64  97 124 168 219 272 315 386
#     4  10  20  41  61  90 132 173 197 262 332 387
#
# _framework density 19.125554000000001
#
# number of rings (size 3 to 8) (size 9 to 14) (size 15 to 20)
#    0.667    0.889    4.444    1.333    0.000    0.000 
#    4.000    7.778    0.000    0.000    0.000    0.000 
#    0.000    0.000    0.000    0.000    0.000    0.000 
#
# Total GULP energy -100202.137129 kJ/mol
# GULP energy per Si atom -5566.785396 kJ/mol
# Density = 1.908202 g / cm^3
# Si number density = 19.125554 Si / 1000 Ang^3
#
#
#
# Elastic Constant Matrix: (Units=GPa)
#
#
# Indices 1 2 3 4 5 6 
#
# 1 126.7106 43.4338 48.7513 0.0000 0.0000 0.0000
# 2 43.4338 62.0179 34.4852 0.0000 0.0000 0.0000
# 3 48.7513 34.4852 112.0742 0.0000 0.0000 0.0000
# 4 0.0000 0.0000 0.0000 16.2874 0.0000 0.0000
# 5 0.0000 0.0000 0.0000 0.0000 20.5700 0.0000
# 6 0.0000 0.0000 0.0000 0.0000 0.0000 33.4566
#
#
#
# Elastic Compliance Matrix: (Units=1/GPa)
#
#
# Indices 1 2 3 4 5 6 
#
# 1 0.011139 -0.006161 -0.002950 0.000000 0.000000 0.000000
# 2 -0.006161 0.022860 -0.004354 0.000000 0.000000 0.000000
# 3 -0.002950 -0.004354 0.011545 0.000000 0.000000 0.000000
# 4 0.000000 0.000000 0.000000 0.061397 0.000000 0.000000
# 5 0.000000 0.000000 0.000000 0.000000 0.048614 0.000000
# 6 0.000000 0.000000 0.000000 0.000000 0.000000 0.029889
#
#
# Mechanical properties :
#
#
# Convention : Reuss Voigt Hill
#
# Bulk Modulus (GPa) = 53.71928 61.57146 57.64537
# Shear Modulus (GPa) = 22.87500 25.67165 24.27332
#
# Velocity S-wave (km/s) = 3.46214 3.66767 3.56639
# Velocity P-wave (km/s) = 6.64308 7.08512 6.86766
#
# Compressibility (1/GPa) = 0.01861529
#
# Stress axis : x y z
#
# Youngs Moduli (GPa) = 89.77795 43.74420 86.61414
#
# Poissons Ratio (x) = 0.26950 0.25547
# Poissons Ratio (y) = 0.55310 0.37713
# Poissons Ratio (z) = 0.26480 0.19047
#
# Static dielectric constant tensor:
#      x y z
#    x 1.708860 0.000000 0.000000 
#    y 0.000000 1.700340 0.000000 
#    z 0.000000 0.000000 1.667380 
# 
# From -- ./inp_files/3036.got.cif
#   From: 2010.05.17/outbox.cif.g08.bks.cpg/sg18_2_cif.got.tgz:3036.got - 2010.06.03 22:40:56.
