data_PCOD9312979
_publ_section_title
;
Structure prediction by ZEFSAII (Michael W. Deem and Ramdas Pophale) SiO2 
 PCOD9312979
Probable space group: P 21 21 2
;
_chemical_formula_sum "Si O2"
_cell_formula_units_Z 28
_cell_length_a 5.470586
_cell_length_b 26.518685
_cell_length_c 8.940487
_cell_angle_alpha 90.000000
_cell_angle_beta 90.000000
_cell_angle_gamma 90.000000
_cell_volume 1297.021008
_symmetry_space_group_name_H-M "P 21 21 2"
_symmetry_group_IT_number 18
_symmetry_cell_setting 'orthorhombic'
loop_
_space_group_symop_operation_xyz
x,y,z
-x,-y,z
1/2+x,1/2-y,-z
1/2-x,1/2+y,-z
loop_
_atom_site_type_symbol
_atom_site_label
_atom_site_fract_x
_atom_site_fract_y
_atom_site_fract_z
Si Si1 0.250302 0.470787 0.592872
Si Si2 0.732956 0.823208 0.094665
Si Si3 0.370850 0.366169 0.744273
Si Si4 0.166906 0.363769 0.084117
Si Si5 0.197306 0.758936 0.411709
Si Si6 0.750762 0.528981 0.232160
Si Si7 0.995952 0.777087 0.838253
O O1 0.500000 0.500000 0.635565
O O2 0.275678 0.415585 0.663599
O O3 0.249187 0.466628 0.412445
O O4 0.000000 0.500000 0.636522
O O5 0.614162 0.852119 0.954350
O O6 0.575875 0.780810 0.175716
O O7 0.841534 0.861958 0.213368
O O8 0.922405 0.785943 0.010397
O O9 0.260962 0.364461 0.911756
O O10 0.325314 0.315993 0.648819
O O11 0.230644 0.416129 0.159682
O O12 0.295713 0.319174 0.178038
O O13 0.432684 0.754963 0.521025
O O14 0.275484 0.720944 0.278584
O O15 0.500000 0.500000 0.189028
O O16 0.000000 0.500000 0.188912
#
# Coordination Sequence:
#
# PCOD9312979 Si02
#       7
#     4   4   4   4   4   4   4
#     4  10  25  48  74  98 136 187 233 293 363 424
#     4  11  21  41  70 102 143 191 233 292 352 433
#     4  11  26  44  68 106 142 183 242 295 353 422
#     4  11  25  41  73 103 137 192 233 295 359 420
#     4  12  28  44  66 105 147 194 236 289 345 429
#     4  10  25  49  70 102 138 179 238 295 357 432
#     4  11  22  41  65  99 147 187 232 281 355 426
#
# _framework density 21.587931000000001
#
# number of rings (size 3 to 8) (size 9 to 14) (size 15 to 20)
#    0.000    1.143    2.857    1.714   10.000    1.143 
#    2.571    0.000    0.000    0.000    0.000    0.000 
#    0.000    0.000    0.000    0.000    0.000    0.000 
#
# Total GULP energy -156184.900336 kJ/mol
# GULP energy per Si atom -5578.032155 kJ/mol
# Density = 2.153880 g / cm^3
# Si number density = 21.587931 Si / 1000 Ang^3
#
#
#
# Elastic Constant Matrix: (Units=GPa)
#
#
# Indices 1 2 3 4 5 6 
#
# 1 127.5125 71.3820 39.2850 0.0000 0.0000 0.0000
# 2 71.3820 147.3421 46.5496 0.0000 0.0000 0.0000
# 3 39.2850 46.5496 49.4649 0.0000 0.0000 0.0000
# 4 0.0000 0.0000 0.0000 37.8283 0.0000 0.0000
# 5 0.0000 0.0000 0.0000 0.0000 39.4893 0.0000
# 6 0.0000 0.0000 0.0000 0.0000 0.0000 28.0499
#
#
#
# Elastic Compliance Matrix: (Units=1/GPa)
#
#
# Indices 1 2 3 4 5 6 
#
# 1 0.011782 -0.003916 -0.005672 0.000000 0.000000 0.000000
# 2 -0.003916 0.010960 -0.007204 0.000000 0.000000 0.000000
# 3 -0.005672 -0.007204 0.031501 0.000000 0.000000 0.000000
# 4 0.000000 0.000000 0.000000 0.026435 0.000000 0.000000
# 5 0.000000 0.000000 0.000000 0.000000 0.025323 0.000000
# 6 0.000000 0.000000 0.000000 0.000000 0.000000 0.035651
#
#
# Mechanical properties :
#
#
# Convention : Reuss Voigt Hill
#
# Bulk Modulus (GPa) = 48.40636 70.97252 59.68944
# Shear Modulus (GPa) = 27.45407 32.21369 29.83388
#
# Velocity S-wave (km/s) = 3.57000 3.86710 3.72152
# Velocity P-wave (km/s) = 6.28210 7.27232 6.79527
#
# Compressibility (1/GPa) = 0.02065844
#
# Stress axis : x y z
#
# Youngs Moduli (GPa) = 84.87469 91.24052 31.74548
#
# Poissons Ratio (x) = 0.35730 0.18006
# Poissons Ratio (y) = 0.33237 0.22869
# Poissons Ratio (z) = 0.48142 0.65730
#
# Static dielectric constant tensor:
#      x y z
#    x 2.126940 0.000000 0.000000 
#    y 0.000000 1.737320 0.000000 
#    z 0.000000 0.000000 1.785510 
# 
# From -- ./inp_files/2617.got.cif
#   From: 2010.05.17/outbox.cif.g08.bks.cpg/sg18_2_cif.got.tgz:2617.got - 2010.06.03 22:40:56.
