data_PCOD9312347
_publ_section_title
;
Structure prediction by ZEFSAII (Michael W. Deem and Ramdas Pophale) SiO2 
 PCOD9312347
Probable space group: P 21 21 2
;
_chemical_formula_sum "Si O2"
_cell_formula_units_Z 28
_cell_length_a 5.315598
_cell_length_b 12.943207
_cell_length_c 20.124420
_cell_angle_alpha 90.000000
_cell_angle_beta 90.000000
_cell_angle_gamma 90.000000
_cell_volume 1384.577911
_symmetry_space_group_name_H-M "P 21 21 2"
_symmetry_group_IT_number 18
_symmetry_cell_setting 'orthorhombic'
loop_
_space_group_symop_operation_xyz
x,y,z
-x,-y,z
1/2+x,1/2-y,-z
1/2-x,1/2+y,-z
loop_
_atom_site_type_symbol
_atom_site_label
_atom_site_fract_x
_atom_site_fract_y
_atom_site_fract_z
Si Si1 0.858383 0.108481 0.983701
Si Si2 0.551231 0.616706 0.478886
Si Si3 0.521653 0.273622 0.733471
Si Si4 0.447437 0.200280 0.584494
Si Si5 0.115342 0.275624 0.910273
Si Si6 0.495888 0.122529 0.218360
Si Si7 0.517948 0.119542 0.851072
O O1 0.685740 0.113898 0.917906
O O2 0.015137 0.213262 0.973617
O O3 0.742570 0.124705 0.056215
O O4 0.000000 0.000000 0.980975
O O5 0.500000 0.500000 0.500131
O O6 0.545102 0.694437 0.541178
O O7 0.817989 0.632604 0.442153
O O8 0.320384 0.648657 0.431184
O O9 0.475094 0.226434 0.661444
O O10 0.267553 0.333219 0.757642
O O11 0.592425 0.183239 0.785833
O O12 0.766114 0.346796 0.733903
O O13 0.941937 0.323188 0.853138
O O14 0.276271 0.185142 0.875162
O O15 0.500000 0.000000 0.211176
O O16 0.500000 0.000000 0.831471
#
# Coordination Sequence:
#
# PCOD9312347 Si02
#       7
#     4   4   4   4   4   4   4
#     4  12  23  39  64  87 118 161 213 265 333 391
#     4  10  21  39  66  97 136 174 216 271 317 378
#     4  11  24  44  66  95 132 172 212 267 317 388
#     4  10  22  41  64  99 135 173 220 265 321 382
#     4  11  24  39  61  88 121 159 210 273 328 382
#     4  11  25  43  66  92 129 168 218 267 326 389
#     4  11  23  39  60  87 119 162 209 262 322 388
#
# _framework density 20.222769
#
# number of rings (size 3 to 8) (size 9 to 14) (size 15 to 20)
#    0.000    1.143    4.286    1.714    0.000    6.286 
#    0.000    0.714    0.000    0.000    0.000    0.000 
#    0.000    0.000    0.000    0.000    0.000    0.000 
#
# Total GULP energy -156159.527029 kJ/mol
# GULP energy per Si atom -5577.125965 kJ/mol
# Density = 2.017674 g / cm^3
# Si number density = 20.222769 Si / 1000 Ang^3
#
#
#
# Elastic Constant Matrix: (Units=GPa)
#
#
# Indices 1 2 3 4 5 6 
#
# 1 63.5820 16.0221 -1.4240 0.0000 0.0000 0.0000
# 2 16.0221 93.9145 -1.4123 0.0000 0.0000 0.0000
# 3 -1.4240 -1.4123 48.0819 0.0000 0.0000 0.0000
# 4 0.0000 0.0000 0.0000 6.5884 0.0000 0.0000
# 5 0.0000 0.0000 0.0000 0.0000 23.2103 0.0000
# 6 0.0000 0.0000 0.0000 0.0000 0.0000 24.0248
#
#
#
# Elastic Compliance Matrix: (Units=1/GPa)
#
#
# Indices 1 2 3 4 5 6 
#
# 1 0.016442 -0.002799 0.000405 0.000000 0.000000 0.000000
# 2 -0.002799 0.011129 0.000244 0.000000 0.000000 0.000000
# 3 0.000405 0.000244 0.020817 0.000000 0.000000 0.000000
# 4 0.000000 0.000000 0.000000 0.151782 0.000000 0.000000
# 5 0.000000 0.000000 0.000000 0.000000 0.043084 0.000000
# 6 0.000000 0.000000 0.000000 0.000000 0.000000 0.041624
#
#
# Mechanical properties :
#
#
# Convention : Reuss Voigt Hill
#
# Bulk Modulus (GPa) = 22.68203 25.77223 24.22713
# Shear Modulus (GPa) = 16.45415 23.59085 20.02250
#
# Velocity S-wave (km/s) = 2.85554 3.41918 3.14999
# Velocity P-wave (km/s) = 4.70240 5.32537 5.02355
#
# Compressibility (1/GPa) = 0.04408777
#
# Stress axis : x y z
#
# Youngs Moduli (GPa) = 60.81942 89.85391 48.03766
#
# Poissons Ratio (x) = 0.25150 -0.01944
# Poissons Ratio (y) = 0.17023 -0.01172
# Poissons Ratio (z) = -0.02462 -0.02192
#
# Static dielectric constant tensor:
#      x y z
#    x 1.874900 0.000000 0.000000 
#    y 0.000000 1.699920 0.000000 
#    z 0.000000 0.000000 1.694600 
# 
# From -- ./inp_files/7483.got.cif
#   From: 2010.05.17/outbox.cif.g08.bks.cpg/sg18_4_cif.got.tgz:7483.got - 2010.06.03 22:40:56.
