data_PCOD9312822
_publ_section_title
;
Structure prediction by ZEFSAII (Michael W. Deem and Ramdas Pophale) SiO2 
 PCOD9312822
Probable space group: P 21 21 2
;
_chemical_formula_sum "Si O2"
_cell_formula_units_Z 20
_cell_length_a 30.221846
_cell_length_b 4.721593
_cell_length_c 5.211307
_cell_angle_alpha 90.000000
_cell_angle_beta 90.000000
_cell_angle_gamma 90.000000
_cell_volume 743.628789
_symmetry_space_group_name_H-M "P 21 21 2"
_symmetry_group_IT_number 18
_symmetry_cell_setting 'orthorhombic'
loop_
_space_group_symop_operation_xyz
x,y,z
-x,-y,z
1/2+x,1/2-y,-z
1/2-x,1/2+y,-z
loop_
_atom_site_type_symbol
_atom_site_label
_atom_site_fract_x
_atom_site_fract_y
_atom_site_fract_z
Si Si1 0.532375 0.256416 0.495661
Si Si2 0.412211 0.785005 0.985758
Si Si3 0.862059 0.183416 0.214815
Si Si4 0.238951 0.606936 0.835664
Si Si5 0.817793 0.698062 0.486337
O O1 0.500000 0.500000 0.397755
O O2 0.556364 0.341367 0.760561
O O3 0.500000 0.000000 0.556716
O O4 0.565609 0.182853 0.263091
O O5 0.371484 0.561236 0.997013
O O6 0.400045 0.090866 0.866710
O O7 0.827579 0.430774 0.299041
O O8 0.852846 0.950259 0.443640
O O9 0.193644 0.461435 0.749363
O O10 0.271667 0.662861 0.600133
O O11 0.266331 0.401760 0.022052
#
# Coordination Sequence:
#
# PCOD9312822 Si02
#       5
#     4   4   4   4   4
#     4  12  24  44  74 102 138 180 230 286 346 412
#     4  11  24  45  67 106 141 180 234 282 349 432
#     4  10  23  45  65  93 136 190 216 286 364 421
#     4  12  24  42  70 102 130 180 250 302 358 412
#     4  11  23  46  66  95 141 176 236 296 347 419
#
# _framework density 26.895137999999999
#
# number of rings (size 3 to 8) (size 9 to 14) (size 15 to 20)
#    0.000    0.800    0.000    8.400    0.000    0.000 
#   36.000    0.000    0.000    0.000    0.000    0.000 
#    0.000    0.000    0.000    0.000    0.000    0.000 
#
# Total GULP energy -111567.659615 kJ/mol
# GULP energy per Si atom -5578.382981 kJ/mol
# Density = 2.683392 g / cm^3
# Si number density = 26.895138 Si / 1000 Ang^3
#
#
#
# Elastic Constant Matrix: (Units=GPa)
#
#
# Indices 1 2 3 4 5 6 
#
# 1 61.2164 33.7325 25.2129 0.0000 0.0000 0.0000
# 2 33.7325 168.7765 8.8389 0.0000 0.0000 0.0000
# 3 25.2129 8.8389 129.9769 0.0000 0.0000 0.0000
# 4 0.0000 0.0000 0.0000 34.2863 0.0000 0.0000
# 5 0.0000 0.0000 0.0000 0.0000 49.4757 0.0000
# 6 0.0000 0.0000 0.0000 0.0000 0.0000 63.5289
#
#
#
# Elastic Compliance Matrix: (Units=1/GPa)
#
#
# Indices 1 2 3 4 5 6 
#
# 1 0.019908 -0.003790 -0.003604 0.000000 0.000000 0.000000
# 2 -0.003790 0.006668 0.000282 0.000000 0.000000 0.000000
# 3 -0.003604 0.000282 0.008374 0.000000 0.000000 0.000000
# 4 0.000000 0.000000 0.000000 0.029166 0.000000 0.000000
# 5 0.000000 0.000000 0.000000 0.000000 0.020212 0.000000
# 6 0.000000 0.000000 0.000000 0.000000 0.000000 0.015741
#
#
# Mechanical properties :
#
#
# Convention : Reuss Voigt Hill
#
# Bulk Modulus (GPa) = 48.25140 55.05982 51.65561
# Shear Modulus (GPa) = 41.25338 48.93721 45.09530
#
# Velocity S-wave (km/s) = 3.92070 4.27025 4.09920
# Velocity P-wave (km/s) = 6.20285 6.69551 6.45389
#
# Compressibility (1/GPa) = 0.02072479
#
# Stress axis : x y z
#
# Youngs Moduli (GPa) = 50.22989 149.97498 119.42251
#
# Poissons Ratio (x) = 0.56844 0.43041
# Poissons Ratio (y) = 0.19038 -0.03365
# Poissons Ratio (z) = 0.18103 -0.04226
#
# Static dielectric constant tensor:
#      x y z
#    x 2.258370 0.000000 0.000000 
#    y 0.000000 2.011190 0.000000 
#    z 0.000000 0.000000 2.102660 
# 
# From -- ./inp_files/2253.got.cif
#   From: 2010.05.17/outbox.cif.g08.bks.cpg/sg18_2_cif.got.tgz:2253.got - 2010.06.03 22:40:56.
