data_PCOD9312641
_publ_section_title
;
Structure prediction by ZEFSAII (Michael W. Deem and Ramdas Pophale) SiO2 
 PCOD9312641
Probable space group: P 21 21 2
;
_chemical_formula_sum "Si O2"
_cell_formula_units_Z 22
_cell_length_a 7.242096
_cell_length_b 13.849433
_cell_length_c 10.233871
_cell_angle_alpha 90.000000
_cell_angle_beta 90.000000
_cell_angle_gamma 90.000000
_cell_volume 1026.446243
_symmetry_space_group_name_H-M "P 21 21 2"
_symmetry_group_IT_number 18
_symmetry_cell_setting 'orthorhombic'
loop_
_space_group_symop_operation_xyz
x,y,z
-x,-y,z
1/2+x,1/2-y,-z
1/2-x,1/2+y,-z
loop_
_atom_site_type_symbol
_atom_site_label
_atom_site_fract_x
_atom_site_fract_y
_atom_site_fract_z
Si Si1 0.267573 0.673182 0.929787
Si Si2 0.739659 0.281210 0.222981
Si Si3 0.017925 0.384442 0.417937
Si Si4 0.500000 0.500000 0.031055
Si Si5 0.972828 0.613290 0.714445
Si Si6 0.317780 0.357668 0.213231
O O1 0.114391 0.636022 0.830238
O O2 0.300136 0.778961 0.868223
O O3 0.201509 0.694161 0.076322
O O4 0.420933 0.589830 0.947972
O O5 0.866664 0.332410 0.328298
O O6 0.717037 0.166078 0.244330
O O7 0.528207 0.320989 0.231855
O O8 0.994999 0.349402 0.566642
O O9 0.000000 0.500000 0.413232
O O10 0.216268 0.366586 0.350941
O O11 0.342642 0.454649 0.126787
O O12 0.000000 0.500000 0.700962
#
# Coordination Sequence:
#
# PCOD9312641 Si02
#       6
#     4   4   4   2   4   4
#     4  10  23  40  65 100 132 174 230 276 345 407
#     4  10  24  43  68  98 135 181 225 284 343 409
#     4  11  24  43  70  98 133 185 224 276 351 412
#     4  10  22  42  68 102 142 176 222 302 338 398
#     4  10  25  43  64 103 140 176 234 283 342 414
#     4  10  23  42  66 101 134 172 234 274 344 414
#
# _framework density 21.433171999999999
#
# number of rings (size 3 to 8) (size 9 to 14) (size 15 to 20)
#    0.000    1.818    0.000    2.182   15.273    0.727 
#    0.000    3.636    0.000    0.000    0.000    0.000 
#    0.000    0.000    0.000    0.000    0.000    0.000 
#
# Total GULP energy -122668.494713 kJ/mol
# GULP energy per Si atom -5575.840669 kJ/mol
# Density = 2.138439 g / cm^3
# Si number density = 21.433172 Si / 1000 Ang^3
#
#
#
# Elastic Constant Matrix: (Units=GPa)
#
#
# Indices 1 2 3 4 5 6 
#
# 1 81.0893 24.0101 52.6979 0.0000 0.0000 0.0000
# 2 24.0101 112.1925 47.8030 0.0000 0.0000 0.0000
# 3 52.6979 47.8030 194.5616 0.0000 0.0000 0.0000
# 4 0.0000 0.0000 0.0000 7.1732 0.0000 0.0000
# 5 0.0000 0.0000 0.0000 0.0000 39.1594 0.0000
# 6 0.0000 0.0000 0.0000 0.0000 0.0000 26.8081
#
#
#
# Elastic Compliance Matrix: (Units=1/GPa)
#
#
# Indices 1 2 3 4 5 6 
#
# 1 0.015244 -0.001679 -0.003717 0.000000 0.000000 0.000000
# 2 -0.001679 0.010140 -0.002037 0.000000 0.000000 0.000000
# 3 -0.003717 -0.002037 0.006647 0.000000 0.000000 0.000000
# 4 0.000000 0.000000 0.000000 0.139408 0.000000 0.000000
# 5 0.000000 0.000000 0.000000 0.000000 0.025537 0.000000
# 6 0.000000 0.000000 0.000000 0.000000 0.000000 0.037302
#
#
# Mechanical properties :
#
#
# Convention : Reuss Voigt Hill
#
# Bulk Modulus (GPa) = 58.25008 70.76281 64.50644
# Shear Modulus (GPa) = 19.61819 32.18363 25.90091
#
# Velocity S-wave (km/s) = 3.02871 3.87923 3.48005
# Velocity P-wave (km/s) = 6.28230 7.29053 6.80511
#
# Compressibility (1/GPa) = 0.01716736
#
# Stress axis : x y z
#
# Youngs Moduli (GPa) = 65.59746 98.61596 150.44806
#
# Poissons Ratio (x) = 0.16557 0.55915
# Poissons Ratio (y) = 0.11013 0.30642
# Poissons Ratio (z) = 0.24380 0.20085
#
# Static dielectric constant tensor:
#      x y z
#    x 1.871220 0.000000 0.000000 
#    y 0.000000 1.863960 0.000000 
#    z 0.000000 0.000000 1.761570 
# 
# From -- ./inp_files/3096.got.cif
#   From: 2010.05.17/outbox.cif.g08.bks.cpg/sg18_2_cif.got.tgz:3096.got - 2010.06.03 22:40:56.
