data_PCOD9312198
_publ_section_title
;
Structure prediction by ZEFSAII (Michael W. Deem and Ramdas Pophale) SiO2 
 PCOD9312198
Probable space group: P 21 21 2
;
_chemical_formula_sum "Si O2"
_cell_formula_units_Z 30
_cell_length_a 13.319145
_cell_length_b 8.972429
_cell_length_c 12.998835
_cell_angle_alpha 90.000000
_cell_angle_beta 90.000000
_cell_angle_gamma 90.000000
_cell_volume 1553.426854
_symmetry_space_group_name_H-M "P 21 21 2"
_symmetry_group_IT_number 18
_symmetry_cell_setting 'orthorhombic'
loop_
_space_group_symop_operation_xyz
x,y,z
-x,-y,z
1/2+x,1/2-y,-z
1/2-x,1/2+y,-z
loop_
_atom_site_type_symbol
_atom_site_label
_atom_site_fract_x
_atom_site_fract_y
_atom_site_fract_z
Si Si1 0.790228 0.610482 0.080015
Si Si2 0.000000 0.500000 0.155095
Si Si3 0.130605 0.677703 0.292135
Si Si4 0.203330 0.352826 0.840075
Si Si5 0.104330 0.066252 0.820104
Si Si6 0.234454 0.149177 0.257019
Si Si7 0.612506 0.536979 0.580628
Si Si8 0.288019 0.444870 0.367233
O O1 0.698497 0.507630 0.119700
O O2 0.793446 0.754931 0.155026
O O3 0.899289 0.534482 0.092641
O O4 0.773079 0.638370 0.960400
O O5 0.031651 0.634993 0.229774
O O6 0.208129 0.762599 0.217248
O O7 0.111919 0.792687 0.382321
O O8 0.185872 0.528507 0.332035
O O9 0.197703 0.513090 0.785521
O O10 0.108345 0.244010 0.829239
O O11 0.125707 0.019521 0.702649
O O12 0.000000 0.000000 0.857144
O O13 0.281829 0.272624 0.333151
O O14 0.147845 0.067790 0.324203
O O15 0.500000 0.500000 0.548193
O O16 0.688529 0.526363 0.485547
#
# Coordination Sequence:
#
# PCOD9312198 Si02
#       8
#     4   2   4   4   4   4   4   4
#     4  11  22  39  64  90 129 167 210 263 325 382
#     4  12  20  40  64  88 122 166 208 256 326 372
#     4  10  22  39  63  87 128 160 207 262 318 386
#     4  10  21  40  61  93 125 161 216 262 316 385
#     4  10  21  41  62  85 124 173 206 259 318 383
#     4  10  21  38  62  89 126 160 215 266 310 383
#     4  11  22  36  62  94 121 160 212 263 319 383
#     4  10  20  41  61  84 124 171 204 258 322 379
#
# _framework density 19.312141
#
# number of rings (size 3 to 8) (size 9 to 14) (size 15 to 20)
#    0.000    1.600    4.000    2.800    0.000    1.067 
#    2.400    3.333    2.933    0.000    0.000    0.000 
#    0.000    0.000    0.000    0.000    0.000    0.000 
#
# Total GULP energy -167296.607145 kJ/mol
# GULP energy per Si atom -5576.553572 kJ/mol
# Density = 1.926819 g / cm^3
# Si number density = 19.312141 Si / 1000 Ang^3
#
#
#
# Elastic Constant Matrix: (Units=GPa)
#
#
# Indices 1 2 3 4 5 6 
#
# 1 82.0328 27.5774 9.0467 0.0000 0.0000 0.0000
# 2 27.5774 121.8437 27.2441 0.0000 0.0000 0.0000
# 3 9.0467 27.2441 60.7190 0.0000 0.0000 0.0000
# 4 0.0000 0.0000 0.0000 17.1481 0.0000 0.0000
# 5 0.0000 0.0000 0.0000 0.0000 7.6258 0.0000
# 6 0.0000 0.0000 0.0000 0.0000 0.0000 14.0919
#
#
#
# Elastic Compliance Matrix: (Units=1/GPa)
#
#
# Indices 1 2 3 4 5 6 
#
# 1 0.013221 -0.002836 -0.000697 0.000000 0.000000 0.000000
# 2 -0.002836 0.009731 -0.003944 0.000000 0.000000 0.000000
# 3 -0.000697 -0.003944 0.018343 0.000000 0.000000 0.000000
# 4 0.000000 0.000000 0.000000 0.058316 0.000000 0.000000
# 5 0.000000 0.000000 0.000000 0.000000 0.131134 0.000000
# 6 0.000000 0.000000 0.000000 0.000000 0.000000 0.070963
#
#
# Mechanical properties :
#
#
# Convention : Reuss Voigt Hill
#
# Bulk Modulus (GPa) = 37.96503 43.59243 40.77873
# Shear Modulus (GPa) = 15.36378 21.15498 18.25938
#
# Velocity S-wave (km/s) = 2.82361 3.31331 3.07821
# Velocity P-wave (km/s) = 5.50742 6.10401 5.81337
#
# Compressibility (1/GPa) = 0.02634003
#
# Stress axis : x y z
#
# Youngs Moduli (GPa) = 75.63926 102.76439 54.51780
#
# Poissons Ratio (x) = 0.29148 0.03800
# Poissons Ratio (y) = 0.21454 0.21500
# Poissons Ratio (z) = 0.05273 0.40526
#
# Static dielectric constant tensor:
#      x y z
#    x 1.670060 0.000000 0.000000 
#    y 0.000000 1.707780 0.000000 
#    z 0.000000 0.000000 1.678320 
# 
# From -- ./inp_files/6079.got.cif
#   From: 2010.05.17/outbox.cif.g08.bks.cpg/sg18_4_cif.got.tgz:6079.got - 2010.06.03 22:40:56.
