data_PCOD9312410
_publ_section_title
;
Structure prediction by ZEFSAII (Michael W. Deem and Ramdas Pophale) SiO2 
 PCOD9312410
Probable space group: P 21 21 2
;
_chemical_formula_sum "Si O2"
_cell_formula_units_Z 30
_cell_length_a 13.638154
_cell_length_b 18.415069
_cell_length_c 5.395016
_cell_angle_alpha 90.000000
_cell_angle_beta 90.000000
_cell_angle_gamma 90.000000
_cell_volume 1354.945034
_symmetry_space_group_name_H-M "P 21 21 2"
_symmetry_group_IT_number 18
_symmetry_cell_setting 'orthorhombic'
loop_
_space_group_symop_operation_xyz
x,y,z
-x,-y,z
1/2+x,1/2-y,-z
1/2-x,1/2+y,-z
loop_
_atom_site_type_symbol
_atom_site_label
_atom_site_fract_x
_atom_site_fract_y
_atom_site_fract_z
Si Si1 0.636123 0.312728 0.371662
Si Si2 0.934828 0.231349 0.900816
Si Si3 0.334921 0.925732 0.504956
Si Si4 0.500000 0.000000 0.192409
Si Si5 0.230595 0.567472 0.265474
Si Si6 0.365050 0.117640 0.227119
Si Si7 0.749986 0.682711 0.850785
Si Si8 0.417694 0.796915 0.765154
O O1 0.531189 0.298484 0.238408
O O2 0.666884 0.396065 0.349183
O O3 0.723605 0.262988 0.254144
O O4 0.626595 0.275749 0.640359
O O5 0.884022 0.296896 0.757411
O O6 0.849089 0.179210 0.992821
O O7 0.978489 0.271911 0.140600
O O8 0.254428 0.878230 0.360963
O O9 0.413612 0.864116 0.581076
O O10 0.401111 0.975317 0.328711
O O11 0.288327 0.980645 0.706287
O O12 0.459198 0.076578 0.097033
O O13 0.161403 0.598068 0.488337
O O14 0.213756 0.594612 0.983706
O O15 0.844381 0.673648 0.025628
#
# Coordination Sequence:
#
# PCOD9312410 Si02
#       8
#     4   4   4   2   4   4   4   4
#     4  10  22  39  61  97 128 177 232 280 333 410
#     4  11  23  37  67  96 130 178 228 283 331 405
#     4  10  24  39  63  95 135 175 217 278 344 413
#     4  10  22  38  58 100 128 166 220 266 346 408
#     4  11  25  41  65  96 135 179 218 274 347 409
#     4  11  24  38  64  97 137 173 214 276 348 404
#     4  10  21  42  59  96 132 175 217 279 347 404
#     4  10  22  38  66  89 133 169 226 276 335 405
#
# _framework density 22.141120000000001
#
# number of rings (size 3 to 8) (size 9 to 14) (size 15 to 20)
#    0.000    1.600    1.333    3.200   13.067    2.667 
#    0.000    0.000    0.000    4.800    0.000    0.000 
#    0.000    0.000    0.000    0.000    0.000    0.000 
#
# Total GULP energy -167030.650267 kJ/mol
# GULP energy per Si atom -5567.688342 kJ/mol
# Density = 2.209073 g / cm^3
# Si number density = 22.141120 Si / 1000 Ang^3
#
#
#
# Elastic Constant Matrix: (Units=GPa)
#
#
# Indices 1 2 3 4 5 6 
#
# 1 63.8588 18.2349 1.9399 0.0000 0.0000 0.0000
# 2 18.2349 52.5308 -2.8913 0.0000 0.0000 0.0000
# 3 1.9399 -2.8913 45.0111 0.0000 0.0000 0.0000
# 4 0.0000 0.0000 0.0000 22.9491 0.0000 0.0000
# 5 0.0000 0.0000 0.0000 0.0000 -7.3735 0.0000
# 6 0.0000 0.0000 0.0000 0.0000 0.0000 28.4343
#
#
#
# Elastic Compliance Matrix: (Units=1/GPa)
#
#
# Indices 1 2 3 4 5 6 
#
# 1 0.017441 -0.006117 -0.001145 0.000000 0.000000 0.000000
# 2 -0.006117 0.021250 0.001629 0.000000 0.000000 0.000000
# 3 -0.001145 0.001629 0.022371 0.000000 0.000000 0.000000
# 4 0.000000 0.000000 0.000000 0.043575 0.000000 0.000000
# 5 0.000000 0.000000 0.000000 0.000000 -0.135621 0.000000
# 6 0.000000 0.000000 0.000000 0.000000 0.000000 0.035169
#
#
# Mechanical properties :
#
#
# Convention : Reuss Voigt Hill
#
# Bulk Modulus (GPa) = 20.08245 21.77419 20.92832
# Shear Modulus (GPa) = 156.01515 18.40981 87.21248
#
# Velocity S-wave (km/s) = 8.40339 2.88666 6.28290
# Velocity P-wave (km/s) = 10.16100 4.57887 7.88073
#
# Compressibility (1/GPa) = 0.04979473
#
# Stress axis : x y z
#
# Youngs Moduli (GPa) = 57.33582 47.05979 44.70138
#
# Poissons Ratio (x) = 0.28788 0.05117
# Poissons Ratio (y) = 0.35074 -0.07280
# Poissons Ratio (z) = 0.06563 -0.07664
#
# Static dielectric constant tensor:
#      x y z
#    x 1.843820 0.000000 0.000000 
#    y 0.000000 1.933060 0.000000 
#    z 0.000000 0.000000 1.935350 
# 
# From -- ./inp_files/1614.got.cif
#   From: 2010.05.17/outbox.cif.g08.bks.cpg/sg18_1_cif.got.tgz:1614.got - 2010.06.03 22:40:56.
