data_PCOD9312094
_publ_section_title
;
Structure prediction by ZEFSAII (Michael W. Deem and Ramdas Pophale) SiO2 
 PCOD9312094
Probable space group: P 21 21 2
;
_chemical_formula_sum "Si O2"
_cell_formula_units_Z 22
_cell_length_a 13.084007
_cell_length_b 5.420538
_cell_length_c 12.760558
_cell_angle_alpha 90.000000
_cell_angle_beta 90.000000
_cell_angle_gamma 90.000000
_cell_volume 905.008852
_symmetry_space_group_name_H-M "P 21 21 2"
_symmetry_group_IT_number 18
_symmetry_cell_setting 'orthorhombic'
loop_
_space_group_symop_operation_xyz
x,y,z
-x,-y,z
1/2+x,1/2-y,-z
1/2-x,1/2+y,-z
loop_
_atom_site_type_symbol
_atom_site_label
_atom_site_fract_x
_atom_site_fract_y
_atom_site_fract_z
Si Si1 0.062707 0.754142 0.575759
Si Si2 0.690608 0.771654 0.613070
Si Si3 0.628989 0.385707 0.785711
Si Si4 0.830678 0.049910 0.760910
Si Si5 0.687827 0.437526 0.008612
Si Si6 0.500000 0.000000 0.702097
O O1 0.171302 0.760509 0.510712
O O2 0.000000 0.500000 0.563509
O O3 0.088032 0.789785 0.698012
O O4 0.000000 0.000000 0.540350
O O5 0.649597 0.546902 0.682749
O O6 0.793922 0.847822 0.673286
O O7 0.601305 0.970057 0.635095
O O8 0.628416 0.497609 0.901670
O O9 0.728589 0.206884 0.783258
O O10 0.526111 0.231664 0.772253
O O11 0.861705 0.956262 0.875682
O O12 0.726707 0.154932 0.998461
#
# Coordination Sequence:
#
# PCOD9312094 Si02
#       6
#     4   4   4   4   4   2
#     4  12  29  46  68  99 148 181 228 294 353 414
#     4  11  22  42  68  99 134 182 235 290 338 418
#     4  10  21  38  71 100 139 176 237 288 345 414
#     4  10  25  42  73  97 134 185 238 274 358 419
#     4  10  20  41  67 102 133 174 228 293 333 405
#     4  10  20  38  62 106 136 178 220 290 352 396
#
# _framework density 24.309152000000001
#
# number of rings (size 3 to 8) (size 9 to 14) (size 15 to 20)
#    0.000    1.455    2.727    1.636    7.636    0.000 
#    0.000    1.818    4.000    0.000    0.000    0.000 
#    0.000    0.000    0.000    0.000    0.000    0.000 
#
# Total GULP energy -122632.652462 kJ/mol
# GULP energy per Si atom -5574.211476 kJ/mol
# Density = 2.425382 g / cm^3
# Si number density = 24.309152 Si / 1000 Ang^3
#
#
#
# Elastic Constant Matrix: (Units=GPa)
#
#
# Indices 1 2 3 4 5 6 
#
# 1 32.6742 11.4191 6.8620 0.0000 0.0000 0.0000
# 2 11.4191 63.8180 10.4589 0.0000 0.0000 0.0000
# 3 6.8620 10.4589 175.8044 0.0000 0.0000 0.0000
# 4 0.0000 0.0000 0.0000 21.7251 0.0000 0.0000
# 5 0.0000 0.0000 0.0000 0.0000 3.5312 0.0000
# 6 0.0000 0.0000 0.0000 0.0000 0.0000 35.2301
#
#
#
# Elastic Compliance Matrix: (Units=1/GPa)
#
#
# Indices 1 2 3 4 5 6 
#
# 1 0.032800 -0.005715 -0.000940 0.000000 0.000000 0.000000
# 2 -0.005715 0.016820 -0.000778 0.000000 0.000000 0.000000
# 3 -0.000940 -0.000778 0.005771 0.000000 0.000000 0.000000
# 4 0.000000 0.000000 0.000000 0.046030 0.000000 0.000000
# 5 0.000000 0.000000 0.000000 0.000000 0.283192 0.000000
# 6 0.000000 0.000000 0.000000 0.000000 0.000000 0.028385
#
#
# Mechanical properties :
#
#
# Convention : Reuss Voigt Hill
#
# Bulk Modulus (GPa) = 24.67601 36.64186 30.65893
# Shear Modulus (GPa) = 11.32834 28.33438 19.83136
#
# Velocity S-wave (km/s) = 2.16107 3.41777 2.85932
# Velocity P-wave (km/s) = 4.04968 5.53903 4.85184
#
# Compressibility (1/GPa) = 0.04052519
#
# Stress axis : x y z
#
# Youngs Moduli (GPa) = 30.48784 59.45456 173.27723
#
# Poissons Ratio (x) = 0.33978 0.16293
# Poissons Ratio (y) = 0.17423 0.13473
# Poissons Ratio (z) = 0.02867 0.04623
#
# Static dielectric constant tensor:
#      x y z
#    x 2.016950 0.000000 0.000000 
#    y 0.000000 2.176340 0.000000 
#    z 0.000000 0.000000 1.983550 
# 
# From -- ./inp_files/6037.got.cif
#   From: 2010.05.17/outbox.cif.g08.bks.cpg/sg18_4_cif.got.tgz:6037.got - 2010.06.03 22:40:56.
