data_PCOD9312032
_publ_section_title
;
Structure prediction by ZEFSAII (Michael W. Deem and Ramdas Pophale) SiO2 
 PCOD9312032
Probable space group: P 21 21 2
;
_chemical_formula_sum "Si O2"
_cell_formula_units_Z 20
_cell_length_a 8.452969
_cell_length_b 8.021976
_cell_length_c 12.549005
_cell_angle_alpha 90.000000
_cell_angle_beta 90.000000
_cell_angle_gamma 90.000000
_cell_volume 850.941936
_symmetry_space_group_name_H-M "P 21 21 2"
_symmetry_group_IT_number 18
_symmetry_cell_setting 'orthorhombic'
loop_
_space_group_symop_operation_xyz
x,y,z
-x,-y,z
1/2+x,1/2-y,-z
1/2-x,1/2+y,-z
loop_
_atom_site_type_symbol
_atom_site_label
_atom_site_fract_x
_atom_site_fract_y
_atom_site_fract_z
Si Si1 0.831157 0.087132 0.543035
Si Si2 0.689356 0.484896 0.237220
Si Si3 0.682599 0.330940 0.859416
Si Si4 0.611981 0.839002 0.930348
Si Si5 0.173685 0.548499 0.654751
O O1 0.839686 0.271709 0.594126
O O2 0.758752 0.977833 0.640080
O O3 0.730479 0.077369 0.436445
O O4 0.000000 0.000000 0.519618
O O5 0.500000 0.500000 0.235475
O O6 0.761059 0.653070 0.188528
O O7 0.756823 0.341852 0.162325
O O8 0.507690 0.312178 0.908634
O O9 0.710179 0.444416 0.755929
O O10 0.800535 0.356824 0.957783
O O11 0.500000 0.000000 0.922010
O O12 0.000000 0.500000 0.694259
#
# Coordination Sequence:
#
# PCOD9312032 Si02
#       5
#     4   4   4   4   4
#     4  10  22  40  62  91 126 170 219 269 336 405
#     4   9  19  36  58  84 119 165 214 266 329 394
#     4  10  21  37  59  89 123 167 218 269 334 401
#     4  10  20  36  60  87 124 166 214 275 336 399
#     4  11  23  41  65  93 131 172 223 285 339 405
#
# _framework density 23.503364999999999
#
# number of rings (size 3 to 8) (size 9 to 14) (size 15 to 20)
#    0.000    2.000    0.000    3.000    0.000    5.600 
#    0.000   11.000    0.000    0.000    0.000    0.000 
#    0.000    0.000    0.000    0.000    0.000    0.000 
#
# Total GULP energy -111784.037313 kJ/mol
# GULP energy per Si atom -5589.201866 kJ/mol
# Density = 2.344987 g / cm^3
# Si number density = 23.503365 Si / 1000 Ang^3
#
#
#
# Elastic Constant Matrix: (Units=GPa)
#
#
# Indices 1 2 3 4 5 6 
#
# 1 81.1857 4.3516 53.1523 0.0000 0.0000 0.0000
# 2 4.3516 72.4232 17.5400 0.0000 0.0000 0.0000
# 3 53.1523 17.5400 139.9283 0.0000 0.0000 0.0000
# 4 0.0000 0.0000 0.0000 24.4152 0.0000 0.0000
# 5 0.0000 0.0000 0.0000 0.0000 36.1265 0.0000
# 6 0.0000 0.0000 0.0000 0.0000 0.0000 22.9662
#
#
#
# Elastic Compliance Matrix: (Units=1/GPa)
#
#
# Indices 1 2 3 4 5 6 
#
# 1 0.016415 0.000540 -0.006303 0.000000 0.000000 0.000000
# 2 0.000540 0.014258 -0.001992 0.000000 0.000000 0.000000
# 3 -0.006303 -0.001992 0.009791 0.000000 0.000000 0.000000
# 4 0.000000 0.000000 0.000000 0.040958 0.000000 0.000000
# 5 0.000000 0.000000 0.000000 0.000000 0.027681 0.000000
# 6 0.000000 0.000000 0.000000 0.000000 0.000000 0.043542
#
#
# Mechanical properties :
#
#
# Convention : Reuss Voigt Hill
#
# Bulk Modulus (GPa) = 40.07554 49.29168 44.68361
# Shear Modulus (GPa) = 28.33306 31.26781 29.80044
#
# Velocity S-wave (km/s) = 3.47578 3.65136 3.56465
# Velocity P-wave (km/s) = 5.76160 6.22851 5.99960
#
# Compressibility (1/GPa) = 0.02495287
#
# Stress axis : x y z
#
# Youngs Moduli (GPa) = 60.91959 70.13699 102.13981
#
# Poissons Ratio (x) = -0.03789 0.64379
# Poissons Ratio (y) = -0.03291 0.20351
# Poissons Ratio (z) = 0.38398 0.13974
#
# Static dielectric constant tensor:
#      x y z
#    x 1.845740 0.000000 0.000000 
#    y 0.000000 2.021200 0.000000 
#    z 0.000000 0.000000 1.859810 
# 
# From -- ./inp_files/5395.got.cif
#   From: 2010.05.17/outbox.cif.g08.bks.cpg/sg18_3_cif.got.tgz:5395.got - 2010.06.03 22:40:56.
