data_PCOD9312689
_publ_section_title
;
Structure prediction by ZEFSAII (Michael W. Deem and Ramdas Pophale) SiO2 
 PCOD9312689
Probable space group: P 21 21 2
;
_chemical_formula_sum "Si O2"
_cell_formula_units_Z 24
_cell_length_a 11.314391
_cell_length_b 17.807507
_cell_length_c 5.244716
_cell_angle_alpha 90.000000
_cell_angle_beta 90.000000
_cell_angle_gamma 90.000000
_cell_volume 1056.711133
_symmetry_space_group_name_H-M "P 21 21 2"
_symmetry_group_IT_number 18
_symmetry_cell_setting 'orthorhombic'
loop_
_space_group_symop_operation_xyz
x,y,z
-x,-y,z
1/2+x,1/2-y,-z
1/2-x,1/2+y,-z
loop_
_atom_site_type_symbol
_atom_site_label
_atom_site_fract_x
_atom_site_fract_y
_atom_site_fract_z
Si Si1 0.987304 0.339747 0.588936
Si Si2 0.711467 0.945409 0.362159
Si Si3 0.062530 0.081816 0.028612
Si Si4 0.429318 0.941704 0.028263
Si Si5 0.269398 0.907516 0.640843
Si Si6 0.026447 0.836399 0.529334
O O1 0.860873 0.376455 0.513751
O O2 0.993775 0.252048 0.547845
O O3 0.104605 0.377159 0.465377
O O4 0.002994 0.367578 0.882480
O O5 0.805651 0.923689 0.146460
O O6 0.764441 0.008342 0.550367
O O7 0.609950 0.994713 0.228844
O O8 0.000320 0.131246 0.249830
O O9 0.000000 0.000000 0.019323
O O10 0.047395 0.120680 0.752197
O O11 0.301852 0.914006 0.935077
O O12 0.500000 0.000000 0.841932
O O13 0.163157 0.853421 0.584442
#
# Coordination Sequence:
#
# PCOD9312689 Si02
#       6
#     4   4   4   4   4   4
#     4  10  25  43  66 107 140 190 237 305 367 422
#     4  10  22  43  71 102 137 187 244 293 352 432
#     4  12  26  50  69 104 139 189 238 289 360 441
#     4   9  19  39  68 100 132 180 240 290 345 419
#     4  11  22  44  71 101 141 191 245 298 355 439
#     4  12  29  44  71 104 147 186 234 297 367 423
#
# _framework density 22.711977000000001
#
# number of rings (size 3 to 8) (size 9 to 14) (size 15 to 20)
#    0.000    1.333    1.667    4.000    9.333    0.000 
#    0.000    0.000    0.000    0.000    0.000    0.000 
#    0.000    0.000    0.000    0.000    0.000    0.000 
#
# Total GULP energy -133799.442300 kJ/mol
# GULP energy per Si atom -5574.976762 kJ/mol
# Density = 2.266028 g / cm^3
# Si number density = 22.711977 Si / 1000 Ang^3
#
#
#
# Elastic Constant Matrix: (Units=GPa)
#
#
# Indices 1 2 3 4 5 6 
#
# 1 77.5651 22.6997 -20.0618 0.0000 0.0000 0.0000
# 2 22.6997 156.0918 20.9010 0.0000 0.0000 0.0000
# 3 -20.0618 20.9010 31.6659 0.0000 0.0000 0.0000
# 4 0.0000 0.0000 0.0000 16.9979 0.0000 0.0000
# 5 0.0000 0.0000 0.0000 0.0000 32.7740 0.0000
# 6 0.0000 0.0000 0.0000 0.0000 0.0000 34.2920
#
#
#
# Elastic Compliance Matrix: (Units=1/GPa)
#
#
# Indices 1 2 3 4 5 6 
#
# 1 0.017929 -0.004528 0.014348 0.000000 0.000000 0.000000
# 2 -0.004528 0.008171 -0.008262 0.000000 0.000000 0.000000
# 3 0.014348 -0.008262 0.046123 0.000000 0.000000 0.000000
# 4 0.000000 0.000000 0.000000 0.058831 0.000000 0.000000
# 5 0.000000 0.000000 0.000000 0.000000 0.030512 0.000000
# 6 0.000000 0.000000 0.000000 0.000000 0.000000 0.029161
#
#
# Mechanical properties :
#
#
# Convention : Reuss Voigt Hill
#
# Bulk Modulus (GPa) = 13.27381 34.71118 23.99249
# Shear Modulus (GPa) = 23.50442 32.93172 28.21807
#
# Velocity S-wave (km/s) = 3.22046 3.81198 3.52864
# Velocity P-wave (km/s) = 4.43685 5.88993 5.21425
#
# Compressibility (1/GPa) = 0.07533634
#
# Stress axis : x y z
#
# Youngs Moduli (GPa) = 55.77687 122.37810 21.68111
#
# Poissons Ratio (x) = 0.55418 -0.31107
# Poissons Ratio (y) = 0.25258 0.17914
# Poissons Ratio (z) = -0.80026 1.01114
#
# Static dielectric constant tensor:
#      x y z
#    x 2.045600 0.000000 0.000000 
#    y 0.000000 1.842450 0.000000 
#    z 0.000000 0.000000 2.297340 
# 
# From -- ./inp_files/1130.got.cif
#   From: 2010.05.17/outbox.cif.g08.bks.cpg/sg18_1_cif.got.tgz:1130.got - 2010.06.03 22:40:56.
