data_PCOD9312232
_publ_section_title
;
Structure prediction by ZEFSAII (Michael W. Deem and Ramdas Pophale) SiO2 
 PCOD9312232
Probable space group: P 21 21 2
;
_chemical_formula_sum "Si O2"
_cell_formula_units_Z 14
_cell_length_a 12.532865
_cell_length_b 4.864363
_cell_length_c 9.572924
_cell_angle_alpha 90.000000
_cell_angle_beta 90.000000
_cell_angle_gamma 90.000000
_cell_volume 583.607614
_symmetry_space_group_name_H-M "P 21 21 2"
_symmetry_group_IT_number 18
_symmetry_cell_setting 'orthorhombic'
loop_
_space_group_symop_operation_xyz
x,y,z
-x,-y,z
1/2+x,1/2-y,-z
1/2-x,1/2+y,-z
loop_
_atom_site_type_symbol
_atom_site_label
_atom_site_fract_x
_atom_site_fract_y
_atom_site_fract_z
Si Si1 0.500000 0.000000 0.167995
Si Si2 0.651420 0.303417 0.365491
Si Si3 0.182372 0.427264 0.034988
Si Si4 0.699418 0.297089 0.671003
O O1 0.446995 0.779042 0.270196
O O2 0.594028 0.926679 0.060256
O O3 0.631019 0.260695 0.530868
O O4 0.695030 0.608972 0.346708
O O5 0.751942 0.102843 0.327834
O O6 0.148007 0.309216 0.185553
O O7 0.226173 0.157268 0.955936
#
# Coordination Sequence:
#
# PCOD9312232 Si02
#       4
#     2   4   4   4
#     4  12  24  40  68 100 124 180 216 262 324 394
#     4  10  22  37  67  87 123 165 217 255 315 379
#     4  12  24  41  64  96 133 168 214 271 322 378
#     4  10  20  43  59  90 126 167 201 271 317 366
#
# _framework density 23.988721000000002
#
# number of rings (size 3 to 8) (size 9 to 14) (size 15 to 20)
#    0.000    1.143    5.714    0.000    0.000    5.714 
#    0.000    0.000    0.000   10.286    0.000    0.000 
#    0.000    0.000    0.000    0.000    0.000    0.000 
#
# Total GULP energy -78254.495153 kJ/mol
# GULP energy per Si atom -5589.606797 kJ/mol
# Density = 2.393412 g / cm^3
# Si number density = 23.988721 Si / 1000 Ang^3
#
#
#
# Elastic Constant Matrix: (Units=GPa)
#
#
# Indices 1 2 3 4 5 6 
#
# 1 55.4877 4.1371 30.9241 0.0000 0.0000 0.0000
# 2 4.1371 68.7735 2.0519 0.0000 0.0000 0.0000
# 3 30.9241 2.0519 206.5731 0.0000 0.0000 0.0000
# 4 0.0000 0.0000 0.0000 28.7359 0.0000 0.0000
# 5 0.0000 0.0000 0.0000 0.0000 49.0678 0.0000
# 6 0.0000 0.0000 0.0000 0.0000 0.0000 14.8636
#
#
#
# Elastic Compliance Matrix: (Units=1/GPa)
#
#
# Indices 1 2 3 4 5 6 
#
# 1 0.019745 -0.001100 -0.002945 0.000000 0.000000 0.000000
# 2 -0.001100 0.014606 0.000020 0.000000 0.000000 0.000000
# 3 -0.002945 0.000020 0.005282 0.000000 0.000000 0.000000
# 4 0.000000 0.000000 0.000000 0.034800 0.000000 0.000000
# 5 0.000000 0.000000 0.000000 0.000000 0.020380 0.000000
# 6 0.000000 0.000000 0.000000 0.000000 0.000000 0.067278
#
#
# Mechanical properties :
#
#
# Convention : Reuss Voigt Hill
#
# Bulk Modulus (GPa) = 31.66328 45.00671 38.33500
# Shear Modulus (GPa) = 27.67492 38.11489 32.89490
#
# Velocity S-wave (km/s) = 3.40025 3.99038 3.70708
# Velocity P-wave (km/s) = 5.35196 6.32718 5.85989
#
# Compressibility (1/GPa) = 0.03158232
#
# Stress axis : x y z
#
# Youngs Moduli (GPa) = 50.64504 68.46475 189.33778
#
# Poissons Ratio (x) = 0.07531 0.55759
# Poissons Ratio (y) = 0.05571 -0.00371
# Poissons Ratio (z) = 0.14915 -0.00134
#
# Static dielectric constant tensor:
#      x y z
#    x 1.948480 0.000000 0.000000 
#    y 0.000000 1.852700 0.000000 
#    z 0.000000 0.000000 1.987510 
# 
# From -- ./inp_files/2389.got.cif
#   From: 2010.05.17/outbox.cif.g08.bks.cpg/sg18_2_cif.got.tgz:2389.got - 2010.06.03 22:40:56.
