data_PCOD9312355
_publ_section_title
;
Structure prediction by ZEFSAII (Michael W. Deem and Ramdas Pophale) SiO2 
 PCOD9312355
Probable space group: P 21 21 2
;
_chemical_formula_sum "Si O2"
_cell_formula_units_Z 32
_cell_length_a 9.385224
_cell_length_b 32.398537
_cell_length_c 5.068897
_cell_angle_alpha 90.000000
_cell_angle_beta 90.000000
_cell_angle_gamma 90.000000
_cell_volume 1541.286975
_symmetry_space_group_name_H-M "P 21 21 2"
_symmetry_group_IT_number 18
_symmetry_cell_setting 'orthorhombic'
loop_
_space_group_symop_operation_xyz
x,y,z
-x,-y,z
1/2+x,1/2-y,-z
1/2-x,1/2+y,-z
loop_
_atom_site_type_symbol
_atom_site_label
_atom_site_fract_x
_atom_site_fract_y
_atom_site_fract_z
Si Si1 0.766694 0.220734 0.250142
Si Si2 0.789864 0.421822 0.157126
Si Si3 0.017814 0.950955 0.910920
Si Si4 0.927003 0.739773 0.245042
Si Si5 0.640136 0.130801 0.201963
Si Si6 0.360613 0.026504 0.350941
Si Si7 0.473674 0.147906 0.704298
Si Si8 0.683345 0.554877 0.590440
O O1 0.680188 0.237715 0.505042
O O2 0.740388 0.171154 0.232308
O O3 0.936910 0.229483 0.253432
O O4 0.679756 0.240732 0.004632
O O5 0.623541 0.429297 0.188383
O O6 0.870983 0.449721 0.373254
O O7 0.831097 0.374837 0.209586
O O8 0.831193 0.440189 0.874221
O O9 0.144489 0.939096 0.713442
O O10 0.049967 0.940406 0.212870
O O11 0.000000 0.000000 0.886538
O O12 0.009762 0.695881 0.237991
O O13 0.509265 0.140564 0.399162
O O14 0.706761 0.088787 0.307671
O O15 0.590520 0.127498 0.900516
O O16 0.500000 0.000000 0.291780
O O17 0.238428 0.991728 0.368265
#
# Coordination Sequence:
#
# PCOD9312355 Si02
#       8
#     4   4   4   4   4   4   4   4
#     4  10  21  41  66  95 127 162 200 247 306 366
#     4  12  23  38  55  81 112 147 192 231 289 341
#     4  12  23  40  56  75 116 156 188 237 292 346
#     4  10  21  40  66  92 127 162 198 247 304 366
#     4  10  22  40  62  86 118 152 190 242 290 340
#     4  12  23  35  58  81 106 142 193 242 276 339
#     4  10  21  40  60  85 119 150 187 240 295 336
#     4  12  22  39  57  80 111 151 195 232 291 342
#
# _framework density 20.761872
#
# number of rings (size 3 to 8) (size 9 to 14) (size 15 to 20)
#    0.000    1.000    2.500    5.250    0.000    0.000 
#    4.500    0.000    0.000    0.000    0.000    0.000 
#    0.000    0.000    0.000    0.000    0.000    0.000 
#
# Total GULP energy -178766.580245 kJ/mol
# GULP energy per Si atom -5586.455633 kJ/mol
# Density = 2.071462 g / cm^3
# Si number density = 20.761872 Si / 1000 Ang^3
#
#
#
# Elastic Constant Matrix: (Units=GPa)
#
#
# Indices 1 2 3 4 5 6 
#
# 1 22.0810 -12.7341 0.4569 0.0000 0.0000 0.0000
# 2 -12.7341 21.8401 0.5347 0.0000 0.0000 0.0000
# 3 0.4569 0.5347 105.7311 0.0000 0.0000 0.0000
# 4 0.0000 0.0000 0.0000 28.3547 0.0000 0.0000
# 5 0.0000 0.0000 0.0000 0.0000 28.0383 0.0000
# 6 0.0000 0.0000 0.0000 0.0000 0.0000 37.0667
#
#
#
# Elastic Compliance Matrix: (Units=1/GPa)
#
#
# Indices 1 2 3 4 5 6 
#
# 1 0.068256 0.039810 -0.000496 0.000000 0.000000 0.000000
# 2 0.039810 0.069012 -0.000521 0.000000 0.000000 0.000000
# 3 -0.000496 -0.000521 0.009463 0.000000 0.000000 0.000000
# 4 0.000000 0.000000 0.000000 0.035268 0.000000 0.000000
# 5 0.000000 0.000000 0.000000 0.000000 0.035666 0.000000
# 6 0.000000 0.000000 0.000000 0.000000 0.000000 0.026978
#
#
# Mechanical properties :
#
#
# Convention : Reuss Voigt Hill
#
# Bulk Modulus (GPa) = 4.45801 14.01859 9.23830
# Shear Modulus (GPa) = 20.67574 29.45155 25.06364
#
# Velocity S-wave (km/s) = 3.15913 3.77044 3.47824
# Velocity P-wave (km/s) = 3.93176 5.07165 4.53764
#
# Compressibility (1/GPa) = 0.22431534
#
# Stress axis : x y z
#
# Youngs Moduli (GPa) = 14.65065 14.49032 105.67769
#
# Poissons Ratio (x) = -0.57686 0.05245
# Poissons Ratio (y) = -0.58324 0.05507
# Poissons Ratio (z) = 0.00727 0.00755
#
# Static dielectric constant tensor:
#      x y z
#    x 1.777200 0.000000 0.000000 
#    y 0.000000 1.729930 0.000000 
#    z 0.000000 0.000000 1.736280 
# 
# From -- ./inp_files/783.got.cif
#   From: 2010.05.17/outbox.cif.g08.bks.cpg/sg18_1_cif.got.tgz:783.got - 2010.06.03 22:40:56.
