data_PCOD9312790
_publ_section_title
;
Structure prediction by ZEFSAII (Michael W. Deem and Ramdas Pophale) SiO2 
 PCOD9312790
Probable space group: P 21 21 2
;
_chemical_formula_sum "Si O2"
_cell_formula_units_Z 20
_cell_length_a 5.066795
_cell_length_b 18.602371
_cell_length_c 8.156694
_cell_angle_alpha 90.000000
_cell_angle_beta 90.000000
_cell_angle_gamma 90.000000
_cell_volume 768.804302
_symmetry_space_group_name_H-M "P 21 21 2"
_symmetry_group_IT_number 18
_symmetry_cell_setting 'orthorhombic'
loop_
_space_group_symop_operation_xyz
x,y,z
-x,-y,z
1/2+x,1/2-y,-z
1/2-x,1/2+y,-z
loop_
_atom_site_type_symbol
_atom_site_label
_atom_site_fract_x
_atom_site_fract_y
_atom_site_fract_z
Si Si1 0.821207 0.783639 0.424451
Si Si2 0.250232 0.448862 0.827904
Si Si3 0.580247 0.582849 0.490794
Si Si4 0.110766 0.730451 0.098629
Si Si5 0.410081 0.916276 0.828824
O O1 0.032091 0.747591 0.549636
O O2 0.830749 0.867110 0.474122
O O3 0.957436 0.769166 0.248956
O O4 0.500000 0.500000 0.822162
O O5 0.251689 0.407364 0.657227
O O6 0.000000 0.500000 0.829821
O O7 0.254864 0.410545 0.002466
O O8 0.500000 0.500000 0.471674
O O9 0.740611 0.602844 0.329718
O O10 0.127190 0.645652 0.145418
O O11 0.899154 0.741622 0.950761
O O12 0.500000 0.000000 0.812064
#
# Coordination Sequence:
#
# PCOD9312790 Si02
#       5
#     4   4   4   4   4
#     4  12  27  49  73 108 159 200 253 319 387 467
#     4  10  23  43  67 106 149 187 241 315 378 443
#     4  11  25  44  77 113 149 201 260 316 388 455
#     4  12  28  50  78 111 156 210 257 315 397 471
#     4  11  25  46  77 114 151 198 261 321 382 456
#
# _framework density 26.014420999999999
#
# number of rings (size 3 to 8) (size 9 to 14) (size 15 to 20)
#    0.000    0.800    2.000    3.600    2.800   12.800 
#    0.000    0.000    0.000    0.000    0.000    0.000 
#    0.000    0.000    0.000    0.000    0.000    0.000 
#
# Total GULP energy -112078.097710 kJ/mol
# GULP energy per Si atom -5603.904886 kJ/mol
# Density = 2.595521 g / cm^3
# Si number density = 26.014421 Si / 1000 Ang^3
#
#
#
# Elastic Constant Matrix: (Units=GPa)
#
#
# Indices 1 2 3 4 5 6 
#
# 1 106.8566 16.6457 20.5630 0.0000 0.0000 0.0000
# 2 16.6457 153.7813 -13.4868 0.0000 0.0000 0.0000
# 3 20.5630 -13.4868 196.2342 0.0000 0.0000 0.0000
# 4 0.0000 0.0000 0.0000 8.4497 0.0000 0.0000
# 5 0.0000 0.0000 0.0000 0.0000 38.2722 0.0000
# 6 0.0000 0.0000 0.0000 0.0000 0.0000 35.4082
#
#
#
# Elastic Compliance Matrix: (Units=1/GPa)
#
#
# Indices 1 2 3 4 5 6 
#
# 1 0.009750 -0.001152 -0.001101 0.000000 0.000000 0.000000
# 2 -0.001152 0.006678 0.000580 0.000000 0.000000 0.000000
# 3 -0.001101 0.000580 0.005251 0.000000 0.000000 0.000000
# 4 0.000000 0.000000 0.000000 0.118347 0.000000 0.000000
# 5 0.000000 0.000000 0.000000 0.000000 0.026129 0.000000
# 6 0.000000 0.000000 0.000000 0.000000 0.000000 0.028242
#
#
# Mechanical properties :
#
#
# Convention : Reuss Voigt Hill
#
# Bulk Modulus (GPa) = 54.54632 56.03508 55.29070
# Shear Modulus (GPa) = 24.52735 45.30271 34.91503
#
# Velocity S-wave (km/s) = 3.07390 4.17759 3.66750
# Velocity P-wave (km/s) = 5.79756 6.69750 6.26371
#
# Compressibility (1/GPa) = 0.01833304
#
# Stress axis : x y z
#
# Youngs Moduli (GPa) = 102.56827 149.73962 190.43468
#
# Poissons Ratio (x) = 0.17248 0.20963
# Poissons Ratio (y) = 0.11814 -0.11039
# Poissons Ratio (z) = 0.11291 -0.08680
#
# Static dielectric constant tensor:
#      x y z
#    x 1.946390 0.000000 0.000000 
#    y 0.000000 2.080920 0.000000 
#    z 0.000000 0.000000 2.098810 
# 
# From -- ./inp_files/2466.got.cif
#   From: 2010.05.17/outbox.cif.g08.bks.cpg/sg18_2_cif.got.tgz:2466.got - 2010.06.03 22:40:56.
