data_PCOD9312508
_publ_section_title
;
Structure prediction by ZEFSAII (Michael W. Deem and Ramdas Pophale) SiO2 
 PCOD9312508
Probable space group: P 21 21 2
;
_chemical_formula_sum "Si O2"
_cell_formula_units_Z 30
_cell_length_a 12.479612
_cell_length_b 5.215201
_cell_length_c 19.311670
_cell_angle_alpha 90.000000
_cell_angle_beta 90.000000
_cell_angle_gamma 90.000000
_cell_volume 1256.874647
_symmetry_space_group_name_H-M "P 21 21 2"
_symmetry_group_IT_number 18
_symmetry_cell_setting 'orthorhombic'
loop_
_space_group_symop_operation_xyz
x,y,z
-x,-y,z
1/2+x,1/2-y,-z
1/2-x,1/2+y,-z
loop_
_atom_site_type_symbol
_atom_site_label
_atom_site_fract_x
_atom_site_fract_y
_atom_site_fract_z
Si Si1 0.824833 0.669833 0.574323
Si Si2 0.609771 0.356848 0.563520
Si Si3 0.326705 0.317441 0.778727
Si Si4 0.272476 0.953002 0.668058
Si Si5 0.298400 0.252700 0.033149
Si Si6 0.123037 0.541733 0.725931
Si Si7 0.000000 0.000000 0.031815
Si Si8 0.862298 0.695198 0.143286
O O1 0.712585 0.540311 0.554764
O O2 0.892793 0.680480 0.505020
O O3 0.870426 0.542752 0.644509
O O4 0.797992 0.952056 0.603467
O O5 0.500000 0.500000 0.567743
O O6 0.637019 0.220517 0.635273
O O7 0.198484 0.371750 0.775984
O O8 0.376740 0.591322 0.797056
O O9 0.333991 0.189055 0.703703
O O10 0.369417 0.096500 0.830518
O O11 0.189265 0.810842 0.719804
O O12 0.256941 0.277619 0.111115
O O13 0.227246 0.465688 0.991841
O O14 0.417038 0.341485 0.014692
O O15 0.000000 0.500000 0.746270
O O16 0.062551 0.199968 0.081653
#
# Coordination Sequence:
#
# PCOD9312508 Si02
#       8
#     4   4   4   4   4   4   2   4
#     4  10  22  38  62  92 132 170 240 303 358 440
#     4  11  23  39  63  97 133 186 232 304 380 440
#     4  11  23  45  68  97 148 186 234 299 340 413
#     4  10  22  45  62  92 142 178 232 301 355 418
#     4  10  22  42  70 105 148 177 232 299 339 402
#     4  10  23  42  70  95 132 186 236 298 368 427
#     4  10  24  46  76 108 144 204 232 284 364 420
#     4  11  23  44  71 106 142 189 240 290 339 427
#
# _framework density 23.868728000000001
#
# number of rings (size 3 to 8) (size 9 to 14) (size 15 to 20)
#    0.000    1.600    2.667    1.600    1.867    6.933 
#    3.600    4.000    0.000    0.000    0.000    0.000 
#    0.000    0.000    0.000    0.000    0.000    0.000 
#
# Total GULP energy -167478.808815 kJ/mol
# GULP energy per Si atom -5582.626960 kJ/mol
# Density = 2.381440 g / cm^3
# Si number density = 23.868728 Si / 1000 Ang^3
#
#
#
# Elastic Constant Matrix: (Units=GPa)
#
#
# Indices 1 2 3 4 5 6 
#
# 1 97.1598 10.8754 8.8329 0.0000 0.0000 0.0000
# 2 10.8754 91.5817 16.5016 0.0000 0.0000 0.0000
# 3 8.8329 16.5016 62.3442 0.0000 0.0000 0.0000
# 4 0.0000 0.0000 0.0000 35.9843 0.0000 0.0000
# 5 0.0000 0.0000 0.0000 0.0000 18.0760 0.0000
# 6 0.0000 0.0000 0.0000 0.0000 0.0000 25.6023
#
#
#
# Elastic Compliance Matrix: (Units=1/GPa)
#
#
# Indices 1 2 3 4 5 6 
#
# 1 0.010518 -0.001030 -0.001218 0.000000 0.000000 0.000000
# 2 -0.001030 0.011567 -0.002916 0.000000 0.000000 0.000000
# 3 -0.001218 -0.002916 0.016984 0.000000 0.000000 0.000000
# 4 0.000000 0.000000 0.000000 0.027790 0.000000 0.000000
# 5 0.000000 0.000000 0.000000 0.000000 0.055322 0.000000
# 6 0.000000 0.000000 0.000000 0.000000 0.000000 0.039059
#
#
# Mechanical properties :
#
#
# Convention : Reuss Voigt Hill
#
# Bulk Modulus (GPa) = 34.79071 35.94506 35.36788
# Shear Modulus (GPa) = 27.60182 30.25757 28.92970
#
# Velocity S-wave (km/s) = 3.40428 3.56429 3.48520
# Velocity P-wave (km/s) = 5.48267 5.65960 5.57184
#
# Compressibility (1/GPa) = 0.02874331
#
# Stress axis : x y z
#
# Youngs Moduli (GPa) = 95.07258 86.45399 58.87807
#
# Poissons Ratio (x) = 0.08902 0.07170
# Poissons Ratio (y) = 0.09789 0.17167
# Poissons Ratio (z) = 0.11577 0.25207
#
# Static dielectric constant tensor:
#      x y z
#    x 1.920030 0.000000 0.000000 
#    y 0.000000 2.004490 0.000000 
#    z 0.000000 0.000000 1.945330 
# 
# From -- ./inp_files/7590.got.cif
#   From: 2010.05.17/outbox.cif.g08.bks.cpg/sg18_4_cif.got.tgz:7590.got - 2010.06.03 22:40:56.
