data_PCOD9312241
_publ_section_title
;
Structure prediction by ZEFSAII (Michael W. Deem and Ramdas Pophale) SiO2 
 PCOD9312241
Probable space group: P 21 21 2
;
_chemical_formula_sum "Si O2"
_cell_formula_units_Z 20
_cell_length_a 5.921984
_cell_length_b 6.791935
_cell_length_c 18.366706
_cell_angle_alpha 90.000000
_cell_angle_beta 90.000000
_cell_angle_gamma 90.000000
_cell_volume 738.740697
_symmetry_space_group_name_H-M "P 21 21 2"
_symmetry_group_IT_number 18
_symmetry_cell_setting 'orthorhombic'
loop_
_space_group_symop_operation_xyz
x,y,z
-x,-y,z
1/2+x,1/2-y,-z
1/2-x,1/2+y,-z
loop_
_atom_site_type_symbol
_atom_site_label
_atom_site_fract_x
_atom_site_fract_y
_atom_site_fract_z
Si Si1 0.000000 0.500000 0.334631
Si Si2 0.593376 0.241922 0.102142
Si Si3 0.638653 0.778718 0.402820
Si Si4 0.000000 0.000000 0.475827
Si Si5 0.429300 0.739562 0.931109
Si Si6 0.875250 0.790277 0.742603
O O1 0.821004 0.609232 0.384341
O O2 0.873727 0.343138 0.284475
O O3 0.317758 0.269991 0.104396
O O4 0.626816 0.165762 0.184379
O O5 0.845378 0.342519 0.099737
O O6 0.596781 0.195777 0.015434
O O7 0.779973 0.969046 0.426268
O O8 0.509194 0.688473 0.471566
O O9 0.504803 0.789382 0.327598
O O10 0.500000 0.500000 0.928652
O O11 0.000000 0.000000 0.761618
#
# Coordination Sequence:
#
# PCOD9312241 Si02
#       6
#     2   4   4   2   4   4
#     4  10  20  44  68  98 138 174 232 296 344 430
#     4  10  22  38  65  93 131 174 233 281 342 419
#     4  11  24  44  68 104 134 180 235 281 365 423
#     4  12  24  46  74  96 142 184 226 302 350 444
#     4  10  21  40  60  93 131 180 224 281 349 413
#     4  10  22  41  66  99 132 177 232 290 347 420
#
# _framework density 27.073098000000002
#
# number of rings (size 3 to 8) (size 9 to 14) (size 15 to 20)
#    0.000    1.600    3.000    2.400    5.600    0.000 
#    5.400    2.000    0.000    0.000    0.000    0.000 
#    0.000    0.000    0.000    0.000    0.000    0.000 
#
# Total GULP energy -111380.508589 kJ/mol
# GULP energy per Si atom -5569.025429 kJ/mol
# Density = 2.701148 g / cm^3
# Si number density = 27.073098 Si / 1000 Ang^3
#
#
#
# Elastic Constant Matrix: (Units=GPa)
#
#
# Indices 1 2 3 4 5 6 
#
# 1 217.4493 31.5073 68.5631 0.0000 0.0000 0.0000
# 2 31.5073 85.5236 25.4467 0.0000 0.0000 0.0000
# 3 68.5631 25.4467 222.8632 0.0000 0.0000 0.0000
# 4 0.0000 0.0000 0.0000 -3.1180 0.0000 0.0000
# 5 0.0000 0.0000 0.0000 0.0000 170.7071 0.0000
# 6 0.0000 0.0000 0.0000 0.0000 0.0000 32.5262
#
#
#
# Elastic Compliance Matrix: (Units=1/GPa)
#
#
# Indices 1 2 3 4 5 6 
#
# 1 0.005275 -0.001512 -0.001450 0.000000 0.000000 0.000000
# 2 -0.001512 0.012537 -0.000966 0.000000 0.000000 0.000000
# 3 -0.001450 -0.000966 0.005044 0.000000 0.000000 0.000000
# 4 0.000000 0.000000 0.000000 -0.320715 0.000000 0.000000
# 5 0.000000 0.000000 0.000000 0.000000 0.005858 0.000000
# 6 0.000000 0.000000 0.000000 0.000000 0.000000 0.030744
#
#
# Mechanical properties :
#
#
# Convention : Reuss Voigt Hill
#
# Bulk Modulus (GPa) = 66.67167 86.31891 76.49529
# Shear Modulus (GPa) = -20.12883 66.71100 23.29109
#
# Velocity S-wave (km/s) = -2.72968 4.96936 2.93628
# Velocity P-wave (km/s) = 3.83994 8.05475 6.30968
#
# Compressibility (1/GPa) = 0.01499887
#
# Stress axis : x y z
#
# Youngs Moduli (GPa) = 189.56972 79.76263 198.27263
#
# Poissons Ratio (x) = 0.12059 0.28754
# Poissons Ratio (y) = 0.28660 0.19161
# Poissons Ratio (z) = 0.27492 0.07708
#
# Static dielectric constant tensor:
#      x y z
#    x 2.140240 0.000000 0.000000 
#    y 0.000000 -1.144240 0.000000 
#    z 0.000000 0.000000 1.938050 
# 
# From -- ./inp_files/7105.got.cif
#   From: 2010.05.17/outbox.cif.g08.bks.cpg/sg18_4_cif.got.tgz:7105.got - 2010.06.03 22:40:56.
