data_PCOD9312070
_publ_section_title
;
Structure prediction by ZEFSAII (Michael W. Deem and Ramdas Pophale) SiO2 
 PCOD9312070
Probable space group: P 21 21 2
;
_chemical_formula_sum "Si O2"
_cell_formula_units_Z 26
_cell_length_a 15.143241
_cell_length_b 9.736836
_cell_length_c 9.075466
_cell_angle_alpha 90.000000
_cell_angle_beta 90.000000
_cell_angle_gamma 90.000000
_cell_volume 1338.152542
_symmetry_space_group_name_H-M "P 21 21 2"
_symmetry_group_IT_number 18
_symmetry_cell_setting 'orthorhombic'
loop_
_space_group_symop_operation_xyz
x,y,z
-x,-y,z
1/2+x,1/2-y,-z
1/2-x,1/2+y,-z
loop_
_atom_site_type_symbol
_atom_site_label
_atom_site_fract_x
_atom_site_fract_y
_atom_site_fract_z
Si Si1 0.500000 0.500000 0.114854
Si Si2 0.242555 0.844571 0.132851
Si Si3 0.500000 0.000000 0.770969
Si Si4 0.175152 0.875723 0.814017
Si Si5 0.559481 0.211243 0.019146
Si Si6 0.310581 0.085472 0.673379
Si Si7 0.500000 0.000000 0.255114
Si Si8 0.310734 0.080286 0.336485
O O1 0.582130 0.550014 0.213357
O O2 0.532507 0.369652 0.020279
O O3 0.208961 0.726322 0.241013
O O4 0.255024 0.982603 0.227913
O O5 0.180914 0.860108 0.990838
O O6 0.337976 0.804773 0.063345
O O7 0.534287 0.124769 0.874948
O O8 0.414479 0.051610 0.683538
O O9 0.183070 0.729812 0.735565
O O10 0.254908 0.970272 0.759012
O O11 0.507227 0.132523 0.149443
O O12 0.279354 0.089841 0.504294
O O13 0.408891 0.014347 0.340436
#
# Coordination Sequence:
#
# PCOD9312070 Si02
#       8
#     2   4   2   4   4   4   2   4
#     4  12  22  38  64  98 126 164 218 274 328 372
#     4  11  23  42  66  95 128 173 226 269 320 391
#     4  11  23  42  64  98 132 172 218 276 326 392
#     4  12  24  42  66  96 129 171 220 276 318 390
#     4  10  20  37  65  95 125 166 224 268 319 379
#     4  12  24  42  66  95 135 173 217 271 337 392
#     4   9  19  38  62  90 124 176 216 262 318 396
#     4  11  24  41  64  96 134 175 215 270 335 389
#
# _framework density 19.429773000000001
#
# number of rings (size 3 to 8) (size 9 to 14) (size 15 to 20)
#    0.000    0.923    4.615    3.231    2.154    0.000 
#    0.000    0.000    0.000    1.846    0.000    0.000 
#    0.000    0.000    0.000    0.000    0.000    0.000 
#
# Total GULP energy -145295.538594 kJ/mol
# GULP energy per Si atom -5588.289946 kJ/mol
# Density = 1.938555 g / cm^3
# Si number density = 19.429773 Si / 1000 Ang^3
#
#
#
# Elastic Constant Matrix: (Units=GPa)
#
#
# Indices 1 2 3 4 5 6 
#
# 1 65.4945 21.2502 5.5780 0.0000 0.0000 0.0000
# 2 21.2502 148.5386 43.2545 0.0000 0.0000 0.0000
# 3 5.5780 43.2545 111.2442 0.0000 0.0000 0.0000
# 4 0.0000 0.0000 0.0000 13.1598 0.0000 0.0000
# 5 0.0000 0.0000 0.0000 0.0000 14.7862 0.0000
# 6 0.0000 0.0000 0.0000 0.0000 0.0000 27.0806
#
#
#
# Elastic Compliance Matrix: (Units=1/GPa)
#
#
# Indices 1 2 3 4 5 6 
#
# 1 0.016013 -0.002320 0.000099 0.000000 0.000000 0.000000
# 2 -0.002320 0.007928 -0.002966 0.000000 0.000000 0.000000
# 3 0.000099 -0.002966 0.010138 0.000000 0.000000 0.000000
# 4 0.000000 0.000000 0.000000 0.075989 0.000000 0.000000
# 5 0.000000 0.000000 0.000000 0.000000 0.067630 0.000000
# 6 0.000000 0.000000 0.000000 0.000000 0.000000 0.036927
#
#
# Mechanical properties :
#
#
# Convention : Reuss Voigt Hill
#
# Bulk Modulus (GPa) = 42.18618 51.71585 46.95101
# Shear Modulus (GPa) = 21.46848 28.01830 24.74339
#
# Velocity S-wave (km/s) = 3.32765 3.80153 3.57245
# Velocity P-wave (km/s) = 6.04348 6.77815 6.42133
#
# Compressibility (1/GPa) = 0.02370445
#
# Stress axis : x y z
#
# Youngs Moduli (GPa) = 62.45063 126.13715 98.64248
#
# Poissons Ratio (x) = 0.29259 -0.00977
# Poissons Ratio (y) = 0.14486 0.29260
# Poissons Ratio (z) = -0.00618 0.37415
#
# Static dielectric constant tensor:
#      x y z
#    x 1.719810 0.000000 0.000000 
#    y 0.000000 1.667190 0.000000 
#    z 0.000000 0.000000 1.641880 
# 
# From -- ./inp_files/3358.got.cif
#   From: 2010.05.17/outbox.cif.g08.bks.cpg/sg18_2_cif.got.tgz:3358.got - 2010.06.03 22:40:56.
