data_PCOD9312662
_publ_section_title
;
Structure prediction by ZEFSAII (Michael W. Deem and Ramdas Pophale) SiO2 
 PCOD9312662
Probable space group: P 21 21 2
;
_chemical_formula_sum "Si O2"
_cell_formula_units_Z 20
_cell_length_a 11.681182
_cell_length_b 11.763952
_cell_length_c 7.948860
_cell_angle_alpha 90.000000
_cell_angle_beta 90.000000
_cell_angle_gamma 90.000000
_cell_volume 1092.307416
_symmetry_space_group_name_H-M "P 21 21 2"
_symmetry_group_IT_number 18
_symmetry_cell_setting 'orthorhombic'
loop_
_space_group_symop_operation_xyz
x,y,z
-x,-y,z
1/2+x,1/2-y,-z
1/2-x,1/2+y,-z
loop_
_atom_site_type_symbol
_atom_site_label
_atom_site_fract_x
_atom_site_fract_y
_atom_site_fract_z
Si Si1 0.688010 0.355488 0.199382
Si Si2 0.870855 0.034029 0.560329
Si Si3 0.889729 0.424026 0.955981
Si Si4 0.068775 0.840716 0.899582
Si Si5 0.267460 0.397735 0.788380
O O1 0.686746 0.416967 0.378992
O O2 0.564594 0.377959 0.111379
O O3 0.700615 0.220886 0.205425
O O4 0.797049 0.404986 0.102697
O O5 0.873481 0.112671 0.727768
O O6 0.818817 0.089160 0.396307
O O7 0.000000 0.000000 0.519679
O O8 0.924828 0.296743 0.902027
O O9 0.817955 0.497822 0.822215
O O10 0.000000 0.500000 0.003310
O O11 0.136690 0.886612 0.063450
#
# Coordination Sequence:
#
# PCOD9312662 Si02
#       5
#     4   4   4   4   4
#     4  10  22  43  64  91 129 158 216 261 306 374
#     4  10  23  39  62  94 123 162 215 256 307 375
#     4  11  22  40  65  92 126 166 206 256 316 368
#     4  10  22  43  63  90 124 168 210 262 307 371
#     4  11  23  39  66  90 124 170 206 259 319 364
#
# _framework density 18.309864000000001
#
# number of rings (size 3 to 8) (size 9 to 14) (size 15 to 20)
#    0.000    1.600    4.000    0.000    5.600    0.000 
#    0.000    9.000    0.000    0.000    0.000    0.000 
#    0.000    0.000    0.000    0.000    0.000    0.000 
#
# Total GULP energy -111526.234584 kJ/mol
# GULP energy per Si atom -5576.311729 kJ/mol
# Density = 1.826819 g / cm^3
# Si number density = 18.309864 Si / 1000 Ang^3
#
#
#
# Elastic Constant Matrix: (Units=GPa)
#
#
# Indices 1 2 3 4 5 6 
#
# 1 98.5249 36.1463 61.3122 0.0000 0.0000 0.0000
# 2 36.1463 94.3691 31.7417 0.0000 0.0000 0.0000
# 3 61.3122 31.7417 105.3478 0.0000 0.0000 0.0000
# 4 0.0000 0.0000 0.0000 21.9158 0.0000 0.0000
# 5 0.0000 0.0000 0.0000 0.0000 16.0895 0.0000
# 6 0.0000 0.0000 0.0000 0.0000 0.0000 64.9519
#
#
#
# Elastic Compliance Matrix: (Units=1/GPa)
#
#
# Indices 1 2 3 4 5 6 
#
# 1 0.016904 -0.003523 -0.008777 0.000000 0.000000 0.000000
# 2 -0.003523 0.012526 -0.001724 0.000000 0.000000 0.000000
# 3 -0.008777 -0.001724 0.015120 0.000000 0.000000 0.000000
# 4 0.000000 0.000000 0.000000 0.045629 0.000000 0.000000
# 5 0.000000 0.000000 0.000000 0.000000 0.062152 0.000000
# 6 0.000000 0.000000 0.000000 0.000000 0.000000 0.015396
#
#
# Mechanical properties :
#
#
# Convention : Reuss Voigt Hill
#
# Bulk Modulus (GPa) = 60.59469 61.84912 61.22190
# Shear Modulus (GPa) = 24.84177 31.86088 28.35132
#
# Velocity S-wave (km/s) = 3.68739 4.17597 3.93926
# Velocity P-wave (km/s) = 7.16205 7.55672 7.36203
#
# Compressibility (1/GPa) = 0.01650310
#
# Stress axis : x y z
#
# Youngs Moduli (GPa) = 59.15851 79.83516 66.13870
#
# Poissons Ratio (x) = 0.28123 0.58047
# Poissons Ratio (y) = 0.20839 0.11402
# Poissons Ratio (z) = 0.51921 0.13763
#
# Static dielectric constant tensor:
#      x y z
#    x 1.651970 0.000000 0.000000 
#    y 0.000000 1.674610 0.000000 
#    z 0.000000 0.000000 1.597950 
# 
# From -- ./inp_files/2939.got.cif
#   From: 2010.05.17/outbox.cif.g08.bks.cpg/sg18_2_cif.got.tgz:2939.got - 2010.06.03 22:40:56.
