data_PCOD9312907
_publ_section_title
;
Structure prediction by ZEFSAII (Michael W. Deem and Ramdas Pophale) SiO2 
 PCOD9312907
Probable space group: P 21 21 2
;
_chemical_formula_sum "Si O2"
_cell_formula_units_Z 20
_cell_length_a 8.447481
_cell_length_b 9.088663
_cell_length_c 11.756717
_cell_angle_alpha 90.000000
_cell_angle_beta 90.000000
_cell_angle_gamma 90.000000
_cell_volume 902.637326
_symmetry_space_group_name_H-M "P 21 21 2"
_symmetry_group_IT_number 18
_symmetry_cell_setting 'orthorhombic'
loop_
_space_group_symop_operation_xyz
x,y,z
-x,-y,z
1/2+x,1/2-y,-z
1/2-x,1/2+y,-z
loop_
_atom_site_type_symbol
_atom_site_label
_atom_site_fract_x
_atom_site_fract_y
_atom_site_fract_z
Si Si1 0.296676 0.160448 0.441401
Si Si2 0.691946 0.699275 0.860777
Si Si3 0.160944 0.334719 0.628809
Si Si4 0.591262 0.152303 0.733954
Si Si5 0.320820 0.489586 0.082611
O O1 0.260630 0.204643 0.570830
O O2 0.478983 0.184461 0.406909
O O3 0.182723 0.264763 0.366683
O O4 0.270365 0.988499 0.418146
O O5 0.819394 0.662058 0.763866
O O6 0.531730 0.735852 0.792751
O O7 0.744627 0.849862 0.920435
O O8 0.676599 0.579199 0.957598
O O9 0.716584 0.104778 0.830346
O O10 0.500000 0.000000 0.701039
O O11 0.500000 0.500000 0.125772
#
# Coordination Sequence:
#
# PCOD9312907 Si02
#       5
#     4   4   4   4   4
#     4  11  26  47  74 104 143 182 235 294 355 424
#     4  11  25  44  69 105 137 186 231 286 349 416
#     4  11  27  46  73 106 141 184 236 289 357 424
#     4  10  24  44  72 100 142 185 236 291 349 417
#     4  11  24  43  69  97 141 182 235 281 348 409
#
# _framework density 22.157295999999999
#
# number of rings (size 3 to 8) (size 9 to 14) (size 15 to 20)
#    0.000    1.200    0.000    3.600   14.000    2.400 
#    7.200    0.000    0.000    0.000    0.000    0.000 
#    0.000    0.000    0.000    0.000    0.000    0.000 
#
# Total GULP energy -112033.541669 kJ/mol
# GULP energy per Si atom -5601.677083 kJ/mol
# Density = 2.210686 g / cm^3
# Si number density = 22.157296 Si / 1000 Ang^3
#
#
#
# Elastic Constant Matrix: (Units=GPa)
#
#
# Indices 1 2 3 4 5 6 
#
# 1 67.7776 6.6147 17.3763 0.0000 0.0000 0.0000
# 2 6.6147 69.6889 46.0652 0.0000 0.0000 0.0000
# 3 17.3763 46.0652 70.6898 0.0000 0.0000 0.0000
# 4 0.0000 0.0000 0.0000 22.1577 0.0000 0.0000
# 5 0.0000 0.0000 0.0000 0.0000 -16.0214 0.0000
# 6 0.0000 0.0000 0.0000 0.0000 0.0000 32.7697
#
#
#
# Elastic Compliance Matrix: (Units=1/GPa)
#
#
# Indices 1 2 3 4 5 6 
#
# 1 0.015886 0.001886 -0.005134 0.000000 0.000000 0.000000
# 2 0.001886 0.025432 -0.017036 0.000000 0.000000 0.000000
# 3 -0.005134 -0.017036 0.026510 0.000000 0.000000 0.000000
# 4 0.000000 0.000000 0.000000 0.045131 0.000000 0.000000
# 5 0.000000 0.000000 0.000000 0.000000 -0.062416 0.000000
# 6 0.000000 0.000000 0.000000 0.000000 0.000000 0.030516
#
#
# Mechanical properties :
#
#
# Convention : Reuss Voigt Hill
#
# Bulk Modulus (GPa) = 36.68485 38.69654 37.69069
# Shear Modulus (GPa) = 38.25176 16.98787 27.61982
#
# Velocity S-wave (km/s) = 4.15947 2.77193 3.53446
# Velocity P-wave (km/s) = 6.29768 5.26756 5.80551
#
# Compressibility (1/GPa) = 0.02725921
#
# Stress axis : x y z
#
# Youngs Moduli (GPa) = 62.94749 39.32128 37.72189
#
# Poissons Ratio (x) = -0.07414 0.19365
# Poissons Ratio (y) = -0.11869 0.64263
# Poissons Ratio (z) = 0.32316 0.66988
#
# Static dielectric constant tensor:
#      x y z
#    x 1.813930 0.000000 0.000000 
#    y 0.000000 1.803930 0.000000 
#    z 0.000000 0.000000 1.793710 
# 
# From -- ./inp_files/5413.got.cif
#   From: 2010.05.17/outbox.cif.g08.bks.cpg/sg18_3_cif.got.tgz:5413.got - 2010.06.03 22:40:56.
