data_PCOD9312561
_publ_section_title
;
Structure prediction by ZEFSAII (Michael W. Deem and Ramdas Pophale) SiO2 
 PCOD9312561
Probable space group: P 21 21 2
;
_chemical_formula_sum "Si O2"
_cell_formula_units_Z 30
_cell_length_a 6.033585
_cell_length_b 18.827967
_cell_length_c 12.146863
_cell_angle_alpha 90.000000
_cell_angle_beta 90.000000
_cell_angle_gamma 90.000000
_cell_volume 1379.885329
_symmetry_space_group_name_H-M "P 21 21 2"
_symmetry_group_IT_number 18
_symmetry_cell_setting 'orthorhombic'
loop_
_space_group_symop_operation_xyz
x,y,z
-x,-y,z
1/2+x,1/2-y,-z
1/2-x,1/2+y,-z
loop_
_atom_site_type_symbol
_atom_site_label
_atom_site_fract_x
_atom_site_fract_y
_atom_site_fract_z
Si Si1 0.796137 0.885821 0.845640
Si Si2 0.929703 0.809870 0.405633
Si Si3 0.000000 0.500000 0.070437
Si Si4 0.140751 0.926699 0.276516
Si Si5 0.883313 0.076693 0.033039
Si Si6 0.716831 0.290023 0.345049
Si Si7 0.965935 0.342952 0.756715
Si Si8 0.417911 0.215191 0.003807
O O1 0.685364 0.962345 0.856400
O O2 0.836764 0.860068 0.723663
O O3 0.000887 0.883381 0.931552
O O4 0.617115 0.831475 0.895134
O O5 0.879346 0.798018 0.532852
O O6 0.727173 0.834675 0.331140
O O7 0.093175 0.875595 0.379733
O O8 0.030834 0.735879 0.361486
O O9 0.867783 0.556152 0.995769
O O10 0.406591 0.917613 0.262387
O O11 0.079482 0.892810 0.155349
O O12 0.000000 0.000000 0.285811
O O13 0.000000 0.000000 0.039783
O O14 0.615984 0.225099 0.275210
O O15 0.898469 0.328643 0.882214
O O16 0.679414 0.240500 0.999369
#
# Coordination Sequence:
#
# PCOD9312561 Si02
#       8
#     4   4   2   4   4   4   4   4
#     4  11  23  39  65  95 139 177 229 281 354 417
#     4  11  23  43  67  92 128 177 239 280 352 413
#     4  10  22  40  62  96 134 188 222 270 344 440
#     4  10  23  41  65 100 135 173 226 283 346 414
#     4   9  20  39  62  93 133 173 216 267 340 417
#     4  11  23  42  65  94 126 179 226 292 343 413
#     4  11  23  39  66  91 132 178 223 282 351 417
#     4  12  26  41  67 107 143 179 231 296 357 423
#
# _framework density 21.740936999999999
#
# number of rings (size 3 to 8) (size 9 to 14) (size 15 to 20)
#    0.000    1.333    2.667    2.400    5.600    3.733 
#    0.000    3.333    0.000    0.000    0.000    0.933 
#    0.000    0.000    0.000    0.000    0.000    0.000 
#
# Total GULP energy -167073.535630 kJ/mol
# GULP energy per Si atom -5569.117854 kJ/mol
# Density = 2.169145 g / cm^3
# Si number density = 21.740937 Si / 1000 Ang^3
#
#
#
# Elastic Constant Matrix: (Units=GPa)
#
#
# Indices 1 2 3 4 5 6 
#
# 1 74.9361 19.8863 18.5528 0.0000 0.0000 0.0000
# 2 19.8863 53.0328 24.1388 0.0000 0.0000 0.0000
# 3 18.5528 24.1388 110.4442 0.0000 0.0000 0.0000
# 4 0.0000 0.0000 0.0000 33.1491 0.0000 0.0000
# 5 0.0000 0.0000 0.0000 0.0000 30.3989 0.0000
# 6 0.0000 0.0000 0.0000 0.0000 0.0000 43.7405
#
#
#
# Elastic Compliance Matrix: (Units=1/GPa)
#
#
# Indices 1 2 3 4 5 6 
#
# 1 0.015021 -0.004980 -0.001435 0.000000 0.000000 0.000000
# 2 -0.004980 0.022590 -0.004101 0.000000 0.000000 0.000000
# 3 -0.001435 -0.004101 0.010192 0.000000 0.000000 0.000000
# 4 0.000000 0.000000 0.000000 0.030167 0.000000 0.000000
# 5 0.000000 0.000000 0.000000 0.000000 0.032896 0.000000
# 6 0.000000 0.000000 0.000000 0.000000 0.000000 0.022862
#
#
# Mechanical properties :
#
#
# Convention : Reuss Voigt Hill
#
# Bulk Modulus (GPa) = 37.35194 40.39653 38.87423
# Shear Modulus (GPa) = 30.54684 33.18002 31.86343
#
# Velocity S-wave (km/s) = 3.75245 3.91084 3.83246
# Velocity P-wave (km/s) = 5.99936 6.24613 6.12398
#
# Compressibility (1/GPa) = 0.02677237
#
# Stress axis : x y z
#
# Youngs Moduli (GPa) = 66.57145 44.26723 98.11924
#
# Poissons Ratio (x) = 0.22043 0.14080
# Poissons Ratio (y) = 0.33150 0.40237
# Poissons Ratio (z) = 0.09553 0.18153
#
# Static dielectric constant tensor:
#      x y z
#    x 1.975310 0.000000 0.000000 
#    y 0.000000 1.907930 0.000000 
#    z 0.000000 0.000000 1.739110 
# 
# From -- ./inp_files/5234.got.cif
#   From: 2010.05.17/outbox.cif.g08.bks.cpg/sg18_3_cif.got.tgz:5234.got - 2010.06.03 22:40:56.
