data_PCOD9312921
_publ_section_title
;
Structure prediction by ZEFSAII (Michael W. Deem and Ramdas Pophale) SiO2 
 PCOD9312921
Probable space group: P 21 21 2
;
_chemical_formula_sum "Si O2"
_cell_formula_units_Z 30
_cell_length_a 12.139419
_cell_length_b 19.436206
_cell_length_c 5.497400
_cell_angle_alpha 90.000000
_cell_angle_beta 90.000000
_cell_angle_gamma 90.000000
_cell_volume 1297.079911
_symmetry_space_group_name_H-M "P 21 21 2"
_symmetry_group_IT_number 18
_symmetry_cell_setting 'orthorhombic'
loop_
_space_group_symop_operation_xyz
x,y,z
-x,-y,z
1/2+x,1/2-y,-z
1/2-x,1/2+y,-z
loop_
_atom_site_type_symbol
_atom_site_label
_atom_site_fract_x
_atom_site_fract_y
_atom_site_fract_z
Si Si1 0.881335 0.787157 0.191509
Si Si2 0.718535 0.204075 0.434549
Si Si3 0.549710 0.149108 0.070372
Si Si4 0.000000 0.000000 0.515707
Si Si5 0.763863 0.588336 0.205569
Si Si6 0.406859 0.379979 0.817006
Si Si7 0.771037 0.952948 0.564265
Si Si8 0.703613 0.881408 0.056520
O O1 0.828767 0.776055 0.462051
O O2 0.775894 0.811965 0.039959
O O3 0.975843 0.843441 0.154155
O O4 0.935699 0.716786 0.097730
O O5 0.612311 0.168849 0.315916
O O6 0.749537 0.163121 0.677948
O O7 0.822160 0.180997 0.268726
O O8 0.423816 0.132091 0.106611
O O9 0.624444 0.089807 0.949919
O O10 0.066244 0.942359 0.364545
O O11 0.900889 0.957039 0.633758
O O12 0.772112 0.531098 0.411268
O O13 0.655905 0.582789 0.038701
O O14 0.750740 0.922672 0.294263
O O15 0.714099 0.916123 0.793148
#
# Coordination Sequence:
#
# PCOD9312921 Si02
#       8
#     4   4   4   2   4   4   4   4
#     4  11  27  43  74 109 148 205 246 319 375 447
#     4  10  24  46  72 101 145 200 251 303 381 454
#     4  10  27  48  72 105 153 202 256 310 375 460
#     4  12  24  48  76 110 156 184 254 318 384 456
#     4  10  24  47  73 105 144 202 246 306 391 447
#     4  11  24  45  74 111 147 199 251 314 383 461
#     4  12  28  49  77 112 153 195 251 320 378 456
#     4  12  30  49  75 118 151 196 262 311 381 454
#
# _framework density 23.128879000000001
#
# number of rings (size 3 to 8) (size 9 to 14) (size 15 to 20)
#    0.000    1.067    2.667    0.800   16.800    1.067 
#    0.000    0.000    0.000    0.000    0.000    0.000 
#    0.000    0.000    0.000    0.000    0.000    0.000 
#
# Total GULP energy -167354.643700 kJ/mol
# GULP energy per Si atom -5578.488123 kJ/mol
# Density = 2.307624 g / cm^3
# Si number density = 23.128879 Si / 1000 Ang^3
#
#
#
# Elastic Constant Matrix: (Units=GPa)
#
#
# Indices 1 2 3 4 5 6 
#
# 1 133.0132 14.9334 19.1623 0.0000 0.0000 0.0000
# 2 14.9334 49.2711 11.9019 0.0000 0.0000 0.0000
# 3 19.1623 11.9019 55.8164 0.0000 0.0000 0.0000
# 4 0.0000 0.0000 0.0000 13.2383 0.0000 0.0000
# 5 0.0000 0.0000 0.0000 0.0000 18.3066 0.0000
# 6 0.0000 0.0000 0.0000 0.0000 0.0000 19.5182
#
#
#
# Elastic Compliance Matrix: (Units=1/GPa)
#
#
# Indices 1 2 3 4 5 6 
#
# 1 0.008070 -0.001873 -0.002371 0.000000 0.000000 0.000000
# 2 -0.001873 0.021833 -0.004012 0.000000 0.000000 0.000000
# 3 -0.002371 -0.004012 0.019585 0.000000 0.000000 0.000000
# 4 0.000000 0.000000 0.000000 0.075538 0.000000 0.000000
# 5 0.000000 0.000000 0.000000 0.000000 0.054625 0.000000
# 6 0.000000 0.000000 0.000000 0.000000 0.000000 0.051234
#
#
# Mechanical properties :
#
#
# Convention : Reuss Voigt Hill
#
# Bulk Modulus (GPa) = 30.32600 36.67731 33.50165
# Shear Modulus (GPa) = 19.35052 23.01948 21.18500
#
# Velocity S-wave (km/s) = 2.89561 3.15821 3.02976
# Velocity P-wave (km/s) = 4.93149 5.40290 5.17257
#
# Compressibility (1/GPa) = 0.03297501
#
# Stress axis : x y z
#
# Youngs Moduli (GPa) = 123.91677 45.80258 51.05825
#
# Poissons Ratio (x) = 0.08579 0.12106
# Poissons Ratio (y) = 0.23211 0.20487
# Poissons Ratio (z) = 0.29382 0.18378
#
# Static dielectric constant tensor:
#      x y z
#    x 1.858780 0.000000 0.000000 
#    y 0.000000 1.945360 0.000000 
#    z 0.000000 0.000000 1.916100 
# 
# From -- ./inp_files/1281.got.cif
#   From: 2010.05.17/outbox.cif.g08.bks.cpg/sg18_1_cif.got.tgz:1281.got - 2010.06.03 22:40:56.
