data_PCOD9312243
_publ_section_title
;
Structure prediction by ZEFSAII (Michael W. Deem and Ramdas Pophale) SiO2 
 PCOD9312243
Probable space group: P 21 21 2
;
_chemical_formula_sum "Si O2"
_cell_formula_units_Z 18
_cell_length_a 8.057449
_cell_length_b 11.150914
_cell_length_c 8.811936
_cell_angle_alpha 90.000000
_cell_angle_beta 90.000000
_cell_angle_gamma 90.000000
_cell_volume 791.734128
_symmetry_space_group_name_H-M "P 21 21 2"
_symmetry_group_IT_number 18
_symmetry_cell_setting 'orthorhombic'
loop_
_space_group_symop_operation_xyz
x,y,z
-x,-y,z
1/2+x,1/2-y,-z
1/2-x,1/2+y,-z
loop_
_atom_site_type_symbol
_atom_site_label
_atom_site_fract_x
_atom_site_fract_y
_atom_site_fract_z
Si Si1 0.000000 0.500000 0.250621
Si Si2 0.851726 0.321626 0.006926
Si Si3 0.813555 0.709087 0.420846
Si Si4 0.992437 0.644337 0.695469
Si Si5 0.482419 0.637427 0.816648
O O1 0.131060 0.419385 0.347008
O O2 0.105037 0.586094 0.140074
O O3 0.988652 0.335112 0.873924
O O4 0.680291 0.343602 0.921838
O O5 0.870391 0.192209 0.083683
O O6 0.644025 0.776223 0.375231
O O7 0.948100 0.794477 0.339324
O O8 0.837184 0.692796 0.600022
O O9 0.000000 0.500000 0.671953
O O10 0.500000 0.500000 0.784349
#
# Coordination Sequence:
#
# PCOD9312243 Si02
#       5
#     2   4   4   4   4
#     4  10  20  44  70  98 132 172 228 290 324 400
#     4  10  23  40  68  94 134 171 226 275 341 396
#     4  10  24  42  69  97 137 180 227 274 344 393
#     4  11  23  43  66 103 137 183 223 278 342 414
#     4  10  24  41  64  99 133 177 219 278 336 402
#
# _framework density 22.734902999999999
#
# number of rings (size 3 to 8) (size 9 to 14) (size 15 to 20)
#    0.000    1.778    2.222    0.000    9.333    7.111 
#    0.000    1.111    0.000    0.000    0.000    0.000 
#    0.000    0.000    0.000    0.000    0.000    0.000 
#
# Total GULP energy -100511.207880 kJ/mol
# GULP energy per Si atom -5583.955993 kJ/mol
# Density = 2.268316 g / cm^3
# Si number density = 22.734903 Si / 1000 Ang^3
#
#
#
# Elastic Constant Matrix: (Units=GPa)
#
#
# Indices 1 2 3 4 5 6 
#
# 1 77.1913 6.2647 15.3823 0.0000 0.0000 0.0000
# 2 6.2647 128.1788 39.7849 0.0000 0.0000 0.0000
# 3 15.3823 39.7849 100.3562 0.0000 0.0000 0.0000
# 4 0.0000 0.0000 0.0000 -127.1255 0.0000 0.0000
# 5 0.0000 0.0000 0.0000 0.0000 28.5772 0.0000
# 6 0.0000 0.0000 0.0000 0.0000 0.0000 29.4589
#
#
#
# Elastic Compliance Matrix: (Units=1/GPa)
#
#
# Indices 1 2 3 4 5 6 
#
# 1 0.013363 -0.000020 -0.002040 0.000000 0.000000 0.000000
# 2 -0.000020 0.008896 -0.003524 0.000000 0.000000 0.000000
# 3 -0.002040 -0.003524 0.011674 0.000000 0.000000 0.000000
# 4 0.000000 0.000000 0.000000 -0.007866 0.000000 0.000000
# 5 0.000000 0.000000 0.000000 0.000000 0.034993 0.000000
# 6 0.000000 0.000000 0.000000 0.000000 0.000000 0.033946
#
#
# Mechanical properties :
#
#
# Convention : Reuss Voigt Hill
#
# Bulk Modulus (GPa) = 43.92595 47.62112 45.77353
# Shear Modulus (GPa) = 43.95126 2.46840 23.20983
#
# Velocity S-wave (km/s) = 4.40159 1.04312 3.19860
# Velocity P-wave (km/s) = 6.72272 4.73735 5.81539
#
# Compressibility (1/GPa) = 0.02276559
#
# Stress axis : x y z
#
# Youngs Moduli (GPa) = 74.83327 112.40624 85.65891
#
# Poissons Ratio (x) = 0.00223 0.17478
# Poissons Ratio (y) = 0.00148 0.30184
# Poissons Ratio (z) = 0.15269 0.39610
#
# Static dielectric constant tensor:
#      x y z
#    x 1.963170 0.000000 0.000000 
#    y 0.000000 1.825130 0.000000 
#    z 0.000000 0.000000 1.821740 
# 
# From -- ./inp_files/2875.got.cif
#   From: 2010.05.17/outbox.cif.g08.bks.cpg/sg18_2_cif.got.tgz:2875.got - 2010.06.03 22:40:56.
