data_PCOD9312360
_publ_section_title
;
Structure prediction by ZEFSAII (Michael W. Deem and Ramdas Pophale) SiO2 
 PCOD9312360
Probable space group: P 21 21 2
;
_chemical_formula_sum "Si O2"
_cell_formula_units_Z 32
_cell_length_a 7.551111
_cell_length_b 14.407473
_cell_length_c 12.549457
_cell_angle_alpha 90.000000
_cell_angle_beta 90.000000
_cell_angle_gamma 90.000000
_cell_volume 1365.285895
_symmetry_space_group_name_H-M "P 21 21 2"
_symmetry_group_IT_number 18
_symmetry_cell_setting 'orthorhombic'
loop_
_space_group_symop_operation_xyz
x,y,z
-x,-y,z
1/2+x,1/2-y,-z
1/2-x,1/2+y,-z
loop_
_atom_site_type_symbol
_atom_site_label
_atom_site_fract_x
_atom_site_fract_y
_atom_site_fract_z
Si Si1 0.662982 0.134998 0.430109
Si Si2 0.265490 0.217656 0.403656
Si Si3 0.740856 0.779853 0.163251
Si Si4 0.801873 0.630891 0.994032
Si Si5 0.805480 0.958495 0.525783
Si Si6 0.217271 0.578853 0.005832
Si Si7 0.158086 0.073962 0.753230
Si Si8 0.851417 0.712827 0.780802
O O1 0.465204 0.176410 0.415191
O O2 0.747668 0.188674 0.529551
O O3 0.688448 0.027688 0.455846
O O4 0.743234 0.159531 0.314606
O O5 0.190311 0.230179 0.283810
O O6 0.164044 0.138669 0.468244
O O7 0.731320 0.681656 0.100614
O O8 0.817507 0.850110 0.073903
O O9 0.548232 0.822989 0.191480
O O10 0.742809 0.526220 0.968518
O O11 0.758155 0.698270 0.894405
O O12 0.012862 0.613406 0.007908
O O13 0.731927 0.947565 0.646029
O O14 0.000000 0.000000 0.536628
O O15 0.259956 0.573103 0.130290
O O16 0.111190 0.182572 0.742722
O O17 0.000000 0.000000 0.756728
#
# Coordination Sequence:
#
# PCOD9312360 Si02
#       8
#     4   4   4   4   4   4   4   4
#     4  11  24  42  68  94 132 176 217 270 328 388
#     4  11  24  43  66  96 129 173 223 265 331 393
#     4  10  22  39  65  90 127 167 213 262 324 390
#     4  10  21  40  63  91 130 161 211 271 315 386
#     4  11  25  44  65  96 132 170 219 274 326 393
#     4  10  22  39  61  96 124 164 212 259 325 384
#     4  11  22  40  67  89 126 164 216 260 326 390
#     4  10  21  41  64  89 125 175 209 262 327 387
#
# _framework density 23.438313999999998
#
# number of rings (size 3 to 8) (size 9 to 14) (size 15 to 20)
#    0.000    1.500    2.500    1.875    8.750    1.000 
#    4.500    0.625    0.000    0.000    0.000    0.000 
#    0.000    0.000    0.000    0.000    0.000    0.000 
#
# Total GULP energy -178457.551469 kJ/mol
# GULP energy per Si atom -5576.798483 kJ/mol
# Density = 2.338497 g / cm^3
# Si number density = 23.438314 Si / 1000 Ang^3
#
#
#
# Elastic Constant Matrix: (Units=GPa)
#
#
# Indices 1 2 3 4 5 6 
#
# 1 28.7122 0.1741 18.4422 0.0000 0.0000 0.0000
# 2 0.1741 99.1369 54.8575 0.0000 0.0000 0.0000
# 3 18.4422 54.8575 185.7240 0.0000 0.0000 0.0000
# 4 0.0000 0.0000 0.0000 44.4551 0.0000 0.0000
# 5 0.0000 0.0000 0.0000 0.0000 7.7585 0.0000
# 6 0.0000 0.0000 0.0000 0.0000 0.0000 28.5403
#
#
#
# Elastic Compliance Matrix: (Units=1/GPa)
#
#
# Indices 1 2 3 4 5 6 
#
# 1 0.037671 0.002395 -0.004448 0.000000 0.000000 0.000000
# 2 0.002395 0.012210 -0.003844 0.000000 0.000000 0.000000
# 3 -0.004448 -0.003844 0.006962 0.000000 0.000000 0.000000
# 4 0.000000 0.000000 0.000000 0.022495 0.000000 0.000000
# 5 0.000000 0.000000 0.000000 0.000000 0.128892 0.000000
# 6 0.000000 0.000000 0.000000 0.000000 0.000000 0.035038
#
#
# Mechanical properties :
#
#
# Convention : Reuss Voigt Hill
#
# Bulk Modulus (GPa) = 22.19847 51.16897 36.68372
# Shear Modulus (GPa) = 18.51317 32.15738 25.33527
#
# Velocity S-wave (km/s) = 2.81351 3.70807 3.29132
# Velocity P-wave (km/s) = 4.47728 6.34128 5.48898
#
# Compressibility (1/GPa) = 0.04504814
#
# Stress axis : x y z
#
# Youngs Moduli (GPa) = 26.54559 81.89907 143.64614
#
# Poissons Ratio (x) = -0.19617 0.63897
# Poissons Ratio (y) = -0.06358 0.55223
# Poissons Ratio (z) = 0.11808 0.31485
#
# Static dielectric constant tensor:
#      x y z
#    x 1.976880 0.000000 0.000000 
#    y 0.000000 1.958880 0.000000 
#    z 0.000000 0.000000 1.991250 
# 
# From -- ./inp_files/5679.got.cif
#   From: 2010.05.17/outbox.cif.g08.bks.cpg/sg18_3_cif.got.tgz:5679.got - 2010.06.03 22:40:56.
