data_PCOD9312352
_publ_section_title
;
Structure prediction by ZEFSAII (Michael W. Deem and Ramdas Pophale) SiO2 
 PCOD9312352
Probable space group: P 21 21 2
;
_chemical_formula_sum "Si O2"
_cell_formula_units_Z 26
_cell_length_a 9.283498
_cell_length_b 9.679667
_cell_length_c 15.580507
_cell_angle_alpha 90.000000
_cell_angle_beta 90.000000
_cell_angle_gamma 90.000000
_cell_volume 1400.082576
_symmetry_space_group_name_H-M "P 21 21 2"
_symmetry_group_IT_number 18
_symmetry_cell_setting 'orthorhombic'
loop_
_space_group_symop_operation_xyz
x,y,z
-x,-y,z
1/2+x,1/2-y,-z
1/2-x,1/2+y,-z
loop_
_atom_site_type_symbol
_atom_site_label
_atom_site_fract_x
_atom_site_fract_y
_atom_site_fract_z
Si Si1 0.835240 0.998753 0.703677
Si Si2 0.244282 0.501024 0.102638
Si Si3 0.500000 0.500000 0.967322
Si Si4 0.888892 0.264827 0.329659
Si Si5 0.685639 0.201435 0.586093
Si Si6 0.166697 0.982742 0.441790
Si Si7 0.007933 0.717180 0.132873
O O1 0.823311 0.986806 0.805891
O O2 0.761468 0.137828 0.669721
O O3 0.742887 0.871481 0.665896
O O4 0.000000 0.000000 0.676714
O O5 0.143671 0.635735 0.092184
O O6 0.132530 0.374778 0.113540
O O7 0.359820 0.487203 0.027887
O O8 0.490024 0.634300 0.908277
O O9 0.956642 0.274483 0.234495
O O10 0.014761 0.306422 0.396159
O O11 0.842100 0.110422 0.355667
O O12 0.722266 0.362200 0.571917
O O13 0.741489 0.106636 0.508646
O O14 0.000000 0.000000 0.471318
#
# Coordination Sequence:
#
# PCOD9312352 Si02
#       7
#     4   4   2   4   4   4   4
#     4  11  21  38  62  85 121 160 207 251 304 361
#     4  10  21  40  58  93 120 164 205 251 304 374
#     4  12  22  36  66  94 126 160 204 260 308 352
#     4  10  22  41  64  89 120 165 208 246 308 367
#     4  11  21  38  63  88 121 159 201 252 303 359
#     4  10  23  39  60  92 125 153 207 254 298 362
#     4  10  22  38  64  90 126 163 206 252 305 371
#
# _framework density 18.570335
#
# number of rings (size 3 to 8) (size 9 to 14) (size 15 to 20)
#    0.000    1.538    2.308    2.769    3.231    2.462 
#    0.000    3.846    0.000    0.000    0.000    0.000 
#    0.000    0.000    0.000    0.000    0.000    0.000 
#
# Total GULP energy -145212.232275 kJ/mol
# GULP energy per Si atom -5585.085857 kJ/mol
# Density = 1.852807 g / cm^3
# Si number density = 18.570335 Si / 1000 Ang^3
#
#
#
# Elastic Constant Matrix: (Units=GPa)
#
#
# Indices 1 2 3 4 5 6 
#
# 1 112.7589 67.6936 41.6086 0.0000 0.0000 0.0000
# 2 67.6936 166.8665 50.5900 0.0000 0.0000 0.0000
# 3 41.6086 50.5900 57.7235 0.0000 0.0000 0.0000
# 4 0.0000 0.0000 0.0000 30.7018 0.0000 0.0000
# 5 0.0000 0.0000 0.0000 0.0000 30.1496 0.0000
# 6 0.0000 0.0000 0.0000 0.0000 0.0000 20.5685
#
#
#
# Elastic Compliance Matrix: (Units=1/GPa)
#
#
# Indices 1 2 3 4 5 6 
#
# 1 0.013368 -0.003407 -0.006650 0.000000 0.000000 0.000000
# 2 -0.003407 0.009030 -0.005458 0.000000 0.000000 0.000000
# 3 -0.006650 -0.005458 0.026901 0.000000 0.000000 0.000000
# 4 0.000000 0.000000 0.000000 0.032571 0.000000 0.000000
# 5 0.000000 0.000000 0.000000 0.000000 0.033168 0.000000
# 6 0.000000 0.000000 0.000000 0.000000 0.000000 0.048618
#
#
# Mechanical properties :
#
#
# Convention : Reuss Voigt Hill
#
# Bulk Modulus (GPa) = 54.73865 73.01482 63.87674
# Shear Modulus (GPa) = 24.90356 28.11441 26.50899
#
# Velocity S-wave (km/s) = 3.66599 3.89516 3.78231
# Velocity P-wave (km/s) = 6.88910 7.72224 7.31754
#
# Compressibility (1/GPa) = 0.01826863
#
# Stress axis : x y z
#
# Youngs Moduli (GPa) = 74.80798 110.74675 37.17347
#
# Poissons Ratio (x) = 0.37729 0.24720
# Poissons Ratio (y) = 0.25485 0.20289
# Poissons Ratio (z) = 0.49747 0.60446
#
# Static dielectric constant tensor:
#      x y z
#    x 1.641310 0.000000 0.000000 
#    y 0.000000 1.630780 0.000000 
#    z 0.000000 0.000000 1.638310 
# 
# From -- ./inp_files/7322.got.cif
#   From: 2010.05.17/outbox.cif.g08.bks.cpg/sg18_4_cif.got.tgz:7322.got - 2010.06.03 22:40:56.
