data_PCOD9312780
_publ_section_title
;
Structure prediction by ZEFSAII (Michael W. Deem and Ramdas Pophale) SiO2 
 PCOD9312780
Probable space group: P 21 21 2
;
_chemical_formula_sum "Si O2"
_cell_formula_units_Z 32
_cell_length_a 5.681995
_cell_length_b 19.322178
_cell_length_c 13.870884
_cell_angle_alpha 90.000000
_cell_angle_beta 90.000000
_cell_angle_gamma 90.000000
_cell_volume 1522.863809
_symmetry_space_group_name_H-M "P 21 21 2"
_symmetry_group_IT_number 18
_symmetry_cell_setting 'orthorhombic'
loop_
_space_group_symop_operation_xyz
x,y,z
-x,-y,z
1/2+x,1/2-y,-z
1/2-x,1/2+y,-z
loop_
_atom_site_type_symbol
_atom_site_label
_atom_site_fract_x
_atom_site_fract_y
_atom_site_fract_z
Si Si1 0.268000 0.162079 0.028455
Si Si2 0.445222 0.575326 0.814431
Si Si3 0.951552 0.192456 0.733965
Si Si4 0.776428 0.855630 0.560109
Si Si5 0.265930 0.326922 0.068138
Si Si6 0.575356 0.248836 0.595651
Si Si7 0.847528 0.431146 0.624761
Si Si8 0.199111 0.325028 0.727668
O O1 0.249545 0.116886 0.125388
O O2 0.261898 0.243760 0.052122
O O3 0.513694 0.147486 0.972814
O O4 0.014686 0.146968 0.977001
O O5 0.500000 0.500000 0.857015
O O6 0.347876 0.562923 0.707040
O O7 0.672053 0.624359 0.802623
O O8 0.797201 0.159969 0.817793
O O9 0.793635 0.239498 0.664822
O O10 0.090043 0.141043 0.661908
O O11 0.116930 0.253228 0.778303
O O12 0.513950 0.829102 0.580630
O O13 0.876040 0.788538 0.502670
O O14 0.765488 0.913930 0.479142
O O15 0.389560 0.295103 0.652860
O O16 0.000000 0.500000 0.619239
O O17 0.017273 0.370185 0.664783
#
# Coordination Sequence:
#
# PCOD9312780 Si02
#       8
#     4   4   4   4   4   4   4   4
#     4  10  24  40  66  98 137 169 227 282 350 419
#     4  12  25  41  65  96 135 182 222 274 342 423
#     4  11  23  36  64  90 135 174 218 284 350 407
#     4  11  21  34  55  93 129 177 223 268 335 395
#     4  10  23  42  64  98 134 176 216 289 355 408
#     4  11  19  33  56  89 126 169 211 276 331 387
#     4  12  24  39  58  90 138 183 226 272 327 417
#     4  11  21  35  60  89 134 173 221 265 334 413
#
# _framework density 21.013044000000001
#
# number of rings (size 3 to 8) (size 9 to 14) (size 15 to 20)
#    0.000    1.000    5.000    2.250   10.500    0.000 
#    0.000    0.000    0.000    0.000    3.250    0.000 
#    0.000    0.000    0.000    0.000    0.000    0.000 
#
# Total GULP energy -178589.694984 kJ/mol
# GULP energy per Si atom -5580.927968 kJ/mol
# Density = 2.096522 g / cm^3
# Si number density = 21.013044 Si / 1000 Ang^3
#
#
#
# Elastic Constant Matrix: (Units=GPa)
#
#
# Indices 1 2 3 4 5 6 
#
# 1 88.0476 25.8428 35.8873 0.0000 0.0000 0.0000
# 2 25.8428 52.1709 27.5852 0.0000 0.0000 0.0000
# 3 35.8873 27.5852 89.3751 0.0000 0.0000 0.0000
# 4 0.0000 0.0000 0.0000 14.9708 0.0000 0.0000
# 5 0.0000 0.0000 0.0000 0.0000 40.5640 0.0000
# 6 0.0000 0.0000 0.0000 0.0000 0.0000 18.4753
#
#
#
# Elastic Compliance Matrix: (Units=1/GPa)
#
#
# Indices 1 2 3 4 5 6 
#
# 1 0.014568 -0.004927 -0.004329 0.000000 0.000000 0.000000
# 2 -0.004927 0.024573 -0.005606 0.000000 0.000000 0.000000
# 3 -0.004329 -0.005606 0.014657 0.000000 0.000000 0.000000
# 4 0.000000 0.000000 0.000000 0.066797 0.000000 0.000000
# 5 0.000000 0.000000 0.000000 0.000000 0.024652 0.000000
# 6 0.000000 0.000000 0.000000 0.000000 0.000000 0.054126
#
#
# Mechanical properties :
#
#
# Convention : Reuss Voigt Hill
#
# Bulk Modulus (GPa) = 41.53860 45.35825 43.44842
# Shear Modulus (GPa) = 21.08621 24.15390 22.62005
#
# Velocity S-wave (km/s) = 3.17122 3.39406 3.28453
# Velocity P-wave (km/s) = 5.76366 6.08212 5.92503
#
# Compressibility (1/GPa) = 0.02407399
#
# Stress axis : x y z
#
# Youngs Moduli (GPa) = 68.64302 40.69582 68.22623
#
# Poissons Ratio (x) = 0.20053 0.29534
# Poissons Ratio (y) = 0.33824 0.38245
# Poissons Ratio (z) = 0.29714 0.22813
#
# Static dielectric constant tensor:
#      x y z
#    x 1.866100 0.000000 0.000000 
#    y 0.000000 1.756860 0.000000 
#    z 0.000000 0.000000 1.809510 
# 
# From -- ./inp_files/6551.got.cif
#   From: 2010.05.17/outbox.cif.g08.bks.cpg/sg18_4_cif.got.tgz:6551.got - 2010.06.03 22:40:56.
