data_PCOD9312470
_publ_section_title
;
Structure prediction by ZEFSAII (Michael W. Deem and Ramdas Pophale) SiO2 
 PCOD9312470
Probable space group: P 21 21 2
;
_chemical_formula_sum "Si O2"
_cell_formula_units_Z 24
_cell_length_a 11.638391
_cell_length_b 8.218395
_cell_length_c 10.709858
_cell_angle_alpha 90.000000
_cell_angle_beta 90.000000
_cell_angle_gamma 90.000000
_cell_volume 1024.386077
_symmetry_space_group_name_H-M "P 21 21 2"
_symmetry_group_IT_number 18
_symmetry_cell_setting 'orthorhombic'
loop_
_space_group_symop_operation_xyz
x,y,z
-x,-y,z
1/2+x,1/2-y,-z
1/2-x,1/2+y,-z
loop_
_atom_site_type_symbol
_atom_site_label
_atom_site_fract_x
_atom_site_fract_y
_atom_site_fract_z
Si Si1 0.828218 0.756700 0.186423
Si Si2 0.050046 0.180345 0.926345
Si Si3 0.602663 0.879087 0.245843
Si Si4 0.955802 0.169520 0.294291
Si Si5 0.880874 0.081542 0.568549
Si Si6 0.744694 0.904579 0.757033
O O1 0.736701 0.903198 0.207790
O O2 0.769056 0.580122 0.177852
O O3 0.919975 0.743104 0.300227
O O4 0.897668 0.777121 0.059194
O O5 0.150644 0.186896 0.823074
O O6 0.951380 0.299574 0.878578
O O7 0.000000 0.000000 0.926932
O O8 0.621980 0.749462 0.356440
O O9 0.500000 0.000000 0.286073
O O10 0.895304 0.116629 0.422940
O O11 0.867363 0.293608 0.232775
O O12 0.000000 0.000000 0.233336
O O13 0.782018 0.959249 0.616480
O O14 0.000000 0.000000 0.609790
#
# Coordination Sequence:
#
# PCOD9312470 Si02
#       6
#     4   4   4   4   4   4
#     4  11  27  43  71 108 149 197 247 314 382 441
#     4  12  24  47  73  98 148 196 253 310 372 456
#     4  11  25  42  69 107 141 194 254 300 378 448
#     4  11  27  44  73 108 148 185 248 309 377 440
#     4  10  21  47  69 101 141 195 239 301 373 447
#     4  11  24  48  71 106 147 201 243 312 381 452
#
# _framework density 23.428667000000001
#
# number of rings (size 3 to 8) (size 9 to 14) (size 15 to 20)
#    0.000    1.000    5.000    1.000    7.000    6.667 
#    0.000    0.000    0.000    0.000    0.000    0.000 
#    0.000    0.000    0.000    0.000    0.000    0.000 
#
# Total GULP energy -133936.817223 kJ/mol
# GULP energy per Si atom -5580.700718 kJ/mol
# Density = 2.337534 g / cm^3
# Si number density = 23.428667 Si / 1000 Ang^3
#
#
#
# Elastic Constant Matrix: (Units=GPa)
#
#
# Indices 1 2 3 4 5 6 
#
# 1 151.7984 32.4450 24.7501 0.0000 0.0000 0.0000
# 2 32.4450 59.5770 6.4985 0.0000 0.0000 0.0000
# 3 24.7501 6.4985 80.7542 0.0000 0.0000 0.0000
# 4 0.0000 0.0000 0.0000 15.4869 0.0000 0.0000
# 5 0.0000 0.0000 0.0000 0.0000 7.4955 0.0000
# 6 0.0000 0.0000 0.0000 0.0000 0.0000 54.7509
#
#
#
# Elastic Compliance Matrix: (Units=1/GPa)
#
#
# Indices 1 2 3 4 5 6 
#
# 1 0.007782 -0.004013 -0.002062 0.000000 0.000000 0.000000
# 2 -0.004013 0.019003 -0.000299 0.000000 0.000000 0.000000
# 3 -0.002062 -0.000299 0.013039 0.000000 0.000000 0.000000
# 4 0.000000 0.000000 0.000000 0.064571 0.000000 0.000000
# 5 0.000000 0.000000 0.000000 0.000000 0.133414 0.000000
# 6 0.000000 0.000000 0.000000 0.000000 0.000000 0.018265
#
#
# Mechanical properties :
#
#
# Convention : Reuss Voigt Hill
#
# Bulk Modulus (GPa) = 36.93376 46.61298 41.77337
# Shear Modulus (GPa) = 17.99554 30.77573 24.38563
#
# Velocity S-wave (km/s) = 2.77447 3.62828 3.22971
# Velocity P-wave (km/s) = 5.10511 6.12303 5.63709
#
# Compressibility (1/GPa) = 0.02707550
#
# Stress axis : x y z
#
# Youngs Moduli (GPa) = 128.50856 52.62324 76.69109
#
# Poissons Ratio (x) = 0.21117 0.15814
# Poissons Ratio (y) = 0.51568 0.02296
# Poissons Ratio (z) = 0.26499 0.01575
#
# Static dielectric constant tensor:
#      x y z
#    x 1.975100 0.000000 0.000000 
#    y 0.000000 1.952220 0.000000 
#    z 0.000000 0.000000 1.892520 
# 
# From -- ./inp_files/5833.got.cif
#   From: 2010.05.17/outbox.cif.g08.bks.cpg/sg18_3_cif.got.tgz:5833.got - 2010.06.03 22:40:56.
