data_PCOD9312065
_publ_section_title
;
Structure prediction by ZEFSAII (Michael W. Deem and Ramdas Pophale) SiO2 
 PCOD9312065
Probable space group: P 21 21 2
;
_chemical_formula_sum "Si O2"
_cell_formula_units_Z 20
_cell_length_a 7.236890
_cell_length_b 5.880465
_cell_length_c 16.205489
_cell_angle_alpha 90.000000
_cell_angle_beta 90.000000
_cell_angle_gamma 90.000000
_cell_volume 689.645301
_symmetry_space_group_name_H-M "P 21 21 2"
_symmetry_group_IT_number 18
_symmetry_cell_setting 'orthorhombic'
loop_
_space_group_symop_operation_xyz
x,y,z
-x,-y,z
1/2+x,1/2-y,-z
1/2-x,1/2+y,-z
loop_
_atom_site_type_symbol
_atom_site_label
_atom_site_fract_x
_atom_site_fract_y
_atom_site_fract_z
Si Si1 0.830857 0.747348 0.189087
Si Si2 0.000000 0.000000 0.863720
Si Si3 0.000000 0.000000 0.325920
Si Si4 0.672325 0.248880 0.395643
Si Si5 0.000000 0.500000 0.461127
Si Si6 0.500000 0.000000 0.257011
Si Si7 0.154797 0.251596 0.005818
O O1 0.689661 0.536455 0.184820
O O2 0.924312 0.755677 0.099388
O O3 0.968060 0.786554 0.264381
O O4 0.682508 0.949215 0.205348
O O5 0.974732 0.789276 0.926486
O O6 0.180158 0.956090 0.379931
O O7 0.550091 0.203715 0.476109
O O8 0.540661 0.214124 0.317189
O O9 0.814593 0.452358 0.409901
O O10 0.236802 0.506478 0.998737
#
# Coordination Sequence:
#
# PCOD9312065 Si02
#       7
#     4   2   2   4   2   2   4
#     4  10  20  37  61  88 133 176 218 282 344 405
#     4  10  21  36  60  95 128 178 236 286 344 409
#     4  10  21  40  60  93 134 170 214 268 340 407
#     4  10  22  38  63  92 125 167 211 265 325 403
#     4  11  22  42  66  94 127 164 214 268 327 392
#     4   9  20  38  58  90 129 168 210 266 341 406
#     4  10  21  37  60  91 126 172 232 288 344 408
#
# _framework density 29.000413000000002
#
# number of rings (size 3 to 8) (size 9 to 14) (size 15 to 20)
#    0.000    2.000    0.000    3.000    0.000    4.000 
#    0.000    2.000    0.000    0.000    0.000    0.000 
#    0.000    0.000    0.000    0.000    0.000    0.000 
#
# Total GULP energy -111802.357037 kJ/mol
# GULP energy per Si atom -5590.117852 kJ/mol
# Density = 2.893441 g / cm^3
# Si number density = 29.000413 Si / 1000 Ang^3
#
#
#
# Elastic Constant Matrix: (Units=GPa)
#
#
# Indices 1 2 3 4 5 6 
#
# 1 111.2779 47.1108 28.0215 0.0000 0.0000 0.0000
# 2 47.1108 138.2627 53.4822 0.0000 0.0000 0.0000
# 3 28.0215 53.4822 114.9368 0.0000 0.0000 0.0000
# 4 0.0000 0.0000 0.0000 30.8273 0.0000 0.0000
# 5 0.0000 0.0000 0.0000 0.0000 31.1216 0.0000
# 6 0.0000 0.0000 0.0000 0.0000 0.0000 74.6574
#
#
#
# Elastic Compliance Matrix: (Units=1/GPa)
#
#
# Indices 1 2 3 4 5 6 
#
# 1 0.010615 -0.003190 -0.001104 0.000000 0.000000 0.000000
# 2 -0.003190 0.009779 -0.003773 0.000000 0.000000 0.000000
# 3 -0.001104 -0.003773 0.010725 0.000000 0.000000 0.000000
# 4 0.000000 0.000000 0.000000 0.032439 0.000000 0.000000
# 5 0.000000 0.000000 0.000000 0.000000 0.032132 0.000000
# 6 0.000000 0.000000 0.000000 0.000000 0.000000 0.013395
#
#
# Mechanical properties :
#
#
# Convention : Reuss Voigt Hill
#
# Bulk Modulus (GPa) = 66.72678 69.07848 67.90263
# Shear Modulus (GPa) = 38.39901 43.04545 40.72223
#
# Velocity S-wave (km/s) = 3.64275 3.85685 3.75132
# Velocity P-wave (km/s) = 6.38370 6.61099 6.49834
#
# Compressibility (1/GPa) = 0.01498649
#
# Stress axis : x y z
#
# Youngs Moduli (GPa) = 94.20703 102.26174 93.24078
#
# Poissons Ratio (x) = 0.32621 0.10290
# Poissons Ratio (y) = 0.30052 0.35176
# Poissons Ratio (z) = 0.10396 0.38579
#
# Static dielectric constant tensor:
#      x y z
#    x 2.330410 0.000000 0.000000 
#    y 0.000000 2.273680 0.000000 
#    z 0.000000 0.000000 2.221900 
# 
# From -- ./inp_files/7301.got.cif
#   From: 2010.05.17/outbox.cif.g08.bks.cpg/sg18_4_cif.got.tgz:7301.got - 2010.06.03 22:40:56.
