data_PCOD9312028
_publ_section_title
;
Structure prediction by ZEFSAII (Michael W. Deem and Ramdas Pophale) SiO2 
 PCOD9312028
Probable space group: P 21 21 2
;
_chemical_formula_sum "Si O2"
_cell_formula_units_Z 24
_cell_length_a 10.043509
_cell_length_b 9.398870
_cell_length_c 11.163563
_cell_angle_alpha 90.000000
_cell_angle_beta 90.000000
_cell_angle_gamma 90.000000
_cell_volume 1053.813950
_symmetry_space_group_name_H-M "P 21 21 2"
_symmetry_group_IT_number 18
_symmetry_cell_setting 'orthorhombic'
loop_
_space_group_symop_operation_xyz
x,y,z
-x,-y,z
1/2+x,1/2-y,-z
1/2-x,1/2+y,-z
loop_
_atom_site_type_symbol
_atom_site_label
_atom_site_fract_x
_atom_site_fract_y
_atom_site_fract_z
Si Si1 0.346083 0.461629 0.975482
Si Si2 0.785951 0.521876 0.597582
Si Si3 0.930330 0.156130 0.254129
Si Si4 0.838801 0.718071 0.398726
Si Si5 0.111413 0.591584 0.848554
Si Si6 0.882609 0.106024 0.774257
O O1 0.500000 0.500000 0.997015
O O2 0.358162 0.334636 0.875852
O O3 0.253073 0.579747 0.914173
O O4 0.296084 0.440945 0.110321
O O5 0.677260 0.637446 0.641724
O O6 0.874121 0.608055 0.503369
O O7 0.708588 0.376557 0.558841
O O8 0.859615 0.476427 0.718826
O O9 0.044333 0.260083 0.301204
O O10 0.000000 0.000000 0.246376
O O11 0.712264 0.646950 0.334037
O O12 0.057346 0.747443 0.825585
O O13 0.000000 0.500000 0.913881
O O14 0.000000 0.000000 0.740129
#
# Coordination Sequence:
#
# PCOD9312028 Si02
#       6
#     4   4   4   4   4   4
#     4   9  18  37  61  84 116 155 196 245 301 359
#     4   9  20  36  56  84 119 156 198 251 302 356
#     4   8  16  34  59  81 110 156 200 239 296 361
#     4  10  20  36  59  88 119 160 206 248 301 366
#     4  10  22  38  59  88 121 159 201 248 308 365
#     4  10  22  37  60  91 121 154 200 253 306 367
#
# _framework density 22.774418000000001
#
# number of rings (size 3 to 8) (size 9 to 14) (size 15 to 20)
#    0.000    2.667    0.000    3.000    0.000   10.000 
#    0.000    1.667    0.000    1.000    0.000    0.000 
#    0.000    0.000    0.000    0.000    0.000    0.000 
#
# Total GULP energy -133751.637457 kJ/mol
# GULP energy per Si atom -5572.984894 kJ/mol
# Density = 2.272258 g / cm^3
# Si number density = 22.774418 Si / 1000 Ang^3
#
#
#
# Elastic Constant Matrix: (Units=GPa)
#
#
# Indices 1 2 3 4 5 6 
#
# 1 66.5975 33.6480 -13.2647 0.0000 0.0000 0.0000
# 2 33.6480 59.5779 7.3998 0.0000 0.0000 0.0000
# 3 -13.2647 7.3998 54.1334 0.0000 0.0000 0.0000
# 4 0.0000 0.0000 0.0000 17.4759 0.0000 0.0000
# 5 0.0000 0.0000 0.0000 0.0000 -5.6347 0.0000
# 6 0.0000 0.0000 0.0000 0.0000 0.0000 41.1376
#
#
#
# Elastic Compliance Matrix: (Units=1/GPa)
#
#
# Indices 1 2 3 4 5 6 
#
# 1 0.023880 -0.014459 0.007828 0.000000 0.000000 0.000000
# 2 -0.014459 0.025829 -0.007074 0.000000 0.000000 0.000000
# 3 0.007828 -0.007074 0.021358 0.000000 0.000000 0.000000
# 4 0.000000 0.000000 0.000000 0.057222 0.000000 0.000000
# 5 0.000000 0.000000 0.000000 0.000000 -0.177472 0.000000
# 6 0.000000 0.000000 0.000000 0.000000 0.000000 0.024309
#
#
# Mechanical properties :
#
#
# Convention : Reuss Voigt Hill
#
# Bulk Modulus (GPa) = 22.90540 26.20833 24.55686
# Shear Modulus (GPa) = 292.59533 20.76414 156.67973
#
# Velocity S-wave (km/s) = 11.34700 3.02276 8.30336
# Velocity P-wave (km/s) = 13.48154 4.86986 10.13576
#
# Compressibility (1/GPa) = 0.04365782
#
# Stress axis : x y z
#
# Youngs Moduli (GPa) = 41.87575 38.71544 46.82081
#
# Poissons Ratio (x) = 0.55979 -0.36652
# Poissons Ratio (y) = 0.60549 0.33120
# Poissons Ratio (z) = -0.32781 0.27387
#
# Static dielectric constant tensor:
#      x y z
#    x 1.877770 0.000000 0.000000 
#    y 0.000000 1.916950 0.000000 
#    z 0.000000 0.000000 1.936880 
# 
# From -- ./inp_files/5836.got.cif
#   From: 2010.05.17/outbox.cif.g08.bks.cpg/sg18_3_cif.got.tgz:5836.got - 2010.06.03 22:40:56.
