data_PCOD9312625
_publ_section_title
;
Structure prediction by ZEFSAII (Michael W. Deem and Ramdas Pophale) SiO2 
 PCOD9312625
Probable space group: P 21 21 2
;
_chemical_formula_sum "Si O2"
_cell_formula_units_Z 26
_cell_length_a 9.081478
_cell_length_b 22.531935
_cell_length_c 5.189137
_cell_angle_alpha 90.000000
_cell_angle_beta 90.000000
_cell_angle_gamma 90.000000
_cell_volume 1061.818192
_symmetry_space_group_name_H-M "P 21 21 2"
_symmetry_group_IT_number 18
_symmetry_cell_setting 'orthorhombic'
loop_
_space_group_symop_operation_xyz
x,y,z
-x,-y,z
1/2+x,1/2-y,-z
1/2-x,1/2+y,-z
loop_
_atom_site_type_symbol
_atom_site_label
_atom_site_fract_x
_atom_site_fract_y
_atom_site_fract_z
Si Si1 0.793678 0.799730 0.276914
Si Si2 0.000000 0.500000 0.136871
Si Si3 0.979592 0.871202 0.621754
Si Si4 0.923415 0.623135 0.221035
Si Si5 0.247601 0.848731 0.297876
Si Si6 0.431236 0.274570 0.020269
Si Si7 0.226078 0.593201 0.068430
O O1 0.878740 0.814919 0.535907
O O2 0.638071 0.769563 0.225769
O O3 0.782490 0.866949 0.163577
O O4 0.910592 0.763238 0.101543
O O5 0.077596 0.447263 0.293441
O O6 0.130322 0.535629 0.992625
O O7 0.862238 0.917431 0.738088
O O8 0.103555 0.885110 0.408080
O O9 0.065837 0.840764 0.857408
O O10 0.849652 0.657503 0.452349
O O11 0.098162 0.634109 0.198808
O O12 0.846249 0.628242 0.941052
O O13 0.178075 0.785880 0.217738
#
# Coordination Sequence:
#
# PCOD9312625 Si02
#       7
#     4   2   4   4   4   4   4
#     4  10  23  39  64  96 137 184 225 284 339 414
#     4   8  22  44  70 102 132 174 240 294 350 412
#     4  10  22  42  65  95 146 178 229 287 347 414
#     4  10  23  42  74  98 134 176 236 284 343 410
#     4  11  22  43  68 101 135 182 221 289 339 418
#     4  10  23  41  62 100 138 182 230 274 346 420
#     4   9  22  43  65  99 134 179 228 294 342 410
#
# _framework density 24.486301999999998
#
# number of rings (size 3 to 8) (size 9 to 14) (size 15 to 20)
#    0.923    1.231    1.538    0.000    4.308    5.538 
#    2.769    0.769    6.769    0.000    0.000    0.000 
#    0.000    0.000    0.000    0.000    0.000    0.000 
#
# Total GULP energy -144833.337778 kJ/mol
# GULP energy per Si atom -5570.512991 kJ/mol
# Density = 2.443057 g / cm^3
# Si number density = 24.486302 Si / 1000 Ang^3
#
#
#
# Elastic Constant Matrix: (Units=GPa)
#
#
# Indices 1 2 3 4 5 6 
#
# 1 92.6946 4.6449 31.7124 0.0000 0.0000 0.0000
# 2 4.6449 31.1369 10.5528 0.0000 0.0000 0.0000
# 3 31.7124 10.5528 95.0162 0.0000 0.0000 0.0000
# 4 0.0000 0.0000 0.0000 8.5576 0.0000 0.0000
# 5 0.0000 0.0000 0.0000 0.0000 32.2283 0.0000
# 6 0.0000 0.0000 0.0000 0.0000 0.0000 25.7611
#
#
#
# Elastic Compliance Matrix: (Units=1/GPa)
#
#
# Indices 1 2 3 4 5 6 
#
# 1 0.012185 -0.000457 -0.004016 0.000000 0.000000 0.000000
# 2 -0.000457 0.033389 -0.003556 0.000000 0.000000 0.000000
# 3 -0.004016 -0.003556 0.012260 0.000000 0.000000 0.000000
# 4 0.000000 0.000000 0.000000 0.116855 0.000000 0.000000
# 5 0.000000 0.000000 0.000000 0.000000 0.031029 0.000000
# 6 0.000000 0.000000 0.000000 0.000000 0.000000 0.038818
#
#
# Mechanical properties :
#
#
# Convention : Reuss Voigt Hill
#
# Bulk Modulus (GPa) = 23.93659 34.74087 29.33873
# Shear Modulus (GPa) = 18.21369 24.77192 21.49281
#
# Velocity S-wave (km/s) = 2.73029 3.18412 2.96590
# Velocity P-wave (km/s) = 4.44252 5.26658 4.87200
#
# Compressibility (1/GPa) = 0.04177704
#
# Stress axis : x y z
#
# Youngs Moduli (GPa) = 82.06825 29.94954 81.56692
#
# Poissons Ratio (x) = 0.01367 0.32758
# Poissons Ratio (y) = 0.03747 0.29005
# Poissons Ratio (z) = 0.32960 0.10650
#
# Static dielectric constant tensor:
#      x y z
#    x 1.994210 0.000000 0.000000 
#    y 0.000000 2.009130 0.000000 
#    z 0.000000 0.000000 1.953930 
# 
# From -- ./inp_files/705.got.cif
#   From: 2010.05.17/outbox.cif.g08.bks.cpg/sg18_1_cif.got.tgz:705.got - 2010.06.03 22:40:56.
