data_PCOD9312331
_publ_section_title
;
Structure prediction by ZEFSAII (Michael W. Deem and Ramdas Pophale) SiO2 
 PCOD9312331
Probable space group: P 21 21 2
;
_chemical_formula_sum "Si O2"
_cell_formula_units_Z 32
_cell_length_a 9.587057
_cell_length_b 10.582321
_cell_length_c 16.832122
_cell_angle_alpha 90.000000
_cell_angle_beta 90.000000
_cell_angle_gamma 90.000000
_cell_volume 1707.674569
_symmetry_space_group_name_H-M "P 21 21 2"
_symmetry_group_IT_number 18
_symmetry_cell_setting 'orthorhombic'
loop_
_space_group_symop_operation_xyz
x,y,z
-x,-y,z
1/2+x,1/2-y,-z
1/2-x,1/2+y,-z
loop_
_atom_site_type_symbol
_atom_site_label
_atom_site_fract_x
_atom_site_fract_y
_atom_site_fract_z
Si Si1 0.262413 0.241127 0.688019
Si Si2 0.995303 0.348741 0.431136
Si Si3 0.520436 0.644034 0.801245
Si Si4 0.486041 0.149992 0.386988
Si Si5 0.396633 0.314237 0.973002
Si Si6 0.167854 0.006853 0.793624
Si Si7 0.219838 0.265653 0.302205
Si Si8 0.192608 0.082709 0.974367
O O1 0.359420 0.197907 0.615521
O O2 0.352076 0.337085 0.740965
O O3 0.120471 0.297590 0.656886
O O4 0.225795 0.121944 0.742087
O O5 0.000000 0.500000 0.432416
O O6 0.988907 0.302047 0.521782
O O7 0.126641 0.306400 0.378085
O O8 0.500000 0.500000 0.823604
O O9 0.555281 0.714051 0.882987
O O10 0.383240 0.690082 0.755788
O O11 0.349618 0.190715 0.338636
O O12 0.500000 0.000000 0.389883
O O13 0.304734 0.191842 0.998358
O O14 0.540079 0.348671 0.019616
O O15 0.313063 0.449418 0.976830
O O16 0.226432 0.882182 0.750956
O O17 0.212871 0.033658 0.884219
O O18 0.000000 0.000000 0.791926
#
# Coordination Sequence:
#
# PCOD9312331 Si02
#       8
#     4   4   4   4   4   4   4   4
#     4  11  22  40  64  89 127 163 210 258 315 368
#     4  10  21  39  62  93 126 164 211 261 316 375
#     4  11  23  42  64  90 127 168 206 254 317 379
#     4  11  23  40  61  92 130 166 209 262 315 377
#     4  11  24  44  65  94 132 166 208 266 323 384
#     4  12  22  41  67  94 124 161 213 268 312 371
#     4  11  24  39  67  95 123 169 217 257 315 377
#     4  11  25  44  67  96 128 168 214 268 323 383
#
# _framework density 18.738934
#
# number of rings (size 3 to 8) (size 9 to 14) (size 15 to 20)
#    0.000    1.000    6.250    1.500    1.750    0.500 
#    0.000    0.000    2.750    0.000    0.000    0.000 
#    0.000    0.000    0.000    0.000    0.000    0.000 
#
# Total GULP energy -178592.337316 kJ/mol
# GULP energy per Si atom -5581.010541 kJ/mol
# Density = 1.869628 g / cm^3
# Si number density = 18.738934 Si / 1000 Ang^3
#
#
#
# Elastic Constant Matrix: (Units=GPa)
#
#
# Indices 1 2 3 4 5 6 
#
# 1 109.7747 29.3776 43.3798 0.0000 0.0000 0.0000
# 2 29.3776 56.4879 24.7498 0.0000 0.0000 0.0000
# 3 43.3798 24.7498 119.1728 0.0000 0.0000 0.0000
# 4 0.0000 0.0000 0.0000 6.2519 0.0000 0.0000
# 5 0.0000 0.0000 0.0000 0.0000 17.2731 0.0000
# 6 0.0000 0.0000 0.0000 0.0000 0.0000 22.9708
#
#
#
# Elastic Compliance Matrix: (Units=1/GPa)
#
#
# Indices 1 2 3 4 5 6 
#
# 1 0.011641 -0.004618 -0.003278 0.000000 0.000000 0.000000
# 2 -0.004618 0.021307 -0.002744 0.000000 0.000000 0.000000
# 3 -0.003278 -0.002744 0.010154 0.000000 0.000000 0.000000
# 4 0.000000 0.000000 0.000000 0.159952 0.000000 0.000000
# 5 0.000000 0.000000 0.000000 0.000000 0.057893 0.000000
# 6 0.000000 0.000000 0.000000 0.000000 0.000000 0.043534
#
#
# Mechanical properties :
#
#
# Convention : Reuss Voigt Hill
#
# Bulk Modulus (GPa) = 45.82588 53.38331 49.60459
# Shear Modulus (GPa) = 15.01343 21.82770 18.42056
#
# Velocity S-wave (km/s) = 2.83360 3.41667 3.13870
# Velocity P-wave (km/s) = 5.93411 6.64188 6.29795
#
# Compressibility (1/GPa) = 0.02182173
#
# Stress axis : x y z
#
# Youngs Moduli (GPa) = 85.90441 46.93349 98.47932
#
# Poissons Ratio (x) = 0.21672 0.32285
# Poissons Ratio (y) = 0.39668 0.27024
# Poissons Ratio (z) = 0.28163 0.12879
#
# Static dielectric constant tensor:
#      x y z
#    x 1.630850 0.000000 0.000000 
#    y 0.000000 1.621260 0.000000 
#    z 0.000000 0.000000 1.652200 
# 
# From -- ./inp_files/6797.got.cif
#   From: 2010.05.17/outbox.cif.g08.bks.cpg/sg18_4_cif.got.tgz:6797.got - 2010.06.03 22:40:56.
