data_PCOD9312484
_publ_section_title
;
Structure prediction by ZEFSAII (Michael W. Deem and Ramdas Pophale) SiO2 
 PCOD9312484
Probable space group: P 21 21 2
;
_chemical_formula_sum "Si O2"
_cell_formula_units_Z 26
_cell_length_a 27.891607
_cell_length_b 5.084449
_cell_length_c 8.220979
_cell_angle_alpha 90.000000
_cell_angle_beta 90.000000
_cell_angle_gamma 90.000000
_cell_volume 1165.845422
_symmetry_space_group_name_H-M "P 21 21 2"
_symmetry_group_IT_number 18
_symmetry_cell_setting 'orthorhombic'
loop_
_space_group_symop_operation_xyz
x,y,z
-x,-y,z
1/2+x,1/2-y,-z
1/2-x,1/2+y,-z
loop_
_atom_site_type_symbol
_atom_site_label
_atom_site_fract_x
_atom_site_fract_y
_atom_site_fract_z
Si Si1 0.208611 0.512214 0.657718
Si Si2 0.557409 0.510276 0.124961
Si Si3 0.808805 0.988266 0.435809
Si Si4 0.500000 0.500000 0.573137
Si Si5 0.453529 0.867757 0.836174
Si Si6 0.389576 0.980587 0.251108
Si Si7 0.905281 0.262174 0.411341
O O1 0.201761 0.798610 0.577803
O O2 0.265273 0.481504 0.692969
O O3 0.167025 0.477647 0.791618
O O4 0.197304 0.292632 0.520350
O O5 0.500000 0.500000 0.157051
O O6 0.581110 0.796402 0.151227
O O7 0.585795 0.299598 0.233227
O O8 0.564624 0.368950 0.948808
O O9 0.862330 0.057779 0.378640
O O10 0.477358 0.726074 0.683206
O O11 0.452700 0.366422 0.505944
O O12 0.500000 0.000000 0.922827
O O13 0.418705 0.080470 0.753395
O O14 0.390262 0.050538 0.441563
#
# Coordination Sequence:
#
# PCOD9312484 Si02
#       7
#     4   4   4   2   4   4   4
#     4   9  18  36  56  90 125 163 194 258 314 385
#     4  12  25  41  59  86 126 174 211 246 309 393
#     4   9  18  34  61  87 126 158 205 247 322 378
#     4  10  22  36  60  80 126 156 202 260 298 364
#     4  10  22  41  58  82 122 174 218 243 300 378
#     4  11  24  38  61  94 129 157 208 265 323 359
#     4  10  23  37  60  95 123 160 205 271 315 364
#
# _framework density 22.301413
#
# number of rings (size 3 to 8) (size 9 to 14) (size 15 to 20)
#    0.000    1.846    0.769    3.231    9.692    2.462 
#    0.000    0.000    0.000    0.000    4.000    0.000 
#    0.000    0.000    0.000    0.000    0.000    0.000 
#
# Total GULP energy -144980.695505 kJ/mol
# GULP energy per Si atom -5576.180596 kJ/mol
# Density = 2.225065 g / cm^3
# Si number density = 22.301413 Si / 1000 Ang^3
#
#
#
# Elastic Constant Matrix: (Units=GPa)
#
#
# Indices 1 2 3 4 5 6 
#
# 1 134.0653 9.5911 18.6692 0.0000 0.0000 0.0000
# 2 9.5911 70.7157 5.7888 0.0000 0.0000 0.0000
# 3 18.6692 5.7888 36.9982 0.0000 0.0000 0.0000
# 4 0.0000 0.0000 0.0000 34.4084 0.0000 0.0000
# 5 0.0000 0.0000 0.0000 0.0000 -2.0200 0.0000
# 6 0.0000 0.0000 0.0000 0.0000 0.0000 33.0093
#
#
#
# Elastic Compliance Matrix: (Units=1/GPa)
#
#
# Indices 1 2 3 4 5 6 
#
# 1 0.008064 -0.000770 -0.003949 0.000000 0.000000 0.000000
# 2 -0.000770 0.014398 -0.001864 0.000000 0.000000 0.000000
# 3 -0.003949 -0.001864 0.029312 0.000000 0.000000 0.000000
# 4 0.000000 0.000000 0.000000 0.029063 0.000000 0.000000
# 5 0.000000 0.000000 0.000000 0.000000 -0.495044 0.000000
# 6 0.000000 0.000000 0.000000 0.000000 0.000000 0.030294
#
#
# Mechanical properties :
#
#
# Convention : Reuss Voigt Hill
#
# Bulk Modulus (GPa) = 25.90094 34.43083 30.16589
# Shear Modulus (GPa) = -13.97131 26.92821 6.47845
#
# Velocity S-wave (km/s) = -2.50567 3.47863 1.70624
# Velocity P-wave (km/s) = 1.80779 5.62200 4.17582
#
# Compressibility (1/GPa) = 0.03860863
#
# Stress axis : x y z
#
# Youngs Moduli (GPa) = 124.00750 69.45309 34.11528
#
# Poissons Ratio (x) = 0.05351 0.13471
# Poissons Ratio (y) = 0.09555 0.06359
# Poissons Ratio (z) = 0.48965 0.12946
#
# Static dielectric constant tensor:
#      x y z
#    x 2.017230 0.000000 0.000000 
#    y 0.000000 1.884660 0.000000 
#    z 0.000000 0.000000 1.868520 
# 
# From -- ./inp_files/4809.got.cif
#   From: 2010.05.17/outbox.cif.g08.bks.cpg/sg18_3_cif.got.tgz:4809.got - 2010.06.03 22:40:56.
