data_PCOD9312538
_publ_section_title
;
Structure prediction by ZEFSAII (Michael W. Deem and Ramdas Pophale) SiO2 
 PCOD9312538
Probable space group: P 21 21 2
;
_chemical_formula_sum "Si O2"
_cell_formula_units_Z 32
_cell_length_a 9.749701
_cell_length_b 12.518464
_cell_length_c 11.476912
_cell_angle_alpha 90.000000
_cell_angle_beta 90.000000
_cell_angle_gamma 90.000000
_cell_volume 1400.771811
_symmetry_space_group_name_H-M "P 21 21 2"
_symmetry_group_IT_number 18
_symmetry_cell_setting 'orthorhombic'
loop_
_space_group_symop_operation_xyz
x,y,z
-x,-y,z
1/2+x,1/2-y,-z
1/2-x,1/2+y,-z
loop_
_atom_site_type_symbol
_atom_site_label
_atom_site_fract_x
_atom_site_fract_y
_atom_site_fract_z
Si Si1 0.017694 0.672768 0.344376
Si Si2 0.927002 0.602340 0.595228
Si Si3 0.009201 0.837140 0.688224
Si Si4 0.239851 0.129718 0.824081
Si Si5 0.601862 0.595796 0.567817
Si Si6 0.811840 0.417400 0.915947
Si Si7 0.868314 0.646246 0.920636
Si Si8 0.275113 0.794756 0.823309
O O1 0.999522 0.617964 0.469096
O O2 0.872908 0.673584 0.281011
O O3 0.125917 0.622565 0.255105
O O4 0.064465 0.794446 0.366732
O O5 0.957137 0.715801 0.657562
O O6 0.765087 0.580088 0.581908
O O7 0.000000 0.500000 0.652271
O O8 0.884146 0.904591 0.740860
O O9 0.068029 0.882011 0.568105
O O10 0.124127 0.829470 0.786798
O O11 0.197198 0.251059 0.859668
O O12 0.261374 0.077928 0.949899
O O13 0.500000 0.500000 0.604930
O O14 0.807987 0.537045 0.869571
O O15 0.725292 0.332877 0.843112
O O16 0.967361 0.370698 0.918326
O O17 0.826772 0.657528 0.055714
#
# Coordination Sequence:
#
# PCOD9312538 Si02
#       8
#     4   4   4   4   4   4   4   4
#     4  11  24  43  64  88 130 167 209 253 313 376
#     4  11  26  42  65  95 125 165 211 259 314 374
#     4  11  24  43  64  88 130 167 209 253 313 376
#     4  11  22  41  64  91 124 168 204 257 311 368
#     4  11  26  42  63  97 129 159 211 265 308 370
#     4  10  22  39  64  91 124 163 207 258 306 370
#     4  10  22  39  62  95 124 157 212 257 306 372
#     4  11  22  41  64  91 124 168 204 257 311 368
#
# _framework density 22.844548
#
# number of rings (size 3 to 8) (size 9 to 14) (size 15 to 20)
#    0.000    1.250    5.000    0.000    3.500    4.000 
#    0.000    1.250    0.000    0.000    0.000    0.000 
#    0.000    0.000    0.000    0.000    0.000    0.000 
#
# Total GULP energy -179084.005743 kJ/mol
# GULP energy per Si atom -5596.375179 kJ/mol
# Density = 2.279255 g / cm^3
# Si number density = 22.844548 Si / 1000 Ang^3
#
#
#
# Elastic Constant Matrix: (Units=GPa)
#
#
# Indices 1 2 3 4 5 6 
#
# 1 101.8636 18.6898 -2.6331 0.0000 0.0000 0.0000
# 2 18.6898 91.5994 -8.5125 0.0000 0.0000 0.0000
# 3 -2.6331 -8.5125 75.4113 0.0000 0.0000 0.0000
# 4 0.0000 0.0000 0.0000 -8.2164 0.0000 0.0000
# 5 0.0000 0.0000 0.0000 0.0000 17.8059 0.0000
# 6 0.0000 0.0000 0.0000 0.0000 0.0000 22.3634
#
#
#
# Elastic Compliance Matrix: (Units=1/GPa)
#
#
# Indices 1 2 3 4 5 6 
#
# 1 0.010200 -0.002070 0.000123 0.000000 0.000000 0.000000
# 2 -0.002070 0.011453 0.001221 0.000000 0.000000 0.000000
# 3 0.000123 0.001221 0.013403 0.000000 0.000000 0.000000
# 4 0.000000 0.000000 0.000000 -0.121708 0.000000 0.000000
# 5 0.000000 0.000000 0.000000 0.000000 0.056161 0.000000
# 6 0.000000 0.000000 0.000000 0.000000 0.000000 0.044716
#
#
# Mechanical properties :
#
#
# Convention : Reuss Voigt Hill
#
# Bulk Modulus (GPa) = 29.76015 31.55141 30.65578
# Shear Modulus (GPa) = 186.02193 23.81260 104.91727
#
# Velocity S-wave (km/s) = 9.03362 3.23209 6.78427
# Velocity P-wave (km/s) = 11.03920 5.26971 8.64967
#
# Compressibility (1/GPa) = 0.03360198
#
# Stress axis : x y z
#
# Youngs Moduli (GPa) = 98.03941 87.31446 74.61205
#
# Poissons Ratio (x) = 0.18072 -0.00914
# Poissons Ratio (y) = 0.20292 -0.09107
# Poissons Ratio (z) = -0.01201 -0.10657
#
# Static dielectric constant tensor:
#      x y z
#    x 1.817270 0.000000 0.000000 
#    y 0.000000 1.874240 0.000000 
#    z 0.000000 0.000000 1.820020 
# 
# From -- ./inp_files/5692.got.cif
#   From: 2010.05.17/outbox.cif.g08.bks.cpg/sg18_3_cif.got.tgz:5692.got - 2010.06.03 22:40:56.
