data_PCOD9312700
_publ_section_title
;
Structure prediction by ZEFSAII (Michael W. Deem and Ramdas Pophale) SiO2 
 PCOD9312700
Probable space group: P 21 21 2
;
_chemical_formula_sum "Si O2"
_cell_formula_units_Z 14
_cell_length_a 10.000886
_cell_length_b 8.273605
_cell_length_c 6.827047
_cell_angle_alpha 90.000000
_cell_angle_beta 90.000000
_cell_angle_gamma 90.000000
_cell_volume 564.892947
_symmetry_space_group_name_H-M "P 21 21 2"
_symmetry_group_IT_number 18
_symmetry_cell_setting 'orthorhombic'
loop_
_space_group_symop_operation_xyz
x,y,z
-x,-y,z
1/2+x,1/2-y,-z
1/2-x,1/2+y,-z
loop_
_atom_site_type_symbol
_atom_site_label
_atom_site_fract_x
_atom_site_fract_y
_atom_site_fract_z
Si Si1 0.352808 0.004870 0.254997
Si Si2 0.259103 0.688030 0.083740
Si Si3 0.500000 0.500000 0.253244
Si Si4 0.402251 0.369637 0.621119
O O1 0.500000 0.000000 0.335056
O O2 0.339826 0.856029 0.099716
O O3 0.237925 0.963879 0.409920
O O4 0.306424 0.154826 0.124543
O O5 0.368472 0.552475 0.137543
O O6 0.141309 0.720446 0.244819
O O7 0.469442 0.355104 0.409939
O O8 0.500000 0.500000 0.726361
#
# Coordination Sequence:
#
# PCOD9312700 Si02
#       4
#     4   4   2   4
#     4  10  24  39  66 101 124 173 220 271 326 385
#     4  10  24  41  67  96 131 176 209 279 320 387
#     4  10  22  44  66  96 136 172 216 274 334 400
#     4   8  22  43  65  94 130 175 211 271 324 391
#
# _framework density 24.783456000000001
#
# number of rings (size 3 to 8) (size 9 to 14) (size 15 to 20)
#    2.571    0.000    0.000    0.000   10.000    2.286 
#    5.143    0.000    0.000    0.000    0.000    0.000 
#    0.000    0.000    0.000    0.000    0.000    0.000 
#
# Total GULP energy -77988.523914 kJ/mol
# GULP energy per Si atom -5570.608851 kJ/mol
# Density = 2.472705 g / cm^3
# Si number density = 24.783456 Si / 1000 Ang^3
#
#
#
# Elastic Constant Matrix: (Units=GPa)
#
#
# Indices 1 2 3 4 5 6 
#
# 1 121.4228 -0.2438 9.7764 0.0000 0.0000 0.0000
# 2 -0.2438 72.5778 0.3570 0.0000 0.0000 0.0000
# 3 9.7764 0.3570 52.4718 0.0000 0.0000 0.0000
# 4 0.0000 0.0000 0.0000 24.0114 0.0000 0.0000
# 5 0.0000 0.0000 0.0000 0.0000 31.7402 0.0000
# 6 0.0000 0.0000 0.0000 0.0000 0.0000 34.7334
#
#
#
# Elastic Compliance Matrix: (Units=1/GPa)
#
#
# Indices 1 2 3 4 5 6 
#
# 1 0.008361 0.000036 -0.001558 0.000000 0.000000 0.000000
# 2 0.000036 0.013779 -0.000100 0.000000 0.000000 0.000000
# 3 -0.001558 -0.000100 0.019349 0.000000 0.000000 0.000000
# 4 0.000000 0.000000 0.000000 0.041647 0.000000 0.000000
# 5 0.000000 0.000000 0.000000 0.000000 0.031506 0.000000
# 6 0.000000 0.000000 0.000000 0.000000 0.000000 0.028791
#
#
# Mechanical properties :
#
#
# Convention : Reuss Voigt Hill
#
# Bulk Modulus (GPa) = 26.14823 29.58350 27.86587
# Shear Modulus (GPa) = 31.36255 33.86917 32.61586
#
# Velocity S-wave (km/s) = 3.56119 3.70077 3.63165
# Velocity P-wave (km/s) = 5.24243 5.49760 5.37153
#
# Compressibility (1/GPa) = 0.03824350
#
# Stress axis : x y z
#
# Youngs Moduli (GPa) = 119.59994 72.57454 51.68266
#
# Poissons Ratio (x) = -0.00259 0.08053
# Poissons Ratio (y) = -0.00428 0.00519
# Poissons Ratio (z) = 0.18635 0.00729
#
# Static dielectric constant tensor:
#      x y z
#    x 1.936410 0.000000 0.000000 
#    y 0.000000 2.142460 0.000000 
#    z 0.000000 0.000000 1.906490 
# 
# From -- ./inp_files/2722.got.cif
#   From: 2010.05.17/outbox.cif.g08.bks.cpg/sg18_2_cif.got.tgz:2722.got - 2010.06.03 22:40:56.
