data_PCOD9312616
_publ_section_title
;
Structure prediction by ZEFSAII (Michael W. Deem and Ramdas Pophale) SiO2 
 PCOD9312616
Probable space group: P 21 21 2
;
_chemical_formula_sum "Si O2"
_cell_formula_units_Z 22
_cell_length_a 13.345827
_cell_length_b 5.689085
_cell_length_c 10.323033
_cell_angle_alpha 90.000000
_cell_angle_beta 90.000000
_cell_angle_gamma 90.000000
_cell_volume 783.781898
_symmetry_space_group_name_H-M "P 21 21 2"
_symmetry_group_IT_number 18
_symmetry_cell_setting 'orthorhombic'
loop_
_space_group_symop_operation_xyz
x,y,z
-x,-y,z
1/2+x,1/2-y,-z
1/2-x,1/2+y,-z
loop_
_atom_site_type_symbol
_atom_site_label
_atom_site_fract_x
_atom_site_fract_y
_atom_site_fract_z
Si Si1 0.377505 0.630462 0.921377
Si Si2 0.000000 0.000000 0.318722
Si Si3 0.844280 0.389415 0.019388
Si Si4 0.168967 0.740087 0.478873
Si Si5 0.719594 0.489760 0.274163
Si Si6 0.000000 0.500000 0.576354
Si Si7 0.000000 0.000000 0.727305
O O1 0.434463 0.654700 0.783939
O O2 0.398429 0.360232 0.965261
O O3 0.400413 0.865096 0.005345
O O4 0.253442 0.624398 0.925239
O O5 0.913612 0.090621 0.414657
O O6 0.799282 0.443282 0.162606
O O7 0.256198 0.715810 0.375605
O O8 0.099317 0.509814 0.489802
O O9 0.212098 0.800817 0.620111
O O10 0.609851 0.488685 0.212452
O O11 0.998126 0.255070 0.654657
#
# Coordination Sequence:
#
# PCOD9312616 Si02
#       7
#     4   2   4   4   4   2   2
#     4  10  24  45  70 103 133 181 238 302 353 421
#     4  12  25  43  72 110 144 187 243 312 354 450
#     4  10  23  46  71  96 138 183 238 292 362 422
#     4  11  24  37  68 103 152 189 244 289 384 429
#     4  11  23  41  65 101 142 195 229 297 355 441
#     4  10  22  42  56  92 136 182 232 288 332 440
#     4  10  23  41  62  88 134 181 243 276 344 424
#
# _framework density 28.069032
#
# number of rings (size 3 to 8) (size 9 to 14) (size 15 to 20)
#    0.000    1.455    1.818    3.273    5.091    4.364 
#    0.000    0.000    0.000    2.182    0.000    0.000 
#    0.000    0.000    0.000    0.000    0.000    0.000 
#
# Total GULP energy -122672.756763 kJ/mol
# GULP energy per Si atom -5576.034398 kJ/mol
# Density = 2.800515 g / cm^3
# Si number density = 28.069032 Si / 1000 Ang^3
#
#
#
# Elastic Constant Matrix: (Units=GPa)
#
#
# Indices 1 2 3 4 5 6 
#
# 1 103.9951 43.4076 30.8749 0.0000 0.0000 0.0000
# 2 43.4076 203.9768 37.4776 0.0000 0.0000 0.0000
# 3 30.8749 37.4776 151.8144 0.0000 0.0000 0.0000
# 4 0.0000 0.0000 0.0000 36.1533 0.0000 0.0000
# 5 0.0000 0.0000 0.0000 0.0000 10.6576 0.0000
# 6 0.0000 0.0000 0.0000 0.0000 0.0000 64.4576
#
#
#
# Elastic Compliance Matrix: (Units=1/GPa)
#
#
# Indices 1 2 3 4 5 6 
#
# 1 0.010972 -0.002016 -0.001734 0.000000 0.000000 0.000000
# 2 -0.002016 0.005506 -0.000949 0.000000 0.000000 0.000000
# 3 -0.001734 -0.000949 0.007174 0.000000 0.000000 0.000000
# 4 0.000000 0.000000 0.000000 0.027660 0.000000 0.000000
# 5 0.000000 0.000000 0.000000 0.000000 0.093829 0.000000
# 6 0.000000 0.000000 0.000000 0.000000 0.000000 0.015514
#
#
# Mechanical properties :
#
#
# Convention : Reuss Voigt Hill
#
# Bulk Modulus (GPa) = 70.15761 75.92293 73.04027
# Shear Modulus (GPa) = 28.60326 45.45545 37.02935
#
# Velocity S-wave (km/s) = 3.19569 4.02856 3.63605
# Velocity P-wave (km/s) = 6.21816 6.98187 6.61105
#
# Compressibility (1/GPa) = 0.01425362
#
# Stress axis : x y z
#
# Youngs Moduli (GPa) = 91.13950 181.61942 139.39455
#
# Poissons Ratio (x) = 0.36622 0.24166
# Poissons Ratio (y) = 0.18378 0.13231
# Poissons Ratio (z) = 0.15800 0.17239
#
# Static dielectric constant tensor:
#      x y z
#    x 2.262060 0.000000 0.000000 
#    y 0.000000 2.334480 0.000000 
#    z 0.000000 0.000000 2.167370 
# 
# From -- ./inp_files/6044.got.cif
#   From: 2010.05.17/outbox.cif.g08.bks.cpg/sg18_4_cif.got.tgz:6044.got - 2010.06.03 22:40:56.
