data_PCOD9312384
_publ_section_title
;
Structure prediction by ZEFSAII (Michael W. Deem and Ramdas Pophale) SiO2 
 PCOD9312384
Probable space group: P 21 21 2
;
_chemical_formula_sum "Si O2"
_cell_formula_units_Z 20
_cell_length_a 10.094486
_cell_length_b 15.058136
_cell_length_c 7.000175
_cell_angle_alpha 90.000000
_cell_angle_beta 90.000000
_cell_angle_gamma 90.000000
_cell_volume 1064.055602
_symmetry_space_group_name_H-M "P 21 21 2"
_symmetry_group_IT_number 18
_symmetry_cell_setting 'orthorhombic'
loop_
_space_group_symop_operation_xyz
x,y,z
-x,-y,z
1/2+x,1/2-y,-z
1/2-x,1/2+y,-z
loop_
_atom_site_type_symbol
_atom_site_label
_atom_site_fract_x
_atom_site_fract_y
_atom_site_fract_z
Si Si1 0.667346 0.161404 0.763696
Si Si2 0.588330 0.233427 0.361702
Si Si3 0.463550 0.095932 0.068070
Si Si4 0.690046 0.329177 0.032368
Si Si5 0.459963 0.402179 0.263289
O O1 0.631575 0.180012 0.545180
O O2 0.553580 0.111454 0.880967
O O3 0.805880 0.109526 0.778417
O O4 0.680924 0.257248 0.865564
O O5 0.707522 0.272058 0.229202
O O6 0.552496 0.379328 0.078760
O O7 0.503012 0.171921 0.219441
O O8 0.311297 0.106900 0.010328
O O9 0.500000 0.000000 0.148530
O O10 0.503555 0.322362 0.405496
O O11 0.500000 0.500000 0.329599
#
# Coordination Sequence:
#
# PCOD9312384 Si02
#       5
#     4   4   4   4   4
#     4  11  20  40  63  86 123 166 198 252 308 361
#     4   9  23  37  62  86 127 157 200 249 304 361
#     4  11  22  39  63  94 120 159 205 251 309 365
#     4   9  20  39  61  85 120 160 198 252 302 364
#     4  10  21  41  61  91 122 158 207 250 303 367
#
# _framework density 18.796009000000002
#
# number of rings (size 3 to 8) (size 9 to 14) (size 15 to 20)
#    1.200    0.800    2.000    1.200    2.800    0.800 
#    3.600    1.000    0.000    0.000    0.000    0.000 
#    0.000    0.000    0.000    0.000    0.000    0.000 
#
# Total GULP energy -111380.622502 kJ/mol
# GULP energy per Si atom -5569.031125 kJ/mol
# Density = 1.875323 g / cm^3
# Si number density = 18.796009 Si / 1000 Ang^3
#
#
#
# Elastic Constant Matrix: (Units=GPa)
#
#
# Indices 1 2 3 4 5 6 
#
# 1 52.6093 -4.8788 20.9071 0.0000 0.0000 0.0000
# 2 -4.8788 85.6938 8.9406 0.0000 0.0000 0.0000
# 3 20.9071 8.9406 74.6266 0.0000 0.0000 0.0000
# 4 0.0000 0.0000 0.0000 8.9907 0.0000 0.0000
# 5 0.0000 0.0000 0.0000 0.0000 11.1254 0.0000
# 6 0.0000 0.0000 0.0000 0.0000 0.0000 19.7722
#
#
#
# Elastic Compliance Matrix: (Units=1/GPa)
#
#
# Indices 1 2 3 4 5 6 
#
# 1 0.021688 0.001892 -0.006303 0.000000 0.000000 0.000000
# 2 0.001892 0.011982 -0.001966 0.000000 0.000000 0.000000
# 3 -0.006303 -0.001966 0.015401 0.000000 0.000000 0.000000
# 4 0.000000 0.000000 0.000000 0.111226 0.000000 0.000000
# 5 0.000000 0.000000 0.000000 0.000000 0.089884 0.000000
# 6 0.000000 0.000000 0.000000 0.000000 0.000000 0.050576
#
#
# Mechanical properties :
#
#
# Convention : Reuss Voigt Hill
#
# Bulk Modulus (GPa) = 27.53333 29.20749 28.37041
# Shear Modulus (GPa) = 15.35547 20.50838 17.93193
#
# Velocity S-wave (km/s) = 2.86134 3.30677 3.09209
# Velocity P-wave (km/s) = 5.05931 5.49113 5.27964
#
# Compressibility (1/GPa) = 0.03631962
#
# Stress axis : x y z
#
# Youngs Moduli (GPa) = 46.10776 83.45661 64.92947
#
# Poissons Ratio (x) = -0.15793 0.40924
# Poissons Ratio (y) = -0.08725 0.12763
# Poissons Ratio (z) = 0.29061 0.16405
#
# Static dielectric constant tensor:
#      x y z
#    x 1.652740 0.000000 0.000000 
#    y 0.000000 1.661500 0.000000 
#    z 0.000000 0.000000 1.618750 
# 
# From -- ./inp_files/1022.got.cif
#   From: 2010.05.17/outbox.cif.g08.bks.cpg/sg18_1_cif.got.tgz:1022.got - 2010.06.03 22:40:56.
