data_PCOD9312876
_publ_section_title
;
Structure prediction by ZEFSAII (Michael W. Deem and Ramdas Pophale) SiO2 
 PCOD9312876
Probable space group: P 21 21 2
;
_chemical_formula_sum "Si O2"
_cell_formula_units_Z 16
_cell_length_a 22.005627
_cell_length_b 5.432428
_cell_length_c 5.175672
_cell_angle_alpha 90.000000
_cell_angle_beta 90.000000
_cell_angle_gamma 90.000000
_cell_volume 618.720452
_symmetry_space_group_name_H-M "P 21 21 2"
_symmetry_group_IT_number 18
_symmetry_cell_setting 'orthorhombic'
loop_
_space_group_symop_operation_xyz
x,y,z
-x,-y,z
1/2+x,1/2-y,-z
1/2-x,1/2+y,-z
loop_
_atom_site_type_symbol
_atom_site_label
_atom_site_fract_x
_atom_site_fract_y
_atom_site_fract_z
Si Si1 0.322895 0.366694 0.192534
Si Si2 0.902355 0.807594 0.089958
Si Si3 0.000000 0.500000 0.793313
Si Si4 0.210737 0.355914 0.819072
Si Si5 0.000000 0.000000 0.483554
O O1 0.387812 0.456358 0.092842
O O2 0.299578 0.607608 0.344875
O O3 0.313941 0.101864 0.313106
O O4 0.277081 0.357781 0.943713
O O5 0.945891 0.602317 0.969444
O O6 0.835955 0.681582 0.064997
O O7 0.939526 0.922455 0.323936
O O8 0.014057 0.742390 0.625764
#
# Coordination Sequence:
#
# PCOD9312876 Si02
#       5
#     4   4   2   4   2
#     4   8  16  31  61  95 114 164 217 250 331 397
#     4  10  24  42  68  86 142 172 204 282 334 356
#     4  12  28  42  64 102 132 178 232 258 316 404
#     4   8  16  31  61  95 114 164 217 250 331 397
#     4  12  28  42  64 102 132 178 232 258 316 404
#
# _framework density 25.859824
#
# number of rings (size 3 to 8) (size 9 to 14) (size 15 to 20)
#    1.500    1.000    0.000    1.500   10.500    0.000 
#    0.000    0.000    0.000    6.000    0.000    0.000 
#    0.000    0.000    0.000    0.000    0.000    0.000 
#
# Total GULP energy -89092.474220 kJ/mol
# GULP energy per Si atom -5568.279639 kJ/mol
# Density = 2.580097 g / cm^3
# Si number density = 25.859824 Si / 1000 Ang^3
#
#
#
# Elastic Constant Matrix: (Units=GPa)
#
#
# Indices 1 2 3 4 5 6 
#
# 1 95.2399 14.2236 20.3979 0.0000 0.0000 0.0000
# 2 14.2236 253.0475 30.2409 0.0000 0.0000 0.0000
# 3 20.3979 30.2409 44.2881 0.0000 0.0000 0.0000
# 4 0.0000 0.0000 0.0000 28.1085 0.0000 0.0000
# 5 0.0000 0.0000 0.0000 0.0000 62.9891 0.0000
# 6 0.0000 0.0000 0.0000 0.0000 0.0000 54.0283
#
#
#
# Elastic Compliance Matrix: (Units=1/GPa)
#
#
# Indices 1 2 3 4 5 6 
#
# 1 0.011649 -0.000015 -0.005355 0.000000 0.000000 0.000000
# 2 -0.000015 0.004303 -0.002931 0.000000 0.000000 0.000000
# 3 -0.005355 -0.002931 0.027047 0.000000 0.000000 0.000000
# 4 0.000000 0.000000 0.000000 0.035576 0.000000 0.000000
# 5 0.000000 0.000000 0.000000 0.000000 0.015876 0.000000
# 6 0.000000 0.000000 0.000000 0.000000 0.000000 0.018509
#
#
# Mechanical properties :
#
#
# Convention : Reuss Voigt Hill
#
# Bulk Modulus (GPa) = 37.88327 58.03336 47.95832
# Shear Modulus (GPa) = 36.13713 50.87270 43.50492
#
# Velocity S-wave (km/s) = 3.74227 4.44018 4.10608
# Velocity P-wave (km/s) = 5.77530 6.98406 6.40824
#
# Compressibility (1/GPa) = 0.02639687
#
# Stress axis : x y z
#
# Youngs Moduli (GPa) = 85.84477 232.39727 36.97209
#
# Poissons Ratio (x) = 0.00344 0.19799
# Poissons Ratio (y) = 0.00127 0.10838
# Poissons Ratio (z) = 0.45971 0.68124
#
# Static dielectric constant tensor:
#      x y z
#    x 2.059630 0.000000 0.000000 
#    y 0.000000 2.117190 0.000000 
#    z 0.000000 0.000000 2.011620 
# 
# From -- ./inp_files/184.got.cif
#   From: 2010.05.17/outbox.cif.g08.bks.cpg/sg18_1_cif.got.tgz:184.got - 2010.06.03 22:40:56.
