data_PCOD9312841
_publ_section_title
;
Structure prediction by ZEFSAII (Michael W. Deem and Ramdas Pophale) SiO2 
 PCOD9312841
Probable space group: P 21 21 2
;
_chemical_formula_sum "Si O2"
_cell_formula_units_Z 28
_cell_length_a 10.566898
_cell_length_b 18.979864
_cell_length_c 5.242183
_cell_angle_alpha 90.000000
_cell_angle_beta 90.000000
_cell_angle_gamma 90.000000
_cell_volume 1051.363242
_symmetry_space_group_name_H-M "P 21 21 2"
_symmetry_group_IT_number 18
_symmetry_cell_setting 'orthorhombic'
loop_
_space_group_symop_operation_xyz
x,y,z
-x,-y,z
1/2+x,1/2-y,-z
1/2-x,1/2+y,-z
loop_
_atom_site_type_symbol
_atom_site_label
_atom_site_fract_x
_atom_site_fract_y
_atom_site_fract_z
Si Si1 0.771829 0.992857 0.183946
Si Si2 0.648419 0.744735 0.174884
Si Si3 0.500000 0.500000 0.150476
Si Si4 0.124317 0.245084 0.809887
Si Si5 0.325201 0.392969 0.445091
Si Si6 0.445305 0.873027 0.553908
Si Si7 0.500000 0.000000 0.164539
Si Si8 0.285225 0.131120 0.546489
O O1 0.755547 0.944152 0.435954
O O2 0.805370 0.071850 0.278597
O O3 0.637042 0.988677 0.042199
O O4 0.889994 0.967069 0.023695
O O5 0.510118 0.739908 0.048469
O O6 0.639276 0.687947 0.405156
O O7 0.682225 0.819483 0.301220
O O8 0.762812 0.727567 0.986760
O O9 0.429543 0.440909 0.312685
O O10 0.092485 0.300461 0.585220
O O11 0.177284 0.172416 0.696564
O O12 0.184773 0.397807 0.319169
O O13 0.579657 0.868028 0.694408
O O14 0.475542 0.932405 0.342823
#
# Coordination Sequence:
#
# PCOD9312841 Si02
#       8
#     4   4   2   4   4   4   2   4
#     4  10  24  46  71  98 142 186 233 289 350 420
#     4  11  27  42  71 106 141 181 242 286 360 421
#     4  12  28  40  70 104 142 180 230 298 352 410
#     4  11  25  43  70 103 141 182 230 296 345 421
#     4  11  25  45  66 105 142 185 234 285 355 422
#     4   9  20  45  71  94 133 186 227 284 348 415
#     4   8  18  42  70  92 124 180 236 270 338 412
#     4  10  23  46  73  99 138 186 233 289 349 422
#
# _framework density 26.632092
#
# number of rings (size 3 to 8) (size 9 to 14) (size 15 to 20)
#    0.000    1.714    1.429    0.429   12.000    0.000 
#    0.000    4.286    0.000    0.000    0.000    0.000 
#    0.000    0.000    0.000    0.000    0.000    0.000 
#
# Total GULP energy -156743.143799 kJ/mol
# GULP energy per Si atom -5597.969421 kJ/mol
# Density = 2.657148 g / cm^3
# Si number density = 26.632092 Si / 1000 Ang^3
#
#
#
# Elastic Constant Matrix: (Units=GPa)
#
#
# Indices 1 2 3 4 5 6 
#
# 1 248.3222 23.4348 43.8745 0.0000 0.0000 0.0000
# 2 23.4348 121.9855 21.3176 0.0000 0.0000 0.0000
# 3 43.8745 21.3176 53.1128 0.0000 0.0000 0.0000
# 4 0.0000 0.0000 0.0000 183.4809 0.0000 0.0000
# 5 0.0000 0.0000 0.0000 0.0000 -21.8585 0.0000
# 6 0.0000 0.0000 0.0000 0.0000 0.0000 44.8474
#
#
#
# Elastic Compliance Matrix: (Units=1/GPa)
#
#
# Indices 1 2 3 4 5 6 
#
# 1 0.004722 -0.000242 -0.003803 0.000000 0.000000 0.000000
# 2 -0.000242 0.008829 -0.003343 0.000000 0.000000 0.000000
# 3 -0.003803 -0.003343 0.023311 0.000000 0.000000 0.000000
# 4 0.000000 0.000000 0.000000 0.005450 0.000000 0.000000
# 5 0.000000 0.000000 0.000000 0.000000 -0.045749 0.000000
# 6 0.000000 0.000000 0.000000 0.000000 0.000000 0.022298
#
#
# Mechanical properties :
#
#
# Convention : Reuss Voigt Hill
#
# Bulk Modulus (GPa) = 45.28159 66.74158 56.01159
# Shear Modulus (GPa) = 121.95085 63.61353 92.78219
#
# Velocity S-wave (km/s) = 6.77424 4.89264 5.90882
# Velocity P-wave (km/s) = 8.84458 7.55197 8.22371
#
# Compressibility (1/GPa) = 0.02208403
#
# Stress axis : x y z
#
# Youngs Moduli (GPa) = 211.78006 113.26934 42.89749
#
# Poissons Ratio (x) = 0.02747 0.16315
# Poissons Ratio (y) = 0.05135 0.14341
# Poissons Ratio (z) = 0.80545 0.37868
#
# Static dielectric constant tensor:
#      x y z
#    x 2.142110 0.000000 0.000000 
#    y 0.000000 2.037790 0.000000 
#    z 0.000000 0.000000 2.108840 
# 
# From -- ./inp_files/1266.got.cif
#   From: 2010.05.17/outbox.cif.g08.bks.cpg/sg18_1_cif.got.tgz:1266.got - 2010.06.03 22:40:56.
