data_PCOD9312138
_publ_section_title
;
Structure prediction by ZEFSAII (Michael W. Deem and Ramdas Pophale) SiO2 
 PCOD9312138
Probable space group: P 21 21 2
;
_chemical_formula_sum "Si O2"
_cell_formula_units_Z 22
_cell_length_a 28.574017
_cell_length_b 5.023222
_cell_length_c 7.552476
_cell_angle_alpha 90.000000
_cell_angle_beta 90.000000
_cell_angle_gamma 90.000000
_cell_volume 1084.034302
_symmetry_space_group_name_H-M "P 21 21 2"
_symmetry_group_IT_number 18
_symmetry_cell_setting 'orthorhombic'
loop_
_space_group_symop_operation_xyz
x,y,z
-x,-y,z
1/2+x,1/2-y,-z
1/2-x,1/2+y,-z
loop_
_atom_site_type_symbol
_atom_site_label
_atom_site_fract_x
_atom_site_fract_y
_atom_site_fract_z
Si Si1 0.500000 0.500000 0.492463
Si Si2 0.666605 0.381690 0.884157
Si Si3 0.165124 0.616248 0.882416
Si Si4 0.591461 0.252540 0.608751
Si Si5 0.409277 0.263068 0.386542
Si Si6 0.749162 0.752183 0.380797
O O1 0.536397 0.326802 0.607138
O O2 0.464866 0.319235 0.377346
O O3 0.617621 0.317065 0.788732
O O4 0.706529 0.316272 0.742165
O O5 0.669915 0.681337 0.953713
O O6 0.671825 0.181442 0.048680
O O7 0.115227 0.665451 0.789821
O O8 0.203509 0.690967 0.736249
O O9 0.611043 0.457570 0.459054
O O10 0.598537 0.956352 0.538731
O O11 0.750700 0.453607 0.453742
#
# Coordination Sequence:
#
# PCOD9312138 Si02
#       6
#     2   4   4   4   4   4
#     4   8  22  36  72  80 122 156 224 256 282 358
#     4  12  24  40  62  94 132 160 194 259 316 358
#     4  12  24  40  62  94 132 160 194 259 316 358
#     4  10  20  39  64  87 116 166 209 250 297 360
#     4  10  20  39  64  87 116 166 209 250 297 360
#     4  12  24  42  66  94 120 168 214 240 292 376
#
# _framework density 20.294563
#
# number of rings (size 3 to 8) (size 9 to 14) (size 15 to 20)
#    1.091    0.000    0.000    8.182    0.000    0.000 
#    0.000    0.909    0.000    0.000    0.000    0.000 
#    0.000    0.000    0.000    0.000    0.000    0.000 
#
# Total GULP energy -122862.369136 kJ/mol
# GULP energy per Si atom -5584.653143 kJ/mol
# Density = 2.024837 g / cm^3
# Si number density = 20.294563 Si / 1000 Ang^3
#
#
#
# Elastic Constant Matrix: (Units=GPa)
#
#
# Indices 1 2 3 4 5 6 
#
# 1 102.4968 -6.1588 23.9588 0.0000 0.0000 0.0000
# 2 -6.1588 48.8257 -14.9290 0.0000 0.0000 0.0000
# 3 23.9588 -14.9290 42.0343 0.0000 0.0000 0.0000
# 4 0.0000 0.0000 0.0000 50.4405 0.0000 0.0000
# 5 0.0000 0.0000 0.0000 0.0000 8.4147 0.0000
# 6 0.0000 0.0000 0.0000 0.0000 0.0000 20.7897
#
#
#
# Elastic Compliance Matrix: (Units=1/GPa)
#
#
# Indices 1 2 3 4 5 6 
#
# 1 0.011272 -0.000609 -0.006641 0.000000 0.000000 0.000000
# 2 -0.000609 0.023009 0.008519 0.000000 0.000000 0.000000
# 3 -0.006641 0.008519 0.030601 0.000000 0.000000 0.000000
# 4 0.000000 0.000000 0.000000 0.019825 0.000000 0.000000
# 5 0.000000 0.000000 0.000000 0.000000 0.118839 0.000000
# 6 0.000000 0.000000 0.000000 0.000000 0.000000 0.048101
#
#
# Mechanical properties :
#
#
# Convention : Reuss Voigt Hill
#
# Bulk Modulus (GPa) = 14.83234 22.12207 18.47720
# Shear Modulus (GPa) = 18.41058 28.62804 23.51931
#
# Velocity S-wave (km/s) = 3.01519 3.75991 3.40795
# Velocity P-wave (km/s) = 4.40979 5.45649 4.96082
#
# Compressibility (1/GPa) = 0.06742025
#
# Stress axis : x y z
#
# Youngs Moduli (GPa) = 88.71378 43.46131 32.67861
#
# Poissons Ratio (x) = 0.02646 0.21702
# Poissons Ratio (y) = 0.05400 -0.27839
# Poissons Ratio (z) = 0.58916 -0.37024
#
# Static dielectric constant tensor:
#      x y z
#    x 1.740130 0.000000 0.000000 
#    y 0.000000 1.707980 0.000000 
#    z 0.000000 0.000000 1.688850 
# 
# From -- ./inp_files/2260.got.cif
#   From: 2010.05.17/outbox.cif.g08.bks.cpg/sg18_2_cif.got.tgz:2260.got - 2010.06.03 22:40:56.
