data_PCOD9312646
_publ_section_title
;
Structure prediction by ZEFSAII (Michael W. Deem and Ramdas Pophale) SiO2 
 PCOD9312646
Probable space group: P 21 21 2
;
_chemical_formula_sum "Si O2"
_cell_formula_units_Z 18
_cell_length_a 11.144787
_cell_length_b 8.176348
_cell_length_c 10.249737
_cell_angle_alpha 90.000000
_cell_angle_beta 90.000000
_cell_angle_gamma 90.000000
_cell_volume 933.993518
_symmetry_space_group_name_H-M "P 21 21 2"
_symmetry_group_IT_number 18
_symmetry_cell_setting 'orthorhombic'
loop_
_space_group_symop_operation_xyz
x,y,z
-x,-y,z
1/2+x,1/2-y,-z
1/2-x,1/2+y,-z
loop_
_atom_site_type_symbol
_atom_site_label
_atom_site_fract_x
_atom_site_fract_y
_atom_site_fract_z
Si Si1 0.856943 0.528861 0.094292
Si Si2 0.825368 0.735210 0.351254
Si Si3 0.500000 0.500000 0.731678
Si Si4 0.232044 0.829642 0.160519
Si Si5 0.640732 0.018385 0.400529
O O1 0.825944 0.658741 0.207237
O O2 0.795445 0.357748 0.130794
O O3 0.000000 0.500000 0.090141
O O4 0.806691 0.591923 0.957166
O O5 0.837183 0.592617 0.456676
O O6 0.939484 0.857871 0.354472
O O7 0.710407 0.847891 0.379928
O O8 0.605765 0.576647 0.818430
O O9 0.303483 0.858128 0.294461
O O10 0.500000 0.000000 0.379267
#
# Coordination Sequence:
#
# PCOD9312646 Si02
#       5
#     4   4   2   4   4
#     4  12  24  44  70  96 134 177 221 281 333 400
#     4  11  24  43  69  97 133 179 220 268 344 389
#     4  10  22  42  68  96 132 178 214 270 334 410
#     4  11  24  43  66  99 130 174 224 270 334 391
#     4  11  25  43  65  99 135 171 223 276 322 400
#
# _framework density 19.272082000000001
#
# number of rings (size 3 to 8) (size 9 to 14) (size 15 to 20)
#    0.000    0.889    2.222    5.333    6.222    0.000 
#    0.000    0.000    0.000    0.000    0.000    0.000 
#    0.000    0.000    0.000    0.000    0.000    0.000 
#
# Total GULP energy -100681.886413 kJ/mol
# GULP energy per Si atom -5593.438134 kJ/mol
# Density = 1.922822 g / cm^3
# Si number density = 19.272082 Si / 1000 Ang^3
#
#
#
# Elastic Constant Matrix: (Units=GPa)
#
#
# Indices 1 2 3 4 5 6 
#
# 1 117.8800 34.5253 26.8267 0.0000 0.0000 0.0000
# 2 34.5253 58.4596 -15.2904 0.0000 0.0000 0.0000
# 3 26.8267 -15.2904 67.0459 0.0000 0.0000 0.0000
# 4 0.0000 0.0000 0.0000 34.4413 0.0000 0.0000
# 5 0.0000 0.0000 0.0000 0.0000 -0.6936 0.0000
# 6 0.0000 0.0000 0.0000 0.0000 0.0000 29.8154
#
#
#
# Elastic Compliance Matrix: (Units=1/GPa)
#
#
# Indices 1 2 3 4 5 6 
#
# 1 0.012971 -0.009590 -0.007377 0.000000 0.000000 0.000000
# 2 -0.009590 0.025281 0.009603 0.000000 0.000000 0.000000
# 3 -0.007377 0.009603 0.020057 0.000000 0.000000 0.000000
# 4 0.000000 0.000000 0.000000 0.029035 0.000000 0.000000
# 5 0.000000 0.000000 0.000000 0.000000 -1.441664 0.000000
# 6 0.000000 0.000000 0.000000 0.000000 0.000000 0.033540
#
#
# Mechanical properties :
#
#
# Convention : Reuss Voigt Hill
#
# Bulk Modulus (GPa) = 22.94608 37.27874 30.11241
# Shear Modulus (GPa) = -3.87139 25.86755 10.99808
#
# Velocity S-wave (km/s) = -1.41886 3.66762 2.39147
# Velocity P-wave (km/s) = 3.04105 6.10906 4.82538
#
# Compressibility (1/GPa) = 0.04358044
#
# Stress axis : x y z
#
# Youngs Moduli (GPa) = 77.09675 39.55542 49.85834
#
# Poissons Ratio (x) = 0.37933 0.36780
# Poissons Ratio (y) = 0.73934 -0.47877
# Poissons Ratio (z) = 0.56874 -0.37984
#
# Static dielectric constant tensor:
#      x y z
#    x 1.658580 0.000000 0.000000 
#    y 0.000000 1.675320 0.000000 
#    z 0.000000 0.000000 1.638070 
# 
# From -- ./inp_files/2888.got.cif
#   From: 2010.05.17/outbox.cif.g08.bks.cpg/sg18_2_cif.got.tgz:2888.got - 2010.06.03 22:40:56.
