data_PCOD9312913
_publ_section_title
;
Structure prediction by ZEFSAII (Michael W. Deem and Ramdas Pophale) SiO2 
 PCOD9312913
Probable space group: P 21 21 2
;
_chemical_formula_sum "Si O2"
_cell_formula_units_Z 26
_cell_length_a 19.806055
_cell_length_b 8.497846
_cell_length_c 6.626473
_cell_angle_alpha 90.000000
_cell_angle_beta 90.000000
_cell_angle_gamma 90.000000
_cell_volume 1115.293754
_symmetry_space_group_name_H-M "P 21 21 2"
_symmetry_group_IT_number 18
_symmetry_cell_setting 'orthorhombic'
loop_
_space_group_symop_operation_xyz
x,y,z
-x,-y,z
1/2+x,1/2-y,-z
1/2-x,1/2+y,-z
loop_
_atom_site_type_symbol
_atom_site_label
_atom_site_fract_x
_atom_site_fract_y
_atom_site_fract_z
Si Si1 0.995829 0.755231 0.543506
Si Si2 0.000000 0.500000 0.242955
Si Si3 0.717420 0.405304 0.361924
Si Si4 0.898490 0.016700 0.417721
Si Si5 0.193142 0.442273 0.656157
Si Si6 0.321006 0.451485 0.954373
Si Si7 0.590654 0.848746 0.098322
O O1 0.966559 0.619766 0.402460
O O2 0.029630 0.709515 0.754838
O O3 0.941575 0.893387 0.547134
O O4 0.057682 0.827724 0.414631
O O5 0.055424 0.576871 0.097035
O O6 0.669595 0.538480 0.459728
O O7 0.787582 0.441547 0.471486
O O8 0.688172 0.235912 0.422694
O O9 0.707369 0.435539 0.127554
O O10 0.877046 0.969449 0.192536
O O11 0.255829 0.423602 0.813765
O O12 0.131659 0.517961 0.778498
O O13 0.357714 0.293746 0.039579
#
# Coordination Sequence:
#
# PCOD9312913 Si02
#       7
#     4   2   4   4   4   4   4
#     4  11  25  47  69 100 142 184 233 293 351 427
#     4  12  28  44  72 106 144 186 238 296 352 432
#     4  11  24  45  71  98 138 183 233 295 358 423
#     4  10  24  45  70  99 136 183 235 285 352 428
#     4  11  27  43  72 105 139 185 238 302 366 432
#     4  11  23  47  71 101 137 187 241 297 358 429
#     4  12  26  47  72 106 148 187 243 298 370 433
#
# _framework density 23.312244
#
# number of rings (size 3 to 8) (size 9 to 14) (size 15 to 20)
#    0.000    0.923    3.077    2.308    8.615    2.462 
#    0.000    0.000    0.000    0.000    0.000    0.000 
#    0.000    0.000    0.000    0.000    0.000    0.000 
#
# Total GULP energy -145169.185958 kJ/mol
# GULP energy per Si atom -5583.430229 kJ/mol
# Density = 2.325918 g / cm^3
# Si number density = 23.312244 Si / 1000 Ang^3
#
#
#
# Elastic Constant Matrix: (Units=GPa)
#
#
# Indices 1 2 3 4 5 6 
#
# 1 55.7407 12.7777 23.6738 0.0000 0.0000 0.0000
# 2 12.7777 70.1400 14.7268 0.0000 0.0000 0.0000
# 3 23.6738 14.7268 95.4443 0.0000 0.0000 0.0000
# 4 0.0000 0.0000 0.0000 40.7487 0.0000 0.0000
# 5 0.0000 0.0000 0.0000 0.0000 40.3960 0.0000
# 6 0.0000 0.0000 0.0000 0.0000 0.0000 30.1916
#
#
#
# Elastic Compliance Matrix: (Units=1/GPa)
#
#
# Indices 1 2 3 4 5 6 
#
# 1 0.020558 -0.002764 -0.004673 0.000000 0.000000 0.000000
# 2 -0.002764 0.015106 -0.001645 0.000000 0.000000 0.000000
# 3 -0.004673 -0.001645 0.011890 0.000000 0.000000 0.000000
# 4 0.000000 0.000000 0.000000 0.024541 0.000000 0.000000
# 5 0.000000 0.000000 0.000000 0.000000 0.024755 0.000000
# 6 0.000000 0.000000 0.000000 0.000000 0.000000 0.033122
#
#
# Mechanical properties :
#
#
# Convention : Reuss Voigt Hill
#
# Bulk Modulus (GPa) = 34.02452 35.96463 34.99457
# Shear Modulus (GPa) = 31.65893 33.61036 32.63464
#
# Velocity S-wave (km/s) = 3.68916 3.80115 3.74557
# Velocity P-wave (km/s) = 5.72480 5.89287 5.80944
#
# Compressibility (1/GPa) = 0.02939057
#
# Stress axis : x y z
#
# Youngs Moduli (GPa) = 48.64183 66.19808 84.10293
#
# Poissons Ratio (x) = 0.18298 0.39299
# Poissons Ratio (y) = 0.13445 0.13837
# Poissons Ratio (z) = 0.22729 0.10891
#
# Static dielectric constant tensor:
#      x y z
#    x 1.900660 0.000000 0.000000 
#    y 0.000000 1.947580 0.000000 
#    z 0.000000 0.000000 1.894610 
# 
# From -- ./inp_files/2108.got.cif
#   From: 2010.05.17/outbox.cif.g08.bks.cpg/sg18_2_cif.got.tgz:2108.got - 2010.06.03 22:40:56.
