data_PCOD9312137
_publ_section_title
;
Structure prediction by ZEFSAII (Michael W. Deem and Ramdas Pophale) SiO2 
 PCOD9312137
Probable space group: P 21 21 2
;
_chemical_formula_sum "Si O2"
_cell_formula_units_Z 30
_cell_length_a 5.781083
_cell_length_b 27.611853
_cell_length_c 8.728423
_cell_angle_alpha 90.000000
_cell_angle_beta 90.000000
_cell_angle_gamma 90.000000
_cell_volume 1393.286863
_symmetry_space_group_name_H-M "P 21 21 2"
_symmetry_group_IT_number 18
_symmetry_cell_setting 'orthorhombic'
loop_
_space_group_symop_operation_xyz
x,y,z
-x,-y,z
1/2+x,1/2-y,-z
1/2-x,1/2+y,-z
loop_
_atom_site_type_symbol
_atom_site_label
_atom_site_fract_x
_atom_site_fract_y
_atom_site_fract_z
Si Si1 0.168300 0.751565 0.914463
Si Si2 0.000000 0.500000 0.808991
Si Si3 0.334052 0.081809 0.680684
Si Si4 0.398771 0.150029 0.217415
Si Si5 0.360936 0.563837 0.618802
Si Si6 0.269678 0.883013 0.453175
Si Si7 0.445261 0.353373 0.238709
Si Si8 0.101127 0.418983 0.037827
O O1 0.193808 0.702984 0.814616
O O2 0.114202 0.801192 0.825963
O O3 0.421971 0.757062 0.994839
O O4 0.195702 0.527734 0.710189
O O5 0.135590 0.461812 0.917332
O O6 0.165088 0.054570 0.564470
O O7 0.529927 0.095276 0.559207
O O8 0.209663 0.129352 0.750003
O O9 0.441881 0.058271 0.828752
O O10 0.225371 0.115905 0.313531
O O11 0.626664 0.150931 0.323246
O O12 0.468594 0.122110 0.061754
O O13 0.634462 0.572959 0.627723
O O14 0.124380 0.855919 0.582580
O O15 0.309905 0.392559 0.130136
#
# Coordination Sequence:
#
# PCOD9312137 Si02
#       8
#     4   2   4   4   4   4   4   4
#     4  12  26  42  67 103 139 188 241 293 358 426
#     4  10  22  38  66 100 136 184 238 284 352 434
#     4   9  19  39  65  89 128 175 223 282 347 415
#     4  10  21  39  61  92 136 176 232 287 352 412
#     4   9  20  40  64  91 133 182 223 294 345 422
#     4   9  20  40  63  90 128 185 224 280 358 403
#     4  10  21  41  66  92 135 182 232 291 354 424
#     4  10  20  39  63  96 133 176 226 291 347 425
#
# _framework density 21.531818000000001
#
# number of rings (size 3 to 8) (size 9 to 14) (size 15 to 20)
#    0.000    2.133    1.333    0.800    3.733    2.667 
#    7.200   10.667    0.000   12.800    0.000    0.000 
#    0.000    0.000    0.000    0.000    0.000    0.000 
#
# Total GULP energy -167024.576605 kJ/mol
# GULP energy per Si atom -5567.485887 kJ/mol
# Density = 2.148281 g / cm^3
# Si number density = 21.531818 Si / 1000 Ang^3
#
#
#
# Elastic Constant Matrix: (Units=GPa)
#
#
# Indices 1 2 3 4 5 6 
#
# 1 68.5816 23.0220 31.3361 0.0000 0.0000 0.0000
# 2 23.0220 129.2999 45.4439 0.0000 0.0000 0.0000
# 3 31.3361 45.4439 136.5645 0.0000 0.0000 0.0000
# 4 0.0000 0.0000 0.0000 28.4703 0.0000 0.0000
# 5 0.0000 0.0000 0.0000 0.0000 18.9354 0.0000
# 6 0.0000 0.0000 0.0000 0.0000 0.0000 28.7042
#
#
#
# Elastic Compliance Matrix: (Units=1/GPa)
#
#
# Indices 1 2 3 4 5 6 
#
# 1 0.016666 -0.001838 -0.003212 0.000000 0.000000 0.000000
# 2 -0.001838 0.008961 -0.002560 0.000000 0.000000 0.000000
# 3 -0.003212 -0.002560 0.008912 0.000000 0.000000 0.000000
# 4 0.000000 0.000000 0.000000 0.035124 0.000000 0.000000
# 5 0.000000 0.000000 0.000000 0.000000 0.052811 0.000000
# 6 0.000000 0.000000 0.000000 0.000000 0.000000 0.034838
#
#
# Mechanical properties :
#
#
# Convention : Reuss Voigt Hill
#
# Bulk Modulus (GPa) = 51.76809 59.33888 55.55348
# Shear Modulus (GPa) = 27.93714 30.86491 29.40102
#
# Velocity S-wave (km/s) = 3.60597 3.79021 3.69923
# Velocity P-wave (km/s) = 6.43678 6.83906 6.64097
#
# Compressibility (1/GPa) = 0.01931692
#
# Stress axis : x y z
#
# Youngs Moduli (GPa) = 60.00197 111.59396 112.21341
#
# Poissons Ratio (x) = 0.20515 0.36048
# Poissons Ratio (y) = 0.11031 0.28728
# Poissons Ratio (z) = 0.19275 0.28569
#
# Static dielectric constant tensor:
#      x y z
#    x 1.991130 0.000000 0.000000 
#    y 0.000000 1.792210 0.000000 
#    z 0.000000 0.000000 1.813210 
# 
# From -- ./inp_files/2672.got.cif
#   From: 2010.05.17/outbox.cif.g08.bks.cpg/sg18_2_cif.got.tgz:2672.got - 2010.06.03 22:40:56.
