data_PCOD9312462
_publ_section_title
;
Structure prediction by ZEFSAII (Michael W. Deem and Ramdas Pophale) SiO2 
 PCOD9312462
Probable space group: P 21 21 2
;
_chemical_formula_sum "Si O2"
_cell_formula_units_Z 24
_cell_length_a 6.781286
_cell_length_b 18.524440
_cell_length_c 6.890491
_cell_angle_alpha 90.000000
_cell_angle_beta 90.000000
_cell_angle_gamma 90.000000
_cell_volume 865.580211
_symmetry_space_group_name_H-M "P 21 21 2"
_symmetry_group_IT_number 18
_symmetry_cell_setting 'orthorhombic'
loop_
_space_group_symop_operation_xyz
x,y,z
-x,-y,z
1/2+x,1/2-y,-z
1/2-x,1/2+y,-z
loop_
_atom_site_type_symbol
_atom_site_label
_atom_site_fract_x
_atom_site_fract_y
_atom_site_fract_z
Si Si1 0.672933 0.050753 0.981069
Si Si2 0.931299 0.276987 0.187403
Si Si3 0.458075 0.810908 0.221518
Si Si4 0.775697 0.862466 0.545360
Si Si5 0.768479 0.513244 0.618939
Si Si6 0.803639 0.147662 0.646497
O O1 0.571346 0.114696 0.104025
O O2 0.783630 0.009629 0.154221
O O3 0.500000 0.000000 0.896555
O O4 0.807461 0.091615 0.827030
O O5 0.141546 0.292406 0.292509
O O6 0.764436 0.220420 0.261267
O O7 0.877182 0.329824 0.614241
O O8 0.962471 0.262300 0.960392
O O9 0.483908 0.676754 0.415878
O O10 0.669635 0.853002 0.751981
O O11 0.823725 0.944659 0.490014
O O12 0.748527 0.591634 0.524279
O O13 0.000000 0.500000 0.604641
#
# Coordination Sequence:
#
# PCOD9312462 Si02
#       6
#     4   4   4   4   4   4
#     4  10  21  44  83 116 163 221 266 354 430 507
#     4  11  28  50  77 118 164 230 286 350 421 517
#     4  11  26  51  79 115 173 222 288 353 425 514
#     4  12  26  50  80 125 167 226 281 351 435 514
#     4  11  20  45  80 121 164 210 275 350 426 515
#     4  11  25  45  81 122 167 216 280 349 429 516
#
# _framework density 27.727067999999999
#
# number of rings (size 3 to 8) (size 9 to 14) (size 15 to 20)
#    0.000    1.000    5.000    1.000    7.000    2.667 
#    6.000    1.667    0.000    0.000    0.000    0.000 
#    0.000    0.000    0.000    0.000    0.000    0.000 
#
# Total GULP energy -134133.176258 kJ/mol
# GULP energy per Si atom -5588.882344 kJ/mol
# Density = 2.766396 g / cm^3
# Si number density = 27.727068 Si / 1000 Ang^3
#
#
#
# Elastic Constant Matrix: (Units=GPa)
#
#
# Indices 1 2 3 4 5 6 
#
# 1 230.4500 62.4423 79.3654 0.0000 0.0000 0.0000
# 2 62.4423 123.9631 31.3297 0.0000 0.0000 0.0000
# 3 79.3654 31.3297 162.3688 0.0000 0.0000 0.0000
# 4 0.0000 0.0000 0.0000 43.9150 0.0000 0.0000
# 5 0.0000 0.0000 0.0000 0.0000 8.1565 0.0000
# 6 0.0000 0.0000 0.0000 0.0000 0.0000 49.9538
#
#
#
# Elastic Compliance Matrix: (Units=1/GPa)
#
#
# Indices 1 2 3 4 5 6 
#
# 1 0.005786 -0.002313 -0.002382 0.000000 0.000000 0.000000
# 2 -0.002313 0.009405 -0.000684 0.000000 0.000000 0.000000
# 3 -0.002382 -0.000684 0.007455 0.000000 0.000000 0.000000
# 4 0.000000 0.000000 0.000000 0.022771 0.000000 0.000000
# 5 0.000000 0.000000 0.000000 0.000000 0.122602 0.000000
# 6 0.000000 0.000000 0.000000 0.000000 0.000000 0.020018
#
#
# Mechanical properties :
#
#
# Convention : Reuss Voigt Hill
#
# Bulk Modulus (GPa) = 84.11646 95.89520 90.00583
# Shear Modulus (GPa) = 24.65981 43.31470 33.98725
#
# Velocity S-wave (km/s) = 2.98548 3.95673 3.50491
# Velocity P-wave (km/s) = 6.50287 7.45217 6.99364
#
# Compressibility (1/GPa) = 0.01188828
#
# Stress axis : x y z
#
# Youngs Moduli (GPa) = 172.82053 106.32906 134.13405
#
# Poissons Ratio (x) = 0.24590 0.31952
# Poissons Ratio (y) = 0.39967 0.09178
# Poissons Ratio (z) = 0.41168 0.07276
#
# Static dielectric constant tensor:
#      x y z
#    x 2.250780 0.000000 0.000000 
#    y 0.000000 2.236170 0.000000 
#    z 0.000000 0.000000 2.280380 
# 
# From -- ./inp_files/3971.got.cif
#   From: 2010.05.17/outbox.cif.g08.bks.cpg/sg18_2_cif.got.tgz:3971.got - 2010.06.03 22:40:56.
