data_PCOD9312989
_publ_section_title
;
Structure prediction by ZEFSAII (Michael W. Deem and Ramdas Pophale) SiO2 
 PCOD9312989
Probable space group: P 21 21 2
;
_chemical_formula_sum "Si O2"
_cell_formula_units_Z 22
_cell_length_a 15.077938
_cell_length_b 5.213337
_cell_length_c 10.974117
_cell_angle_alpha 90.000000
_cell_angle_beta 90.000000
_cell_angle_gamma 90.000000
_cell_volume 862.635524
_symmetry_space_group_name_H-M "P 21 21 2"
_symmetry_group_IT_number 18
_symmetry_cell_setting 'orthorhombic'
loop_
_space_group_symop_operation_xyz
x,y,z
-x,-y,z
1/2+x,1/2-y,-z
1/2-x,1/2+y,-z
loop_
_atom_site_type_symbol
_atom_site_label
_atom_site_fract_x
_atom_site_fract_y
_atom_site_fract_z
Si Si1 0.752680 0.154479 0.295756
Si Si2 0.898698 0.067589 0.756360
Si Si3 0.426359 0.322850 0.829070
Si Si4 0.353936 0.153273 0.470316
Si Si5 0.500000 0.000000 0.611537
Si Si6 0.310755 0.118974 0.023297
O O1 0.674838 0.336575 0.243096
O O2 0.833322 0.054058 0.212956
O O3 0.799284 0.296770 0.408397
O O4 0.713268 0.919288 0.366454
O O5 0.907224 0.144598 0.612224
O O6 0.859360 0.281985 0.852295
O O7 0.000000 0.000000 0.795011
O O8 0.500000 0.500000 0.888664
O O9 0.470789 0.218334 0.705421
O O10 0.389033 0.112875 0.921830
O O11 0.420622 0.938056 0.519948
O O12 0.240630 0.349022 0.991909
#
# Coordination Sequence:
#
# PCOD9312989 Si02
#       6
#     4   4   4   4   2   4
#     4  11  23  42  69 104 145 202 248 324 395 479
#     4  12  26  46  71 110 151 203 259 330 399 475
#     4  11  26  45  74 109 150 201 267 330 396 482
#     4  11  23  41  70 101 150 194 253 314 402 469
#     4  10  26  42  70 114 144 196 258 328 376 498
#     4  12  28  53  82 111 154 208 267 335 403 472
#
# _framework density 25.503238
#
# number of rings (size 3 to 8) (size 9 to 14) (size 15 to 20)
#    0.000    0.727    3.636    2.727    5.091    2.909 
#    0.000    0.000    0.000    0.000    0.000    0.000 
#    0.000    0.000    0.000    0.000    0.000    0.000 
#
# Total GULP energy -122592.240042 kJ/mol
# GULP energy per Si atom -5572.374547 kJ/mol
# Density = 2.544519 g / cm^3
# Si number density = 25.503238 Si / 1000 Ang^3
#
#
#
# Elastic Constant Matrix: (Units=GPa)
#
#
# Indices 1 2 3 4 5 6 
#
# 1 136.8460 25.4980 57.4334 0.0000 0.0000 0.0000
# 2 25.4980 62.4529 9.1093 0.0000 0.0000 0.0000
# 3 57.4334 9.1093 101.3009 0.0000 0.0000 0.0000
# 4 0.0000 0.0000 0.0000 28.3262 0.0000 0.0000
# 5 0.0000 0.0000 0.0000 0.0000 -267.3975 0.0000
# 6 0.0000 0.0000 0.0000 0.0000 0.0000 34.5518
#
#
#
# Elastic Compliance Matrix: (Units=1/GPa)
#
#
# Indices 1 2 3 4 5 6 
#
# 1 0.010248 -0.003381 -0.005506 0.000000 0.000000 0.000000
# 2 -0.003381 0.017340 0.000358 0.000000 0.000000 0.000000
# 3 -0.005506 0.000358 0.012961 0.000000 0.000000 0.000000
# 4 0.000000 0.000000 0.000000 0.035303 0.000000 0.000000
# 5 0.000000 0.000000 0.000000 0.000000 -0.003740 0.000000
# 6 0.000000 0.000000 0.000000 0.000000 0.000000 0.028942
#
#
# Mechanical properties :
#
#
# Convention : Reuss Voigt Hill
#
# Bulk Modulus (GPa) = 42.57057 53.85347 48.21202
# Shear Modulus (GPa) = 39.69977 -26.99998 6.34989
#
# Velocity S-wave (km/s) = 3.94973 -3.25728 1.57963
# Velocity P-wave (km/s) = 6.12609 2.64871 4.71935
#
# Compressibility (1/GPa) = 0.02349041
#
# Stress axis : x y z
#
# Youngs Moduli (GPa) = 97.57544 57.66915 77.15252
#
# Poissons Ratio (x) = 0.19498 0.42483
# Poissons Ratio (y) = 0.32991 -0.02759
# Poissons Ratio (z) = 0.53729 -0.02062
#
# Static dielectric constant tensor:
#      x y z
#    x 2.133300 0.000000 0.000000 
#    y 0.000000 2.536140 0.000000 
#    z 0.000000 0.000000 2.088820 
# 
# From -- ./inp_files/6016.got.cif
#   From: 2010.05.17/outbox.cif.g08.bks.cpg/sg18_4_cif.got.tgz:6016.got - 2010.06.03 22:40:56.
