data_PCOD9312123
_publ_section_title
;
Structure prediction by ZEFSAII (Michael W. Deem and Ramdas Pophale) SiO2 
 PCOD9312123
Probable space group: P 21 21 2
;
_chemical_formula_sum "Si O2"
_cell_formula_units_Z 24
_cell_length_a 21.533338
_cell_length_b 8.968953
_cell_length_c 5.603143
_cell_angle_alpha 90.000000
_cell_angle_beta 90.000000
_cell_angle_gamma 90.000000
_cell_volume 1082.143392
_symmetry_space_group_name_H-M "P 21 21 2"
_symmetry_group_IT_number 18
_symmetry_cell_setting 'orthorhombic'
loop_
_space_group_symop_operation_xyz
x,y,z
-x,-y,z
1/2+x,1/2-y,-z
1/2-x,1/2+y,-z
loop_
_atom_site_type_symbol
_atom_site_label
_atom_site_fract_x
_atom_site_fract_y
_atom_site_fract_z
Si Si1 0.105957 0.966748 0.587945
Si Si2 0.606987 0.209203 0.528024
Si Si3 0.808835 0.072388 0.968646
Si Si4 0.323625 0.780914 0.011883
Si Si5 0.000000 0.500000 0.338270
Si Si6 0.000000 0.000000 0.957644
Si Si7 0.926708 0.239021 0.203051
O O1 0.081032 0.816355 0.473615
O O2 0.101306 0.112208 0.426796
O O3 0.173925 0.932288 0.687187
O O4 0.060576 0.016848 0.798800
O O5 0.643564 0.160216 0.768745
O O6 0.542334 0.118763 0.518608
O O7 0.641056 0.196490 0.267998
O O8 0.863374 0.177392 0.082190
O O9 0.812733 0.896874 0.027825
O O10 0.742859 0.139434 0.029106
O O11 0.949458 0.406386 0.188526
O O12 0.984463 0.144363 0.106426
#
# Coordination Sequence:
#
# PCOD9312123 Si02
#       7
#     4   4   4   4   2   2   4
#     4  10  21  44  69  95 134 188 244 288 369 429
#     4  11  26  47  70 105 144 193 235 299 363 426
#     4  10  25  44  73 105 137 190 241 303 363 437
#     4  11  26  47  75 104 147 187 244 299 365 437
#     4  12  28  42  70 108 152 190 248 304 360 438
#     4  10  20  38  70  94 132 188 236 294 356 442
#     4  11  23  43  66 101 141 188 241 299 366 428
#
# _framework density 22.178204999999998
#
# number of rings (size 3 to 8) (size 9 to 14) (size 15 to 20)
#    0.000    1.333    1.667    2.500    9.333    2.000 
#    3.000    0.000    0.000    0.000    0.000    0.000 
#    0.000    0.000    0.000    0.000    0.000    0.000 
#
# Total GULP energy -133772.918412 kJ/mol
# GULP energy per Si atom -5573.871601 kJ/mol
# Density = 2.212773 g / cm^3
# Si number density = 22.178205 Si / 1000 Ang^3
#
#
#
# Elastic Constant Matrix: (Units=GPa)
#
#
# Indices 1 2 3 4 5 6 
#
# 1 131.0899 57.5567 56.0558 0.0000 0.0000 0.0000
# 2 57.5567 107.3124 31.8991 0.0000 0.0000 0.0000
# 3 56.0558 31.8991 79.5289 0.0000 0.0000 0.0000
# 4 0.0000 0.0000 0.0000 -0.4284 0.0000 0.0000
# 5 0.0000 0.0000 0.0000 0.0000 32.1928 0.0000
# 6 0.0000 0.0000 0.0000 0.0000 0.0000 44.6265
#
#
#
# Elastic Compliance Matrix: (Units=1/GPa)
#
#
# Indices 1 2 3 4 5 6 
#
# 1 0.012728 -0.004723 -0.007077 0.000000 0.000000 0.000000
# 2 -0.004723 0.012333 -0.001618 0.000000 0.000000 0.000000
# 3 -0.007077 -0.001618 0.018211 0.000000 0.000000 0.000000
# 4 0.000000 0.000000 0.000000 -2.334320 0.000000 0.000000
# 5 0.000000 0.000000 0.000000 0.000000 0.031063 0.000000
# 6 0.000000 0.000000 0.000000 0.000000 0.000000 0.022408
#
#
# Mechanical properties :
#
#
# Convention : Reuss Voigt Hill
#
# Bulk Modulus (GPa) = 60.83995 67.66161 64.25078
# Shear Modulus (GPa) = -2.26730 26.77283 12.25276
#
# Velocity S-wave (km/s) = -1.01219 3.47820 2.35302
# Velocity P-wave (km/s) = 5.11134 6.83410 6.03451
#
# Compressibility (1/GPa) = 0.01643657
#
# Stress axis : x y z
#
# Youngs Moduli (GPa) = 78.56471 81.08562 54.91144
#
# Poissons Ratio (x) = 0.38298 0.38861
# Poissons Ratio (y) = 0.37107 0.08882
# Poissons Ratio (z) = 0.55601 0.13116
#
# Static dielectric constant tensor:
#      x y z
#    x 1.815620 0.000000 0.000000 
#    y 0.000000 1.863070 0.000000 
#    z 0.000000 0.000000 1.908330 
# 
# From -- ./inp_files/2090.got.cif
#   From: 2010.05.17/outbox.cif.g08.bks.cpg/sg18_2_cif.got.tgz:2090.got - 2010.06.03 22:40:56.
