data_PCOD9312974
_publ_section_title
;
Structure prediction by ZEFSAII (Michael W. Deem and Ramdas Pophale) SiO2 
 PCOD9312974
Probable space group: P 21 21 2
;
_chemical_formula_sum "Si O2"
_cell_formula_units_Z 32
_cell_length_a 8.237089
_cell_length_b 13.459057
_cell_length_c 12.263246
_cell_angle_alpha 90.000000
_cell_angle_beta 90.000000
_cell_angle_gamma 90.000000
_cell_volume 1359.545764
_symmetry_space_group_name_H-M "P 21 21 2"
_symmetry_group_IT_number 18
_symmetry_cell_setting 'orthorhombic'
loop_
_space_group_symop_operation_xyz
x,y,z
-x,-y,z
1/2+x,1/2-y,-z
1/2-x,1/2+y,-z
loop_
_atom_site_type_symbol
_atom_site_label
_atom_site_fract_x
_atom_site_fract_y
_atom_site_fract_z
Si Si1 0.919042 0.725988 0.364333
Si Si2 0.573295 0.236818 0.169117
Si Si3 0.811505 0.005035 0.414250
Si Si4 0.687637 0.038085 0.064961
Si Si5 0.280968 0.763083 0.402179
Si Si6 0.749189 0.373042 0.774936
Si Si7 0.834543 0.952510 0.851758
Si Si8 0.318027 0.988995 0.639724
O O1 0.855591 0.764356 0.481354
O O2 0.893484 0.802247 0.265870
O O3 0.812732 0.629130 0.338017
O O4 0.108562 0.711062 0.383857
O O5 0.678795 0.147930 0.115695
O O6 0.610733 0.255400 0.296668
O O7 0.389834 0.194973 0.172546
O O8 0.619823 0.340707 0.112462
O O9 0.750894 0.118022 0.403734
O O10 0.799003 0.981045 0.542241
O O11 0.706076 0.932361 0.337204
O O12 0.000000 0.000000 0.380142
O O13 0.500000 0.000000 0.061618
O O14 0.783842 0.962506 0.143177
O O15 0.765870 0.021509 0.947512
O O16 0.708866 0.955629 0.752690
O O17 0.000000 0.000000 0.807571
O O18 0.500000 0.000000 0.595666
#
# Coordination Sequence:
#
# PCOD9312974 Si02
#       8
#     4   4   4   4   4   4   4   4
#     4  11  24  37  64  97 139 185 231 289 350 431
#     4  11  25  44  71 101 138 181 233 292 357 434
#     4  11  23  39  66 101 143 180 230 296 347 428
#     4  10  25  47  73 102 133 179 237 300 362 428
#     4  11  23  39  62  99 138 182 234 281 355 424
#     4  11  23  43  70 103 139 179 228 299 355 429
#     4  12  27  47  71  99 142 185 239 301 359 432
#     4  11  26  42  64  98 139 193 236 289 358 427
#
# _framework density 23.537272999999999
#
# number of rings (size 3 to 8) (size 9 to 14) (size 15 to 20)
#    0.000    1.000    2.500    3.000    7.000    6.500 
#    0.000    0.000    0.000    0.000    0.000    0.000 
#    0.000    0.000    0.000    0.000    0.000    0.000 
#
# Total GULP energy -178968.778641 kJ/mol
# GULP energy per Si atom -5592.774333 kJ/mol
# Density = 2.348370 g / cm^3
# Si number density = 23.537273 Si / 1000 Ang^3
#
#
#
# Elastic Constant Matrix: (Units=GPa)
#
#
# Indices 1 2 3 4 5 6 
#
# 1 50.2153 0.7927 2.3984 0.0000 0.0000 0.0000
# 2 0.7927 96.9685 5.3093 0.0000 0.0000 0.0000
# 3 2.3984 5.3093 78.6378 0.0000 0.0000 0.0000
# 4 0.0000 0.0000 0.0000 26.3204 0.0000 0.0000
# 5 0.0000 0.0000 0.0000 0.0000 29.3241 0.0000
# 6 0.0000 0.0000 0.0000 0.0000 0.0000 21.9621
#
#
#
# Elastic Compliance Matrix: (Units=1/GPa)
#
#
# Indices 1 2 3 4 5 6 
#
# 1 0.019945 -0.000130 -0.000600 0.000000 0.000000 0.000000
# 2 -0.000130 0.010352 -0.000695 0.000000 0.000000 0.000000
# 3 -0.000600 -0.000695 0.012782 0.000000 0.000000 0.000000
# 4 0.000000 0.000000 0.000000 0.037993 0.000000 0.000000
# 5 0.000000 0.000000 0.000000 0.000000 0.034102 0.000000
# 6 0.000000 0.000000 0.000000 0.000000 0.000000 0.045533
#
#
# Mechanical properties :
#
#
# Convention : Reuss Voigt Hill
#
# Bulk Modulus (GPa) = 24.85762 26.98024 25.91893
# Shear Modulus (GPa) = 28.25413 30.00942 29.13177
#
# Velocity S-wave (km/s) = 3.46844 3.57455 3.52189
# Velocity P-wave (km/s) = 5.15984 5.34081 5.25110
#
# Compressibility (1/GPa) = 0.04022912
#
# Stress axis : x y z
#
# Youngs Moduli (GPa) = 50.13804 96.60208 78.23662
#
# Poissons Ratio (x) = 0.01258 0.04690
# Poissons Ratio (y) = 0.00653 0.05437
# Poissons Ratio (z) = 0.03006 0.06713
#
# Static dielectric constant tensor:
#      x y z
#    x 1.849080 0.000000 0.000000 
#    y 0.000000 1.992730 0.000000 
#    z 0.000000 0.000000 1.841620 
# 
# From -- ./inp_files/5681.got.cif
#   From: 2010.05.17/outbox.cif.g08.bks.cpg/sg18_3_cif.got.tgz:5681.got - 2010.06.03 22:40:56.
