data_PCOD9312952
_publ_section_title
;
Structure prediction by ZEFSAII (Michael W. Deem and Ramdas Pophale) SiO2 
 PCOD9312952
Probable space group: P 21 21 2
;
_chemical_formula_sum "Si O2"
_cell_formula_units_Z 16
_cell_length_a 9.302385
_cell_length_b 11.719821
_cell_length_c 4.950281
_cell_angle_alpha 90.000000
_cell_angle_beta 90.000000
_cell_angle_gamma 90.000000
_cell_volume 539.690956
_symmetry_space_group_name_H-M "P 21 21 2"
_symmetry_group_IT_number 18
_symmetry_cell_setting 'orthorhombic'
loop_
_space_group_symop_operation_xyz
x,y,z
-x,-y,z
1/2+x,1/2-y,-z
1/2-x,1/2+y,-z
loop_
_atom_site_type_symbol
_atom_site_label
_atom_site_fract_x
_atom_site_fract_y
_atom_site_fract_z
Si Si1 0.887055 0.167727 0.984903
Si Si2 0.572444 0.384239 0.648825
Si Si3 0.338388 0.024735 0.037104
Si Si4 0.176181 0.688934 0.482394
O O1 0.853336 0.397532 0.230312
O O2 0.884436 0.267194 0.774652
O O3 0.044759 0.115473 0.021318
O O4 0.750982 0.088090 0.951643
O O5 0.500000 0.500000 0.532697
O O6 0.651420 0.281811 0.488850
O O7 0.398609 0.302297 0.689152
O O8 0.249030 0.067580 0.305102
O O9 0.500000 0.000000 0.131345
#
# Coordination Sequence:
#
# PCOD9312952 Si02
#       4
#     4   4   4   4
#     4  11  23  44  64  92 127 167 210 255 315 375
#     4   8  20  43  62  92 127 170 207 263 313 372
#     4   9  22  41  64  97 128 161 211 261 308 373
#     4  10  25  38  69  90 126 164 213 254 313 368
#
# _framework density 29.646597
#
# number of rings (size 3 to 8) (size 9 to 14) (size 15 to 20)
#    1.500    1.000    0.000    0.000    7.000    2.000 
#    0.000    7.500    0.000    0.000    0.000    0.000 
#    0.000    0.000    0.000    0.000    0.000    0.000 
#
# Total GULP energy -89106.219421 kJ/mol
# GULP energy per Si atom -5569.138714 kJ/mol
# Density = 2.957912 g / cm^3
# Si number density = 29.646597 Si / 1000 Ang^3
#
#
#
# Elastic Constant Matrix: (Units=GPa)
#
#
# Indices 1 2 3 4 5 6 
#
# 1 213.0131 47.7221 68.3283 0.0000 0.0000 0.0000
# 2 47.7221 88.4377 61.6295 0.0000 0.0000 0.0000
# 3 68.3283 61.6295 224.0226 0.0000 0.0000 0.0000
# 4 0.0000 0.0000 0.0000 40.1584 0.0000 0.0000
# 5 0.0000 0.0000 0.0000 0.0000 59.5204 0.0000
# 6 0.0000 0.0000 0.0000 0.0000 0.0000 58.7465
#
#
#
# Elastic Compliance Matrix: (Units=1/GPa)
#
#
# Indices 1 2 3 4 5 6 
#
# 1 0.005541 -0.002242 -0.001073 0.000000 0.000000 0.000000
# 2 -0.002242 0.014897 -0.003414 0.000000 0.000000 0.000000
# 3 -0.001073 -0.003414 0.005730 0.000000 0.000000 0.000000
# 4 0.000000 0.000000 0.000000 0.024901 0.000000 0.000000
# 5 0.000000 0.000000 0.000000 0.000000 0.016801 0.000000
# 6 0.000000 0.000000 0.000000 0.000000 0.000000 0.017022
#
#
# Mechanical properties :
#
#
# Convention : Reuss Voigt Hill
#
# Bulk Modulus (GPa) = 78.68516 97.87035 88.27775
# Shear Modulus (GPa) = 48.73847 54.87129 51.80488
#
# Velocity S-wave (km/s) = 4.05900 4.30681 4.18474
# Velocity P-wave (km/s) = 6.96893 7.60365 7.29320
#
# Compressibility (1/GPa) = 0.01270888
#
# Stress axis : x y z
#
# Youngs Moduli (GPa) = 180.46858 67.12958 174.50619
#
# Poissons Ratio (x) = 0.15051 0.18729
# Poissons Ratio (y) = 0.40464 0.59581
# Poissons Ratio (z) = 0.19369 0.22920
#
# Static dielectric constant tensor:
#      x y z
#    x 2.732530 0.000000 0.000000 
#    y 0.000000 2.695700 0.000000 
#    z 0.000000 0.000000 2.306290 
# 
# From -- ./inp_files/854.got.cif
#   From: 2010.05.17/outbox.cif.g08.bks.cpg/sg18_1_cif.got.tgz:854.got - 2010.06.03 22:40:56.
