data_PCOD9312157
_publ_section_title
;
Structure prediction by ZEFSAII (Michael W. Deem and Ramdas Pophale) SiO2 
 PCOD9312157
Probable space group: P 21 21 2
;
_chemical_formula_sum "Si O2"
_cell_formula_units_Z 24
_cell_length_a 4.965097
_cell_length_b 13.855833
_cell_length_c 17.097068
_cell_angle_alpha 90.000000
_cell_angle_beta 90.000000
_cell_angle_gamma 90.000000
_cell_volume 1176.202280
_symmetry_space_group_name_H-M "P 21 21 2"
_symmetry_group_IT_number 18
_symmetry_cell_setting 'orthorhombic'
loop_
_space_group_symop_operation_xyz
x,y,z
-x,-y,z
1/2+x,1/2-y,-z
1/2-x,1/2+y,-z
loop_
_atom_site_type_symbol
_atom_site_label
_atom_site_fract_x
_atom_site_fract_y
_atom_site_fract_z
Si Si1 0.843542 0.294499 0.540617
Si Si2 0.762293 0.938976 0.901594
Si Si3 0.000000 0.000000 0.637719
Si Si4 0.000363 0.210136 0.706943
Si Si5 0.000000 0.500000 0.475405
Si Si6 0.977495 0.258882 0.192736
Si Si7 0.018713 0.807569 0.027370
O O1 0.542335 0.269330 0.513829
O O2 0.896071 0.261635 0.628748
O O3 0.916706 0.405901 0.524547
O O4 0.656099 0.852669 0.847843
O O5 0.500000 0.000000 0.920751
O O6 0.901963 0.895396 0.978433
O O7 0.000000 0.000000 0.861690
O O8 0.943613 0.902097 0.685789
O O9 0.252169 0.976757 0.582083
O O10 0.769138 0.218685 0.772595
O O11 0.269797 0.261799 0.737855
O O12 0.987532 0.184190 0.120770
O O13 0.814208 0.720529 0.003518
#
# Coordination Sequence:
#
# PCOD9312157 Si02
#       7
#     4   4   2   4   2   4   4
#     4  12  23  43  66  92 124 167 216 253 305 375
#     4  11  22  37  61  93 118 154 205 255 298 361
#     4  12  24  38  62  98 126 158 198 258 328 372
#     4  12  24  39  61  94 131 159 200 256 319 376
#     4  12  22  44  68  90 118 168 220 260 296 374
#     4  11  24  39  59  89 127 161 192 249 318 373
#     4  10  20  40  60  81 116 164 202 229 289 371
#
# _framework density 20.404655000000002
#
# number of rings (size 3 to 8) (size 9 to 14) (size 15 to 20)
#    0.000    0.667    3.333    7.000    3.500    0.000 
#    0.000    0.000    5.500    0.000    0.000    0.000 
#    0.000    0.000    0.000    0.000    0.000    0.000 
#
# Total GULP energy -134240.098936 kJ/mol
# GULP energy per Si atom -5593.337456 kJ/mol
# Density = 2.035821 g / cm^3
# Si number density = 20.404655 Si / 1000 Ang^3
#
#
#
# Elastic Constant Matrix: (Units=GPa)
#
#
# Indices 1 2 3 4 5 6 
#
# 1 64.4106 -11.2225 -14.8083 0.0000 0.0000 0.0000
# 2 -11.2225 52.2711 9.7938 0.0000 0.0000 0.0000
# 3 -14.8083 9.7938 80.9043 0.0000 0.0000 0.0000
# 4 0.0000 0.0000 0.0000 4.3201 0.0000 0.0000
# 5 0.0000 0.0000 0.0000 0.0000 39.5071 0.0000
# 6 0.0000 0.0000 0.0000 0.0000 0.0000 27.3100
#
#
#
# Elastic Compliance Matrix: (Units=1/GPa)
#
#
# Indices 1 2 3 4 5 6 
#
# 1 0.016678 0.003079 0.002680 0.000000 0.000000 0.000000
# 2 0.003079 0.020143 -0.001875 0.000000 0.000000 0.000000
# 3 0.002680 -0.001875 0.013078 0.000000 0.000000 0.000000
# 4 0.000000 0.000000 0.000000 0.231477 0.000000 0.000000
# 5 0.000000 0.000000 0.000000 0.000000 0.025312 0.000000
# 6 0.000000 0.000000 0.000000 0.000000 0.000000 0.036617
#
#
# Mechanical properties :
#
#
# Convention : Reuss Voigt Hill
#
# Bulk Modulus (GPa) = 17.34118 18.34578 17.84348
# Shear Modulus (GPa) = 14.09406 28.48232 21.28819
#
# Velocity S-wave (km/s) = 2.63102 3.74019 3.23352
# Velocity P-wave (km/s) = 4.21269 5.25952 4.76494
#
# Compressibility (1/GPa) = 0.05766620
#
# Stress axis : x y z
#
# Youngs Moduli (GPa) = 59.95952 49.64434 76.46556
#
# Poissons Ratio (x) = -0.15283 -0.20493
# Poissons Ratio (y) = -0.18459 0.14337
# Poissons Ratio (z) = -0.16069 0.09308
#
# Static dielectric constant tensor:
#      x y z
#    x 1.742430 0.000000 0.000000 
#    y 0.000000 1.776240 0.000000 
#    z 0.000000 0.000000 1.736950 
# 
# From -- ./inp_files/6505.got.cif
#   From: 2010.05.17/outbox.cif.g08.bks.cpg/sg18_4_cif.got.tgz:6505.got - 2010.06.03 22:40:56.
