data_PCOD9312136
_publ_section_title
;
Structure prediction by ZEFSAII (Michael W. Deem and Ramdas Pophale) SiO2 
 PCOD9312136
Probable space group: P 21 21 2
;
_chemical_formula_sum "Si O2"
_cell_formula_units_Z 24
_cell_length_a 14.196003
_cell_length_b 5.054491
_cell_length_c 13.777433
_cell_angle_alpha 90.000000
_cell_angle_beta 90.000000
_cell_angle_gamma 90.000000
_cell_volume 988.579995
_symmetry_space_group_name_H-M "P 21 21 2"
_symmetry_group_IT_number 18
_symmetry_cell_setting 'orthorhombic'
loop_
_space_group_symop_operation_xyz
x,y,z
-x,-y,z
1/2+x,1/2-y,-z
1/2-x,1/2+y,-z
loop_
_atom_site_type_symbol
_atom_site_label
_atom_site_fract_x
_atom_site_fract_y
_atom_site_fract_z
Si Si1 0.268969 0.993681 0.779168
Si Si2 0.600054 0.464438 0.518825
Si Si3 0.207152 0.383285 0.623397
Si Si4 0.806111 0.901749 0.974603
Si Si5 0.564112 0.744919 0.317326
Si Si6 0.893333 0.999472 0.166965
O O1 0.223066 0.112722 0.682602
O O2 0.189289 0.002786 0.863895
O O3 0.341986 0.226733 0.810261
O O4 0.333155 0.735363 0.784944
O O5 0.500000 0.500000 0.573885
O O6 0.692224 0.541229 0.579125
O O7 0.634607 0.196165 0.463592
O O8 0.579597 0.659921 0.429071
O O9 0.165295 0.604598 0.696812
O O10 0.776115 0.595374 0.982471
O O11 0.888551 0.949472 0.050647
O O12 0.500000 0.500000 0.276809
O O13 0.500000 0.000000 0.302544
O O14 0.000000 0.000000 0.199106
#
# Coordination Sequence:
#
# PCOD9312136 Si02
#       6
#     4   4   4   4   4   4
#     4  10  23  37  63  96 131 171 224 276 337 417
#     4  11  24  42  66  92 126 176 229 279 342 421
#     4  12  24  41  69  97 135 180 229 291 361 405
#     4   8  16  35  59  86 120 163 204 252 320 401
#     4  11  22  41  66  90 122 170 227 278 344 414
#     4  10  20  39  63  93 132 171 213 272 343 412
#
# _framework density 24.277249000000001
#
# number of rings (size 3 to 8) (size 9 to 14) (size 15 to 20)
#    0.000    1.667    5.000    0.500    2.333    0.667 
#    0.000    4.167    0.000    0.000    0.000    0.000 
#    0.000    0.000    0.000    0.000    0.000    0.000 
#
# Total GULP energy -133788.474953 kJ/mol
# GULP energy per Si atom -5574.519790 kJ/mol
# Density = 2.422199 g / cm^3
# Si number density = 24.277249 Si / 1000 Ang^3
#
#
#
# Elastic Constant Matrix: (Units=GPa)
#
#
# Indices 1 2 3 4 5 6 
#
# 1 200.6848 61.7076 42.1893 0.0000 0.0000 0.0000
# 2 61.7076 156.6215 8.8399 0.0000 0.0000 0.0000
# 3 42.1893 8.8399 65.3590 0.0000 0.0000 0.0000
# 4 0.0000 0.0000 0.0000 22.9957 0.0000 0.0000
# 5 0.0000 0.0000 0.0000 0.0000 21.0038 0.0000
# 6 0.0000 0.0000 0.0000 0.0000 0.0000 21.6660
#
#
#
# Elastic Compliance Matrix: (Units=1/GPa)
#
#
# Indices 1 2 3 4 5 6 
#
# 1 0.006524 -0.002351 -0.003893 0.000000 0.000000 0.000000
# 2 -0.002351 0.007281 0.000533 0.000000 0.000000 0.000000
# 3 -0.003893 0.000533 0.017741 0.000000 0.000000 0.000000
# 4 0.000000 0.000000 0.000000 0.043486 0.000000 0.000000
# 5 0.000000 0.000000 0.000000 0.000000 0.047610 0.000000
# 6 0.000000 0.000000 0.000000 0.000000 0.000000 0.046155
#
#
# Mechanical properties :
#
#
# Convention : Reuss Voigt Hill
#
# Bulk Modulus (GPa) = 49.69351 72.01545 60.85448
# Shear Modulus (GPa) = 26.74805 33.79501 30.27153
#
# Velocity S-wave (km/s) = 3.32290 3.73506 3.53499
# Velocity P-wave (km/s) = 5.93598 6.95191 6.46393
#
# Compressibility (1/GPa) = 0.02012335
#
# Stress axis : x y z
#
# Youngs Moduli (GPa) = 153.27365 137.34498 56.36564
#
# Poissons Ratio (x) = 0.32287 0.21946
# Poissons Ratio (y) = 0.36031 -0.03002
# Poissons Ratio (z) = 0.59677 -0.07316
#
# Static dielectric constant tensor:
#      x y z
#    x 2.169550 0.000000 0.000000 
#    y 0.000000 2.101540 0.000000 
#    z 0.000000 0.000000 2.013800 
# 
# From -- ./inp_files/6967.got.cif
#   From: 2010.05.17/outbox.cif.g08.bks.cpg/sg18_4_cif.got.tgz:6967.got - 2010.06.03 22:40:56.
