data_PCOD9312635
_publ_section_title
;
Structure prediction by ZEFSAII (Michael W. Deem and Ramdas Pophale) SiO2 
 PCOD9312635
Probable space group: P 21 21 2
;
_chemical_formula_sum "Si O2"
_cell_formula_units_Z 28
_cell_length_a 12.122035
_cell_length_b 4.913006
_cell_length_c 18.188350
_cell_angle_alpha 90.000000
_cell_angle_beta 90.000000
_cell_angle_gamma 90.000000
_cell_volume 1083.218655
_symmetry_space_group_name_H-M "P 21 21 2"
_symmetry_group_IT_number 18
_symmetry_cell_setting 'orthorhombic'
loop_
_space_group_symop_operation_xyz
x,y,z
-x,-y,z
1/2+x,1/2-y,-z
1/2-x,1/2+y,-z
loop_
_atom_site_type_symbol
_atom_site_label
_atom_site_fract_x
_atom_site_fract_y
_atom_site_fract_z
Si Si1 0.748655 0.389550 0.261787
Si Si2 0.500000 0.000000 0.425439
Si Si3 0.885867 0.878632 0.221281
Si Si4 0.385698 0.608247 0.541851
Si Si5 0.675304 0.811582 0.017572
Si Si6 0.573816 0.748341 0.169293
Si Si7 0.500000 0.500000 0.922824
Si Si8 0.812439 0.142149 0.601141
O O1 0.786644 0.095322 0.234311
O O2 0.655281 0.570534 0.220893
O O3 0.707283 0.388004 0.346152
O O4 0.854416 0.583993 0.250763
O O5 0.576359 0.168908 0.481611
O O6 0.423176 0.198424 0.378680
O O7 0.914404 0.861948 0.134445
O O8 0.000000 0.000000 0.253133
O O9 0.500000 0.500000 0.572868
O O10 0.301413 0.695695 0.603252
O O11 0.328310 0.399178 0.486176
O O12 0.637830 0.874713 0.100224
O O13 0.762185 0.564674 0.017469
O O14 0.569854 0.708697 0.971423
O O15 0.500000 0.500000 0.138358
O O16 0.500000 0.000000 0.200883
#
# Coordination Sequence:
#
# PCOD9312635 Si02
#       8
#     4   2   4   4   4   4   2   4
#     4  12  26  46  73 104 147 195 239 297 365 444
#     4  10  22  42  66  98 136 178 228 294 358 426
#     4  10  25  47  69 102 141 190 243 295 357 439
#     4  10  22  43  67 104 136 177 235 304 352 432
#     4  12  25  42  72 106 137 186 244 301 370 427
#     4  12  26  46  68 105 148 184 241 303 361 440
#     4  10  24  46  76  98 146 188 240 300 366 430
#     4  11  24  41  75  99 144 184 243 293 375 430
#
# _framework density 25.848891999999999
#
# number of rings (size 3 to 8) (size 9 to 14) (size 15 to 20)
#    0.429    0.571    2.143    3.857    3.000    3.429 
#    2.571    0.000    0.000    0.000    0.000    0.000 
#    0.000    0.000    0.000    0.000    0.000    0.000 
#
# Total GULP energy -156701.488162 kJ/mol
# GULP energy per Si atom -5596.481720 kJ/mol
# Density = 2.579006 g / cm^3
# Si number density = 25.848892 Si / 1000 Ang^3
#
#
#
# Elastic Constant Matrix: (Units=GPa)
#
#
# Indices 1 2 3 4 5 6 
#
# 1 118.5344 36.7907 31.5565 0.0000 0.0000 0.0000
# 2 36.7907 109.0842 5.2023 0.0000 0.0000 0.0000
# 3 31.5565 5.2023 96.6702 0.0000 0.0000 0.0000
# 4 0.0000 0.0000 0.0000 29.2495 0.0000 0.0000
# 5 0.0000 0.0000 0.0000 0.0000 6.5802 0.0000
# 6 0.0000 0.0000 0.0000 0.0000 0.0000 46.1670
#
#
#
# Elastic Compliance Matrix: (Units=1/GPa)
#
#
# Indices 1 2 3 4 5 6 
#
# 1 0.010318 -0.003328 -0.003189 0.000000 0.000000 0.000000
# 2 -0.003328 0.010264 0.000534 0.000000 0.000000 0.000000
# 3 -0.003189 0.000534 0.011357 0.000000 0.000000 0.000000
# 4 0.000000 0.000000 0.000000 0.034189 0.000000 0.000000
# 5 0.000000 0.000000 0.000000 0.000000 0.151971 0.000000
# 6 0.000000 0.000000 0.000000 0.000000 0.000000 0.021661
#
#
# Mechanical properties :
#
#
# Convention : Reuss Voigt Hill
#
# Bulk Modulus (GPa) = 50.06754 52.37642 51.22198
# Shear Modulus (GPa) = 19.35111 33.11529 26.23320
#
# Velocity S-wave (km/s) = 2.73907 3.58314 3.18915
# Velocity P-wave (km/s) = 5.42353 6.11760 5.78099
#
# Compressibility (1/GPa) = 0.01997302
#
# Stress axis : x y z
#
# Youngs Moduli (GPa) = 96.91491 97.42615 88.05327
#
# Poissons Ratio (x) = 0.32423 0.28082
# Poissons Ratio (y) = 0.32253 -0.04702
# Poissons Ratio (z) = 0.30908 -0.05203
#
# Static dielectric constant tensor:
#      x y z
#    x 2.119960 0.000000 0.000000 
#    y 0.000000 2.111260 0.000000 
#    z 0.000000 0.000000 1.965080 
# 
# From -- ./inp_files/7558.got.cif
#   From: 2010.05.17/outbox.cif.g08.bks.cpg/sg18_4_cif.got.tgz:7558.got - 2010.06.03 22:40:56.
