data_PCOD9312863
_publ_section_title
;
Structure prediction by ZEFSAII (Michael W. Deem and Ramdas Pophale) SiO2 
 PCOD9312863
Probable space group: P 21 21 2
;
_chemical_formula_sum "Si O2"
_cell_formula_units_Z 20
_cell_length_a 8.745341
_cell_length_b 18.195767
_cell_length_c 5.232800
_cell_angle_alpha 90.000000
_cell_angle_beta 90.000000
_cell_angle_gamma 90.000000
_cell_volume 832.685978
_symmetry_space_group_name_H-M "P 21 21 2"
_symmetry_group_IT_number 18
_symmetry_cell_setting 'orthorhombic'
loop_
_space_group_symop_operation_xyz
x,y,z
-x,-y,z
1/2+x,1/2-y,-z
1/2-x,1/2+y,-z
loop_
_atom_site_type_symbol
_atom_site_label
_atom_site_fract_x
_atom_site_fract_y
_atom_site_fract_z
Si Si1 0.409352 0.888711 0.220465
Si Si2 0.287865 0.824757 0.731175
Si Si3 0.478972 0.635148 0.058496
Si Si4 0.262126 0.041938 0.190943
Si Si5 0.853160 0.825127 0.446441
O O1 0.392566 0.854784 0.501658
O O2 0.570932 0.924042 0.141005
O O3 0.287202 0.956162 0.222681
O O4 0.373298 0.831879 0.998360
O O5 0.248760 0.740728 0.658744
O O6 0.136881 0.872545 0.790394
O O7 0.390941 0.686321 0.260897
O O8 0.371038 0.564924 0.005317
O O9 0.487153 0.670732 0.773115
O O10 0.213480 0.092471 0.430862
#
# Coordination Sequence:
#
# PCOD9312863 Si02
#       5
#     4   4   4   4   4
#     4  11  26  44  70 101 135 181 228 284 337 415
#     4  12  26  42  69 103 136 175 234 285 341 403
#     4  10  24  44  66  99 132 180 220 278 347 393
#     4   9  26  45  70  94 140 180 227 273 348 406
#     4  10  24  40  70  92 137 174 223 275 339 408
#
# _framework density 24.018657999999999
#
# number of rings (size 3 to 8) (size 9 to 14) (size 15 to 20)
#    1.200    0.400    0.000    2.400   11.200    2.400 
#    0.000    0.000    0.000    0.000    0.000    0.000 
#    0.000    0.000    0.000    0.000    0.000    0.000 
#
# Total GULP energy -111356.968695 kJ/mol
# GULP energy per Si atom -5567.848435 kJ/mol
# Density = 2.396399 g / cm^3
# Si number density = 24.018658 Si / 1000 Ang^3
#
#
#
# Elastic Constant Matrix: (Units=GPa)
#
#
# Indices 1 2 3 4 5 6 
#
# 1 43.2590 -7.3440 6.8698 0.0000 0.0000 0.0000
# 2 -7.3440 82.2858 38.0862 0.0000 0.0000 0.0000
# 3 6.8698 38.0862 122.2639 0.0000 0.0000 0.0000
# 4 0.0000 0.0000 0.0000 20.3324 0.0000 0.0000
# 5 0.0000 0.0000 0.0000 0.0000 11.6470 0.0000
# 6 0.0000 0.0000 0.0000 0.0000 0.0000 22.5475
#
#
#
# Elastic Compliance Matrix: (Units=1/GPa)
#
#
# Indices 1 2 3 4 5 6 
#
# 1 0.024041 0.003238 -0.002359 0.000000 0.000000 0.000000
# 2 0.003238 0.014636 -0.004741 0.000000 0.000000 0.000000
# 3 -0.002359 -0.004741 0.009789 0.000000 0.000000 0.000000
# 4 0.000000 0.000000 0.000000 0.049183 0.000000 0.000000
# 5 0.000000 0.000000 0.000000 0.000000 0.085859 0.000000
# 6 0.000000 0.000000 0.000000 0.000000 0.000000 0.044351
#
#
# Mechanical properties :
#
#
# Convention : Reuss Voigt Hill
#
# Bulk Modulus (GPa) = 24.54599 35.89253 30.21926
# Shear Modulus (GPa) = 20.06709 24.91848 22.49279
#
# Velocity S-wave (km/s) = 2.89360 3.22446 3.06350
# Velocity P-wave (km/s) = 4.62662 5.37019 5.01221
#
# Compressibility (1/GPa) = 0.04073986
#
# Stress axis : x y z
#
# Youngs Moduli (GPa) = 41.59570 68.32370 102.16043
#
# Poissons Ratio (x) = -0.22121 0.24104
# Poissons Ratio (y) = -0.13467 0.48437
# Poissons Ratio (z) = 0.09814 0.32394
#
# Static dielectric constant tensor:
#      x y z
#    x 2.056720 0.000000 0.000000 
#    y 0.000000 1.909820 0.000000 
#    z 0.000000 0.000000 1.853790 
# 
# From -- ./inp_files/515.got.cif
#   From: 2010.05.17/outbox.cif.g08.bks.cpg/sg18_1_cif.got.tgz:515.got - 2010.06.03 22:40:56.
