data_PCOD9312837
_publ_section_title
;
Structure prediction by ZEFSAII (Michael W. Deem and Ramdas Pophale) SiO2 
 PCOD9312837
Probable space group: P 21 21 2
;
_chemical_formula_sum "Si O2"
_cell_formula_units_Z 14
_cell_length_a 8.659692
_cell_length_b 13.021868
_cell_length_c 5.346004
_cell_angle_alpha 90.000000
_cell_angle_beta 90.000000
_cell_angle_gamma 90.000000
_cell_volume 602.844098
_symmetry_space_group_name_H-M "P 21 21 2"
_symmetry_group_IT_number 18
_symmetry_cell_setting 'orthorhombic'
loop_
_space_group_symop_operation_xyz
x,y,z
-x,-y,z
1/2+x,1/2-y,-z
1/2-x,1/2+y,-z
loop_
_atom_site_type_symbol
_atom_site_label
_atom_site_fract_x
_atom_site_fract_y
_atom_site_fract_z
Si Si1 0.957900 0.860787 0.407620
Si Si2 0.000000 0.500000 0.915696
Si Si3 0.792150 0.884721 0.898558
Si Si4 0.808228 0.675478 0.649209
O O1 0.876612 0.914784 0.642772
O O2 0.898819 0.742732 0.443098
O O3 0.140776 0.861753 0.432417
O O4 0.894107 0.901180 0.145477
O O5 0.131331 0.557588 0.072716
O O6 0.085691 0.414838 0.749190
O O7 0.773532 0.761492 0.863496
#
# Coordination Sequence:
#
# PCOD9312837 Si02
#       4
#     4   2   4   4
#     4  10  23  46  72 104 152 190 237 320 365 427
#     4  12  24  50  80 112 142 210 250 298 378 450
#     4  10  25  46  74 110 148 194 247 308 367 439
#     4  10  24  45  80 107 153 192 253 303 378 435
#
# _framework density 23.22325
#
# number of rings (size 3 to 8) (size 9 to 14) (size 15 to 20)
#    1.714    0.000    0.000    3.429    4.000    2.286 
#    5.143    2.857    6.286    0.000    0.000    0.000 
#    0.000    0.000    0.000    0.000    0.000    0.000 
#
# Total GULP energy -78301.119572 kJ/mol
# GULP energy per Si atom -5592.937112 kJ/mol
# Density = 2.317039 g / cm^3
# Si number density = 23.223250 Si / 1000 Ang^3
#
#
#
# Elastic Constant Matrix: (Units=GPa)
#
#
# Indices 1 2 3 4 5 6 
#
# 1 171.0785 76.2444 49.2129 0.0000 0.0000 0.0000
# 2 76.2444 136.7925 42.3878 0.0000 0.0000 0.0000
# 3 49.2129 42.3878 128.1966 0.0000 0.0000 0.0000
# 4 0.0000 0.0000 0.0000 18.0591 0.0000 0.0000
# 5 0.0000 0.0000 0.0000 0.0000-6604.1414 0.0000
# 6 0.0000 0.0000 0.0000 0.0000 0.0000 62.1240
#
#
#
# Elastic Compliance Matrix: (Units=1/GPa)
#
#
# Indices 1 2 3 4 5 6 
#
# 1 0.008137 -0.003975 -0.001810 0.000000 0.000000 0.000000
# 2 -0.003975 0.010086 -0.001809 0.000000 0.000000 0.000000
# 3 -0.001810 -0.001809 0.009093 0.000000 0.000000 0.000000
# 4 0.000000 0.000000 0.000000 0.055374 0.000000 0.000000
# 5 0.000000 0.000000 0.000000 0.000000 -0.000151 0.000000
# 6 0.000000 0.000000 0.000000 0.000000 0.000000 0.016097
#
#
# Mechanical properties :
#
#
# Convention : Reuss Voigt Hill
#
# Bulk Modulus (GPa) = 82.43985 85.75088 84.09537
# Shear Modulus (GPa) = 42.42086 -1286.91017 -622.24465
#
# Velocity S-wave (km/s) = 4.27858 -23.56587 -16.38664
# Velocity P-wave (km/s) = 7.74495 26.52286 17.93709
#
# Compressibility (1/GPa) = 0.01213006
#
# Stress axis : x y z
#
# Youngs Moduli (GPa) = 122.89198 99.14366 109.97018
#
# Poissons Ratio (x) = 0.39407 0.19899
# Poissons Ratio (y) = 0.48847 0.19896
# Poissons Ratio (z) = 0.22238 0.17937
#
# Static dielectric constant tensor:
#      x y z
#    x 1.462630 0.000000 0.000000 
#    y 0.000000 4.162750 0.000000 
#    z 0.000000 0.000000 1.849400 
# 
# From -- ./inp_files/398.got.cif
#   From: 2010.05.17/outbox.cif.g08.bks.cpg/sg18_1_cif.got.tgz:398.got - 2010.06.03 22:40:56.
