data_PCOD9312229
_publ_section_title
;
Structure prediction by ZEFSAII (Michael W. Deem and Ramdas Pophale) SiO2 
 PCOD9312229
Probable space group: P 21 21 2
;
_chemical_formula_sum "Si O2"
_cell_formula_units_Z 26
_cell_length_a 9.493684
_cell_length_b 24.702486
_cell_length_c 5.321881
_cell_angle_alpha 90.000000
_cell_angle_beta 90.000000
_cell_angle_gamma 90.000000
_cell_volume 1248.074739
_symmetry_space_group_name_H-M "P 21 21 2"
_symmetry_group_IT_number 18
_symmetry_cell_setting 'orthorhombic'
loop_
_space_group_symop_operation_xyz
x,y,z
-x,-y,z
1/2+x,1/2-y,-z
1/2-x,1/2+y,-z
loop_
_atom_site_type_symbol
_atom_site_label
_atom_site_fract_x
_atom_site_fract_y
_atom_site_fract_z
Si Si1 0.150125 0.083140 0.897210
Si Si2 0.336392 0.169261 0.670761
Si Si3 0.096611 0.899872 0.511705
Si Si4 0.663749 0.170846 0.544600
Si Si5 0.500000 0.500000 0.832360
Si Si6 0.710407 0.238083 0.034676
Si Si7 0.602414 0.323918 0.732880
O O1 0.275870 0.109088 0.735947
O O2 0.002450 0.094200 0.754463
O O3 0.155573 0.121392 0.138237
O O4 0.127660 0.022716 0.995429
O O5 0.496577 0.167260 0.588943
O O6 0.319109 0.213624 0.892767
O O7 0.222509 0.190574 0.466909
O O8 0.260195 0.887628 0.541532
O O9 0.040499 0.843061 0.393859
O O10 0.059105 0.951328 0.339178
O O11 0.681154 0.202104 0.279069
O O12 0.731986 0.200903 0.789032
O O13 0.584034 0.277710 0.938462
#
# Coordination Sequence:
#
# PCOD9312229 Si02
#       7
#     4   4   4   4   2   4   4
#     4   9  20  39  70  92 126 168 223 273 336 393
#     4  10  23  42  63  97 140 174 226 271 328 389
#     4  10  23  41  65 102 128 169 230 279 332 401
#     4  12  28  38  67  97 143 175 226 270 326 395
#     4  10  20  42  74  94 124 172 226 288 340 396
#     4  11  25  39  59  95 138 190 217 257 322 391
#     4   9  20  39  63  91 132 178 221 263 319 391
#
# _framework density 20.832087999999999
#
# number of rings (size 3 to 8) (size 9 to 14) (size 15 to 20)
#    0.000    1.846    1.538    0.462   10.769    2.462 
#    0.000    0.000    0.000   22.154    0.000    0.000 
#    0.000    0.000    0.000    0.000    0.000    0.000 
#
# Total GULP energy -144784.219731 kJ/mol
# GULP energy per Si atom -5568.623836 kJ/mol
# Density = 2.078467 g / cm^3
# Si number density = 20.832088 Si / 1000 Ang^3
#
#
#
# Elastic Constant Matrix: (Units=GPa)
#
#
# Indices 1 2 3 4 5 6 
#
# 1 89.9567 47.3327 26.7331 0.0000 0.0000 0.0000
# 2 47.3327 103.0900 41.9535 0.0000 0.0000 0.0000
# 3 26.7331 41.9535 101.4774 0.0000 0.0000 0.0000
# 4 0.0000 0.0000 0.0000 30.7055 0.0000 0.0000
# 5 0.0000 0.0000 0.0000 0.0000 -5.1707 0.0000
# 6 0.0000 0.0000 0.0000 0.0000 0.0000 21.8700
#
#
#
# Elastic Compliance Matrix: (Units=1/GPa)
#
#
# Indices 1 2 3 4 5 6 
#
# 1 0.014801 -0.006263 -0.001310 0.000000 0.000000 0.000000
# 2 -0.006263 0.014312 -0.004267 0.000000 0.000000 0.000000
# 3 -0.001310 -0.004267 0.011964 0.000000 0.000000 0.000000
# 4 0.000000 0.000000 0.000000 0.032567 0.000000 0.000000
# 5 0.000000 0.000000 0.000000 0.000000 -0.193396 0.000000
# 6 0.000000 0.000000 0.000000 0.000000 0.000000 0.045725
#
#
# Mechanical properties :
#
#
# Convention : Reuss Voigt Hill
#
# Bulk Modulus (GPa) = 57.48049 58.50695 57.99372
# Shear Modulus (GPa) = -112.23835 21.38126 -45.42854
#
# Velocity S-wave (km/s) = -7.34810 3.20716 -4.67486
# Velocity P-wave (km/s) = 6.65887 6.46997 1.11357
#
# Compressibility (1/GPa) = 0.01739721
#
# Stress axis : x y z
#
# Youngs Moduli (GPa) = 67.56314 69.87007 83.58594
#
# Poissons Ratio (x) = 0.43757 0.10950
# Poissons Ratio (y) = 0.42312 0.35668
# Poissons Ratio (z) = 0.08851 0.29816
#
# Static dielectric constant tensor:
#      x y z
#    x 1.778360 0.000000 0.000000 
#    y 0.000000 1.796320 0.000000 
#    z 0.000000 0.000000 1.819080 
# 
# From -- ./inp_files/713.got.cif
#   From: 2010.05.17/outbox.cif.g08.bks.cpg/sg18_1_cif.got.tgz:713.got - 2010.06.03 22:40:56.
