data_PCOD9312049
_publ_section_title
;
Structure prediction by ZEFSAII (Michael W. Deem and Ramdas Pophale) SiO2 
 PCOD9312049
Probable space group: P 21 21 2
;
_chemical_formula_sum "Si O2"
_cell_formula_units_Z 26
_cell_length_a 5.208351
_cell_length_b 13.315237
_cell_length_c 21.006204
_cell_angle_alpha 90.000000
_cell_angle_beta 90.000000
_cell_angle_gamma 90.000000
_cell_volume 1456.789237
_symmetry_space_group_name_H-M "P 21 21 2"
_symmetry_group_IT_number 18
_symmetry_cell_setting 'orthorhombic'
loop_
_space_group_symop_operation_xyz
x,y,z
-x,-y,z
1/2+x,1/2-y,-z
1/2-x,1/2+y,-z
loop_
_atom_site_type_symbol
_atom_site_label
_atom_site_fract_x
_atom_site_fract_y
_atom_site_fract_z
Si Si1 0.000000 0.000000 0.278547
Si Si2 0.023622 0.316789 0.926115
Si Si3 0.500000 0.500000 0.491206
Si Si4 0.475140 0.614487 0.000270
Si Si5 0.188937 0.215272 0.539124
Si Si6 0.000000 0.500000 0.572324
Si Si7 0.397283 0.115570 0.214368
Si Si8 0.374154 0.843650 0.341699
O O1 0.106592 0.087620 0.231650
O O2 0.824231 0.067943 0.324064
O O3 0.010687 0.199353 0.945184
O O4 0.968132 0.337967 0.852597
O O5 0.796352 0.370423 0.965369
O O6 0.295266 0.359821 0.950718
O O7 0.603036 0.401016 0.456019
O O8 0.750133 0.530597 0.532365
O O9 0.500000 0.500000 0.022197
O O10 0.953259 0.267356 0.499884
O O11 0.221421 0.259371 0.610387
O O12 0.077978 0.595102 0.615443
O O13 0.504740 0.180298 0.273375
O O14 0.500000 0.000000 0.217275
#
# Coordination Sequence:
#
# PCOD9312049 Si02
#       8
#     2   4   2   4   4   2   4   4
#     4  10  21  34  56  80 118 147 182 230 292 339
#     4  10  22  35  57  89 115 149 194 226 281 329
#     4  12  23  40  56  84 108 143 188 234 278 341
#     4  10  20  37  58  84 119 153 185 235 273 330
#     4  12  25  37  60  83 109 149 185 236 285 333
#     4  12  20  36  60  78 114 140 184 224 286 348
#     4  10  21  33  54  84 114 151 182 234 281 339
#     4  11  22  35  55  86 112 149 183 233 288 344
#
# _framework density 17.847469
#
# number of rings (size 3 to 8) (size 9 to 14) (size 15 to 20)
#    0.000    1.231    5.385    1.846    7.538    0.000 
#    0.000    0.000    1.692    0.000    0.000    0.000 
#    0.000    0.000    0.000    0.000    0.000    0.000 
#
# Total GULP energy -144796.272735 kJ/mol
# GULP energy per Si atom -5569.087413 kJ/mol
# Density = 1.780685 g / cm^3
# Si number density = 17.847469 Si / 1000 Ang^3
#
#
#
# Elastic Constant Matrix: (Units=GPa)
#
#
# Indices 1 2 3 4 5 6 
#
# 1 62.4288 -7.3227 1.8051 0.0000 0.0000 0.0000
# 2 -7.3227 82.2455 26.9906 0.0000 0.0000 0.0000
# 3 1.8051 26.9906 110.4730 0.0000 0.0000 0.0000
# 4 0.0000 0.0000 0.0000 23.3821 0.0000 0.0000
# 5 0.0000 0.0000 0.0000 0.0000 18.4638 0.0000
# 6 0.0000 0.0000 0.0000 0.0000 0.0000 18.3366
#
#
#
# Elastic Compliance Matrix: (Units=1/GPa)
#
#
# Indices 1 2 3 4 5 6 
#
# 1 0.016233 0.001666 -0.000672 0.000000 0.000000 0.000000
# 2 0.001666 0.013390 -0.003299 0.000000 0.000000 0.000000
# 3 -0.000672 -0.003299 0.009869 0.000000 0.000000 0.000000
# 4 0.000000 0.000000 0.000000 0.042768 0.000000 0.000000
# 5 0.000000 0.000000 0.000000 0.000000 0.054160 0.000000
# 6 0.000000 0.000000 0.000000 0.000000 0.000000 0.054536
#
#
# Mechanical properties :
#
#
# Convention : Reuss Voigt Hill
#
# Bulk Modulus (GPa) = 28.66829 33.12148 30.89489
# Shear Modulus (GPa) = 24.13221 27.61479 25.87350
#
# Velocity S-wave (km/s) = 3.68113 3.93780 3.81163
# Velocity P-wave (km/s) = 5.84512 6.26685 6.05965
#
# Compressibility (1/GPa) = 0.03488174
#
# Stress axis : x y z
#
# Youngs Moduli (GPa) = 61.60256 74.68519 101.32873
#
# Poissons Ratio (x) = -0.12442 0.06812
# Poissons Ratio (y) = -0.10263 0.33424
# Poissons Ratio (z) = 0.04141 0.24635
#
# Static dielectric constant tensor:
#      x y z
#    x 1.801600 0.000000 0.000000 
#    y 0.000000 1.633390 0.000000 
#    z 0.000000 0.000000 1.615170 
# 
# From -- ./inp_files/7178.got.cif
#   From: 2010.05.17/outbox.cif.g08.bks.cpg/sg18_4_cif.got.tgz:7178.got - 2010.06.03 22:40:56.
