data_PCOD9312202
_publ_section_title
;
Structure prediction by ZEFSAII (Michael W. Deem and Ramdas Pophale) SiO2 
 PCOD9312202
Probable space group: P 21 21 2
;
_chemical_formula_sum "Si O2"
_cell_formula_units_Z 24
_cell_length_a 22.446703
_cell_length_b 5.596378
_cell_length_c 8.490424
_cell_angle_alpha 90.000000
_cell_angle_beta 90.000000
_cell_angle_gamma 90.000000
_cell_volume 1066.569057
_symmetry_space_group_name_H-M "P 21 21 2"
_symmetry_group_IT_number 18
_symmetry_cell_setting 'orthorhombic'
loop_
_space_group_symop_operation_xyz
x,y,z
-x,-y,z
1/2+x,1/2-y,-z
1/2-x,1/2+y,-z
loop_
_atom_site_type_symbol
_atom_site_label
_atom_site_fract_x
_atom_site_fract_y
_atom_site_fract_z
Si Si1 0.052621 0.856240 0.689024
Si Si2 0.559329 0.906312 0.612476
Si Si3 0.645839 0.253949 0.402982
Si Si4 0.329308 0.244382 0.804213
Si Si5 0.844701 0.385414 0.835314
Si Si6 0.726693 0.254797 0.682883
O O1 0.028586 0.738719 0.530181
O O2 0.086776 0.677736 0.801906
O O3 0.104861 0.021327 0.623236
O O4 0.000000 0.000000 0.768746
O O5 0.604506 0.765666 0.726493
O O6 0.500000 0.000000 0.700474
O O7 0.604378 0.080465 0.513380
O O8 0.705754 0.283259 0.502870
O O9 0.659683 0.155151 0.228370
O O10 0.301225 0.505617 0.766373
O O11 0.297103 0.002623 0.740686
O O12 0.330024 0.195210 0.990553
O O13 0.796501 0.264858 0.718530
#
# Coordination Sequence:
#
# PCOD9312202 Si02
#       6
#     4   4   4   4   4   4
#     4  11  22  42  67  94 133 178 232 289 349 409
#     4  10  20  41  64  93 127 180 234 279 336 425
#     4  10  23  39  66  94 130 172 231 281 341 409
#     4  11  25  46  67 102 137 189 228 288 358 425
#     4  11  27  40  68 103 141 176 233 296 362 413
#     4  11  25  45  71  98 142 183 231 283 356 436
#
# _framework density 22.50206
#
# number of rings (size 3 to 8) (size 9 to 14) (size 15 to 20)
#    0.000    1.333    3.333    1.000    7.000    0.000 
#    3.000    0.833    0.000    0.000    0.000    0.000 
#    0.000    0.000    0.000    0.000    0.000    0.000 
#
# Total GULP energy -133848.567565 kJ/mol
# GULP energy per Si atom -5577.023649 kJ/mol
# Density = 2.245084 g / cm^3
# Si number density = 22.502060 Si / 1000 Ang^3
#
#
#
# Elastic Constant Matrix: (Units=GPa)
#
#
# Indices 1 2 3 4 5 6 
#
# 1 122.6132 26.4870 14.0763 0.0000 0.0000 0.0000
# 2 26.4870 77.9478 36.5244 0.0000 0.0000 0.0000
# 3 14.0763 36.5244 82.6662 0.0000 0.0000 0.0000
# 4 0.0000 0.0000 0.0000 -11.6412 0.0000 0.0000
# 5 0.0000 0.0000 0.0000 0.0000 9.9346 0.0000
# 6 0.0000 0.0000 0.0000 0.0000 0.0000 41.4200
#
#
#
# Elastic Compliance Matrix: (Units=1/GPa)
#
#
# Indices 1 2 3 4 5 6 
#
# 1 0.008805 -0.002887 -0.000224 0.000000 0.000000 0.000000
# 2 -0.002887 0.017125 -0.007075 0.000000 0.000000 0.000000
# 3 -0.000224 -0.007075 0.015261 0.000000 0.000000 0.000000
# 4 0.000000 0.000000 0.000000 -0.085902 0.000000 0.000000
# 5 0.000000 0.000000 0.000000 0.000000 0.100658 0.000000
# 6 0.000000 0.000000 0.000000 0.000000 0.000000 0.024143
#
#
# Mechanical properties :
#
#
# Convention : Reuss Voigt Hill
#
# Bulk Modulus (GPa) = 48.03125 48.60027 48.31576
# Shear Modulus (GPa) = 46.55415 21.68531 34.11973
#
# Velocity S-wave (km/s) = 4.55343 3.10772 3.89819
# Velocity P-wave (km/s) = 7.00261 5.87557 6.46370
#
# Compressibility (1/GPa) = 0.02081978
#
# Stress axis : x y z
#
# Youngs Moduli (GPa) = 113.57048 58.39324 65.52736
#
# Poissons Ratio (x) = 0.16859 0.01466
# Poissons Ratio (y) = 0.32790 0.46359
# Poissons Ratio (z) = 0.02540 0.41312
#
# Static dielectric constant tensor:
#      x y z
#    x 1.863240 0.000000 0.000000 
#    y 0.000000 1.958210 0.000000 
#    z 0.000000 0.000000 1.795840 
# 
# From -- ./inp_files/4728.got.cif
#   From: 2010.05.17/outbox.cif.g08.bks.cpg/sg18_3_cif.got.tgz:4728.got - 2010.06.03 22:40:56.
