data_PCOD9312920
_publ_section_title
;
Structure prediction by ZEFSAII (Michael W. Deem and Ramdas Pophale) SiO2 
 PCOD9312920
Probable space group: P 21 21 2
;
_chemical_formula_sum "Si O2"
_cell_formula_units_Z 30
_cell_length_a 22.633885
_cell_length_b 5.108533
_cell_length_c 11.380835
_cell_angle_alpha 90.000000
_cell_angle_beta 90.000000
_cell_angle_gamma 90.000000
_cell_volume 1315.919841
_symmetry_space_group_name_H-M "P 21 21 2"
_symmetry_group_IT_number 18
_symmetry_cell_setting 'orthorhombic'
loop_
_space_group_symop_operation_xyz
x,y,z
-x,-y,z
1/2+x,1/2-y,-z
1/2-x,1/2+y,-z
loop_
_atom_site_type_symbol
_atom_site_label
_atom_site_fract_x
_atom_site_fract_y
_atom_site_fract_z
Si Si1 0.434068 0.896772 0.972968
Si Si2 0.267807 0.352821 0.319593
Si Si3 0.567508 0.115545 0.239305
Si Si4 0.222378 0.759951 0.950762
Si Si5 0.500000 0.500000 0.368175
Si Si6 0.613421 0.749307 0.435528
Si Si7 0.309333 0.367884 0.654684
Si Si8 0.880113 0.104927 0.111949
O O1 0.428516 0.609301 0.920325
O O2 0.500000 0.000000 0.984907
O O3 0.403077 0.100073 0.886173
O O4 0.409633 0.908858 0.107463
O O5 0.275950 0.247360 0.188031
O O6 0.332462 0.403033 0.372330
O O7 0.233051 0.624992 0.315987
O O8 0.230378 0.120224 0.384784
O O9 0.551239 0.406607 0.278059
O O10 0.500000 0.000000 0.245886
O O11 0.605187 0.992269 0.344850
O O12 0.229096 0.472176 0.006167
O O13 0.164066 0.893385 0.001723
O O14 0.544702 0.662891 0.449674
O O15 0.642724 0.750784 0.564059
O O16 0.344218 0.457896 0.771050
#
# Coordination Sequence:
#
# PCOD9312920 Si02
#       8
#     4   4   4   4   2   4   4   4
#     4  11  25  43  71 103 141 179 242 296 361 428
#     4  12  25  45  72 106 138 191 238 299 360 425
#     4   9  22  42  69 104 133 177 231 302 356 418
#     4  12  22  41  66 100 139 175 228 284 358 427
#     4  10  24  46  70 106 138 180 238 298 368 412
#     4  11  26  45  72 102 141 188 245 296 359 428
#     4  12  27  47  69 102 149 189 242 293 354 437
#     4  12  24  44  68 103 143 193 227 293 361 439
#
# _framework density 22.797740000000001
#
# number of rings (size 3 to 8) (size 9 to 14) (size 15 to 20)
#    0.000    0.800    2.667    3.600   11.200    0.000 
#    2.400    0.667    0.000    0.000    0.000    0.000 
#    0.000    0.000    0.000    0.000    0.000    0.000 
#
# Total GULP energy -167300.440214 kJ/mol
# GULP energy per Si atom -5576.681340 kJ/mol
# Density = 2.274585 g / cm^3
# Si number density = 22.797740 Si / 1000 Ang^3
#
#
#
# Elastic Constant Matrix: (Units=GPa)
#
#
# Indices 1 2 3 4 5 6 
#
# 1 92.8032 20.7723 32.8036 0.0000 0.0000 0.0000
# 2 20.7723 74.0773 4.5639 0.0000 0.0000 0.0000
# 3 32.8036 4.5639 82.9205 0.0000 0.0000 0.0000
# 4 0.0000 0.0000 0.0000 6.6964 0.0000 0.0000
# 5 0.0000 0.0000 0.0000 0.0000 33.0299 0.0000
# 6 0.0000 0.0000 0.0000 0.0000 0.0000 42.4874
#
#
#
# Elastic Compliance Matrix: (Units=1/GPa)
#
#
# Indices 1 2 3 4 5 6 
#
# 1 0.013342 -0.003428 -0.005089 0.000000 0.000000 0.000000
# 2 -0.003428 0.014426 0.000562 0.000000 0.000000 0.000000
# 3 -0.005089 0.000562 0.014042 0.000000 0.000000 0.000000
# 4 0.000000 0.000000 0.000000 0.149334 0.000000 0.000000
# 5 0.000000 0.000000 0.000000 0.000000 0.030276 0.000000
# 6 0.000000 0.000000 0.000000 0.000000 0.000000 0.023536
#
#
# Mechanical properties :
#
#
# Convention : Reuss Voigt Hill
#
# Bulk Modulus (GPa) = 38.61035 40.67562 39.64299
# Shear Modulus (GPa) = 18.55296 29.22017 23.88656
#
# Velocity S-wave (km/s) = 2.85583 3.58399 3.24042
# Velocity P-wave (km/s) = 5.27704 5.91670 5.60600
#
# Compressibility (1/GPa) = 0.02589979
#
# Stress axis : x y z
#
# Youngs Moduli (GPa) = 74.95326 69.31960 71.21409
#
# Poissons Ratio (x) = 0.23760 0.36243
# Poissons Ratio (y) = 0.25691 -0.04002
# Poissons Ratio (z) = 0.38146 -0.03896
#
# Static dielectric constant tensor:
#      x y z
#    x 1.971670 0.000000 0.000000 
#    y 0.000000 2.082520 0.000000 
#    z 0.000000 0.000000 1.835050 
# 
# From -- ./inp_files/6278.got.cif
#   From: 2010.05.17/outbox.cif.g08.bks.cpg/sg18_4_cif.got.tgz:6278.got - 2010.06.03 22:40:56.
