data_PCOD9312098
_publ_section_title
;
Structure prediction by ZEFSAII (Michael W. Deem and Ramdas Pophale) SiO2 
 PCOD9312098
Probable space group: P 21 21 2
;
_chemical_formula_sum "Si O2"
_cell_formula_units_Z 32
_cell_length_a 14.548923
_cell_length_b 12.235236
_cell_length_c 8.948025
_cell_angle_alpha 90.000000
_cell_angle_beta 90.000000
_cell_angle_gamma 90.000000
_cell_volume 1592.833514
_symmetry_space_group_name_H-M "P 21 21 2"
_symmetry_group_IT_number 18
_symmetry_cell_setting 'orthorhombic'
loop_
_space_group_symop_operation_xyz
x,y,z
-x,-y,z
1/2+x,1/2-y,-z
1/2-x,1/2+y,-z
loop_
_atom_site_type_symbol
_atom_site_label
_atom_site_fract_x
_atom_site_fract_y
_atom_site_fract_z
Si Si1 0.669612 0.166792 0.311150
Si Si2 0.524665 0.727737 0.378224
Si Si3 0.343007 0.330168 0.123328
Si Si4 0.353596 0.417795 0.564131
Si Si5 0.720074 0.316676 0.050162
Si Si6 0.100433 0.541210 0.548733
Si Si7 0.891996 0.988197 0.117223
Si Si8 0.749895 0.997422 0.696661
O O1 0.582161 0.236819 0.372716
O O2 0.765769 0.164117 0.405047
O O3 0.686881 0.211939 0.145439
O O4 0.638616 0.040450 0.324149
O O5 0.564563 0.679021 0.222656
O O6 0.556403 0.648332 0.512273
O O7 0.587377 0.835786 0.399449
O O8 0.263556 0.384055 0.227277
O O9 0.306622 0.219572 0.049213
O O10 0.355716 0.417337 0.992176
O O11 0.362680 0.484633 0.715230
O O12 0.330127 0.498966 0.427837
O O13 0.741753 0.405340 0.178540
O O14 0.645371 0.373499 0.944180
O O15 0.161569 0.524083 0.402955
O O16 0.000000 0.500000 0.509762
O O17 0.000000 0.000000 0.110093
#
# Coordination Sequence:
#
# PCOD9312098 Si02
#       8
#     4   4   4   4   4   4   4   4
#     4  10  20  38  62  90 124 163 210 256 318 388
#     4  10  21  38  64  89 122 167 205 259 321 380
#     4  10  22  39  60  91 121 166 217 251 319 397
#     4  10  21  41  62  94 125 158 221 262 316 390
#     4  11  22  39  64  84 124 176 200 262 323 372
#     4   9  19  35  57  91 119 151 204 261 306 369
#     4  11  24  42  59  92 132 162 217 274 314 383
#     4   9  21  38  60  84 121 160 201 260 313 370
#
# _framework density 20.089984000000001
#
# number of rings (size 3 to 8) (size 9 to 14) (size 15 to 20)
#    0.000    2.000    1.250    1.500    3.500    1.000 
#    9.000    2.500    0.000    0.000    0.000    0.000 
#    0.000    0.000    0.000    0.000    0.000    0.000 
#
# Total GULP energy -178415.615870 kJ/mol
# GULP energy per Si atom -5575.487996 kJ/mol
# Density = 2.004426 g / cm^3
# Si number density = 20.089984 Si / 1000 Ang^3
#
#
#
# Elastic Constant Matrix: (Units=GPa)
#
#
# Indices 1 2 3 4 5 6 
#
# 1 61.6339 4.0776 10.3372 0.0000 0.0000 0.0000
# 2 4.0776 49.6222 35.8157 0.0000 0.0000 0.0000
# 3 10.3372 35.8157 109.0957 0.0000 0.0000 0.0000
# 4 0.0000 0.0000 0.0000 40.7882 0.0000 0.0000
# 5 0.0000 0.0000 0.0000 0.0000 10.7432 0.0000
# 6 0.0000 0.0000 0.0000 0.0000 0.0000 25.3785
#
#
#
# Elastic Compliance Matrix: (Units=1/GPa)
#
#
# Indices 1 2 3 4 5 6 
#
# 1 0.016490 -0.000298 -0.001465 0.000000 0.000000 0.000000
# 2 -0.000298 0.026416 -0.008644 0.000000 0.000000 0.000000
# 3 -0.001465 -0.008644 0.012143 0.000000 0.000000 0.000000
# 4 0.000000 0.000000 0.000000 0.024517 0.000000 0.000000
# 5 0.000000 0.000000 0.000000 0.000000 0.093082 0.000000
# 6 0.000000 0.000000 0.000000 0.000000 0.000000 0.039403
#
#
# Mechanical properties :
#
#
# Convention : Reuss Voigt Hill
#
# Bulk Modulus (GPa) = 29.20933 35.64588 32.42761
# Shear Modulus (GPa) = 20.46866 26.72340 23.59603
#
# Velocity S-wave (km/s) = 3.19540 3.65113 3.43084
# Velocity P-wave (km/s) = 5.30895 5.96288 5.64539
#
# Compressibility (1/GPa) = 0.03423563
#
# Stress axis : x y z
#
# Youngs Moduli (GPa) = 60.64209 37.85629 82.35310
#
# Poissons Ratio (x) = 0.01128 0.12062
# Poissons Ratio (y) = 0.01806 0.71186
# Poissons Ratio (z) = 0.08882 0.32723
#
# Static dielectric constant tensor:
#      x y z
#    x 1.742520 0.000000 0.000000 
#    y 0.000000 1.773790 0.000000 
#    z 0.000000 0.000000 1.735890 
# 
# From -- ./inp_files/3931.got.cif
#   From: 2010.05.17/outbox.cif.g08.bks.cpg/sg18_2_cif.got.tgz:3931.got - 2010.06.03 22:40:56.
