data_PCOD9312620
_publ_section_title
;
Structure prediction by ZEFSAII (Michael W. Deem and Ramdas Pophale) SiO2 
 PCOD9312620
Probable space group: P 21 21 2
;
_chemical_formula_sum "Si O2"
_cell_formula_units_Z 26
_cell_length_a 20.133981
_cell_length_b 9.093525
_cell_length_c 5.967505
_cell_angle_alpha 90.000000
_cell_angle_beta 90.000000
_cell_angle_gamma 90.000000
_cell_volume 1092.583685
_symmetry_space_group_name_H-M "P 21 21 2"
_symmetry_group_IT_number 18
_symmetry_cell_setting 'orthorhombic'
loop_
_space_group_symop_operation_xyz
x,y,z
-x,-y,z
1/2+x,1/2-y,-z
1/2-x,1/2+y,-z
loop_
_atom_site_type_symbol
_atom_site_label
_atom_site_fract_x
_atom_site_fract_y
_atom_site_fract_z
Si Si1 0.129191 0.899449 0.389329
Si Si2 0.738528 0.531203 0.969532
Si Si3 0.000000 0.500000 0.512587
Si Si4 0.780048 0.278501 0.695876
Si Si5 0.165874 0.160765 0.666368
Si Si6 0.412802 0.922322 0.116835
Si Si7 0.034567 0.692131 0.138415
O O1 0.153610 0.789112 0.587069
O O2 0.074948 0.834017 0.217977
O O3 0.117987 0.056487 0.512901
O O4 0.194272 0.911376 0.233526
O O5 0.756269 0.660145 0.141629
O O6 0.691096 0.434151 0.125762
O O7 0.790697 0.421284 0.852456
O O8 0.063819 0.508695 0.664780
O O9 0.997001 0.642631 0.362142
O O10 0.728386 0.313116 0.498225
O O11 0.140107 0.308523 0.783345
O O12 0.475582 0.814869 0.043594
O O13 0.417023 0.052251 0.927023
#
# Coordination Sequence:
#
# PCOD9312620 Si02
#       7
#     4   4   2   4   4   4   4
#     4  10  22  42  63  96 136 177 223 274 335 403
#     4  10  22  44  59  90 142 169 224 274 326 402
#     4   8  18  40  58  90 132 156 226 278 320 396
#     4  10  22  42  64  90 136 178 218 276 330 400
#     4  10  22  42  63  96 136 177 223 274 335 403
#     4   9  20  40  65  95 128 169 225 279 328 392
#     4   9  20  40  65  95 128 169 225 279 328 392
#
# _framework density 23.796806
#
# number of rings (size 3 to 8) (size 9 to 14) (size 15 to 20)
#    0.000    2.769    0.000    0.923    0.000    9.846 
#   36.000    4.615    0.000    0.000    0.000    0.000 
#    0.000    0.000    0.000    0.000    0.000    0.000 
#
# Total GULP energy -144822.275613 kJ/mol
# GULP energy per Si atom -5570.087524 kJ/mol
# Density = 2.374264 g / cm^3
# Si number density = 23.796806 Si / 1000 Ang^3
#
#
#
# Elastic Constant Matrix: (Units=GPa)
#
#
# Indices 1 2 3 4 5 6 
#
# 1 14.0794 -2.7211 1.8250 0.0000 0.0000 0.0000
# 2 -2.7211 91.9516 23.3663 0.0000 0.0000 0.0000
# 3 1.8250 23.3663 86.3798 0.0000 0.0000 0.0000
# 4 0.0000 0.0000 0.0000 45.3764 0.0000 0.0000
# 5 0.0000 0.0000 0.0000 0.0000 19.2158 0.0000
# 6 0.0000 0.0000 0.0000 0.0000 0.0000 35.6302
#
#
#
# Elastic Compliance Matrix: (Units=1/GPa)
#
#
# Indices 1 2 3 4 5 6 
#
# 1 0.071838 0.002697 -0.002247 0.000000 0.000000 0.000000
# 2 0.002697 0.011779 -0.003243 0.000000 0.000000 0.000000
# 3 -0.002247 -0.003243 0.012502 0.000000 0.000000 0.000000
# 4 0.000000 0.000000 0.000000 0.022038 0.000000 0.000000
# 5 0.000000 0.000000 0.000000 0.000000 0.052041 0.000000
# 6 0.000000 0.000000 0.000000 0.000000 0.000000 0.028066
#
#
# Mechanical properties :
#
#
# Convention : Reuss Voigt Hill
#
# Bulk Modulus (GPa) = 11.04582 26.37234 18.70908
# Shear Modulus (GPa) = 21.36491 31.37385 26.36938
#
# Velocity S-wave (km/s) = 2.99959 3.63493 3.33243
# Velocity P-wave (km/s) = 4.08026 5.35941 4.76297
#
# Compressibility (1/GPa) = 0.09053195
#
# Stress axis : x y z
#
# Youngs Moduli (GPa) = 13.92013 84.89482 79.98967
#
# Poissons Ratio (x) = -0.22896 0.17976
# Poissons Ratio (y) = -0.03754 0.25943
# Poissons Ratio (z) = 0.03128 0.27534
#
# Static dielectric constant tensor:
#      x y z
#    x 2.027670 0.000000 0.000000 
#    y 0.000000 1.947960 0.000000 
#    z 0.000000 0.000000 1.861030 
# 
# From -- ./inp_files/2094.got.cif
#   From: 2010.05.17/outbox.cif.g08.bks.cpg/sg18_2_cif.got.tgz:2094.got - 2010.06.03 22:40:56.
