data_PCOD9312946
_publ_section_title
;
Structure prediction by ZEFSAII (Michael W. Deem and Ramdas Pophale) SiO2 
 PCOD9312946
Probable space group: P 21 21 2
;
_chemical_formula_sum "Si O2"
_cell_formula_units_Z 18
_cell_length_a 18.344684
_cell_length_b 5.358333
_cell_length_c 7.735985
_cell_angle_alpha 90.000000
_cell_angle_beta 90.000000
_cell_angle_gamma 90.000000
_cell_volume 760.423542
_symmetry_space_group_name_H-M "P 21 21 2"
_symmetry_group_IT_number 18
_symmetry_cell_setting 'orthorhombic'
loop_
_space_group_symop_operation_xyz
x,y,z
-x,-y,z
1/2+x,1/2-y,-z
1/2-x,1/2+y,-z
loop_
_atom_site_type_symbol
_atom_site_label
_atom_site_fract_x
_atom_site_fract_y
_atom_site_fract_z
Si Si1 0.278491 0.465319 0.704019
Si Si2 0.866677 0.204134 0.003679
Si Si3 0.859287 0.284838 0.617349
Si Si4 0.500000 0.000000 0.539405
Si Si5 0.397948 0.784867 0.824080
O O1 0.292999 0.315074 0.880673
O O2 0.195307 0.483468 0.650763
O O3 0.325238 0.352884 0.547524
O O4 0.316557 0.732652 0.746734
O O5 0.898646 0.474801 0.051812
O O6 0.912837 0.975768 0.081356
O O7 0.856572 0.155278 0.803013
O O8 0.941414 0.354819 0.573711
O O9 0.452306 0.828812 0.666749
#
# Coordination Sequence:
#
# PCOD9312946 Si02
#       5
#     4   4   4   2   4
#     4  10  26  47  77 113 153 198 255 334 370 467
#     4  10  26  49  77 110 149 207 255 316 385 465
#     4  12  26  46  84 115 152 211 263 316 401 466
#     4  12  24  50  74 116 158 206 262 326 396 468
#     4  10  24  49  75 101 163 193 248 330 377 449
#
# _framework density 23.671018
#
# number of rings (size 3 to 8) (size 9 to 14) (size 15 to 20)
#    1.333    0.000    2.222    1.333    3.111    8.000 
#    0.000    2.222    0.000    0.000    0.000    0.000 
#    0.000    0.000    0.000    0.000    0.000    0.000 
#
# Total GULP energy -100576.194717 kJ/mol
# GULP energy per Si atom -5587.566373 kJ/mol
# Density = 2.361714 g / cm^3
# Si number density = 23.671018 Si / 1000 Ang^3
#
#
#
# Elastic Constant Matrix: (Units=GPa)
#
#
# Indices 1 2 3 4 5 6 
#
# 1 74.7318 2.7422 14.5357 0.0000 0.0000 0.0000
# 2 2.7422 85.4306 20.8203 0.0000 0.0000 0.0000
# 3 14.5357 20.8203 154.5665 0.0000 0.0000 0.0000
# 4 0.0000 0.0000 0.0000 15.6028 0.0000 0.0000
# 5 0.0000 0.0000 0.0000 0.0000 1.3626 0.0000
# 6 0.0000 0.0000 0.0000 0.0000 0.0000 26.0447
#
#
#
# Elastic Compliance Matrix: (Units=1/GPa)
#
#
# Indices 1 2 3 4 5 6 
#
# 1 0.013632 -0.000129 -0.001265 0.000000 0.000000 0.000000
# 2 -0.000129 0.012104 -0.001618 0.000000 0.000000 0.000000
# 3 -0.001265 -0.001618 0.006807 0.000000 0.000000 0.000000
# 4 0.000000 0.000000 0.000000 0.064091 0.000000 0.000000
# 5 0.000000 0.000000 0.000000 0.000000 0.733886 0.000000
# 6 0.000000 0.000000 0.000000 0.000000 0.000000 0.038396
#
#
# Mechanical properties :
#
#
# Convention : Reuss Voigt Hill
#
# Bulk Modulus (GPa) = 37.71009 43.43615 40.57312
# Shear Modulus (GPa) = 5.65752 27.04407 16.35080
#
# Velocity S-wave (km/s) = 1.54766 3.38375 2.63107
# Velocity P-wave (km/s) = 4.37712 5.80139 5.13884
#
# Compressibility (1/GPa) = 0.02651810
#
# Stress axis : x y z
#
# Youngs Moduli (GPa) = 73.35736 82.61772 146.91602
#
# Poissons Ratio (x) = 0.01069 0.18578
# Poissons Ratio (y) = 0.00949 0.23775
# Poissons Ratio (z) = 0.09276 0.13370
#
# Static dielectric constant tensor:
#      x y z
#    x 1.931050 0.000000 0.000000 
#    y 0.000000 2.009910 0.000000 
#    z 0.000000 0.000000 1.891360 
# 
# From -- ./inp_files/4419.got.cif
#   From: 2010.05.17/outbox.cif.g08.bks.cpg/sg18_3_cif.got.tgz:4419.got - 2010.06.03 22:40:56.
