data_PCOD9312446
_publ_section_title
;
Structure prediction by ZEFSAII (Michael W. Deem and Ramdas Pophale) SiO2 
 PCOD9312446
Probable space group: P 21 21 2
;
_chemical_formula_sum "Si O2"
_cell_formula_units_Z 32
_cell_length_a 15.027333
_cell_length_b 10.449013
_cell_length_c 9.606398
_cell_angle_alpha 90.000000
_cell_angle_beta 90.000000
_cell_angle_gamma 90.000000
_cell_volume 1508.404279
_symmetry_space_group_name_H-M "P 21 21 2"
_symmetry_group_IT_number 18
_symmetry_cell_setting 'orthorhombic'
loop_
_space_group_symop_operation_xyz
x,y,z
-x,-y,z
1/2+x,1/2-y,-z
1/2-x,1/2+y,-z
loop_
_atom_site_type_symbol
_atom_site_label
_atom_site_fract_x
_atom_site_fract_y
_atom_site_fract_z
Si Si1 0.905235 0.434994 0.805832
Si Si2 0.413726 0.593685 0.970822
Si Si3 0.728379 0.553867 0.775013
Si Si4 0.566235 0.380976 0.292081
Si Si5 0.895286 0.227478 0.613237
Si Si6 0.357767 0.191106 0.683662
Si Si7 0.481471 0.149801 0.933962
Si Si8 0.214395 0.016014 0.551714
O O1 0.828844 0.540210 0.833008
O O2 0.859631 0.355246 0.682086
O O3 0.000000 0.500000 0.768702
O O4 0.916804 0.333771 0.932696
O O5 0.500000 0.500000 0.956205
O O6 0.337232 0.530434 0.874450
O O7 0.444903 0.738582 0.933815
O O8 0.395123 0.601898 0.137424
O O9 0.700516 0.702818 0.765333
O O10 0.718792 0.512801 0.611796
O O11 0.500000 0.500000 0.320670
O O12 0.492451 0.274042 0.314927
O O13 0.640834 0.376889 0.409345
O O14 0.903023 0.241812 0.448873
O O15 0.826988 0.109373 0.629203
O O16 0.432363 0.152074 0.789541
O O17 0.302059 0.071980 0.623571
O O18 0.500000 0.000000 0.957620
#
# Coordination Sequence:
#
# PCOD9312446 Si02
#       8
#     4   4   4   4   4   4   4   4
#     4  11  25  47  67  97 141 183 232 286 352 423
#     4  11  22  43  71 101 135 181 234 285 349 418
#     4  11  25  43  70 100 136 189 229 288 349 420
#     4   9  20  37  66  98 126 173 224 282 339 409
#     4  10  21  43  67  93 136 181 226 281 350 417
#     4  11  24  43  65 101 143 177 233 287 350 420
#     4  11  26  46  66 101 141 174 233 293 347 415
#     4  10  23  39  64 101 133 170 233 283 339 419
#
# _framework density 21.214471
#
# number of rings (size 3 to 8) (size 9 to 14) (size 15 to 20)
#    0.000    1.500    3.750    0.000    5.250    2.000 
#    0.000    0.000    0.000    0.000    0.000    0.000 
#    0.000    0.000    0.000    0.000    0.000    0.000 
#
# Total GULP energy -178137.052516 kJ/mol
# GULP energy per Si atom -5566.782891 kJ/mol
# Density = 2.116619 g / cm^3
# Si number density = 21.214471 Si / 1000 Ang^3
#
#
#
# Elastic Constant Matrix: (Units=GPa)
#
#
# Indices 1 2 3 4 5 6 
#
# 1 51.0154 11.6498 13.9510 0.0000 0.0000 0.0000
# 2 11.6498 71.6464 7.5391 0.0000 0.0000 0.0000
# 3 13.9510 7.5391 56.0404 0.0000 0.0000 0.0000
# 4 0.0000 0.0000 0.0000 33.1351 0.0000 0.0000
# 5 0.0000 0.0000 0.0000 0.0000 -24.9794 0.0000
# 6 0.0000 0.0000 0.0000 0.0000 0.0000 23.3408
#
#
#
# Elastic Compliance Matrix: (Units=1/GPa)
#
#
# Indices 1 2 3 4 5 6 
#
# 1 0.021650 -0.002996 -0.004987 0.000000 0.000000 0.000000
# 2 -0.002996 0.014572 -0.001215 0.000000 0.000000 0.000000
# 3 -0.004987 -0.001215 0.019249 0.000000 0.000000 0.000000
# 4 0.000000 0.000000 0.000000 0.030180 0.000000 0.000000
# 5 0.000000 0.000000 0.000000 0.000000 -0.040033 0.000000
# 6 0.000000 0.000000 0.000000 0.000000 0.000000 0.042843
#
#
# Mechanical properties :
#
#
# Convention : Reuss Voigt Hill
#
# Bulk Modulus (GPa) = 26.97062 27.22024 27.09543
# Shear Modulus (GPa) = 41.94150 16.00346 28.97248
#
# Velocity S-wave (km/s) = 4.45120 2.74955 3.69954
# Velocity P-wave (km/s) = 6.25767 4.78945 5.57213
#
# Compressibility (1/GPa) = 0.03707739
#
# Stress axis : x y z
#
# Youngs Moduli (GPa) = 46.19016 68.62317 51.95060
#
# Poissons Ratio (x) = 0.20556 0.25906
# Poissons Ratio (y) = 0.13836 0.06310
# Poissons Ratio (z) = 0.23033 0.08336
#
# Static dielectric constant tensor:
#      x y z
#    x 1.846130 0.000000 0.000000 
#    y 0.000000 2.119480 0.000000 
#    z 0.000000 0.000000 1.832130 
# 
# From -- ./inp_files/4322.got.cif
#   From: 2010.05.17/outbox.cif.g08.bks.cpg/sg18_3_cif.got.tgz:4322.got - 2010.06.03 22:40:56.
