data_PCOD9312582
_publ_section_title
;
Structure prediction by ZEFSAII (Michael W. Deem and Ramdas Pophale) SiO2 
 PCOD9312582
Probable space group: P 21 21 2
;
_chemical_formula_sum "Si O2"
_cell_formula_units_Z 24
_cell_length_a 9.421346
_cell_length_b 11.946885
_cell_length_c 8.603086
_cell_angle_alpha 90.000000
_cell_angle_beta 90.000000
_cell_angle_gamma 90.000000
_cell_volume 968.326687
_symmetry_space_group_name_H-M "P 21 21 2"
_symmetry_group_IT_number 18
_symmetry_cell_setting 'orthorhombic'
loop_
_space_group_symop_operation_xyz
x,y,z
-x,-y,z
1/2+x,1/2-y,-z
1/2-x,1/2+y,-z
loop_
_atom_site_type_symbol
_atom_site_label
_atom_site_fract_x
_atom_site_fract_y
_atom_site_fract_z
Si Si1 0.758840 0.993890 0.942775
Si Si2 0.164801 0.207081 0.741242
Si Si3 0.921704 0.330394 0.880206
Si Si4 0.488219 0.677642 0.542910
Si Si5 0.233093 0.331827 0.323019
Si Si6 0.568747 0.666007 0.851285
O O1 0.713039 0.061333 0.788788
O O2 0.838405 0.884161 0.878394
O O3 0.858796 0.073864 0.042208
O O4 0.637966 0.946637 0.056990
O O5 0.127039 0.140787 0.585613
O O6 0.314357 0.266427 0.749619
O O7 0.050781 0.306687 0.763967
O O8 0.792540 0.262949 0.797962
O O9 0.977636 0.264530 0.033183
O O10 0.636360 0.661531 0.447952
O O11 0.413476 0.796767 0.593355
O O12 0.477529 0.618949 0.710257
#
# Coordination Sequence:
#
# PCOD9312582 Si02
#       6
#     4   4   4   4   4   4
#     4  10  23  46  70 110 131 195 248 291 363 441
#     4  10  22  46  68 100 148 179 239 306 355 422
#     4   9  22  42  69  98 140 178 237 309 343 420
#     4  11  22  45  69  98 145 190 230 303 367 419
#     4  10  23  45  70 101 146 186 242 303 365 433
#     4  10  22  40  70 100 133 188 237 293 354 426
#
# _framework density 24.785024
#
# number of rings (size 3 to 8) (size 9 to 14) (size 15 to 20)
#    0.000    2.000    1.667    0.000    7.000    6.667 
#    9.000    0.000   14.667    0.000    0.000    0.000 
#    0.000    0.000    0.000    0.000    0.000    0.000 
#
# Total GULP energy -133791.422738 kJ/mol
# GULP energy per Si atom -5574.642614 kJ/mol
# Density = 2.472861 g / cm^3
# Si number density = 24.785024 Si / 1000 Ang^3
#
#
#
# Elastic Constant Matrix: (Units=GPa)
#
#
# Indices 1 2 3 4 5 6 
#
# 1 63.7936 20.0085 4.1129 0.0000 0.0000 0.0000
# 2 20.0085 50.6910 3.1687 0.0000 0.0000 0.0000
# 3 4.1129 3.1687 128.1871 0.0000 0.0000 0.0000
# 4 0.0000 0.0000 0.0000 26.3487 0.0000 0.0000
# 5 0.0000 0.0000 0.0000 0.0000 39.6297 0.0000
# 6 0.0000 0.0000 0.0000 0.0000 0.0000 23.0695
#
#
#
# Elastic Compliance Matrix: (Units=1/GPa)
#
#
# Indices 1 2 3 4 5 6 
#
# 1 0.017911 -0.007045 -0.000401 0.000000 0.000000 0.000000
# 2 -0.007045 0.022529 -0.000331 0.000000 0.000000 0.000000
# 3 -0.000401 -0.000331 0.007822 0.000000 0.000000 0.000000
# 4 0.000000 0.000000 0.000000 0.037953 0.000000 0.000000
# 5 0.000000 0.000000 0.000000 0.000000 0.025234 0.000000
# 6 0.000000 0.000000 0.000000 0.000000 0.000000 0.043347
#
#
# Mechanical properties :
#
#
# Convention : Reuss Voigt Hill
#
# Bulk Modulus (GPa) = 30.57208 33.02798 31.80003
# Shear Modulus (GPa) = 27.58615 32.16835 29.87725
#
# Velocity S-wave (km/s) = 3.33981 3.60654 3.47573
# Velocity P-wave (km/s) = 5.21863 5.54054 5.38199
#
# Compressibility (1/GPa) = 0.03270958
#
# Stress axis : x y z
#
# Youngs Moduli (GPa) = 55.83198 44.38792 127.84246
#
# Poissons Ratio (x) = 0.31270 0.05120
# Poissons Ratio (y) = 0.39332 0.04230
# Poissons Ratio (z) = 0.02236 0.01469
#
# Static dielectric constant tensor:
#      x y z
#    x 2.090750 0.000000 0.000000 
#    y 0.000000 1.968440 0.000000 
#    z 0.000000 0.000000 2.047780 
# 
# From -- ./inp_files/3724.got.cif
#   From: 2010.05.17/outbox.cif.g08.bks.cpg/sg18_2_cif.got.tgz:3724.got - 2010.06.03 22:40:56.
