data_PCOD9312219
_publ_section_title
;
Structure prediction by ZEFSAII (Michael W. Deem and Ramdas Pophale) SiO2 
 PCOD9312219
Probable space group: P 21 21 2
;
_chemical_formula_sum "Si O2"
_cell_formula_units_Z 20
_cell_length_a 7.327898
_cell_length_b 16.122895
_cell_length_c 9.104626
_cell_angle_alpha 90.000000
_cell_angle_beta 90.000000
_cell_angle_gamma 90.000000
_cell_volume 1075.683611
_symmetry_space_group_name_H-M "P 21 21 2"
_symmetry_group_IT_number 18
_symmetry_cell_setting 'orthorhombic'
loop_
_space_group_symop_operation_xyz
x,y,z
-x,-y,z
1/2+x,1/2-y,-z
1/2-x,1/2+y,-z
loop_
_atom_site_type_symbol
_atom_site_label
_atom_site_fract_x
_atom_site_fract_y
_atom_site_fract_z
Si Si1 0.803985 0.305962 0.870519
Si Si2 0.705186 0.468564 0.716023
Si Si3 0.155213 0.352926 0.694970
Si Si4 0.066605 0.724441 0.200609
Si Si5 0.067286 0.590178 0.438357
O O1 0.725839 0.398478 0.839833
O O2 0.648940 0.242590 0.815348
O O3 0.992533 0.306179 0.779580
O O4 0.851637 0.288075 0.038649
O O5 0.500000 0.500000 0.698038
O O6 0.821563 0.551880 0.747527
O O7 0.781677 0.427568 0.564902
O O8 0.339107 0.303685 0.723798
O O9 0.094066 0.362637 0.526700
O O10 0.116616 0.646796 0.302279
O O11 0.000000 0.500000 0.389695
#
# Coordination Sequence:
#
# PCOD9312219 Si02
#       5
#     4   4   4   4   4
#     4  11  23  40  61  92 129 167 205 256 312 377
#     4  10  20  42  67  90 124 171 213 253 323 382
#     4  10  22  40  64  91 123 164 214 254 311 376
#     4  12  23  40  63  95 127 163 213 256 310 370
#     4   9  23  41  60  93 127 162 203 266 310 366
#
# _framework density 18.592827
#
# number of rings (size 3 to 8) (size 9 to 14) (size 15 to 20)
#    0.000    1.600    4.000    1.800    5.600    1.600 
#    3.600    1.000    0.000    0.000    0.000    0.000 
#    0.000    0.000    0.000    0.000    0.000    0.000 
#
# Total GULP energy -111558.394219 kJ/mol
# GULP energy per Si atom -5577.919711 kJ/mol
# Density = 1.855051 g / cm^3
# Si number density = 18.592827 Si / 1000 Ang^3
#
#
#
# Elastic Constant Matrix: (Units=GPa)
#
#
# Indices 1 2 3 4 5 6 
#
# 1 82.9140 10.7361 10.6029 0.0000 0.0000 0.0000
# 2 10.7361 60.4067 30.8686 0.0000 0.0000 0.0000
# 3 10.6029 30.8686 47.7850 0.0000 0.0000 0.0000
# 4 0.0000 0.0000 0.0000 18.8255 0.0000 0.0000
# 5 0.0000 0.0000 0.0000 0.0000 16.6793 0.0000
# 6 0.0000 0.0000 0.0000 0.0000 0.0000 39.0912
#
#
#
# Elastic Compliance Matrix: (Units=1/GPa)
#
#
# Indices 1 2 3 4 5 6 
#
# 1 0.012471 -0.001198 -0.001993 0.000000 0.000000 0.000000
# 2 -0.001198 0.024827 -0.015772 0.000000 0.000000 0.000000
# 3 -0.001993 -0.015772 0.031558 0.000000 0.000000 0.000000
# 4 0.000000 0.000000 0.000000 0.053120 0.000000 0.000000
# 5 0.000000 0.000000 0.000000 0.000000 0.059954 0.000000
# 6 0.000000 0.000000 0.000000 0.000000 0.000000 0.025581
#
#
# Mechanical properties :
#
#
# Convention : Reuss Voigt Hill
#
# Bulk Modulus (GPa) = 32.33202 32.83567 32.58384
# Shear Modulus (GPa) = 19.55049 24.17906 21.86477
#
# Velocity S-wave (km/s) = 3.24621 3.61009 3.43298
# Velocity P-wave (km/s) = 5.61051 5.92248 5.76860
#
# Compressibility (1/GPa) = 0.03092909
#
# Stress axis : x y z
#
# Youngs Moduli (GPa) = 80.18801 40.27836 31.68751
#
# Poissons Ratio (x) = 0.04825 0.06316
# Poissons Ratio (y) = 0.09605 0.49979
# Poissons Ratio (z) = 0.15984 0.63529
#
# Static dielectric constant tensor:
#      x y z
#    x 1.682650 0.000000 0.000000 
#    y 0.000000 1.648450 0.000000 
#    z 0.000000 0.000000 1.609120 
# 
# From -- ./inp_files/3066.got.cif
#   From: 2010.05.17/outbox.cif.g08.bks.cpg/sg18_2_cif.got.tgz:3066.got - 2010.06.03 22:40:56.
