data_PCOD9312031
_publ_section_title
;
Structure prediction by ZEFSAII (Michael W. Deem and Ramdas Pophale) SiO2 
 PCOD9312031
Probable space group: P 21 21 2
;
_chemical_formula_sum "Si O2"
_cell_formula_units_Z 24
_cell_length_a 4.967285
_cell_length_b 8.287076
_cell_length_c 25.537512
_cell_angle_alpha 90.000000
_cell_angle_beta 90.000000
_cell_angle_gamma 90.000000
_cell_volume 1051.232996
_symmetry_space_group_name_H-M "P 21 21 2"
_symmetry_group_IT_number 18
_symmetry_cell_setting 'orthorhombic'
loop_
_space_group_symop_operation_xyz
x,y,z
-x,-y,z
1/2+x,1/2-y,-z
1/2-x,1/2+y,-z
loop_
_atom_site_type_symbol
_atom_site_label
_atom_site_fract_x
_atom_site_fract_y
_atom_site_fract_z
Si Si1 0.000000 0.500000 0.603710
Si Si2 0.688769 0.845696 0.066853
Si Si3 0.000000 0.000000 0.153611
Si Si4 0.500000 0.500000 0.029608
Si Si5 0.220806 0.740337 0.684849
Si Si6 0.797026 0.256498 0.465869
Si Si7 0.182801 0.848200 0.254499
Si Si8 0.500000 0.500000 0.393214
O O1 0.802609 0.400910 0.641494
O O2 0.812348 0.608623 0.567758
O O3 0.896614 0.862539 0.114235
O O4 0.605780 0.657569 0.061163
O O5 0.500000 0.000000 0.080706
O O6 0.798698 0.907202 0.010522
O O7 0.192491 0.901034 0.193828
O O8 0.477683 0.781005 0.721006
O O9 0.973678 0.692471 0.723674
O O10 0.157785 0.886696 0.646590
O O11 0.605926 0.256073 0.517498
O O12 0.707796 0.407628 0.430961
O O13 0.000000 0.000000 0.274883
#
# Coordination Sequence:
#
# PCOD9312031 Si02
#       8
#     2   4   2   2   4   4   4   2
#     4  10  20  36  60  80 106 152 204 224 296 372
#     4  11  22  39  67  99 135 181 233 286 349 414
#     4   9  24  38  66  95 127 182 220 276 343 428
#     4  11  22  40  65  98 138 181 234 294 343 414
#     4  11  22  40  65  94 118 163 208 271 313 388
#     4  11  24  39  57  84 123 161 197 250 313 378
#     4  10  21  40  69  91 126 160 222 260 329 390
#     4  10  26  40  65  97 131 161 218 272 332 392
#
# _framework density 22.830331999999999
#
# number of rings (size 3 to 8) (size 9 to 14) (size 15 to 20)
#    0.500    1.000    3.333    1.000    2.333    8.667 
#    0.000    0.833    3.667    0.000    0.000    0.000 
#    0.000    0.000    0.000    0.000    0.000    0.000 
#
# Total GULP energy -133720.872005 kJ/mol
# GULP energy per Si atom -5571.703000 kJ/mol
# Density = 2.277837 g / cm^3
# Si number density = 22.830332 Si / 1000 Ang^3
#
#
#
# Elastic Constant Matrix: (Units=GPa)
#
#
# Indices 1 2 3 4 5 6 
#
# 1 72.2004 17.8852 28.2261 0.0000 0.0000 0.0000
# 2 17.8852 142.6692 55.0629 0.0000 0.0000 0.0000
# 3 28.2261 55.0629 137.4883 0.0000 0.0000 0.0000
# 4 0.0000 0.0000 0.0000 -10.7911 0.0000 0.0000
# 5 0.0000 0.0000 0.0000 0.0000 -2.9168 0.0000
# 6 0.0000 0.0000 0.0000 0.0000 0.0000 22.5736
#
#
#
# Elastic Compliance Matrix: (Units=1/GPa)
#
#
# Indices 1 2 3 4 5 6 
#
# 1 0.015141 -0.000826 -0.002778 0.000000 0.000000 0.000000
# 2 -0.000826 0.008336 -0.003169 0.000000 0.000000 0.000000
# 3 -0.002778 -0.003169 0.009113 0.000000 0.000000 0.000000
# 4 0.000000 0.000000 0.000000 -0.092669 0.000000 0.000000
# 5 0.000000 0.000000 0.000000 0.000000 -0.342845 0.000000
# 6 0.000000 0.000000 0.000000 0.000000 0.000000 0.044299
#
#
# Mechanical properties :
#
#
# Convention : Reuss Voigt Hill
#
# Bulk Modulus (GPa) = 52.50895 61.63404 57.07149
# Shear Modulus (GPa) = -14.76092 18.51872 1.87890
#
# Velocity S-wave (km/s) = -2.54549 2.85115 0.90817
# Velocity P-wave (km/s) = 3.79608 6.15580 5.11391
#
# Compressibility (1/GPa) = 0.01904437
#
# Stress axis : x y z
#
# Youngs Moduli (GPa) = 66.04653 119.96480 109.73750
#
# Poissons Ratio (x) = 0.09910 0.30480
# Poissons Ratio (y) = 0.05456 0.34774
# Poissons Ratio (z) = 0.18345 0.38015
#
# Static dielectric constant tensor:
#      x y z
#    x 2.140010 0.000000 0.000000 
#    y 0.000000 2.585340 0.000000 
#    z 0.000000 0.000000 1.832210 
# 
# From -- ./inp_files/7616.got.cif
#   From: 2010.05.17/outbox.cif.g08.bks.cpg/sg18_4_cif.got.tgz:7616.got - 2010.06.03 22:40:56.
