data_PCOD9312962
_publ_section_title
;
Structure prediction by ZEFSAII (Michael W. Deem and Ramdas Pophale) SiO2 
 PCOD9312962
Probable space group: P 21 21 2
;
_chemical_formula_sum "Si O2"
_cell_formula_units_Z 12
_cell_length_a 11.191708
_cell_length_b 8.218618
_cell_length_c 4.884029
_cell_angle_alpha 90.000000
_cell_angle_beta 90.000000
_cell_angle_gamma 90.000000
_cell_volume 449.234808
_symmetry_space_group_name_H-M "P 21 21 2"
_symmetry_group_IT_number 18
_symmetry_cell_setting 'orthorhombic'
loop_
_space_group_symop_operation_xyz
x,y,z
-x,-y,z
1/2+x,1/2-y,-z
1/2-x,1/2+y,-z
loop_
_atom_site_type_symbol
_atom_site_label
_atom_site_fract_x
_atom_site_fract_y
_atom_site_fract_z
Si Si1 0.446724 0.177184 0.595652
Si Si2 0.707434 0.715170 0.114652
Si Si3 0.607834 0.388538 0.210834
O O1 0.378998 0.254150 0.853675
O O2 0.549715 0.294450 0.465266
O O3 0.500000 0.000000 0.647701
O O4 0.347069 0.173407 0.352900
O O5 0.836042 0.761681 0.997743
O O6 0.705123 0.532777 0.235885
O O7 0.500000 0.500000 0.104826
#
# Coordination Sequence:
#
# PCOD9312962 Si02
#       3
#     4   4   4
#     4  11  25  45  72 106 145 194 248 306 373 444
#     4  11  25  44  72 107 147 193 244 309 372 439
#     4  10  25  45  72 107 146 191 246 303 368 441
#
# _framework density 26.712091999999998
#
# number of rings (size 3 to 8) (size 9 to 14) (size 15 to 20)
#    0.000    1.333    0.000    3.000    0.000   30.667 
#    0.000    0.000    0.000    0.000    0.000    0.000 
#    0.000    0.000    0.000    0.000    0.000    0.000 
#
# Total GULP energy -67206.731420 kJ/mol
# GULP energy per Si atom -5600.560952 kJ/mol
# Density = 2.665129 g / cm^3
# Si number density = 26.712092 Si / 1000 Ang^3
#
#
#
# Elastic Constant Matrix: (Units=GPa)
#
#
# Indices 1 2 3 4 5 6 
#
# 1 107.7644 77.8443 79.4067 0.0000 0.0000 0.0000
# 2 77.8443 161.0858 63.2930 0.0000 0.0000 0.0000
# 3 79.4067 63.2930 209.6489 0.0000 0.0000 0.0000
# 4 0.0000 0.0000 0.0000 42.5837 0.0000 0.0000
# 5 0.0000 0.0000 0.0000 0.0000 61.2536 0.0000
# 6 0.0000 0.0000 0.0000 0.0000 0.0000 56.1035
#
#
#
# Elastic Compliance Matrix: (Units=1/GPa)
#
#
# Indices 1 2 3 4 5 6 
#
# 1 0.017468 -0.006628 -0.004615 0.000000 0.000000 0.000000
# 2 -0.006628 0.009558 -0.000375 0.000000 0.000000 0.000000
# 3 -0.004615 -0.000375 0.006631 0.000000 0.000000 0.000000
# 4 0.000000 0.000000 0.000000 0.023483 0.000000 0.000000
# 5 0.000000 0.000000 0.000000 0.000000 0.016326 0.000000
# 6 0.000000 0.000000 0.000000 0.000000 0.000000 0.017824
#
#
# Mechanical properties :
#
#
# Convention : Reuss Voigt Hill
#
# Bulk Modulus (GPa) = 95.96317 102.17633 99.06975
# Shear Modulus (GPa) = 42.37263 49.18517 45.77890
#
# Velocity S-wave (km/s) = 3.98712 4.29570 4.14428
# Velocity P-wave (km/s) = 7.56301 7.93335 7.75040
#
# Compressibility (1/GPa) = 0.01042066
#
# Stress axis : x y z
#
# Youngs Moduli (GPa) = 57.24761 104.62161 150.80202
#
# Poissons Ratio (x) = 0.69343 0.69598
# Poissons Ratio (y) = 0.37944 0.05658
# Poissons Ratio (z) = 0.26421 0.03926
#
# Static dielectric constant tensor:
#      x y z
#    x 2.355640 0.000000 0.000000 
#    y 0.000000 2.130750 0.000000 
#    z 0.000000 0.000000 2.010490 
# 
# From -- ./inp_files/23.got.cif
#   From: 2010.05.17/outbox.cif.g08.bks.cpg/sg18_1_cif.got.tgz:23.got - 2010.06.03 22:40:56.
