data_PCOD9312273
_publ_section_title
;
Structure prediction by ZEFSAII (Michael W. Deem and Ramdas Pophale) SiO2 
 PCOD9312273
Probable space group: P 21 21 2
;
_chemical_formula_sum "Si O2"
_cell_formula_units_Z 28
_cell_length_a 9.461062
_cell_length_b 18.246274
_cell_length_c 8.595263
_cell_angle_alpha 90.000000
_cell_angle_beta 90.000000
_cell_angle_gamma 90.000000
_cell_volume 1483.792770
_symmetry_space_group_name_H-M "P 21 21 2"
_symmetry_group_IT_number 18
_symmetry_cell_setting 'orthorhombic'
loop_
_space_group_symop_operation_xyz
x,y,z
-x,-y,z
1/2+x,1/2-y,-z
1/2-x,1/2+y,-z
loop_
_atom_site_type_symbol
_atom_site_label
_atom_site_fract_x
_atom_site_fract_y
_atom_site_fract_z
Si Si1 0.017405 0.782793 0.877002
Si Si2 0.877198 0.214603 0.524395
Si Si3 0.096629 0.938753 0.360268
Si Si4 0.119111 0.119123 0.106819
Si Si5 0.817496 0.662398 0.021788
Si Si6 0.667178 0.010247 0.153909
Si Si7 0.896208 0.734676 0.314221
O O1 0.054399 0.779839 0.695714
O O2 0.164665 0.796562 0.972112
O O3 0.924834 0.851496 0.937669
O O4 0.930987 0.710190 0.924818
O O5 0.952240 0.262133 0.392299
O O6 0.892284 0.132472 0.463507
O O7 0.715222 0.234563 0.547116
O O8 0.249559 0.967684 0.311065
O O9 0.009055 0.919596 0.201329
O O10 0.000000 0.000000 0.439381
O O11 0.137726 0.193117 0.210104
O O12 0.251496 0.064187 0.102809
O O13 0.870539 0.667174 0.199715
O O14 0.808684 0.580208 0.958881
O O15 0.500000 0.000000 0.171898
#
# Coordination Sequence:
#
# PCOD9312273 Si02
#       7
#     4   4   4   4   4   4   4
#     4  10  21  37  62  88 116 157 200 247 293 350
#     4  10  21  36  59  86 114 158 188 239 296 352
#     4   9  19  39  57  80 117 158 194 235 294 357
#     4   9  19  40  58  83 119 155 197 244 289 353
#     4  10  22  38  58  90 116 149 201 249 288 344
#     4  11  23  35  63  90 115 153 200 251 299 347
#     4   9  21  37  58  85 120 150 200 236 291 355
#
# _framework density 18.870560000000001
#
# number of rings (size 3 to 8) (size 9 to 14) (size 15 to 20)
#    0.000    2.286    1.429    0.000    8.000    0.000 
#    5.143    0.000    0.000    3.429    0.000    0.000 
#    0.000    0.000    0.000    0.000    0.000    0.000 
#
# Total GULP energy -156028.797961 kJ/mol
# GULP energy per Si atom -5572.457070 kJ/mol
# Density = 1.882761 g / cm^3
# Si number density = 18.870560 Si / 1000 Ang^3
#
#
#
# Elastic Constant Matrix: (Units=GPa)
#
#
# Indices 1 2 3 4 5 6 
#
# 1 84.5518 14.1310 13.1208 0.0000 0.0000 0.0000
# 2 14.1310 31.4722 5.0188 0.0000 0.0000 0.0000
# 3 13.1208 5.0188 26.6795 0.0000 0.0000 0.0000
# 4 0.0000 0.0000 0.0000 10.4391 0.0000 0.0000
# 5 0.0000 0.0000 0.0000 0.0000 26.0524 0.0000
# 6 0.0000 0.0000 0.0000 0.0000 0.0000 28.6147
#
#
#
# Elastic Compliance Matrix: (Units=1/GPa)
#
#
# Indices 1 2 3 4 5 6 
#
# 1 0.013579 -0.005188 -0.005702 0.000000 0.000000 0.000000
# 2 -0.005188 0.034739 -0.003984 0.000000 0.000000 0.000000
# 3 -0.005702 -0.003984 0.041036 0.000000 0.000000 0.000000
# 4 0.000000 0.000000 0.000000 0.095793 0.000000 0.000000
# 5 0.000000 0.000000 0.000000 0.000000 0.038384 0.000000
# 6 0.000000 0.000000 0.000000 0.000000 0.000000 0.034947
#
#
# Mechanical properties :
#
#
# Convention : Reuss Voigt Hill
#
# Bulk Modulus (GPa) = 16.77676 23.02721 19.90199
# Shear Modulus (GPa) = 16.22884 20.38343 18.30614
#
# Velocity S-wave (km/s) = 2.93577 3.29016 3.11801
# Velocity P-wave (km/s) = 4.51679 5.16360 4.85099
#
# Compressibility (1/GPa) = 0.05960625
#
# Stress axis : x y z
#
# Youngs Moduli (GPa) = 73.64344 28.78649 24.36908
#
# Poissons Ratio (x) = 0.14933 0.13896
# Poissons Ratio (y) = 0.38203 0.09708
# Poissons Ratio (z) = 0.41993 0.11467
#
# Static dielectric constant tensor:
#      x y z
#    x 1.695480 0.000000 0.000000 
#    y 0.000000 1.672700 0.000000 
#    z 0.000000 0.000000 1.650900 
# 
# From -- ./inp_files/3391.got.cif
#   From: 2010.05.17/outbox.cif.g08.bks.cpg/sg18_2_cif.got.tgz:3391.got - 2010.06.03 22:40:56.
