data_PCOD9312391
_publ_section_title
;
Structure prediction by ZEFSAII (Michael W. Deem and Ramdas Pophale) SiO2 
 PCOD9312391
Probable space group: P 21 21 2
;
_chemical_formula_sum "Si O2"
_cell_formula_units_Z 32
_cell_length_a 4.828488
_cell_length_b 16.145860
_cell_length_c 19.026385
_cell_angle_alpha 90.000000
_cell_angle_beta 90.000000
_cell_angle_gamma 90.000000
_cell_volume 1483.298711
_symmetry_space_group_name_H-M "P 21 21 2"
_symmetry_group_IT_number 18
_symmetry_cell_setting 'orthorhombic'
loop_
_space_group_symop_operation_xyz
x,y,z
-x,-y,z
1/2+x,1/2-y,-z
1/2-x,1/2+y,-z
loop_
_atom_site_type_symbol
_atom_site_label
_atom_site_fract_x
_atom_site_fract_y
_atom_site_fract_z
Si Si1 0.596528 0.761351 0.950729
Si Si2 0.414712 0.180925 0.564390
Si Si3 0.942829 0.596782 0.732329
Si Si4 0.912780 0.286926 0.598453
Si Si5 0.897398 0.826862 0.190956
Si Si6 0.319155 0.082536 0.858473
Si Si7 0.243212 0.448818 0.353441
Si Si8 0.698186 0.645959 0.220331
O O1 0.505102 0.701961 0.885860
O O2 0.638114 0.853259 0.921115
O O3 0.376604 0.766035 0.012893
O O4 0.111623 0.206284 0.590285
O O5 0.438846 0.176601 0.480362
O O6 0.556211 0.098698 0.591487
O O7 0.599893 0.253995 0.598957
O O8 0.018384 0.652461 0.662939
O O9 0.651451 0.635810 0.762002
O O10 0.000000 0.500000 0.711847
O O11 0.156757 0.606732 0.797710
O O12 0.720580 0.744542 0.215420
O O13 0.484761 0.123379 0.794393
O O14 0.999668 0.096279 0.834493
O O15 0.500000 0.000000 0.872748
O O16 0.500000 0.500000 0.382972
O O17 0.374673 0.388737 0.295584
O O18 0.000000 0.500000 0.314577
#
# Coordination Sequence:
#
# PCOD9312391 Si02
#       8
#     4   4   4   4   4   4   4   4
#     4  11  23  43  67  92 125 165 206 248 311 389
#     4  10  22  39  60  86 118 164 216 261 314 383
#     4  12  24  41  65  95 127 164 216 275 330 378
#     4  10  21  41  64  84 116 164 217 266 313 376
#     4  11  24  43  67  92 122 163 209 258 311 384
#     4  11  22  38  61  92 124 158 206 256 303 366
#     4  12  23  34  53  87 126 158 193 248 313 370
#     4  11  21  37  61  86 121 164 202 246 306 376
#
# _framework density 21.573537999999999
#
# number of rings (size 3 to 8) (size 9 to 14) (size 15 to 20)
#    0.000    1.000    0.000    9.375    0.000    0.500 
#    0.000    5.000    0.000    0.000    0.000    0.000 
#    0.000    0.000    0.000    0.000    0.000    0.000 
#
# Total GULP energy -178197.422968 kJ/mol
# GULP energy per Si atom -5568.669468 kJ/mol
# Density = 2.152444 g / cm^3
# Si number density = 21.573538 Si / 1000 Ang^3
#
#
#
# Elastic Constant Matrix: (Units=GPa)
#
#
# Indices 1 2 3 4 5 6 
#
# 1 115.7860 11.2492 40.7603 0.0000 0.0000 0.0000
# 2 11.2492 62.8016 46.1880 0.0000 0.0000 0.0000
# 3 40.7603 46.1880 113.5514 0.0000 0.0000 0.0000
# 4 0.0000 0.0000 0.0000 22.6077 0.0000 0.0000
# 5 0.0000 0.0000 0.0000 0.0000 27.7030 0.0000
# 6 0.0000 0.0000 0.0000 0.0000 0.0000 31.5879
#
#
#
# Elastic Compliance Matrix: (Units=1/GPa)
#
#
# Indices 1 2 3 4 5 6 
#
# 1 0.009949 0.001205 -0.004062 0.000000 0.000000 0.000000
# 2 0.001205 0.022866 -0.009733 0.000000 0.000000 0.000000
# 3 -0.004062 -0.009733 0.014224 0.000000 0.000000 0.000000
# 4 0.000000 0.000000 0.000000 0.044233 0.000000 0.000000
# 5 0.000000 0.000000 0.000000 0.000000 0.036097 0.000000
# 6 0.000000 0.000000 0.000000 0.000000 0.000000 0.031658
#
#
# Mechanical properties :
#
#
# Convention : Reuss Voigt Hill
#
# Bulk Modulus (GPa) = 45.74806 54.28155 50.01480
# Shear Modulus (GPa) = 26.11066 29.30914 27.70990
#
# Velocity S-wave (km/s) = 3.48272 3.68988 3.58780
# Velocity P-wave (km/s) = 6.11753 6.58554 6.35585
#
# Compressibility (1/GPa) = 0.02185885
#
# Stress axis : x y z
#
# Youngs Moduli (GPa) = 100.50914 43.73342 70.30551
#
# Poissons Ratio (x) = -0.05270 0.28555
# Poissons Ratio (y) = -0.12111 0.68431
# Poissons Ratio (z) = 0.40822 0.42567
#
# Static dielectric constant tensor:
#      x y z
#    x 1.801880 0.000000 0.000000 
#    y 0.000000 1.985400 0.000000 
#    z 0.000000 0.000000 1.783930 
# 
# From -- ./inp_files/7196.got.cif
#   From: 2010.05.17/outbox.cif.g08.bks.cpg/sg18_4_cif.got.tgz:7196.got - 2010.06.03 22:40:56.
