data_PCOD9312302
_publ_section_title
;
Structure prediction by ZEFSAII (Michael W. Deem and Ramdas Pophale) SiO2 
 PCOD9312302
Probable space group: P 21 21 2
;
_chemical_formula_sum "Si O2"
_cell_formula_units_Z 30
_cell_length_a 5.201766
_cell_length_b 17.856005
_cell_length_c 14.084321
_cell_angle_alpha 90.000000
_cell_angle_beta 90.000000
_cell_angle_gamma 90.000000
_cell_volume 1308.190603
_symmetry_space_group_name_H-M "P 21 21 2"
_symmetry_group_IT_number 18
_symmetry_cell_setting 'orthorhombic'
loop_
_space_group_symop_operation_xyz
x,y,z
-x,-y,z
1/2+x,1/2-y,-z
1/2-x,1/2+y,-z
loop_
_atom_site_type_symbol
_atom_site_label
_atom_site_fract_x
_atom_site_fract_y
_atom_site_fract_z
Si Si1 0.022328 0.420024 0.788985
Si Si2 0.957728 0.878822 0.097558
Si Si3 0.480235 0.212735 0.845540
Si Si4 0.372948 0.293886 0.518810
Si Si5 0.765929 0.141587 0.662454
Si Si6 0.000000 0.000000 0.759377
Si Si7 0.121682 0.275421 0.707132
Si Si8 0.808507 0.433386 0.069670
O O1 0.295540 0.403508 0.840582
O O2 0.958451 0.349353 0.723471
O O3 0.000000 0.500000 0.739722
O O4 0.796908 0.419661 0.865169
O O5 0.907629 0.789294 0.109703
O O6 0.945123 0.910070 0.990690
O O7 0.586171 0.177470 0.745611
O O8 0.208017 0.244888 0.809541
O O9 0.462495 0.144545 0.917814
O O10 0.675021 0.274575 0.507520
O O11 0.237602 0.357490 0.452269
O O12 0.333987 0.302624 0.631962
O O13 0.852698 0.061290 0.697812
O O14 0.986833 0.204078 0.664277
O O15 0.199970 0.042319 0.827758
O O16 0.000000 0.500000 0.038813
#
# Coordination Sequence:
#
# PCOD9312302 Si02
#       8
#     4   4   4   4   4   2   4   4
#     4  11  24  43  69  96 135 176 224 284 344 399
#     4  11  27  44  67  98 132 181 232 284 332 408
#     4  11  22  43  67  95 133 178 232 281 338 409
#     4  10  21  37  71 100 130 172 224 273 325 410
#     4  11  21  41  67 100 134 177 228 274 350 402
#     4  12  26  40  68  98 140 182 220 292 346 420
#     4  10  21  41  68  98 131 180 225 274 340 405
#     4  12  27  43  66  96 138 181 228 287 348 409
#
# _framework density 22.932438999999999
#
# number of rings (size 3 to 8) (size 9 to 14) (size 15 to 20)
#    0.000    1.067    5.333    0.800    3.733    3.200 
#    0.000    0.000   20.533    0.000    0.000    0.000 
#    0.000    0.000    0.000    0.000    0.000    0.000 
#
# Total GULP energy -167039.647150 kJ/mol
# GULP energy per Si atom -5567.988238 kJ/mol
# Density = 2.288024 g / cm^3
# Si number density = 22.932439 Si / 1000 Ang^3
#
#
#
# Elastic Constant Matrix: (Units=GPa)
#
#
# Indices 1 2 3 4 5 6 
#
# 1 59.5511 -0.3283 2.1837 0.0000 0.0000 0.0000
# 2 -0.3283 135.9401 17.6541 0.0000 0.0000 0.0000
# 3 2.1837 17.6541 43.9354 0.0000 0.0000 0.0000
# 4 0.0000 0.0000 0.0000 16.5551 0.0000 0.0000
# 5 0.0000 0.0000 0.0000 0.0000 28.7903 0.0000
# 6 0.0000 0.0000 0.0000 0.0000 0.0000 21.2883
#
#
#
# Elastic Compliance Matrix: (Units=1/GPa)
#
#
# Indices 1 2 3 4 5 6 
#
# 1 0.016826 0.000157 -0.000900 0.000000 0.000000 0.000000
# 2 0.000157 0.007763 -0.003127 0.000000 0.000000 0.000000
# 3 -0.000900 -0.003127 0.024062 0.000000 0.000000 0.000000
# 4 0.000000 0.000000 0.000000 0.060404 0.000000 0.000000
# 5 0.000000 0.000000 0.000000 0.000000 0.034734 0.000000
# 6 0.000000 0.000000 0.000000 0.000000 0.000000 0.046974
#
#
# Mechanical properties :
#
#
# Convention : Reuss Voigt Hill
#
# Bulk Modulus (GPa) = 24.44245 30.93839 27.69042
# Shear Modulus (GPa) = 23.56946 27.98788 25.77867
#
# Velocity S-wave (km/s) = 3.20938 3.49728 3.35642
# Velocity P-wave (km/s) = 4.94116 5.46154 5.20785
#
# Compressibility (1/GPa) = 0.04091242
#
# Stress axis : x y z
#
# Youngs Moduli (GPa) = 59.43132 128.82189 41.55953
#
# Poissons Ratio (x) = -0.02029 0.03739
# Poissons Ratio (y) = -0.00936 0.12996
# Poissons Ratio (z) = 0.05346 0.40283
#
# Static dielectric constant tensor:
#      x y z
#    x 1.972360 0.000000 0.000000 
#    y 0.000000 1.894580 0.000000 
#    z 0.000000 0.000000 2.208250 
# 
# From -- ./inp_files/6535.got.cif
#   From: 2010.05.17/outbox.cif.g08.bks.cpg/sg18_4_cif.got.tgz:6535.got - 2010.06.03 22:40:56.
