data_PCOD9312231
_publ_section_title
;
Structure prediction by ZEFSAII (Michael W. Deem and Ramdas Pophale) SiO2 
 PCOD9312231
Probable space group: P 21 21 2
;
_chemical_formula_sum "Si O2"
_cell_formula_units_Z 20
_cell_length_a 8.206460
_cell_length_b 17.351578
_cell_length_c 5.556122
_cell_angle_alpha 90.000000
_cell_angle_beta 90.000000
_cell_angle_gamma 90.000000
_cell_volume 791.164163
_symmetry_space_group_name_H-M "P 21 21 2"
_symmetry_group_IT_number 18
_symmetry_cell_setting 'orthorhombic'
loop_
_space_group_symop_operation_xyz
x,y,z
-x,-y,z
1/2+x,1/2-y,-z
1/2-x,1/2+y,-z
loop_
_atom_site_type_symbol
_atom_site_label
_atom_site_fract_x
_atom_site_fract_y
_atom_site_fract_z
Si Si1 0.873372 0.750156 0.026076
Si Si2 0.000000 0.000000 0.137523
Si Si3 0.000000 0.500000 0.097590
Si Si4 0.210650 0.902572 0.773211
Si Si5 0.080380 0.139833 0.414867
Si Si6 0.888166 0.349315 0.806213
O O1 0.795526 0.676570 0.153776
O O2 0.981383 0.797024 0.220709
O O3 0.735223 0.814302 0.989928
O O4 0.966651 0.713593 0.801509
O O5 0.893657 0.943852 0.295160
O O6 0.114514 0.945454 0.984517
O O7 0.857598 0.536129 0.267139
O O8 0.948964 0.429743 0.917182
O O9 0.064677 0.878825 0.595354
O O10 0.274338 0.158973 0.430694
#
# Coordination Sequence:
#
# PCOD9312231 Si02
#       6
#     4   2   2   4   4   4
#     4   9  20  40  69 103 137 193 232 297 348 434
#     4  12  22  44  74  96 144 196 228 292 358 430
#     4  10  20  42  76 110 136 192 244 304 344 438
#     4  11  22  43  73 102 145 181 247 292 360 417
#     4  10  23  42  68 108 140 186 234 296 360 427
#     4   9  19  41  70 104 143 188 241 290 366 416
#
# _framework density 25.279202999999999
#
# number of rings (size 3 to 8) (size 9 to 14) (size 15 to 20)
#    1.200    0.800    2.000    1.800    0.000    0.000 
#    3.600    7.000   13.200    0.000    0.000    0.000 
#    0.000    0.000    0.000    0.000    0.000    0.000 
#
# Total GULP energy -111335.743690 kJ/mol
# GULP energy per Si atom -5566.787185 kJ/mol
# Density = 2.522167 g / cm^3
# Si number density = 25.279203 Si / 1000 Ang^3
#
#
#
# Elastic Constant Matrix: (Units=GPa)
#
#
# Indices 1 2 3 4 5 6 
#
# 1 103.2759 36.3793 23.8831 0.0000 0.0000 0.0000
# 2 36.3793 125.0852 20.4284 0.0000 0.0000 0.0000
# 3 23.8831 20.4284 47.6075 0.0000 0.0000 0.0000
# 4 0.0000 0.0000 0.0000 10.3276 0.0000 0.0000
# 5 0.0000 0.0000 0.0000 0.0000 74.9236 0.0000
# 6 0.0000 0.0000 0.0000 0.0000 0.0000 73.2068
#
#
#
# Elastic Compliance Matrix: (Units=1/GPa)
#
#
# Indices 1 2 3 4 5 6 
#
# 1 0.011706 -0.002630 -0.004744 0.000000 0.000000 0.000000
# 2 -0.002630 0.009188 -0.002623 0.000000 0.000000 0.000000
# 3 -0.004744 -0.002623 0.024511 0.000000 0.000000 0.000000
# 4 0.000000 0.000000 0.000000 0.096828 0.000000 0.000000
# 5 0.000000 0.000000 0.000000 0.000000 0.013347 0.000000
# 6 0.000000 0.000000 0.000000 0.000000 0.000000 0.013660
#
#
# Mechanical properties :
#
#
# Convention : Reuss Voigt Hill
#
# Bulk Modulus (GPa) = 39.35401 48.59448 43.97425
# Shear Modulus (GPa) = 25.29030 44.71012 35.00021
#
# Velocity S-wave (km/s) = 3.16640 4.21010 3.72499
# Velocity P-wave (km/s) = 5.38235 6.54966 5.99449
#
# Compressibility (1/GPa) = 0.02541037
#
# Stress axis : x y z
#
# Youngs Moduli (GPa) = 85.42422 108.83997 40.79852
#
# Poissons Ratio (x) = 0.28623 0.19356
# Poissons Ratio (y) = 0.22465 0.10702
# Poissons Ratio (z) = 0.40527 0.28551
#
# Static dielectric constant tensor:
#      x y z
#    x 2.148650 0.000000 0.000000 
#    y 0.000000 1.910940 0.000000 
#    z 0.000000 0.000000 2.096400 
# 
# From -- ./inp_files/495.got.cif
#   From: 2010.05.17/outbox.cif.g08.bks.cpg/sg18_1_cif.got.tgz:495.got - 2010.06.03 22:40:56.
