data_PCOD9312779
_publ_section_title
;
Structure prediction by ZEFSAII (Michael W. Deem and Ramdas Pophale) SiO2 
 PCOD9312779
Probable space group: P 21 21 2
;
_chemical_formula_sum "Si O2"
_cell_formula_units_Z 26
_cell_length_a 8.160184
_cell_length_b 21.150209
_cell_length_c 6.837916
_cell_angle_alpha 90.000000
_cell_angle_beta 90.000000
_cell_angle_gamma 90.000000
_cell_volume 1180.153167
_symmetry_space_group_name_H-M "P 21 21 2"
_symmetry_group_IT_number 18
_symmetry_cell_setting 'orthorhombic'
loop_
_space_group_symop_operation_xyz
x,y,z
-x,-y,z
1/2+x,1/2-y,-z
1/2-x,1/2+y,-z
loop_
_atom_site_type_symbol
_atom_site_label
_atom_site_fract_x
_atom_site_fract_y
_atom_site_fract_z
Si Si1 0.459058 0.402831 0.590936
Si Si2 0.744138 0.308759 0.548668
Si Si3 0.760887 0.030751 0.747217
Si Si4 0.579551 0.898971 0.717723
Si Si5 0.890701 0.297239 0.958524
Si Si6 0.500000 0.500000 0.905594
Si Si7 0.756064 0.699663 0.763029
O O1 0.580659 0.349160 0.513487
O O2 0.385993 0.443643 0.414978
O O3 0.549047 0.444360 0.756054
O O4 0.309744 0.367721 0.698318
O O5 0.891486 0.352635 0.465779
O O6 0.768830 0.296146 0.775881
O O7 0.735711 0.244773 0.426287
O O8 0.606197 0.078280 0.751197
O O9 0.687951 0.961955 0.693757
O O10 0.855066 0.022921 0.952131
O O11 0.638534 0.857271 0.901545
O O12 0.071033 0.301612 0.869935
O O13 0.867569 0.234839 0.088687
#
# Coordination Sequence:
#
# PCOD9312779 Si02
#       7
#     4   4   4   4   4   2   4
#     4  12  25  42  66  97 129 168 217 267 323 390
#     4  11  23  41  65  92 130 169 211 266 326 388
#     4  11  24  42  64  92 127 166 217 268 321 385
#     4  10  23  42  64  91 125 170 214 266 324 383
#     4  11  23  42  64  94 132 170 218 268 326 394
#     4  12  24  40  64  92 124 166 210 262 320 378
#     4  11  25  41  65  97 129 171 215 267 328 388
#
# _framework density 22.031037999999999
#
# number of rings (size 3 to 8) (size 9 to 14) (size 15 to 20)
#    0.000    0.923    0.000    6.923    0.000    9.846 
#    0.000    3.077    0.000    0.000    0.000    0.000 
#    0.000    0.000    0.000    0.000    0.000    0.000 
#
# Total GULP energy -145602.436949 kJ/mol
# GULP energy per Si atom -5600.093729 kJ/mol
# Density = 2.198089 g / cm^3
# Si number density = 22.031038 Si / 1000 Ang^3
#
#
#
# Elastic Constant Matrix: (Units=GPa)
#
#
# Indices 1 2 3 4 5 6 
#
# 1 67.7692 0.5601 19.0088 0.0000 0.0000 0.0000
# 2 0.5601 65.3742 43.5559 0.0000 0.0000 0.0000
# 3 19.0088 43.5559 135.1423 0.0000 0.0000 0.0000
# 4 0.0000 0.0000 0.0000 25.0842 0.0000 0.0000
# 5 0.0000 0.0000 0.0000 0.0000 31.1856 0.0000
# 6 0.0000 0.0000 0.0000 0.0000 0.0000 37.0591
#
#
#
# Elastic Compliance Matrix: (Units=1/GPa)
#
#
# Indices 1 2 3 4 5 6 
#
# 1 0.015506 0.001681 -0.002723 0.000000 0.000000 0.000000
# 2 0.001681 0.019662 -0.006573 0.000000 0.000000 0.000000
# 3 -0.002723 -0.006573 0.009901 0.000000 0.000000 0.000000
# 4 0.000000 0.000000 0.000000 0.039866 0.000000 0.000000
# 5 0.000000 0.000000 0.000000 0.000000 0.032066 0.000000
# 6 0.000000 0.000000 0.000000 0.000000 0.000000 0.026984
#
#
# Mechanical properties :
#
#
# Convention : Reuss Voigt Hill
#
# Bulk Modulus (GPa) = 33.51347 43.83724 38.67536
# Shear Modulus (GPa) = 29.55769 32.34317 30.95043
#
# Velocity S-wave (km/s) = 3.66681 3.83570 3.75221
# Velocity P-wave (km/s) = 5.75954 6.28951 6.03035
#
# Compressibility (1/GPa) = 0.02983875
#
# Stress axis : x y z
#
# Youngs Moduli (GPa) = 64.49191 50.86029 100.99801
#
# Poissons Ratio (x) = -0.08551 0.27501
# Poissons Ratio (y) = -0.10843 0.66390
# Poissons Ratio (z) = 0.17560 0.33432
#
# Static dielectric constant tensor:
#      x y z
#    x 1.823710 0.000000 0.000000 
#    y 0.000000 1.779500 0.000000 
#    z 0.000000 0.000000 1.771640 
# 
# From -- ./inp_files/623.got.cif
#   From: 2010.05.17/outbox.cif.g08.bks.cpg/sg18_1_cif.got.tgz:623.got - 2010.06.03 22:40:56.
