data_PCOD9312030
_publ_section_title
;
Structure prediction by ZEFSAII (Michael W. Deem and Ramdas Pophale) SiO2 
 PCOD9312030
Probable space group: P 21 21 2
;
_chemical_formula_sum "Si O2"
_cell_formula_units_Z 32
_cell_length_a 8.153352
_cell_length_b 12.448455
_cell_length_c 13.351200
_cell_angle_alpha 90.000000
_cell_angle_beta 90.000000
_cell_angle_gamma 90.000000
_cell_volume 1355.101880
_symmetry_space_group_name_H-M "P 21 21 2"
_symmetry_group_IT_number 18
_symmetry_cell_setting 'orthorhombic'
loop_
_space_group_symop_operation_xyz
x,y,z
-x,-y,z
1/2+x,1/2-y,-z
1/2-x,1/2+y,-z
loop_
_atom_site_type_symbol
_atom_site_label
_atom_site_fract_x
_atom_site_fract_y
_atom_site_fract_z
Si Si1 0.695607 0.011598 0.369591
Si Si2 0.318764 0.944431 0.592902
Si Si3 0.670750 0.288598 0.689306
Si Si4 0.661352 0.427044 0.234925
Si Si5 0.198380 0.633555 0.903063
Si Si6 0.690599 0.700893 0.768648
Si Si7 0.965573 0.211784 0.011433
Si Si8 0.694039 0.521910 0.035499
O O1 0.729412 0.065393 0.477038
O O2 0.751032 0.088670 0.278893
O O3 0.500000 0.000000 0.358999
O O4 0.782670 0.894849 0.373692
O O5 0.287130 0.828049 0.644372
O O6 0.500000 0.000000 0.594168
O O7 0.221500 0.029416 0.659702
O O8 0.760700 0.324336 0.793356
O O9 0.476169 0.276484 0.706363
O O10 0.500000 0.500000 0.217142
O O11 0.676110 0.297786 0.238282
O O12 0.761638 0.463534 0.134734
O O13 0.349516 0.674106 0.973773
O O14 0.035438 0.676538 0.954301
O O15 0.212608 0.509225 0.934201
O O16 0.618524 0.702866 0.880714
O O17 0.838378 0.145776 0.940711
O O18 0.500000 0.500000 0.011182
#
# Coordination Sequence:
#
# PCOD9312030 Si02
#       8
#     4   4   4   4   4   4   4   4
#     4  11  28  45  68  99 131 177 229 297 351 411
#     4  11  25  46  68 100 135 170 227 289 350 415
#     4  11  24  44  70  96 140 183 224 284 348 420
#     4  11  23  39  68 102 134 181 224 284 344 413
#     4  10  20  36  59  93 123 173 217 259 336 392
#     4  11  23  44  69  99 136 179 235 277 351 422
#     4  10  20  36  61  90 128 172 215 272 321 404
#     4   9  18  35  57  87 131 168 217 267 324 394
#
# _framework density 23.614460999999999
#
# number of rings (size 3 to 8) (size 9 to 14) (size 15 to 20)
#    0.000    1.500    2.500    1.875    3.500    4.000 
#    0.000    0.625    0.000    0.000    0.000    0.000 
#    0.000    0.000    0.000    0.000    0.000    0.000 
#
# Total GULP energy -178196.567024 kJ/mol
# GULP energy per Si atom -5568.642719 kJ/mol
# Density = 2.356071 g / cm^3
# Si number density = 23.614461 Si / 1000 Ang^3
#
#
#
# Elastic Constant Matrix: (Units=GPa)
#
#
# Indices 1 2 3 4 5 6 
#
# 1 38.0269 18.1986 12.3556 0.0000 0.0000 0.0000
# 2 18.1986 106.4279 3.3255 0.0000 0.0000 0.0000
# 3 12.3556 3.3255 87.1278 0.0000 0.0000 0.0000
# 4 0.0000 0.0000 0.0000 35.7911 0.0000 0.0000
# 5 0.0000 0.0000 0.0000 0.0000 19.3816 0.0000
# 6 0.0000 0.0000 0.0000 0.0000 0.0000 39.6430
#
#
#
# Elastic Compliance Matrix: (Units=1/GPa)
#
#
# Indices 1 2 3 4 5 6 
#
# 1 0.030013 -0.005005 -0.004065 0.000000 0.000000 0.000000
# 2 -0.005005 0.010242 0.000319 0.000000 0.000000 0.000000
# 3 -0.004065 0.000319 0.012042 0.000000 0.000000 0.000000
# 4 0.000000 0.000000 0.000000 0.027940 0.000000 0.000000
# 5 0.000000 0.000000 0.000000 0.000000 0.051595 0.000000
# 6 0.000000 0.000000 0.000000 0.000000 0.000000 0.025225
#
#
# Mechanical properties :
#
#
# Convention : Reuss Voigt Hill
#
# Bulk Modulus (GPa) = 28.74048 33.26023 31.00036
# Shear Modulus (GPa) = 26.85889 32.14333 29.50111
#
# Velocity S-wave (km/s) = 3.37618 3.69341 3.53835
# Velocity P-wave (km/s) = 5.23405 5.68363 5.46346
#
# Compressibility (1/GPa) = 0.03479412
#
# Stress axis : x y z
#
# Youngs Moduli (GPa) = 33.31859 97.63805 83.04468
#
# Poissons Ratio (x) = 0.48869 0.33759
# Poissons Ratio (y) = 0.16676 -0.02648
# Poissons Ratio (z) = 0.13545 -0.03113
#
# Static dielectric constant tensor:
#      x y z
#    x 1.929010 0.000000 0.000000 
#    y 0.000000 3.171230 0.000000 
#    z 0.000000 0.000000 1.879580 
# 
# From -- ./inp_files/6791.got.cif
#   From: 2010.05.17/outbox.cif.g08.bks.cpg/sg18_4_cif.got.tgz:6791.got - 2010.06.03 22:40:56.
