data_PCOD9312557
_publ_section_title
;
Structure prediction by ZEFSAII (Michael W. Deem and Ramdas Pophale) SiO2 
 PCOD9312557
Probable space group: P 21 21 2
;
_chemical_formula_sum "Si O2"
_cell_formula_units_Z 24
_cell_length_a 8.320802
_cell_length_b 8.611544
_cell_length_c 16.486228
_cell_angle_alpha 90.000000
_cell_angle_beta 90.000000
_cell_angle_gamma 90.000000
_cell_volume 1181.319885
_symmetry_space_group_name_H-M "P 21 21 2"
_symmetry_group_IT_number 18
_symmetry_cell_setting 'orthorhombic'
loop_
_space_group_symop_operation_xyz
x,y,z
-x,-y,z
1/2+x,1/2-y,-z
1/2-x,1/2+y,-z
loop_
_atom_site_type_symbol
_atom_site_label
_atom_site_fract_x
_atom_site_fract_y
_atom_site_fract_z
Si Si1 0.564502 0.670498 0.745467
Si Si2 0.927919 0.316928 0.589463
Si Si3 0.065751 0.171331 0.927577
Si Si4 0.448637 0.173183 0.909684
Si Si5 0.447047 0.822117 0.238795
Si Si6 0.061073 0.317861 0.417988
O O1 0.500000 0.500000 0.730668
O O2 0.497472 0.727077 0.832092
O O3 0.755446 0.676496 0.754528
O O4 0.517656 0.765157 0.666046
O O5 0.741815 0.257465 0.586789
O O6 0.000000 0.500000 0.592523
O O7 0.988036 0.255639 0.676413
O O8 0.998481 0.254627 0.504823
O O9 0.257040 0.176165 0.918776
O O10 0.998484 0.232477 0.841760
O O11 0.000000 0.000000 0.942596
O O12 0.020272 0.272775 0.005160
O O13 0.500000 0.000000 0.891684
O O14 0.500000 0.000000 0.229619
O O15 0.000000 0.500000 0.421974
#
# Coordination Sequence:
#
# PCOD9312557 Si02
#       6
#     4   4   4   4   4   4
#     4  11  23  40  64  94 129 170 215 267 326 390
#     4  10  22  42  67  96 132 175 219 272 333 397
#     4  11  24  40  62  90 122 161 206 259 320 381
#     4  11  24  41  63  90 124 162 209 262 317 385
#     4  10  22  40  61  89 123 166 212 261 318 384
#     4  11  24  43  68  99 133 174 223 277 331 395
#
# _framework density 20.316258999999999
#
# number of rings (size 3 to 8) (size 9 to 14) (size 15 to 20)
#    0.000    1.333    0.000    5.500    0.000   12.000 
#    0.000    4.167    0.000    0.000    0.000    0.000 
#    0.000    0.000    0.000    0.000    0.000    0.000 
#
# Total GULP energy -133706.698563 kJ/mol
# GULP energy per Si atom -5571.112440 kJ/mol
# Density = 2.027002 g / cm^3
# Si number density = 20.316259 Si / 1000 Ang^3
#
#
#
# Elastic Constant Matrix: (Units=GPa)
#
#
# Indices 1 2 3 4 5 6 
#
# 1 69.3522 11.4123 11.8528 0.0000 0.0000 0.0000
# 2 11.4123 47.0887 3.7576 0.0000 0.0000 0.0000
# 3 11.8528 3.7576 116.9611 0.0000 0.0000 0.0000
# 4 0.0000 0.0000 0.0000 226.4027 0.0000 0.0000
# 5 0.0000 0.0000 0.0000 0.0000 47.5440 0.0000
# 6 0.0000 0.0000 0.0000 0.0000 0.0000 28.9284
#
#
#
# Elastic Compliance Matrix: (Units=1/GPa)
#
#
# Indices 1 2 3 4 5 6 
#
# 1 0.015253 -0.003583 -0.001431 0.000000 0.000000 0.000000
# 2 -0.003583 0.022133 -0.000348 0.000000 0.000000 0.000000
# 3 -0.001431 -0.000348 0.008706 0.000000 0.000000 0.000000
# 4 0.000000 0.000000 0.000000 0.004417 0.000000 0.000000
# 5 0.000000 0.000000 0.000000 0.000000 0.021033 0.000000
# 6 0.000000 0.000000 0.000000 0.000000 0.000000 0.034568
#
#
# Mechanical properties :
#
#
# Convention : Reuss Voigt Hill
#
# Bulk Modulus (GPa) = 28.27307 31.93860 30.10583
# Shear Modulus (GPa) = 38.87355 74.33363 56.60359
#
# Velocity S-wave (km/s) = 4.37901 6.05538 5.28410
# Velocity P-wave (km/s) = 6.28604 8.04022 7.21663
#
# Compressibility (1/GPa) = 0.03536935
#
# Stress axis : x y z
#
# Youngs Moduli (GPa) = 65.56000 45.18229 114.86314
#
# Poissons Ratio (x) = 0.16187 0.16433
# Poissons Ratio (y) = 0.23487 0.03997
# Poissons Ratio (z) = 0.09379 0.01572
#
# Static dielectric constant tensor:
#      x y z
#    x 1.719880 0.000000 0.000000 
#    y 0.000000 1.792800 0.000000 
#    z 0.000000 0.000000 1.711730 
# 
# From -- ./inp_files/6645.got.cif
#   From: 2010.05.17/outbox.cif.g08.bks.cpg/sg18_4_cif.got.tgz:6645.got - 2010.06.03 22:40:56.
