data_PCOD9312305
_publ_section_title
;
Structure prediction by ZEFSAII (Michael W. Deem and Ramdas Pophale) SiO2 
 PCOD9312305
Probable space group: P 21 21 2
;
_chemical_formula_sum "Si O2"
_cell_formula_units_Z 32
_cell_length_a 28.824285
_cell_length_b 8.861625
_cell_length_c 7.141793
_cell_angle_alpha 90.000000
_cell_angle_beta 90.000000
_cell_angle_gamma 90.000000
_cell_volume 1824.228219
_symmetry_space_group_name_H-M "P 21 21 2"
_symmetry_group_IT_number 18
_symmetry_cell_setting 'orthorhombic'
loop_
_space_group_symop_operation_xyz
x,y,z
-x,-y,z
1/2+x,1/2-y,-z
1/2-x,1/2+y,-z
loop_
_atom_site_type_symbol
_atom_site_label
_atom_site_fract_x
_atom_site_fract_y
_atom_site_fract_z
Si Si1 0.374408 0.070410 0.706847
Si Si2 0.124414 0.429128 0.698817
Si Si3 0.949071 0.930684 0.018469
Si Si4 0.624414 0.429128 0.301184
Si Si5 0.050929 0.430684 0.018470
Si Si6 0.874408 0.070410 0.293152
Si Si7 0.199263 0.430424 0.017498
Si Si8 0.300737 0.569576 0.982502
O O1 0.374836 0.021320 0.491457
O O2 0.418719 0.000814 0.814102
O O3 0.329556 0.002328 0.811944
O O4 0.374639 0.250000 0.725702
O O5 0.124153 0.250000 0.656132
O O6 0.079731 0.462566 0.828295
O O7 0.168737 0.460326 0.831125
O O8 0.950893 0.750000 0.040915
O O9 0.918719 0.000814 0.185898
O O10 0.920269 0.962566 0.828294
O O11 0.000000 0.000000 0.012605
O O12 0.625164 0.521319 0.491458
O O13 0.668737 0.460326 0.168876
O O14 0.000000 0.500000 0.012606
O O15 0.829556 0.002328 0.188056
O O16 0.201446 0.250000 0.042023
O O17 0.250000 0.500000 0.000000
#
# Coordination Sequence:
#
# PCOD9312305 Si02
#       8
#     4   4   4   4   4   4   4   4
#     4  11  22  36  57  83 112 146 183 225 273 326
#     4   9  20  38  57  79 110 146 183 226 273 320
#     4  10  21  38  59  82 111 145 183 228 274 324
#     4   9  20  38  57  79 110 146 183 226 273 320
#     4  10  21  38  59  82 111 145 183 228 274 324
#     4  11  22  36  57  83 112 146 183 225 273 326
#     4  10  21  38  59  82 111 145 183 228 274 324
#     4  10  21  38  59  82 111 145 183 228 274 324
#
# _framework density 17.541664000000001
#
# number of rings (size 3 to 8) (size 9 to 14) (size 15 to 20)
#    0.000    2.000    0.000    5.250    0.000    8.000 
#    0.000    2.500    0.000    0.000    0.000    0.000 
#    0.000    0.000    0.000    0.000    0.000    0.000 
#
# Total GULP energy -178744.648900 kJ/mol
# GULP energy per Si atom -5585.770278 kJ/mol
# Density = 1.750174 g / cm^3
# Si number density = 17.541664 Si / 1000 Ang^3
#
#
#
# Elastic Constant Matrix: (Units=GPa)
#
#
# Indices 1 2 3 4 5 6 
#
# 1 178.4808 87.7684 71.8350 0.0000 0.0000 0.0000
# 2 87.7684 127.5343 96.2528 0.0000 0.0000 0.0000
# 3 71.8350 96.2528 131.8154 0.0000 0.0000 0.0000
# 4 0.0000 0.0000 0.0000 29.4708 0.0000 0.0000
# 5 0.0000 0.0000 0.0000 0.0000 3.4341 0.0000
# 6 0.0000 0.0000 0.0000 0.0000 0.0000 35.9302
#
#
#
# Elastic Compliance Matrix: (Units=1/GPa)
#
#
# Indices 1 2 3 4 5 6 
#
# 1 0.008507 -0.005247 -0.000804 0.000000 0.000000 0.000000
# 2 -0.005247 0.020704 -0.012259 0.000000 0.000000 0.000000
# 3 -0.000804 -0.012259 0.016976 0.000000 0.000000 0.000000
# 4 0.000000 0.000000 0.000000 0.033932 0.000000 0.000000
# 5 0.000000 0.000000 0.000000 0.000000 0.291194 0.000000
# 6 0.000000 0.000000 0.000000 0.000000 0.000000 0.027832
#
#
# Mechanical properties :
#
#
# Convention : Reuss Voigt Hill
#
# Bulk Modulus (GPa) = 104.53260 105.50475 105.01867
# Shear Modulus (GPa) = 11.39070 25.89864 18.64467
#
# Velocity S-wave (km/s) = 2.55100 3.84657 3.26372
# Velocity P-wave (km/s) = 8.27026 8.94449 8.61398
#
# Compressibility (1/GPa) = 0.00956639
#
# Stress axis : x y z
#
# Youngs Moduli (GPa) = 117.55009 48.29934 58.90634
#
# Poissons Ratio (x) = 0.25345 0.04738
# Poissons Ratio (y) = 0.61684 0.72212
# Poissons Ratio (z) = 0.09454 0.59209
#
# Static dielectric constant tensor:
#      x y z
#    x 1.570970 0.000000 0.000000 
#    y 0.000000 1.583610 0.000000 
#    z 0.000000 0.000000 1.570140 
# 
# From -- ./inp_files/2303.got.cif
#   From: 2010.05.17/outbox.cif.g08.bks.cpg/sg18_2_cif.got.tgz:2303.got - 2010.06.03 22:40:56.
