data_PCOD9312015
_publ_section_title
;
Structure prediction by ZEFSAII (Michael W. Deem and Ramdas Pophale) SiO2 
 PCOD9312015
Probable space group: P 21 21 2
;
_chemical_formula_sum "Si O2"
_cell_formula_units_Z 20
_cell_length_a 13.457598
_cell_length_b 5.036532
_cell_length_c 12.500212
_cell_angle_alpha 90.000000
_cell_angle_beta 90.000000
_cell_angle_gamma 90.000000
_cell_volume 847.259656
_symmetry_space_group_name_H-M "P 21 21 2"
_symmetry_group_IT_number 18
_symmetry_cell_setting 'orthorhombic'
loop_
_space_group_symop_operation_xyz
x,y,z
-x,-y,z
1/2+x,1/2-y,-z
1/2-x,1/2+y,-z
loop_
_atom_site_type_symbol
_atom_site_label
_atom_site_fract_x
_atom_site_fract_y
_atom_site_fract_z
Si Si1 0.365781 0.873490 0.094938
Si Si2 0.500000 0.000000 0.588080
Si Si3 0.000000 0.000000 0.267339
Si Si4 0.659594 0.390687 0.889968
Si Si5 0.663988 0.633983 0.218514
Si Si6 0.690131 0.788689 0.463733
O O1 0.247924 0.921283 0.067431
O O2 0.370604 0.657890 0.188821
O O3 0.396822 0.154629 0.144798
O O4 0.402355 0.748349 0.984418
O O5 0.527051 0.248930 0.661620
O O6 0.591977 0.904007 0.518016
O O7 0.091832 0.944396 0.189644
O O8 0.722790 0.177081 0.821945
O O9 0.665078 0.706957 0.342413
O O10 0.769731 0.027963 0.474446
#
# Coordination Sequence:
#
# PCOD9312015 Si02
#       6
#     4   2   2   4   4   4
#     4  10  20  35  65  89 127 162 220 256 318 420
#     4  12  28  48  62 110 132 176 240 308 320 434
#     4  12  28  38  70  94 142 164 222 294 360 376
#     4  10  21  39  61  97 124 173 206 274 326 418
#     4  10  20  36  63  89 118 176 212 266 322 401
#     4  12  25  44  71  95 136 185 231 284 354 405
#
# _framework density 23.605512000000001
#
# number of rings (size 3 to 8) (size 9 to 14) (size 15 to 20)
#    1.200    0.000    2.000    4.800    5.600    0.000 
#    0.000    2.000    0.000    0.000    0.000    0.000 
#    0.000    0.000    0.000    0.000    0.000    0.000 
#
# Total GULP energy -111820.524478 kJ/mol
# GULP energy per Si atom -5591.026224 kJ/mol
# Density = 2.355178 g / cm^3
# Si number density = 23.605512 Si / 1000 Ang^3
#
#
#
# Elastic Constant Matrix: (Units=GPa)
#
#
# Indices 1 2 3 4 5 6 
#
# 1 50.3796 11.0772 26.1477 0.0000 0.0000 0.0000
# 2 11.0772 122.9348 28.7960 0.0000 0.0000 0.0000
# 3 26.1477 28.7960 132.0295 0.0000 0.0000 0.0000
# 4 0.0000 0.0000 0.0000 41.6463 0.0000 0.0000
# 5 0.0000 0.0000 0.0000 0.0000 91.3289 0.0000
# 6 0.0000 0.0000 0.0000 0.0000 0.0000 30.4698
#
#
#
# Elastic Compliance Matrix: (Units=1/GPa)
#
#
# Indices 1 2 3 4 5 6 
#
# 1 0.022245 -0.001025 -0.004182 0.000000 0.000000 0.000000
# 2 -0.001025 0.008620 -0.001677 0.000000 0.000000 0.000000
# 3 -0.004182 -0.001677 0.008768 0.000000 0.000000 0.000000
# 4 0.000000 0.000000 0.000000 0.024012 0.000000 0.000000
# 5 0.000000 0.000000 0.000000 0.000000 0.010949 0.000000
# 6 0.000000 0.000000 0.000000 0.000000 0.000000 0.032819
#
#
# Mechanical properties :
#
#
# Convention : Reuss Voigt Hill
#
# Bulk Modulus (GPa) = 38.66214 48.59839 43.63027
# Shear Modulus (GPa) = 38.52000 48.64386 43.58193
#
# Velocity S-wave (km/s) = 4.04396 4.54442 4.30148
# Velocity P-wave (km/s) = 6.18214 6.94032 6.57217
#
# Compressibility (1/GPa) = 0.02586509
#
# Stress axis : x y z
#
# Youngs Moduli (GPa) = 44.95362 116.01532 114.05059
#
# Poissons Ratio (x) = 0.11890 0.47696
# Poissons Ratio (y) = 0.04607 0.19126
# Poissons Ratio (z) = 0.18800 0.19456
#
# Static dielectric constant tensor:
#      x y z
#    x 1.965780 0.000000 0.000000 
#    y 0.000000 1.831970 0.000000 
#    z 0.000000 0.000000 1.849420 
# 
# From -- ./inp_files/5998.got.cif
#   From: 2010.05.17/outbox.cif.g08.bks.cpg/sg18_3_cif.got.tgz:5998.got - 2010.06.03 22:40:56.
