data_PCOD9312761
_publ_section_title
;
Structure prediction by ZEFSAII (Michael W. Deem and Ramdas Pophale) SiO2 
 PCOD9312761
Probable space group: P 21 21 2
;
_chemical_formula_sum "Si O2"
_cell_formula_units_Z 24
_cell_length_a 10.059577
_cell_length_b 9.249278
_cell_length_c 11.339965
_cell_angle_alpha 90.000000
_cell_angle_beta 90.000000
_cell_angle_gamma 90.000000
_cell_volume 1055.113710
_symmetry_space_group_name_H-M "P 21 21 2"
_symmetry_group_IT_number 18
_symmetry_cell_setting 'orthorhombic'
loop_
_space_group_symop_operation_xyz
x,y,z
-x,-y,z
1/2+x,1/2-y,-z
1/2-x,1/2+y,-z
loop_
_atom_site_type_symbol
_atom_site_label
_atom_site_fract_x
_atom_site_fract_y
_atom_site_fract_z
Si Si1 0.376214 0.583854 0.844678
Si Si2 0.024238 0.675429 0.757336
Si Si3 0.294083 0.750316 0.401506
Si Si4 0.948283 0.337881 0.247152
Si Si5 0.253702 0.563743 0.608337
Si Si6 0.115217 0.621968 0.993742
O O1 0.500000 0.500000 0.896666
O O2 0.427031 0.737556 0.793161
O O3 0.332371 0.508045 0.723027
O O4 0.253744 0.578752 0.933375
O O5 0.145899 0.673818 0.664906
O O6 0.058108 0.724645 0.889746
O O7 0.000000 0.500000 0.766511
O O8 0.899616 0.755717 0.703786
O O9 0.147019 0.708766 0.354582
O O10 0.332157 0.646465 0.508434
O O11 0.304327 0.916354 0.444115
O O12 0.000000 0.500000 0.268002
O O13 0.862209 0.326860 0.125971
O O14 0.000000 0.500000 0.007447
#
# Coordination Sequence:
#
# PCOD9312761 Si02
#       6
#     4   4   4   4   4   4
#     4  11  23  43  71 100 133 181 233 275 339 411
#     4   8  18  38  64  89 122 173 215 262 331 396
#     4  11  23  40  68  93 133 173 225 275 337 393
#     4  11  26  40  67 101 139 177 225 279 334 398
#     4  10  23  40  63  96 127 173 221 278 328 400
#     4   9  21  42  69  98 138 174 223 275 347 402
#
# _framework density 22.746362999999999
#
# number of rings (size 3 to 8) (size 9 to 14) (size 15 to 20)
#    0.000    2.000    1.667    1.000    7.000    2.000 
#    0.000    0.000    0.000    0.000    0.000    0.000 
#    0.000    0.000    0.000    0.000    0.000    0.000 
#
# Total GULP energy -133805.321398 kJ/mol
# GULP energy per Si atom -5575.221725 kJ/mol
# Density = 2.269459 g / cm^3
# Si number density = 22.746363 Si / 1000 Ang^3
#
#
#
# Elastic Constant Matrix: (Units=GPa)
#
#
# Indices 1 2 3 4 5 6 
#
# 1 95.0487 5.0109 2.7440 0.0000 0.0000 0.0000
# 2 5.0109 43.6908 -3.5906 0.0000 0.0000 0.0000
# 3 2.7440 -3.5906 76.2462 0.0000 0.0000 0.0000
# 4 0.0000 0.0000 0.0000 14.6003 0.0000 0.0000
# 5 0.0000 0.0000 0.0000 0.0000 1.1673 0.0000
# 6 0.0000 0.0000 0.0000 0.0000 0.0000 19.6710
#
#
#
# Elastic Compliance Matrix: (Units=1/GPa)
#
#
# Indices 1 2 3 4 5 6 
#
# 1 0.010600 -0.001252 -0.000440 0.000000 0.000000 0.000000
# 2 -0.001252 0.023125 0.001134 0.000000 0.000000 0.000000
# 3 -0.000440 0.001134 0.013185 0.000000 0.000000 0.000000
# 4 0.000000 0.000000 0.000000 0.068492 0.000000 0.000000
# 5 0.000000 0.000000 0.000000 0.000000 0.856692 0.000000
# 6 0.000000 0.000000 0.000000 0.000000 0.000000 0.050836
#
#
# Mechanical properties :
#
#
# Convention : Reuss Voigt Hill
#
# Bulk Modulus (GPa) = 21.83753 24.81270 23.32511
# Shear Modulus (GPa) = 4.81088 21.14247 12.97668
#
# Velocity S-wave (km/s) = 1.45589 3.05206 2.39109
# Velocity P-wave (km/s) = 3.52809 4.83241 4.23082
#
# Compressibility (1/GPa) = 0.04579273
#
# Stress axis : x y z
#
# Youngs Moduli (GPa) = 94.34293 43.24348 75.84570
#
# Poissons Ratio (x) = 0.05413 0.03340
# Poissons Ratio (y) = 0.11810 -0.08601
# Poissons Ratio (z) = 0.04155 -0.04904
#
# Static dielectric constant tensor:
#      x y z
#    x 1.948750 0.000000 0.000000 
#    y 0.000000 1.904560 0.000000 
#    z 0.000000 0.000000 1.857240 
# 
# From -- ./inp_files/5835.got.cif
#   From: 2010.05.17/outbox.cif.g08.bks.cpg/sg18_3_cif.got.tgz:5835.got - 2010.06.03 22:40:56.
