data_PCOD9312053
_publ_section_title
;
Structure prediction by ZEFSAII (Michael W. Deem and Ramdas Pophale) SiO2 
 PCOD9312053
Probable space group: P 21 21 2
;
_chemical_formula_sum "Si O2"
_cell_formula_units_Z 32
_cell_length_a 14.004622
_cell_length_b 11.405943
_cell_length_c 8.776342
_cell_angle_alpha 90.000000
_cell_angle_beta 90.000000
_cell_angle_gamma 90.000000
_cell_volume 1401.897066
_symmetry_space_group_name_H-M "P 21 21 2"
_symmetry_group_IT_number 18
_symmetry_cell_setting 'orthorhombic'
loop_
_space_group_symop_operation_xyz
x,y,z
-x,-y,z
1/2+x,1/2-y,-z
1/2-x,1/2+y,-z
loop_
_atom_site_type_symbol
_atom_site_label
_atom_site_fract_x
_atom_site_fract_y
_atom_site_fract_z
Si Si1 0.354853 0.904576 0.751857
Si Si2 0.441158 0.616902 0.986676
Si Si3 0.389501 0.992913 0.406076
Si Si4 0.730252 0.651361 0.704795
Si Si5 0.244879 0.713457 0.600168
Si Si6 0.088903 0.056958 0.345655
Si Si7 0.777021 0.371532 0.076692
Si Si8 0.488810 0.132473 0.014611
O O1 0.376659 0.943978 0.578983
O O2 0.282445 0.794178 0.738545
O O3 0.449584 0.880486 0.853698
O O4 0.300153 0.012871 0.825962
O O5 0.500000 0.500000 0.035999
O O6 0.327133 0.608863 0.007546
O O7 0.454689 0.621876 0.802248
O O8 0.474569 0.738541 0.064562
O O9 0.335303 0.903664 0.295533
O O10 0.500000 0.000000 0.385017
O O11 0.336252 0.116444 0.381820
O O12 0.713871 0.704395 0.537434
O O13 0.656136 0.545794 0.720485
O O14 0.724388 0.754657 0.822889
O O15 0.341669 0.640631 0.559889
O O16 0.000000 0.000000 0.432275
O O17 0.874184 0.355844 0.982731
O O18 0.500000 0.000000 0.077621
#
# Coordination Sequence:
#
# PCOD9312053 Si02
#       8
#     4   4   4   4   4   4   4   4
#     4  10  20  37  64  92 120 163 216 259 313 382
#     4  11  24  44  65  94 130 170 216 265 323 379
#     4  10  20  37  58  87 125 164 204 254 314 390
#     4  10  22  35  60  93 121 157 206 257 320 378
#     4  10  20  37  61  93 122 157 206 262 316 379
#     4  10  21  40  65  88 122 165 218 259 309 375
#     4  11  22  41  65  91 130 161 211 268 319 375
#     4  10  22  39  68  97 114 166 223 262 311 371
#
# _framework density 22.826212000000002
#
# number of rings (size 3 to 8) (size 9 to 14) (size 15 to 20)
#    0.000    1.750    2.500    2.625    0.000    5.000 
#    2.250    2.500    0.000    0.000    0.000    0.000 
#    0.000    0.000    0.000    0.000    0.000    0.000 
#
# Total GULP energy -178606.242175 kJ/mol
# GULP energy per Si atom -5581.445068 kJ/mol
# Density = 2.277426 g / cm^3
# Si number density = 22.826212 Si / 1000 Ang^3
#
#
#
# Elastic Constant Matrix: (Units=GPa)
#
#
# Indices 1 2 3 4 5 6 
#
# 1 146.6712 54.4944 2.0545 0.0000 0.0000 0.0000
# 2 54.4944 160.4163 12.8647 0.0000 0.0000 0.0000
# 3 2.0545 12.8647 35.3232 0.0000 0.0000 0.0000
# 4 0.0000 0.0000 0.0000 19.6710 0.0000 0.0000
# 5 0.0000 0.0000 0.0000 0.0000 11.5122 0.0000
# 6 0.0000 0.0000 0.0000 0.0000 0.0000 22.3815
#
#
#
# Elastic Compliance Matrix: (Units=1/GPa)
#
#
# Indices 1 2 3 4 5 6 
#
# 1 0.007812 -0.002696 0.000528 0.000000 0.000000 0.000000
# 2 -0.002696 0.007352 -0.002521 0.000000 0.000000 0.000000
# 3 0.000528 -0.002521 0.029197 0.000000 0.000000 0.000000
# 4 0.000000 0.000000 0.000000 0.050836 0.000000 0.000000
# 5 0.000000 0.000000 0.000000 0.000000 0.086865 0.000000
# 6 0.000000 0.000000 0.000000 0.000000 0.000000 0.044680
#
#
# Mechanical properties :
#
#
# Convention : Reuss Voigt Hill
#
# Bulk Modulus (GPa) = 28.58544 53.47085 41.02815
# Shear Modulus (GPa) = 20.17904 28.91274 24.54589
#
# Velocity S-wave (km/s) = 2.97649 3.56286 3.28279
# Velocity P-wave (km/s) = 4.93588 6.35620 5.69053
#
# Compressibility (1/GPa) = 0.03498285
#
# Stress axis : x y z
#
# Youngs Moduli (GPa) = 128.00275 136.02022 34.24967
#
# Poissons Ratio (x) = 0.36674 -0.01807
# Poissons Ratio (y) = 0.34512 0.08633
# Poissons Ratio (z) = -0.06753 0.34287
#
# Static dielectric constant tensor:
#      x y z
#    x 1.843760 0.000000 0.000000 
#    y 0.000000 1.872930 0.000000 
#    z 0.000000 0.000000 1.859250 
# 
# From -- ./inp_files/5946.got.cif
#   From: 2010.05.17/outbox.cif.g08.bks.cpg/sg18_3_cif.got.tgz:5946.got - 2010.06.03 22:40:56.
