data_PCOD9312292
_publ_section_title
;
Structure prediction by ZEFSAII (Michael W. Deem and Ramdas Pophale) SiO2 
 PCOD9312292
Probable space group: P 21 21 2
;
_chemical_formula_sum "Si O2"
_cell_formula_units_Z 32
_cell_length_a 23.769202
_cell_length_b 7.906277
_cell_length_c 7.475149
_cell_angle_alpha 90.000000
_cell_angle_beta 90.000000
_cell_angle_gamma 90.000000
_cell_volume 1404.774067
_symmetry_space_group_name_H-M "P 21 21 2"
_symmetry_group_IT_number 18
_symmetry_cell_setting 'orthorhombic'
loop_
_space_group_symop_operation_xyz
x,y,z
-x,-y,z
1/2+x,1/2-y,-z
1/2-x,1/2+y,-z
loop_
_atom_site_type_symbol
_atom_site_label
_atom_site_fract_x
_atom_site_fract_y
_atom_site_fract_z
Si Si1 0.406925 0.963964 0.390483
Si Si2 0.036821 0.791580 0.457743
Si Si3 0.796692 0.835563 0.059582
Si Si4 0.693637 0.474916 0.346410
Si Si5 0.423652 0.622449 0.447811
Si Si6 0.865277 0.160613 0.178083
Si Si7 0.332277 0.188907 0.167432
Si Si8 0.317202 0.987685 0.691097
O O1 0.448392 0.111513 0.457034
O O2 0.364297 0.031527 0.244231
O O3 0.368372 0.932718 0.565663
O O4 0.430833 0.786016 0.322430
O O5 0.078359 0.838095 0.294578
O O6 0.971330 0.818644 0.408175
O O7 0.054447 0.936571 0.600448
O O8 0.729738 0.851400 0.093430
O O9 0.811334 0.652443 0.149363
O O10 0.830690 0.986070 0.159707
O O11 0.805535 0.875874 0.846722
O O12 0.643439 0.400003 0.463541
O O13 0.677161 0.669720 0.316874
O O14 0.757619 0.491286 0.411097
O O15 0.830263 0.320005 0.252986
O O16 0.872466 0.220795 0.975427
#
# Coordination Sequence:
#
# PCOD9312292 Si02
#       8
#     4   4   4   4   4   4   4   4
#     4  11  23  38  64  95 127 165 215 270 333 391
#     4  10  23  45  62  91 120 168 232 271 317 383
#     4  10  21  38  60  97 138 169 208 257 336 411
#     4  10  21  37  61  97 130 173 211 265 331 395
#     4  11  23  40  69  84 125 175 219 280 323 377
#     4  10  21  38  66  88 131 175 203 266 328 390
#     4  10  21  38  62 100 135 168 207 269 332 414
#     4  10  22  36  59  96 132 165 207 261 328 409
#
# _framework density 22.779461999999999
#
# number of rings (size 3 to 8) (size 9 to 14) (size 15 to 20)
#    0.000    1.750    2.500    1.125    3.500    3.000 
#    0.000    0.000   13.750    1.500    0.000    0.000 
#    0.000    0.000    0.000    0.000    0.000    0.000 
#
# Total GULP energy -178228.687582 kJ/mol
# GULP energy per Si atom -5569.646487 kJ/mol
# Density = 2.272761 g / cm^3
# Si number density = 22.779462 Si / 1000 Ang^3
#
#
#
# Elastic Constant Matrix: (Units=GPa)
#
#
# Indices 1 2 3 4 5 6 
#
# 1 118.1560 56.5151 34.1415 0.0000 0.0000 0.0000
# 2 56.5151 131.5601 31.4160 0.0000 0.0000 0.0000
# 3 34.1415 31.4160 54.8844 0.0000 0.0000 0.0000
# 4 0.0000 0.0000 0.0000 24.3979 0.0000 0.0000
# 5 0.0000 0.0000 0.0000 0.0000 23.2888 0.0000
# 6 0.0000 0.0000 0.0000 0.0000 0.0000 38.1318
#
#
#
# Elastic Compliance Matrix: (Units=1/GPa)
#
#
# Indices 1 2 3 4 5 6 
#
# 1 0.011781 -0.003835 -0.005133 0.000000 0.000000 0.000000
# 2 -0.003835 0.010053 -0.003369 0.000000 0.000000 0.000000
# 3 -0.005133 -0.003369 0.023342 0.000000 0.000000 0.000000
# 4 0.000000 0.000000 0.000000 0.040987 0.000000 0.000000
# 5 0.000000 0.000000 0.000000 0.000000 0.042939 0.000000
# 6 0.000000 0.000000 0.000000 0.000000 0.000000 0.026225
#
#
# Mechanical properties :
#
#
# Convention : Reuss Voigt Hill
#
# Bulk Modulus (GPa) = 48.77705 60.97174 54.87439
# Shear Modulus (GPa) = 26.76164 29.33224 28.04694
#
# Velocity S-wave (km/s) = 3.43127 3.59229 3.51271
# Velocity P-wave (km/s) = 6.09569 6.63553 6.37133
#
# Compressibility (1/GPa) = 0.02050145
#
# Stress axis : x y z
#
# Youngs Moduli (GPa) = 84.88238 99.47322 42.84185
#
# Poissons Ratio (x) = 0.38148 0.21992
# Poissons Ratio (y) = 0.32553 0.14432
# Poissons Ratio (z) = 0.43573 0.33510
#
# Static dielectric constant tensor:
#      x y z
#    x 1.884060 0.000000 0.000000 
#    y 0.000000 1.973500 0.000000 
#    z 0.000000 0.000000 1.932970 
# 
# From -- ./inp_files/4770.got.cif
#   From: 2010.05.17/outbox.cif.g08.bks.cpg/sg18_3_cif.got.tgz:4770.got - 2010.06.03 22:40:56.
