data_PCOD9312570
_publ_section_title
;
Structure prediction by ZEFSAII (Michael W. Deem and Ramdas Pophale) SiO2 
 PCOD9312570
Probable space group: P 21 21 2
;
_chemical_formula_sum "Si O2"
_cell_formula_units_Z 30
_cell_length_a 9.251433
_cell_length_b 10.907212
_cell_length_c 13.033562
_cell_angle_alpha 90.000000
_cell_angle_beta 90.000000
_cell_angle_gamma 90.000000
_cell_volume 1315.182086
_symmetry_space_group_name_H-M "P 21 21 2"
_symmetry_group_IT_number 18
_symmetry_cell_setting 'orthorhombic'
loop_
_space_group_symop_operation_xyz
x,y,z
-x,-y,z
1/2+x,1/2-y,-z
1/2-x,1/2+y,-z
loop_
_atom_site_type_symbol
_atom_site_label
_atom_site_fract_x
_atom_site_fract_y
_atom_site_fract_z
Si Si1 0.988729 0.142112 0.985243
Si Si2 0.307733 0.381798 0.433723
Si Si3 0.650613 0.447361 0.738553
Si Si4 0.000000 0.500000 0.974520
Si Si5 0.637422 0.356140 0.507016
Si Si6 0.705754 0.821192 0.908035
Si Si7 0.631225 0.156147 0.214761
Si Si8 0.841293 0.233623 0.777129
O O1 0.902668 0.170310 0.878951
O O2 0.152356 0.185098 0.977291
O O3 0.901124 0.209761 0.071771
O O4 0.000000 0.000000 0.996942
O O5 0.476151 0.357149 0.461232
O O6 0.280148 0.525099 0.459021
O O7 0.215041 0.276925 0.493304
O O8 0.290295 0.356827 0.311896
O O9 0.500000 0.500000 0.777274
O O10 0.624096 0.392293 0.626427
O O11 0.767047 0.556535 0.733951
O O12 0.721599 0.335713 0.800642
O O13 0.920617 0.592703 0.894431
O O14 0.884205 0.436539 0.050372
O O15 0.779433 0.783678 0.800129
O O16 0.479609 0.189848 0.266073
#
# Coordination Sequence:
#
# PCOD9312570 Si02
#       8
#     4   4   4   2   4   4   4   4
#     4  11  24  41  65  94 126 171 219 266 332 388
#     4  10  22  41  66  97 137 172 219 278 330 401
#     4  11  21  40  64  96 132 163 224 276 316 391
#     4  12  20  44  66  90 134 160 226 268 326 396
#     4  10  23  41  66 101 131 176 222 276 334 406
#     4  11  23  41  63  92 127 169 220 269 321 396
#     4  11  22  40  66  95 125 175 220 267 330 397
#     4  10  22  40  65  95 130 175 216 266 330 404
#
# _framework density 22.81053
#
# number of rings (size 3 to 8) (size 9 to 14) (size 15 to 20)
#    0.000    1.333    5.333    0.800    3.733    3.200 
#    0.000    0.000    0.000    0.000    3.467    0.000 
#    0.000    0.000    0.000    0.000    0.000    0.000 
#
# Total GULP energy -167455.656629 kJ/mol
# GULP energy per Si atom -5581.855221 kJ/mol
# Density = 2.275861 g / cm^3
# Si number density = 22.810530 Si / 1000 Ang^3
#
#
#
# Elastic Constant Matrix: (Units=GPa)
#
#
# Indices 1 2 3 4 5 6 
#
# 1 91.1585 27.9398 -6.7712 0.0000 0.0000 0.0000
# 2 27.9398 79.3000 5.9387 0.0000 0.0000 0.0000
# 3 -6.7712 5.9387 51.3444 0.0000 0.0000 0.0000
# 4 0.0000 0.0000 0.0000 16.6820 0.0000 0.0000
# 5 0.0000 0.0000 0.0000 0.0000 22.1096 0.0000
# 6 0.0000 0.0000 0.0000 0.0000 0.0000 56.1014
#
#
#
# Elastic Compliance Matrix: (Units=1/GPa)
#
#
# Indices 1 2 3 4 5 6 
#
# 1 0.012536 -0.004580 0.002183 0.000000 0.000000 0.000000
# 2 -0.004580 0.014394 -0.002269 0.000000 0.000000 0.000000
# 3 0.002183 -0.002269 0.020027 0.000000 0.000000 0.000000
# 4 0.000000 0.000000 0.000000 0.059945 0.000000 0.000000
# 5 0.000000 0.000000 0.000000 0.000000 0.045229 0.000000
# 6 0.000000 0.000000 0.000000 0.000000 0.000000 0.017825
#
#
# Mechanical properties :
#
#
# Convention : Reuss Voigt Hill
#
# Bulk Modulus (GPa) = 26.57865 30.66861 28.62363
# Shear Modulus (GPa) = 26.06484 31.95830 29.01157
#
# Velocity S-wave (km/s) = 3.38400 3.74710 3.57017
# Velocity P-wave (km/s) = 5.19094 5.67407 5.43787
#
# Compressibility (1/GPa) = 0.03762418
#
# Stress axis : x y z
#
# Youngs Moduli (GPa) = 79.77095 69.47324 49.93351
#
# Poissons Ratio (x) = 0.31821 -0.10900
# Poissons Ratio (y) = 0.36537 0.11329
# Poissons Ratio (z) = -0.17414 0.15763
#
# Static dielectric constant tensor:
#      x y z
#    x 1.852960 0.000000 0.000000 
#    y 0.000000 1.887690 0.000000 
#    z 0.000000 0.000000 1.905170 
# 
# From -- ./inp_files/6740.got.cif
#   From: 2010.05.17/outbox.cif.g08.bks.cpg/sg18_4_cif.got.tgz:6740.got - 2010.06.03 22:40:56.
