data_PCOD9312416
_publ_section_title
;
Structure prediction by ZEFSAII (Michael W. Deem and Ramdas Pophale) SiO2 
 PCOD9312416
Probable space group: P 21 21 2
;
_chemical_formula_sum "Si O2"
_cell_formula_units_Z 30
_cell_length_a 8.183872
_cell_length_b 15.988713
_cell_length_c 11.625303
_cell_angle_alpha 90.000000
_cell_angle_beta 90.000000
_cell_angle_gamma 90.000000
_cell_volume 1521.166022
_symmetry_space_group_name_H-M "P 21 21 2"
_symmetry_group_IT_number 18
_symmetry_cell_setting 'orthorhombic'
loop_
_space_group_symop_operation_xyz
x,y,z
-x,-y,z
1/2+x,1/2-y,-z
1/2-x,1/2+y,-z
loop_
_atom_site_type_symbol
_atom_site_label
_atom_site_fract_x
_atom_site_fract_y
_atom_site_fract_z
Si Si1 0.682942 0.114605 0.776263
Si Si2 0.000000 0.500000 0.392947
Si Si3 0.483437 0.728366 0.894803
Si Si4 0.987844 0.896945 0.668885
Si Si5 0.324609 0.550228 0.537086
Si Si6 0.157066 0.056983 0.205131
Si Si7 0.184449 0.190205 0.880011
Si Si8 0.809831 0.485458 0.028602
O O1 0.541308 0.074048 0.697444
O O2 0.613573 0.193252 0.843295
O O3 0.828032 0.133209 0.687182
O O4 0.754468 0.050559 0.874430
O O5 0.834941 0.486153 0.468834
O O6 0.405366 0.646008 0.840190
O O7 0.673897 0.741283 0.867488
O O8 0.452801 0.722691 0.031728
O O9 0.893892 0.879550 0.549732
O O10 0.889310 0.847737 0.765358
O O11 0.000000 0.000000 0.683606
O O12 0.500000 0.500000 0.546608
O O13 0.269595 0.567569 0.667273
O O14 0.256017 0.010303 0.103869
O O15 0.000000 0.000000 0.218157
O O16 0.268025 0.108640 0.936143
O O17 0.000000 0.500000 0.034874
#
# Coordination Sequence:
#
# PCOD9312416 Si02
#       8
#     4   2   4   4   4   4   4   4
#     4  12  21  37  64 101 128 161 215 274 338 386
#     4  12  20  38  74  98 124 174 216 284 326 384
#     4  11  24  38  59  93 136 166 216 273 334 396
#     4  11  20  37  66  91 128 164 218 269 321 379
#     4  10  21  42  64  94 122 170 230 267 308 388
#     4  10  26  43  62  85 130 181 218 257 329 398
#     4  11  22  37  59  95 127 170 207 274 332 390
#     4  11  21  35  61  93 123 160 207 258 327 405
#
# _framework density 19.721713999999999
#
# number of rings (size 3 to 8) (size 9 to 14) (size 15 to 20)
#    0.000    1.067    6.000    1.600    6.533    0.000 
#    0.000    2.667    0.000    0.000    0.000    0.000 
#    0.000    0.000    0.000    0.000    0.000    0.000 
#
# Total GULP energy -167070.177026 kJ/mol
# GULP energy per Si atom -5569.005901 kJ/mol
# Density = 1.967683 g / cm^3
# Si number density = 19.721714 Si / 1000 Ang^3
#
#
#
# Elastic Constant Matrix: (Units=GPa)
#
#
# Indices 1 2 3 4 5 6 
#
# 1 66.8203 -2.3248 21.1115 0.0000 0.0000 0.0000
# 2 -2.3248 45.5664 13.0781 0.0000 0.0000 0.0000
# 3 21.1115 13.0781 129.9722 0.0000 0.0000 0.0000
# 4 0.0000 0.0000 0.0000 -173.5467 0.0000 0.0000
# 5 0.0000 0.0000 0.0000 0.0000 32.3212 0.0000
# 6 0.0000 0.0000 0.0000 0.0000 0.0000 26.1722
#
#
#
# Elastic Compliance Matrix: (Units=1/GPa)
#
#
# Indices 1 2 3 4 5 6 
#
# 1 0.015887 0.001597 -0.002741 0.000000 0.000000 0.000000
# 2 0.001597 0.022759 -0.002550 0.000000 0.000000 0.000000
# 3 -0.002741 -0.002550 0.008396 0.000000 0.000000 0.000000
# 4 0.000000 0.000000 0.000000 -0.005762 0.000000 0.000000
# 5 0.000000 0.000000 0.000000 0.000000 0.030939 0.000000
# 6 0.000000 0.000000 0.000000 0.000000 0.000000 0.038208
#
#
# Mechanical properties :
#
#
# Convention : Reuss Voigt Hill
#
# Bulk Modulus (GPa) = 25.21737 34.00982 29.61359
# Shear Modulus (GPa) = 38.15825 -8.97770 14.59027
#
# Velocity S-wave (km/s) = 4.40345 -2.13590 2.72289
# Velocity P-wave (km/s) = 6.21837 3.34657 4.99338
#
# Compressibility (1/GPa) = 0.03965521
#
# Stress axis : x y z
#
# Youngs Moduli (GPa) = 62.94385 43.93821 119.10764
#
# Poissons Ratio (x) = -0.07019 0.32651
# Poissons Ratio (y) = -0.10054 0.30367
# Poissons Ratio (z) = 0.17255 0.11202
#
# Static dielectric constant tensor:
#      x y z
#    x 1.708370 0.000000 0.000000 
#    y 0.000000 1.694330 0.000000 
#    z 0.000000 0.000000 1.788440 
# 
# From -- ./inp_files/5640.got.cif
#   From: 2010.05.17/outbox.cif.g08.bks.cpg/sg18_3_cif.got.tgz:5640.got - 2010.06.03 22:40:56.
