data_PCOD9312679
_publ_section_title
;
Structure prediction by ZEFSAII (Michael W. Deem and Ramdas Pophale) SiO2 
 PCOD9312679
Probable space group: P 21 21 2
;
_chemical_formula_sum "Si O2"
_cell_formula_units_Z 16
_cell_length_a 7.235098
_cell_length_b 8.524119
_cell_length_c 9.836017
_cell_angle_alpha 90.000000
_cell_angle_beta 90.000000
_cell_angle_gamma 90.000000
_cell_volume 606.615067
_symmetry_space_group_name_H-M "P 21 21 2"
_symmetry_group_IT_number 18
_symmetry_cell_setting 'orthorhombic'
loop_
_space_group_symop_operation_xyz
x,y,z
-x,-y,z
1/2+x,1/2-y,-z
1/2-x,1/2+y,-z
loop_
_atom_site_type_symbol
_atom_site_label
_atom_site_fract_x
_atom_site_fract_y
_atom_site_fract_z
Si Si1 0.217970 0.947783 0.054844
Si Si2 0.682252 0.753756 0.695601
Si Si3 0.266464 0.754587 0.796164
Si Si4 0.691933 0.565336 0.444514
O O1 0.252890 0.801874 0.157186
O O2 0.302153 0.101785 0.124445
O O3 0.283221 0.891510 0.908260
O O4 0.000000 0.000000 0.043872
O O5 0.462834 0.728435 0.722052
O O6 0.771375 0.644329 0.578714
O O7 0.704163 0.927437 0.634968
O O8 0.141673 0.809342 0.672121
O O9 0.500000 0.500000 0.495484
#
# Coordination Sequence:
#
# PCOD9312679 Si02
#       4
#     4   4   4   4
#     4  10  22  43  68 101 137 178 226 280 335 401
#     4  11  24  45  70  98 134 179 227 280 337 401
#     4  11  23  42  70 101 137 178 226 279 337 402
#     4  12  24  42  66  98 135 177 225 281 337 400
#
# _framework density 26.375872000000001
#
# number of rings (size 3 to 8) (size 9 to 14) (size 15 to 20)
#    0.000    1.000    0.000    8.250    0.000    4.000 
#    0.000    8.750    0.000    0.000    0.000    0.000 
#    0.000    0.000    0.000    0.000    0.000    0.000 
#
# Total GULP energy -89552.629964 kJ/mol
# GULP energy per Si atom -5597.039373 kJ/mol
# Density = 2.631584 g / cm^3
# Si number density = 26.375872 Si / 1000 Ang^3
#
#
#
# Elastic Constant Matrix: (Units=GPa)
#
#
# Indices 1 2 3 4 5 6 
#
# 1 51.6820 38.2924 33.0248 0.0000 0.0000 0.0000
# 2 38.2924 88.6459 58.7867 0.0000 0.0000 0.0000
# 3 33.0248 58.7867 216.9396 0.0000 0.0000 0.0000
# 4 0.0000 0.0000 0.0000 76.3424 0.0000 0.0000
# 5 0.0000 0.0000 0.0000 0.0000 1.7303 0.0000
# 6 0.0000 0.0000 0.0000 0.0000 0.0000 35.6650
#
#
#
# Elastic Compliance Matrix: (Units=1/GPa)
#
#
# Indices 1 2 3 4 5 6 
#
# 1 0.028724 -0.011591 -0.001232 0.000000 0.000000 0.000000
# 2 -0.011591 0.018430 -0.003230 0.000000 0.000000 0.000000
# 3 -0.001232 -0.003230 0.005672 0.000000 0.000000 0.000000
# 4 0.000000 0.000000 0.000000 0.013099 0.000000 0.000000
# 5 0.000000 0.000000 0.000000 0.000000 0.577926 0.000000
# 6 0.000000 0.000000 0.000000 0.000000 0.000000 0.028039
#
#
# Mechanical properties :
#
#
# Convention : Reuss Voigt Hill
#
# Bulk Modulus (GPa) = 48.25969 68.60835 58.43402
# Shear Modulus (GPa) = 7.03332 37.89178 22.46255
#
# Velocity S-wave (km/s) = 1.63474 3.79437 2.92144
# Velocity P-wave (km/s) = 4.67972 6.72790 5.79501
#
# Compressibility (1/GPa) = 0.02072123
#
# Stress axis : x y z
#
# Youngs Moduli (GPa) = 34.81358 54.26033 176.29747
#
# Poissons Ratio (x) = 0.62895 0.21714
# Poissons Ratio (y) = 0.40353 0.56936
# Poissons Ratio (z) = 0.04288 0.17524
#
# Static dielectric constant tensor:
#      x y z
#    x 2.123890 0.000000 0.000000 
#    y 0.000000 2.146480 0.000000 
#    z 0.000000 0.000000 1.900830 
# 
# From -- ./inp_files/2733.got.cif
#   From: 2010.05.17/outbox.cif.g08.bks.cpg/sg18_2_cif.got.tgz:2733.got - 2010.06.03 22:40:56.
