data_PCOD9312217
_publ_section_title
;
Structure prediction by ZEFSAII (Michael W. Deem and Ramdas Pophale) SiO2 
 PCOD9312217
Probable space group: P 21 21 2
;
_chemical_formula_sum "Si O2"
_cell_formula_units_Z 24
_cell_length_a 14.011144
_cell_length_b 13.460239
_cell_length_c 6.108471
_cell_angle_alpha 90.000000
_cell_angle_beta 90.000000
_cell_angle_gamma 90.000000
_cell_volume 1152.016990
_symmetry_space_group_name_H-M "P 21 21 2"
_symmetry_group_IT_number 18
_symmetry_cell_setting 'orthorhombic'
loop_
_space_group_symop_operation_xyz
x,y,z
-x,-y,z
1/2+x,1/2-y,-z
1/2-x,1/2+y,-z
loop_
_atom_site_type_symbol
_atom_site_label
_atom_site_fract_x
_atom_site_fract_y
_atom_site_fract_z
Si Si1 0.000000 0.000000 0.276922
Si Si2 0.946066 0.341166 0.681720
Si Si3 0.503165 0.317399 0.024232
Si Si4 0.358136 0.601893 0.394569
Si Si5 0.607728 0.211873 0.641543
Si Si6 0.500000 0.000000 0.007570
Si Si7 0.840782 0.484228 0.352032
O O1 0.912919 0.965053 0.428514
O O2 0.031928 0.905786 0.131618
O O3 0.874353 0.418019 0.562338
O O4 0.924800 0.251167 0.850800
O O5 0.007078 0.294130 0.487082
O O6 0.016190 0.409625 0.827606
O O7 0.567159 0.370098 0.207779
O O8 0.575591 0.250015 0.879154
O O9 0.331492 0.703942 0.520439
O O10 0.265382 0.549536 0.300647
O O11 0.652253 0.103038 0.620873
O O12 0.585457 0.967691 0.847838
#
# Coordination Sequence:
#
# PCOD9312217 Si02
#       7
#     2   4   4   4   4   2   4
#     4  10  22  48  70  90 132 182 222 268 320 390
#     4  11  20  39  71  95 131 169 207 271 334 383
#     4  10  21  43  70  94 126 182 214 268 327 391
#     4  10  25  42  68  94 135 172 223 272 322 388
#     4  10  20  42  64  91 133 169 215 270 327 386
#     4  12  20  36  68  98 130 170 210 266 332 390
#     4  12  22  41  65 102 130 174 217 274 328 391
#
# _framework density 20.833026
#
# number of rings (size 3 to 8) (size 9 to 14) (size 15 to 20)
#    0.000    1.333    5.000    0.500    0.000    2.667 
#   15.000    0.000    0.000    0.000    0.000    0.000 
#    0.000    0.000    0.000    0.000    0.000    0.000 
#
# Total GULP energy -133793.231995 kJ/mol
# GULP energy per Si atom -5574.718000 kJ/mol
# Density = 2.078561 g / cm^3
# Si number density = 20.833026 Si / 1000 Ang^3
#
#
#
# Elastic Constant Matrix: (Units=GPa)
#
#
# Indices 1 2 3 4 5 6 
#
# 1 31.7866 32.5818 15.7369 0.0000 0.0000 0.0000
# 2 32.5818 126.5846 52.1616 0.0000 0.0000 0.0000
# 3 15.7369 52.1616 104.0376 0.0000 0.0000 0.0000
# 4 0.0000 0.0000 0.0000 46.8717 0.0000 0.0000
# 5 0.0000 0.0000 0.0000 0.0000 -3.1001 0.0000
# 6 0.0000 0.0000 0.0000 0.0000 0.0000 24.2788
#
#
#
# Elastic Compliance Matrix: (Units=1/GPa)
#
#
# Indices 1 2 3 4 5 6 
#
# 1 0.042853 -0.010536 -0.001200 0.000000 0.000000 0.000000
# 2 -0.010536 0.012547 -0.004697 0.000000 0.000000 0.000000
# 3 -0.001200 -0.004697 0.012148 0.000000 0.000000 0.000000
# 4 0.000000 0.000000 0.000000 0.021335 0.000000 0.000000
# 5 0.000000 0.000000 0.000000 0.000000 -0.322573 0.000000
# 6 0.000000 0.000000 0.000000 0.000000 0.000000 0.041188
#
#
# Mechanical properties :
#
#
# Convention : Reuss Voigt Hill
#
# Bulk Modulus (GPa) = 28.83219 51.48548 40.15884
# Shear Modulus (GPa) = -33.76668 24.40532 -4.68068
#
# Velocity S-wave (km/s) = -4.03031 3.42639 -1.50055
# Velocity P-wave (km/s) = 2.79074 6.35772 4.03933
#
# Compressibility (1/GPa) = 0.03468345
#
# Stress axis : x y z
#
# Youngs Moduli (GPa) = 23.33568 79.69913 82.31514
#
# Poissons Ratio (x) = 0.83968 0.09876
# Poissons Ratio (y) = 0.24585 0.38665
# Poissons Ratio (z) = 0.02800 0.37436
#
# Static dielectric constant tensor:
#      x y z
#    x 1.697310 0.000000 0.000000 
#    y 0.000000 1.822130 0.000000 
#    z 0.000000 0.000000 1.765800 
# 
# From -- ./inp_files/1502.got.cif
#   From: 2010.05.17/outbox.cif.g08.bks.cpg/sg18_1_cif.got.tgz:1502.got - 2010.06.03 22:40:56.
