data_PCOD9312463
_publ_section_title
;
Structure prediction by ZEFSAII (Michael W. Deem and Ramdas Pophale) SiO2 
 PCOD9312463
Probable space group: P 21 21 2
;
_chemical_formula_sum "Si O2"
_cell_formula_units_Z 32
_cell_length_a 8.672984
_cell_length_b 12.074864
_cell_length_c 14.915122
_cell_angle_alpha 90.000000
_cell_angle_beta 90.000000
_cell_angle_gamma 90.000000
_cell_volume 1561.987677
_symmetry_space_group_name_H-M "P 21 21 2"
_symmetry_group_IT_number 18
_symmetry_cell_setting 'orthorhombic'
loop_
_space_group_symop_operation_xyz
x,y,z
-x,-y,z
1/2+x,1/2-y,-z
1/2-x,1/2+y,-z
loop_
_atom_site_type_symbol
_atom_site_label
_atom_site_fract_x
_atom_site_fract_y
_atom_site_fract_z
Si Si1 0.659605 0.160119 0.728012
Si Si2 0.194442 0.605439 0.766866
Si Si3 0.688484 0.806782 0.689220
Si Si4 0.683861 0.509248 0.418468
Si Si5 0.170240 0.946442 0.374902
Si Si6 0.915671 0.731112 0.838780
Si Si7 0.180099 0.472241 0.944780
Si Si8 0.367604 0.421393 0.117067
O O1 0.703404 0.288774 0.740703
O O2 0.477678 0.150895 0.720512
O O3 0.731528 0.098606 0.813280
O O4 0.743589 0.105948 0.642521
O O5 0.220633 0.512665 0.692895
O O6 0.231034 0.553697 0.864512
O O7 0.021531 0.651529 0.777072
O O8 0.748807 0.893045 0.615902
O O9 0.670582 0.683098 0.649547
O O10 0.804627 0.798800 0.773314
O O11 0.500000 0.500000 0.406880
O O12 0.716599 0.533544 0.522331
O O13 0.000000 0.000000 0.363194
O O14 0.822046 0.651789 0.904554
O O15 0.038644 0.806175 0.892442
O O16 0.000000 0.500000 0.966941
O O17 0.294710 0.472912 0.028099
O O18 0.500000 0.500000 0.155528
#
# Coordination Sequence:
#
# PCOD9312463 Si02
#       8
#     4   4   4   4   4   4   4   4
#     4  11  24  45  70  97 138 181 231 287 344 411
#     4  10  21  45  69  98 135 177 225 284 348 406
#     4  12  24  43  71 102 136 185 233 281 352 411
#     4  11  26  45  65 100 144 181 234 283 348 421
#     4  11  24  43  71 105 137 177 231 294 343 410
#     4  10  23  42  66  96 136 177 223 278 350 407
#     4  10  23  42  65 101 131 173 230 282 338 417
#     4  11  25  42  66  94 134 181 223 281 349 408
#
# _framework density 20.486718
#
# number of rings (size 3 to 8) (size 9 to 14) (size 15 to 20)
#    0.000    1.250    2.500    3.000    1.750    7.500 
#    4.500    0.000    0.000    0.000    0.000    0.000 
#    0.000    0.000    0.000    0.000    0.000    0.000 
#
# Total GULP energy -178919.532016 kJ/mol
# GULP energy per Si atom -5591.235376 kJ/mol
# Density = 2.044009 g / cm^3
# Si number density = 20.486718 Si / 1000 Ang^3
#
#
#
# Elastic Constant Matrix: (Units=GPa)
#
#
# Indices 1 2 3 4 5 6 
#
# 1 101.6917 47.9945 66.9299 0.0000 0.0000 0.0000
# 2 47.9945 121.4118 54.5730 0.0000 0.0000 0.0000
# 3 66.9299 54.5730 104.5153 0.0000 0.0000 0.0000
# 4 0.0000 0.0000 0.0000 32.7361 0.0000 0.0000
# 5 0.0000 0.0000 0.0000 0.0000 24.6987 0.0000
# 6 0.0000 0.0000 0.0000 0.0000 0.0000 36.2994
#
#
#
# Elastic Compliance Matrix: (Units=1/GPa)
#
#
# Indices 1 2 3 4 5 6 
#
# 1 0.017544 -0.002463 -0.009949 0.000000 0.000000 0.000000
# 2 -0.002463 0.011108 -0.004223 0.000000 0.000000 0.000000
# 3 -0.009949 -0.004223 0.018144 0.000000 0.000000 0.000000
# 4 0.000000 0.000000 0.000000 0.030547 0.000000 0.000000
# 5 0.000000 0.000000 0.000000 0.000000 0.040488 0.000000
# 6 0.000000 0.000000 0.000000 0.000000 0.000000 0.027549
#
#
# Mechanical properties :
#
#
# Convention : Reuss Voigt Hill
#
# Bulk Modulus (GPa) = 73.92818 74.06820 73.99819
# Shear Modulus (GPa) = 27.29869 29.28825 28.29347
#
# Velocity S-wave (km/s) = 3.65431 3.78514 3.72030
# Velocity P-wave (km/s) = 7.34640 7.43880 7.39274
#
# Compressibility (1/GPa) = 0.01352664
#
# Stress axis : x y z
#
# Youngs Moduli (GPa) = 56.99879 90.02296 55.11502
#
# Poissons Ratio (x) = 0.22177 0.54833
# Poissons Ratio (y) = 0.14041 0.23273
# Poissons Ratio (z) = 0.56707 0.38014
#
# Static dielectric constant tensor:
#      x y z
#    x 1.722140 0.000000 0.000000 
#    y 0.000000 1.771090 0.000000 
#    z 0.000000 0.000000 1.700370 
# 
# From -- ./inp_files/6806.got.cif
#   From: 2010.05.17/outbox.cif.g08.bks.cpg/sg18_4_cif.got.tgz:6806.got - 2010.06.03 22:40:56.
