data_PCOD9312364
_publ_section_title
;
Structure prediction by ZEFSAII (Michael W. Deem and Ramdas Pophale) SiO2 
 PCOD9312364
Probable space group: P 21 21 2
;
_chemical_formula_sum "Si O2"
_cell_formula_units_Z 16
_cell_length_a 7.170390
_cell_length_b 8.504711
_cell_length_c 9.763971
_cell_angle_alpha 90.000000
_cell_angle_beta 90.000000
_cell_angle_gamma 90.000000
_cell_volume 595.427404
_symmetry_space_group_name_H-M "P 21 21 2"
_symmetry_group_IT_number 18
_symmetry_cell_setting 'orthorhombic'
loop_
_space_group_symop_operation_xyz
x,y,z
-x,-y,z
1/2+x,1/2-y,-z
1/2-x,1/2+y,-z
loop_
_atom_site_type_symbol
_atom_site_label
_atom_site_fract_x
_atom_site_fract_y
_atom_site_fract_z
Si Si1 0.726988 0.502127 0.951478
Si Si2 0.773011 0.502124 0.451482
Si Si3 0.298334 0.190315 0.797424
Si Si4 0.701673 0.309677 0.702578
O O1 0.500000 0.500000 0.958750
O O2 0.784611 0.668683 0.887590
O O3 0.791798 0.370160 0.842647
O O4 0.799156 0.458173 0.100551
O O5 0.708206 0.370160 0.342647
O O6 0.700842 0.458167 0.600554
O O7 0.715382 0.668679 0.387593
O O8 0.000000 0.500000 0.458757
O O9 0.500007 0.249991 0.750002
#
# Coordination Sequence:
#
# PCOD9312364 Si02
#       4
#     4   4   4   4
#     4  10  21  40  65  99 136 182 231 285 344 409
#     4  10  21  40  65  99 136 182 231 285 344 409
#     4  10  21  40  66  99 139 182 231 285 342 411
#     4  10  21  40  66  99 139 182 231 285 342 411
#
# _framework density 26.871452999999999
#
# number of rings (size 3 to 8) (size 9 to 14) (size 15 to 20)
#    0.000    2.000    0.000    3.000    0.000    4.000 
#    0.000   30.000    0.000    0.000    0.000    0.000 
#    0.000    0.000    0.000    0.000    0.000    0.000 
#
# Total GULP energy -89665.106661 kJ/mol
# GULP energy per Si atom -5604.069166 kJ/mol
# Density = 2.681029 g / cm^3
# Si number density = 26.871453 Si / 1000 Ang^3
#
#
#
# Elastic Constant Matrix: (Units=GPa)
#
#
# Indices 1 2 3 4 5 6 
#
# 1 135.0168 36.3912 37.4351 0.0000 0.0000 0.0000
# 2 36.3912 88.2394 17.9164 0.0000 0.0000 0.0000
# 3 37.4351 17.9164 176.0253 0.0000 0.0000 0.0000
# 4 0.0000 0.0000 0.0000 87.4190 0.0000 0.0000
# 5 0.0000 0.0000 0.0000 0.0000 21.2743 0.0000
# 6 0.0000 0.0000 0.0000 0.0000 0.0000 20.5292
#
#
#
# Elastic Compliance Matrix: (Units=1/GPa)
#
#
# Indices 1 2 3 4 5 6 
#
# 1 0.008713 -0.003285 -0.001519 0.000000 0.000000 0.000000
# 2 -0.003285 0.012810 -0.000605 0.000000 0.000000 0.000000
# 3 -0.001519 -0.000605 0.006066 0.000000 0.000000 0.000000
# 4 0.000000 0.000000 0.000000 0.011439 0.000000 0.000000
# 5 0.000000 0.000000 0.000000 0.000000 0.047005 0.000000
# 6 0.000000 0.000000 0.000000 0.000000 0.000000 0.048711
#
#
# Mechanical properties :
#
#
# Convention : Reuss Voigt Hill
#
# Bulk Modulus (GPa) = 59.62596 64.75190 62.18893
# Shear Modulus (GPa) = 33.07919 46.34709 39.71314
#
# Velocity S-wave (km/s) = 3.51239 4.15754 3.84851
# Velocity P-wave (km/s) = 6.21986 6.86994 6.55297
#
# Compressibility (1/GPa) = 0.01677122
#
# Stress axis : x y z
#
# Youngs Moduli (GPa) = 114.77170 78.06107 164.86495
#
# Poissons Ratio (x) = 0.25643 0.25037
# Poissons Ratio (y) = 0.37703 0.09979
# Poissons Ratio (z) = 0.17429 0.04725
#
# Static dielectric constant tensor:
#      x y z
#    x 2.083180 0.000000 0.000000 
#    y 0.000000 2.156110 0.000000 
#    z 0.000000 0.000000 1.992600 
# 
# From -- ./inp_files/3605.got.cif
#   From: 2010.05.17/outbox.cif.g08.bks.cpg/sg18_2_cif.got.tgz:3605.got - 2010.06.03 22:40:56.
