data_PCOD9312669
_publ_section_title
;
Structure prediction by ZEFSAII (Michael W. Deem and Ramdas Pophale) SiO2 
 PCOD9312669
Probable space group: P 21 21 2
;
_chemical_formula_sum "Si O2"
_cell_formula_units_Z 20
_cell_length_a 10.683612
_cell_length_b 13.620382
_cell_length_c 6.036253
_cell_angle_alpha 90.000000
_cell_angle_beta 90.000000
_cell_angle_gamma 90.000000
_cell_volume 878.364610
_symmetry_space_group_name_H-M "P 21 21 2"
_symmetry_group_IT_number 18
_symmetry_cell_setting 'orthorhombic'
loop_
_space_group_symop_operation_xyz
x,y,z
-x,-y,z
1/2+x,1/2-y,-z
1/2-x,1/2+y,-z
loop_
_atom_site_type_symbol
_atom_site_label
_atom_site_fract_x
_atom_site_fract_y
_atom_site_fract_z
Si Si1 0.248867 0.298431 0.857537
Si Si2 0.165167 0.425167 0.239462
Si Si3 0.292813 0.100480 0.067840
Si Si4 0.863735 0.031178 0.382706
Si Si5 0.005098 0.382162 0.616569
O O1 0.238380 0.343439 0.102555
O O2 0.261243 0.183432 0.889816
O O3 0.354254 0.359769 0.725325
O O4 0.118846 0.328975 0.740889
O O5 0.121460 0.647968 0.738774
O O6 0.257552 0.467613 0.428103
O O7 0.044935 0.377054 0.359151
O O8 0.179147 0.046213 0.193683
O O9 0.358598 0.012259 0.933314
O O10 0.000000 0.000000 0.463551
O O11 0.000000 0.500000 0.647264
#
# Coordination Sequence:
#
# PCOD9312669 Si02
#       5
#     4   4   4   4   4
#     4  10  24  42  63  97 127 166 220 270 323 383
#     4  10  22  43  66  88 134 166 214 268 327 380
#     4  11  24  42  69  95 130 174 215 276 324 385
#     4  10  23  42  60  93 133 170 213 256 330 387
#     4  11  21  42  66  95 123 174 224 260 328 387
#
# _framework density 22.769589
#
# number of rings (size 3 to 8) (size 9 to 14) (size 15 to 20)
#    0.000    1.600    6.000    0.000    5.600    6.400 
#    3.600    0.000    0.000    0.000    0.000    0.000 
#    0.000    0.000    0.000    0.000    0.000    0.000 
#
# Total GULP energy -111611.030587 kJ/mol
# GULP energy per Si atom -5580.551529 kJ/mol
# Density = 2.271776 g / cm^3
# Si number density = 22.769589 Si / 1000 Ang^3
#
#
#
# Elastic Constant Matrix: (Units=GPa)
#
#
# Indices 1 2 3 4 5 6 
#
# 1 59.6844 -6.3252 3.2567 0.0000 0.0000 0.0000
# 2 -6.3252 69.0786 -3.0887 0.0000 0.0000 0.0000
# 3 3.2567 -3.0887 73.3484 0.0000 0.0000 0.0000
# 4 0.0000 0.0000 0.0000 14.7036 0.0000 0.0000
# 5 0.0000 0.0000 0.0000 0.0000 27.9556 0.0000
# 6 0.0000 0.0000 0.0000 0.0000 0.0000 20.1198
#
#
#
# Elastic Compliance Matrix: (Units=1/GPa)
#
#
# Indices 1 2 3 4 5 6 
#
# 1 0.016954 0.001522 -0.000689 0.000000 0.000000 0.000000
# 2 0.001522 0.014640 0.000549 0.000000 0.000000 0.000000
# 3 -0.000689 0.000549 0.013687 0.000000 0.000000 0.000000
# 4 0.000000 0.000000 0.000000 0.068010 0.000000 0.000000
# 5 0.000000 0.000000 0.000000 0.000000 0.035771 0.000000
# 6 0.000000 0.000000 0.000000 0.000000 0.000000 0.049702
#
#
# Mechanical properties :
#
#
# Convention : Reuss Voigt Hill
#
# Bulk Modulus (GPa) = 20.81397 21.08856 20.95126
# Shear Modulus (GPa) = 23.58315 26.44039 25.01177
#
# Velocity S-wave (km/s) = 3.22177 3.41136 3.31792
# Velocity P-wave (km/s) = 4.79590 4.97979 4.88871
#
# Compressibility (1/GPa) = 0.04804467
#
# Stress axis : x y z
#
# Youngs Moduli (GPa) = 58.98443 68.30536 73.06070
#
# Poissons Ratio (x) = -0.10393 0.05032
# Poissons Ratio (y) = -0.08975 -0.04011
# Poissons Ratio (z) = 0.04062 -0.03750
#
# Static dielectric constant tensor:
#      x y z
#    x 1.870100 0.000000 0.000000 
#    y 0.000000 1.835970 0.000000 
#    z 0.000000 0.000000 1.876940 
# 
# From -- ./inp_files/977.got.cif
#   From: 2010.05.17/outbox.cif.g08.bks.cpg/sg18_1_cif.got.tgz:977.got - 2010.06.03 22:40:56.
