data_PCOD9312050
_publ_section_title
;
Structure prediction by ZEFSAII (Michael W. Deem and Ramdas Pophale) SiO2 
 PCOD9312050
Probable space group: P 21 21 2
;
_chemical_formula_sum "Si O2"
_cell_formula_units_Z 24
_cell_length_a 15.867593
_cell_length_b 8.927000
_cell_length_c 9.438555
_cell_angle_alpha 90.000000
_cell_angle_beta 90.000000
_cell_angle_gamma 90.000000
_cell_volume 1336.971341
_symmetry_space_group_name_H-M "P 21 21 2"
_symmetry_group_IT_number 18
_symmetry_cell_setting 'orthorhombic'
loop_
_space_group_symop_operation_xyz
x,y,z
-x,-y,z
1/2+x,1/2-y,-z
1/2-x,1/2+y,-z
loop_
_atom_site_type_symbol
_atom_site_label
_atom_site_fract_x
_atom_site_fract_y
_atom_site_fract_z
Si Si1 0.411978 0.416547 0.326249
Si Si2 0.734959 0.429293 0.153991
Si Si3 0.919972 0.398071 0.172019
Si Si4 0.245436 0.931691 0.152098
Si Si5 0.414208 0.409504 0.663121
Si Si6 0.581393 0.896863 0.164175
O O1 0.500000 0.500000 0.297655
O O2 0.335818 0.511696 0.259442
O O3 0.401634 0.403234 0.494938
O O4 0.416352 0.254080 0.254008
O O5 0.829801 0.475956 0.198529
O O6 0.739498 0.247996 0.144796
O O7 0.719443 0.503635 0.001103
O O8 0.925553 0.253444 0.269054
O O9 0.000000 0.500000 0.198814
O O10 0.920264 0.358426 0.004160
O O11 0.170299 0.968790 0.260593
O O12 0.333401 0.009945 0.190603
O O13 0.500000 0.500000 0.692549
O O14 0.500000 0.000000 0.193915
#
# Coordination Sequence:
#
# PCOD9312050 Si02
#       6
#     4   4   4   4   4   4
#     4  11  23  38  55  80 115 151 186 228 276 333
#     4  10  20  37  58  85 113 143 185 232 278 330
#     4   9  20  38  59  83 109 140 183 231 278 330
#     4  10  21  37  59  86 112 144 187 233 280 332
#     4  10  23  38  54  80 113 150 187 224 277 334
#     4  10  21  38  61  86 110 144 188 234 283 333
#
# _framework density 17.951021000000001
#
# number of rings (size 3 to 8) (size 9 to 14) (size 15 to 20)
#    0.000    2.000    0.000    4.000    0.000   11.333 
#    0.000    3.333    0.000    0.000    0.000    0.000 
#    0.000    0.000    0.000    0.000    0.000    0.000 
#
# Total GULP energy -133972.574401 kJ/mol
# GULP energy per Si atom -5582.190600 kJ/mol
# Density = 1.791016 g / cm^3
# Si number density = 17.951021 Si / 1000 Ang^3
#
#
#
# Elastic Constant Matrix: (Units=GPa)
#
#
# Indices 1 2 3 4 5 6 
#
# 1 183.5972 75.4768 104.6539 0.0000 0.0000 0.0000
# 2 75.4768 95.8849 64.9247 0.0000 0.0000 0.0000
# 3 104.6539 64.9247 89.3593 0.0000 0.0000 0.0000
# 4 0.0000 0.0000 0.0000 -85.2784 0.0000 0.0000
# 5 0.0000 0.0000 0.0000 0.0000 26.1373 0.0000
# 6 0.0000 0.0000 0.0000 0.0000 0.0000 31.4129
#
#
#
# Elastic Compliance Matrix: (Units=1/GPa)
#
#
# Indices 1 2 3 4 5 6 
#
# 1 0.016387 0.000188 -0.019329 0.000000 0.000000 0.000000
# 2 0.000188 0.020530 -0.015137 0.000000 0.000000 0.000000
# 3 -0.019329 -0.015137 0.044826 0.000000 0.000000 0.000000
# 4 0.000000 0.000000 0.000000 -0.011726 0.000000 0.000000
# 5 0.000000 0.000000 0.000000 0.000000 0.038260 0.000000
# 6 0.000000 0.000000 0.000000 0.000000 0.000000 0.031834
#
#
# Mechanical properties :
#
#
# Convention : Reuss Voigt Hill
#
# Bulk Modulus (GPa) = 75.82498 95.43915 85.63207
# Shear Modulus (GPa) = 23.46745 2.70676 13.08711
#
# Velocity S-wave (km/s) = 3.61959 1.22928 2.70301
# Velocity P-wave (km/s) = 7.73306 7.43617 7.58607
#
# Compressibility (1/GPa) = 0.01318827
#
# Stress axis : x y z
#
# Youngs Moduli (GPa) = 61.02441 48.70822 22.30865
#
# Poissons Ratio (x) = -0.00918 0.43119
# Poissons Ratio (y) = -0.01150 0.33769
# Poissons Ratio (z) = 1.17951 0.73731
#
# Static dielectric constant tensor:
#      x y z
#    x 1.624250 0.000000 0.000000 
#    y 0.000000 1.588110 0.000000 
#    z 0.000000 0.000000 1.592250 
# 
# From -- ./inp_files/4188.got.cif
#   From: 2010.05.17/outbox.cif.g08.bks.cpg/sg18_3_cif.got.tgz:4188.got - 2010.06.03 22:40:56.
