data_PCOD9312746
_publ_section_title
;
Structure prediction by ZEFSAII (Michael W. Deem and Ramdas Pophale) SiO2 
 PCOD9312746
Probable space group: P 21 21 2
;
_chemical_formula_sum "Si O2"
_cell_formula_units_Z 14
_cell_length_a 11.397952
_cell_length_b 6.753249
_cell_length_c 7.364218
_cell_angle_alpha 90.000000
_cell_angle_beta 90.000000
_cell_angle_gamma 90.000000
_cell_volume 566.847483
_symmetry_space_group_name_H-M "P 21 21 2"
_symmetry_group_IT_number 18
_symmetry_cell_setting 'orthorhombic'
loop_
_space_group_symop_operation_xyz
x,y,z
-x,-y,z
1/2+x,1/2-y,-z
1/2-x,1/2+y,-z
loop_
_atom_site_type_symbol
_atom_site_label
_atom_site_fract_x
_atom_site_fract_y
_atom_site_fract_z
Si Si1 0.379715 0.618836 0.341638
Si Si2 0.302651 0.297974 0.054957
Si Si3 0.361149 0.539180 0.736522
Si Si4 0.000000 0.500000 0.802796
O O1 0.500000 0.500000 0.373726
O O2 0.329719 0.495588 0.171904
O O3 0.315748 0.583336 0.534003
O O4 0.423528 0.842428 0.311043
O O5 0.181897 0.221784 0.140944
O O6 0.405815 0.137600 0.091219
O O7 0.305457 0.353920 0.843552
O O8 0.500000 0.500000 0.746881
#
# Coordination Sequence:
#
# PCOD9312746 Si02
#       4
#     4   4   4   2
#     4   9  22  47  70 102 139 184 240 301 365 436
#     4  11  26  43  73 103 149 188 244 312 362 430
#     4  11  26  47  70 105 146 190 248 299 364 433
#     4  10  22  48  78 100 140 192 238 312 372 430
#
# _framework density 24.698001000000001
#
# number of rings (size 3 to 8) (size 9 to 14) (size 15 to 20)
#    0.000    1.714    0.000    2.571   12.000    0.000 
#   10.286    2.857    0.000    0.000    0.000    0.000 
#    0.000    0.000    0.000    0.000    0.000    0.000 
#
# Total GULP energy -78207.719693 kJ/mol
# GULP energy per Si atom -5586.265692 kJ/mol
# Density = 2.464179 g / cm^3
# Si number density = 24.698001 Si / 1000 Ang^3
#
#
#
# Elastic Constant Matrix: (Units=GPa)
#
#
# Indices 1 2 3 4 5 6 
#
# 1 97.8260 37.4655 24.0549 0.0000 0.0000 0.0000
# 2 37.4655 189.7319 66.8652 0.0000 0.0000 0.0000
# 3 24.0549 66.8652 150.3725 0.0000 0.0000 0.0000
# 4 0.0000 0.0000 0.0000 12.7999 0.0000 0.0000
# 5 0.0000 0.0000 0.0000 0.0000 -43.6931 0.0000
# 6 0.0000 0.0000 0.0000 0.0000 0.0000 55.0947
#
#
#
# Elastic Compliance Matrix: (Units=1/GPa)
#
#
# Indices 1 2 3 4 5 6 
#
# 1 0.011173 -0.001869 -0.000956 0.000000 0.000000 0.000000
# 2 -0.001869 0.006563 -0.002619 0.000000 0.000000 0.000000
# 3 -0.000956 -0.002619 0.007968 0.000000 0.000000 0.000000
# 4 0.000000 0.000000 0.000000 0.078126 0.000000 0.000000
# 5 0.000000 0.000000 0.000000 0.000000 -0.022887 0.000000
# 6 0.000000 0.000000 0.000000 0.000000 0.000000 0.018151
#
#
# Mechanical properties :
#
#
# Convention : Reuss Voigt Hill
#
# Bulk Modulus (GPa) = 67.50175 77.18905 72.34540
# Shear Modulus (GPa) = 43.50828 25.47661 34.49244
#
# Velocity S-wave (km/s) = 4.20171 3.21522 3.74112
# Velocity P-wave (km/s) = 7.13648 6.71599 6.92942
#
# Compressibility (1/GPa) = 0.01481443
#
# Stress axis : x y z
#
# Youngs Moduli (GPa) = 89.49926 152.37432 125.50581
#
# Poissons Ratio (x) = 0.28485 0.12000
# Poissons Ratio (y) = 0.16731 0.32872
# Poissons Ratio (z) = 0.08557 0.39910
#
# Static dielectric constant tensor:
#      x y z
#    x 2.023820 0.000000 0.000000 
#    y 0.000000 2.121350 0.000000 
#    z 0.000000 0.000000 2.072220 
# 
# From -- ./inp_files/3558.got.cif
#   From: 2010.05.17/outbox.cif.g08.bks.cpg/sg18_2_cif.got.tgz:3558.got - 2010.06.03 22:40:56.
