data_PCOD9312969
_publ_section_title
;
Structure prediction by ZEFSAII (Michael W. Deem and Ramdas Pophale) SiO2 
 PCOD9312969
Probable space group: P 21 21 2
;
_chemical_formula_sum "Si O2"
_cell_formula_units_Z 18
_cell_length_a 18.744491
_cell_length_b 5.383859
_cell_length_c 7.369310
_cell_angle_alpha 90.000000
_cell_angle_beta 90.000000
_cell_angle_gamma 90.000000
_cell_volume 743.693791
_symmetry_space_group_name_H-M "P 21 21 2"
_symmetry_group_IT_number 18
_symmetry_cell_setting 'orthorhombic'
loop_
_space_group_symop_operation_xyz
x,y,z
-x,-y,z
1/2+x,1/2-y,-z
1/2-x,1/2+y,-z
loop_
_atom_site_type_symbol
_atom_site_label
_atom_site_fract_x
_atom_site_fract_y
_atom_site_fract_z
Si Si1 0.394467 0.312133 0.206978
Si Si2 0.000000 0.500000 0.545796
Si Si3 0.888795 0.862292 0.491506
Si Si4 0.773617 0.701871 0.255460
Si Si5 0.148511 0.811958 0.177896
O O1 0.444993 0.136332 0.320677
O O2 0.405413 0.579975 0.300535
O O3 0.310555 0.272454 0.249868
O O4 0.403210 0.290221 0.993100
O O5 0.951110 0.682485 0.426935
O O6 0.810929 0.746926 0.452539
O O7 0.887513 0.110626 0.368144
O O8 0.804267 0.435797 0.194029
O O9 0.805263 0.936060 0.143259
#
# Coordination Sequence:
#
# PCOD9312969 Si02
#       5
#     4   2   4   4   4
#     4  12  26  47  76 115 152 201 257 318 389 453
#     4  12  28  48  74 114 166 200 262 310 392 472
#     4  10  27  47  73 115 149 209 241 320 375 466
#     4  10  25  46  81 111 150 192 259 323 375 453
#     4  10  25  48  78 112 146 198 253 320 375 455
#
# _framework density 24.203510999999999
#
# number of rings (size 3 to 8) (size 9 to 14) (size 15 to 20)
#    1.333    0.000    0.000    3.333   12.444    0.000 
#    0.000   16.667    0.000    0.000    0.000    0.000 
#    0.000    0.000    0.000    0.000    0.000    0.000 
#
# Total GULP energy -100513.395393 kJ/mol
# GULP energy per Si atom -5584.077522 kJ/mol
# Density = 2.414842 g / cm^3
# Si number density = 24.203511 Si / 1000 Ang^3
#
#
#
# Elastic Constant Matrix: (Units=GPa)
#
#
# Indices 1 2 3 4 5 6 
#
# 1 86.7162 30.3989 17.7886 0.0000 0.0000 0.0000
# 2 30.3989 112.7516 14.5751 0.0000 0.0000 0.0000
# 3 17.7886 14.5751 92.3765 0.0000 0.0000 0.0000
# 4 0.0000 0.0000 0.0000 6.2415 0.0000 0.0000
# 5 0.0000 0.0000 0.0000 0.0000 23.6283 0.0000
# 6 0.0000 0.0000 0.0000 0.0000 0.0000 23.7778
#
#
#
# Elastic Compliance Matrix: (Units=1/GPa)
#
#
# Indices 1 2 3 4 5 6 
#
# 1 0.013089 -0.003270 -0.002005 0.000000 0.000000 0.000000
# 2 -0.003270 0.009871 -0.000928 0.000000 0.000000 0.000000
# 3 -0.002005 -0.000928 0.011358 0.000000 0.000000 0.000000
# 4 0.000000 0.000000 0.000000 0.160217 0.000000 0.000000
# 5 0.000000 0.000000 0.000000 0.000000 0.042322 0.000000
# 6 0.000000 0.000000 0.000000 0.000000 0.000000 0.042056
#
#
# Mechanical properties :
#
#
# Convention : Reuss Voigt Hill
#
# Bulk Modulus (GPa) = 45.63474 46.37440 46.00457
# Shear Modulus (GPa) = 16.74357 26.00164 21.37261
#
# Velocity S-wave (km/s) = 2.63303 3.28120 2.97482
# Velocity P-wave (km/s) = 5.30465 5.79282 5.55410
#
# Compressibility (1/GPa) = 0.02191313
#
# Stress axis : x y z
#
# Youngs Moduli (GPa) = 76.39787 101.31132 88.04627
#
# Poissons Ratio (x) = 0.33128 0.17650
# Poissons Ratio (y) = 0.24981 0.08168
# Poissons Ratio (z) = 0.15315 0.09399
#
# Static dielectric constant tensor:
#      x y z
#    x 1.943220 0.000000 0.000000 
#    y 0.000000 2.046310 0.000000 
#    z 0.000000 0.000000 1.976790 
# 
# From -- ./inp_files/4400.got.cif
#   From: 2010.05.17/outbox.cif.g08.bks.cpg/sg18_3_cif.got.tgz:4400.got - 2010.06.03 22:40:56.
