data_PCOD9312535
_publ_section_title
;
Structure prediction by ZEFSAII (Michael W. Deem and Ramdas Pophale) SiO2 
 PCOD9312535
Probable space group: P 21 21 2
;
_chemical_formula_sum "Si O2"
_cell_formula_units_Z 18
_cell_length_a 9.868932
_cell_length_b 5.147132
_cell_length_c 14.835348
_cell_angle_alpha 90.000000
_cell_angle_beta 90.000000
_cell_angle_gamma 90.000000
_cell_volume 753.586658
_symmetry_space_group_name_H-M "P 21 21 2"
_symmetry_group_IT_number 18
_symmetry_cell_setting 'orthorhombic'
loop_
_space_group_symop_operation_xyz
x,y,z
-x,-y,z
1/2+x,1/2-y,-z
1/2-x,1/2+y,-z
loop_
_atom_site_type_symbol
_atom_site_label
_atom_site_fract_x
_atom_site_fract_y
_atom_site_fract_z
Si Si1 0.500000 0.500000 0.976329
Si Si2 0.206600 0.998722 0.182284
Si Si3 0.500000 0.000000 0.102552
Si Si4 0.000000 0.000000 0.622703
Si Si5 0.162192 0.690113 0.486588
Si Si6 0.704667 0.990618 0.705721
O O1 0.627334 0.456561 0.910429
O O2 0.514443 0.748751 0.039605
O O3 0.163206 0.722363 0.221619
O O4 0.180217 0.225997 0.254113
O O5 0.365843 0.986836 0.162315
O O6 0.957409 0.231090 0.554269
O O7 0.865669 0.960095 0.681920
O O8 0.258101 0.464359 0.527164
O O9 0.365597 0.079687 0.611949
#
# Coordination Sequence:
#
# PCOD9312535 Si02
#       6
#     2   4   2   2   4   4
#     4  12  26  46  68 100 138 172 212 270 344 418
#     4  12  25  44  70 101 134 174 217 279 340 394
#     4  12  24  46  74 100 128 174 224 266 328 422
#     4  10  22  42  66  90 130 182 232 280 328 392
#     4  10  22  39  62  92 126 171 221 275 333 387
#     4  11  23  41  64  98 132 170 226 281 331 393
#
# _framework density 23.885774999999999
#
# number of rings (size 3 to 8) (size 9 to 14) (size 15 to 20)
#    0.000    0.889    0.000    8.000    0.000    8.000 
#    0.000    8.889    0.000    0.000    0.000    0.000 
#    0.000    0.000    0.000    0.000    0.000    0.000 
#
# Total GULP energy -100871.883506 kJ/mol
# GULP energy per Si atom -5603.993528 kJ/mol
# Density = 2.383141 g / cm^3
# Si number density = 23.885775 Si / 1000 Ang^3
#
#
#
# Elastic Constant Matrix: (Units=GPa)
#
#
# Indices 1 2 3 4 5 6 
#
# 1 93.6373 15.0507 -12.6529 0.0000 0.0000 0.0000
# 2 15.0507 135.3568 26.1329 0.0000 0.0000 0.0000
# 3 -12.6529 26.1329 74.4185 0.0000 0.0000 0.0000
# 4 0.0000 0.0000 0.0000 72.0632 0.0000 0.0000
# 5 0.0000 0.0000 0.0000 0.0000 -46.9537 0.0000
# 6 0.0000 0.0000 0.0000 0.0000 0.0000 21.1325
#
#
#
# Elastic Compliance Matrix: (Units=1/GPa)
#
#
# Indices 1 2 3 4 5 6 
#
# 1 0.011303 -0.001746 0.002535 0.000000 0.000000 0.000000
# 2 -0.001746 0.008195 -0.003175 0.000000 0.000000 0.000000
# 3 0.002535 -0.003175 0.014983 0.000000 0.000000 0.000000
# 4 0.000000 0.000000 0.000000 0.013877 0.000000 0.000000
# 5 0.000000 0.000000 0.000000 0.000000 -0.021298 0.000000
# 6 0.000000 0.000000 0.000000 0.000000 0.000000 0.047320
#
#
# Mechanical properties :
#
#
# Convention : Reuss Voigt Hill
#
# Bulk Modulus (GPa) = 33.65965 40.05268 36.85616
# Shear Modulus (GPa) = 56.14477 27.57385 41.85931
#
# Velocity S-wave (km/s) = 4.85351 3.40134 4.19080
# Velocity P-wave (km/s) = 6.74768 5.67717 6.23545
#
# Compressibility (1/GPa) = 0.02970917
#
# Stress axis : x y z
#
# Youngs Moduli (GPa) = 88.47433 122.02614 66.74081
#
# Poissons Ratio (x) = 0.21308 -0.16918
# Poissons Ratio (y) = 0.15449 0.21188
# Poissons Ratio (z) = -0.22428 0.38739
#
# Static dielectric constant tensor:
#      x y z
#    x 1.978440 0.000000 0.000000 
#    y 0.000000 1.848400 0.000000 
#    z 0.000000 0.000000 1.844090 
# 
# From -- ./inp_files/5812.got.cif
#   From: 2010.05.17/outbox.cif.g08.bks.cpg/sg18_3_cif.got.tgz:5812.got - 2010.06.03 22:40:56.
