data_PCOD9312437
_publ_section_title
;
Structure prediction by ZEFSAII (Michael W. Deem and Ramdas Pophale) SiO2 
 PCOD9312437
Probable space group: P 21 21 2
;
_chemical_formula_sum "Si O2"
_cell_formula_units_Z 30
_cell_length_a 18.313182
_cell_length_b 12.129526
_cell_length_c 6.148799
_cell_angle_alpha 90.000000
_cell_angle_beta 90.000000
_cell_angle_gamma 90.000000
_cell_volume 1365.834057
_symmetry_space_group_name_H-M "P 21 21 2"
_symmetry_group_IT_number 18
_symmetry_cell_setting 'orthorhombic'
loop_
_space_group_symop_operation_xyz
x,y,z
-x,-y,z
1/2+x,1/2-y,-z
1/2-x,1/2+y,-z
loop_
_atom_site_type_symbol
_atom_site_label
_atom_site_fract_x
_atom_site_fract_y
_atom_site_fract_z
Si Si1 0.990667 0.302527 0.124342
Si Si2 0.424160 0.654455 0.598059
Si Si3 0.500000 0.000000 0.542738
Si Si4 0.653068 0.705470 0.004835
Si Si5 0.905243 0.649841 0.731353
Si Si6 0.711989 0.360030 0.914839
Si Si7 0.742857 0.582972 0.681085
Si Si8 0.345840 0.501959 0.300901
O O1 0.915198 0.286171 0.000573
O O2 0.056522 0.337556 0.964594
O O3 0.010989 0.185164 0.237276
O O4 0.980963 0.397374 0.303194
O O5 0.430051 0.747322 0.414283
O O6 0.351577 0.670494 0.745356
O O7 0.408125 0.541725 0.469495
O O8 0.564852 0.040535 0.387462
O O9 0.725680 0.768534 0.082132
O O10 0.632939 0.600178 0.150633
O O11 0.676597 0.658335 0.768839
O O12 0.818365 0.644556 0.718368
O O13 0.745665 0.474662 0.830540
O O14 0.677146 0.395662 0.146584
O O15 0.723083 0.540040 0.442239
#
# Coordination Sequence:
#
# PCOD9312437 Si02
#       8
#     4   4   2   4   4   4   4   4
#     4  11  25  42  65  98 139 177 221 283 340 406
#     4  10  21  43  64  93 127 176 225 264 334 403
#     4  10  26  40  64 102 138 176 232 268 348 410
#     4  11  24  41  64 101 133 169 225 280 332 397
#     4  11  23  43  68  95 134 183 216 276 341 410
#     4  10  22  40  67  93 129 171 218 287 329 395
#     4  10  23  40  66  95 126 171 225 269 336 401
#     4  10  22  42  66  95 127 177 226 276 338 393
#
# _framework density 21.964603
#
# number of rings (size 3 to 8) (size 9 to 14) (size 15 to 20)
#    0.000    1.600    0.000    3.600    5.600    5.333 
#    0.000   16.000    0.000    0.000    0.000    0.000 
#    0.000    0.000    0.000    0.000    0.000    0.000 
#
# Total GULP energy -167578.435582 kJ/mol
# GULP energy per Si atom -5585.947853 kJ/mol
# Density = 2.191461 g / cm^3
# Si number density = 21.964603 Si / 1000 Ang^3
#
#
#
# Elastic Constant Matrix: (Units=GPa)
#
#
# Indices 1 2 3 4 5 6 
#
# 1 50.2272 5.0364 12.8685 0.0000 0.0000 0.0000
# 2 5.0364 59.5378 11.3183 0.0000 0.0000 0.0000
# 3 12.8685 11.3183 78.4179 0.0000 0.0000 0.0000
# 4 0.0000 0.0000 0.0000 24.2176 0.0000 0.0000
# 5 0.0000 0.0000 0.0000 0.0000 17.4015 0.0000
# 6 0.0000 0.0000 0.0000 0.0000 0.0000 33.5739
#
#
#
# Elastic Compliance Matrix: (Units=1/GPa)
#
#
# Indices 1 2 3 4 5 6 
#
# 1 0.020859 -0.001145 -0.003258 0.000000 0.000000 0.000000
# 2 -0.001145 0.017333 -0.002314 0.000000 0.000000 0.000000
# 3 -0.003258 -0.002314 0.013621 0.000000 0.000000 0.000000
# 4 0.000000 0.000000 0.000000 0.041292 0.000000 0.000000
# 5 0.000000 0.000000 0.000000 0.000000 0.057466 0.000000
# 6 0.000000 0.000000 0.000000 0.000000 0.000000 0.029785
#
#
# Mechanical properties :
#
#
# Convention : Reuss Voigt Hill
#
# Bulk Modulus (GPa) = 26.05577 27.40324 26.72950
# Shear Modulus (GPa) = 24.20340 25.63592 24.91966
#
# Velocity S-wave (km/s) = 3.32313 3.42006 3.37194
# Velocity P-wave (km/s) = 5.15874 5.30084 5.23028
#
# Compressibility (1/GPa) = 0.03837922
#
# Stress axis : x y z
#
# Youngs Moduli (GPa) = 47.94091 57.69413 73.41751
#
# Poissons Ratio (x) = 0.06607 0.23917
# Poissons Ratio (y) = 0.05490 0.16987
# Poissons Ratio (z) = 0.15618 0.13349
#
# Static dielectric constant tensor:
#      x y z
#    x 1.772310 0.000000 0.000000 
#    y 0.000000 1.811050 0.000000 
#    z 0.000000 0.000000 1.823720 
# 
# From -- ./inp_files/1997.got.cif
#   From: 2010.05.17/outbox.cif.g08.bks.cpg/sg18_1_cif.got.tgz:1997.got - 2010.06.03 22:40:56.
