data_PCOD9312027
_publ_section_title
;
Structure prediction by ZEFSAII (Michael W. Deem and Ramdas Pophale) SiO2 
 PCOD9312027
Probable space group: P 21 21 2
;
_chemical_formula_sum "Si O2"
_cell_formula_units_Z 24
_cell_length_a 8.502951
_cell_length_b 13.491327
_cell_length_c 8.303627
_cell_angle_alpha 90.000000
_cell_angle_beta 90.000000
_cell_angle_gamma 90.000000
_cell_volume 952.559642
_symmetry_space_group_name_H-M "P 21 21 2"
_symmetry_group_IT_number 18
_symmetry_cell_setting 'orthorhombic'
loop_
_space_group_symop_operation_xyz
x,y,z
-x,-y,z
1/2+x,1/2-y,-z
1/2-x,1/2+y,-z
loop_
_atom_site_type_symbol
_atom_site_label
_atom_site_fract_x
_atom_site_fract_y
_atom_site_fract_z
Si Si1 0.381769 0.856868 0.342614
Si Si2 0.679444 0.768547 0.477117
Si Si3 0.771931 0.645373 0.175158
Si Si4 0.521874 0.251796 0.041808
Si Si5 0.326578 0.540559 0.669859
Si Si6 0.832531 0.951658 0.942268
O O1 0.508394 0.816955 0.470257
O O2 0.232475 0.784824 0.362141
O O3 0.466644 0.836422 0.172605
O O4 0.314180 0.964957 0.370589
O O5 0.698708 0.681534 0.342701
O O6 0.793415 0.857071 0.419640
O O7 0.643197 0.690796 0.048402
O O8 0.928379 0.703937 0.126121
O O9 0.784731 0.527964 0.144584
O O10 0.645240 0.337064 0.096374
O O11 0.500000 0.500000 0.629223
O O12 0.317418 0.547723 0.864158
O O13 0.000000 0.000000 0.897929
#
# Coordination Sequence:
#
# PCOD9312027 Si02
#       6
#     4   4   4   4   4   4
#     4  11  24  40  61  90 126 163 205 253 304 366
#     4  11  24  40  61  90 126 163 205 253 304 366
#     4  10  20  36  59  87 117 153 200 250 298 355
#     4  10  20  36  59  87 117 153 200 250 298 355
#     4  11  21  38  65  88 118 162 201 249 314 371
#     4   9  18  34  59  88 116 152 197 245 302 361
#
# _framework density 25.195274000000001
#
# number of rings (size 3 to 8) (size 9 to 14) (size 15 to 20)
#    0.000    1.667    3.333    1.500    0.000    2.667 
#    0.000    4.167    0.000    0.000    0.000    0.000 
#    0.000    0.000    0.000    0.000    0.000    0.000 
#
# Total GULP energy -134168.429697 kJ/mol
# GULP energy per Si atom -5590.351237 kJ/mol
# Density = 2.513793 g / cm^3
# Si number density = 25.195274 Si / 1000 Ang^3
#
#
#
# Elastic Constant Matrix: (Units=GPa)
#
#
# Indices 1 2 3 4 5 6 
#
# 1 68.5683 2.0118 -6.2748 0.0000 0.0000 0.0000
# 2 2.0118 107.1374 1.9072 0.0000 0.0000 0.0000
# 3 -6.2748 1.9072 26.4162 0.0000 0.0000 0.0000
# 4 0.0000 0.0000 0.0000 22.1230 0.0000 0.0000
# 5 0.0000 0.0000 0.0000 0.0000 25.3976 0.0000
# 6 0.0000 0.0000 0.0000 0.0000 0.0000 43.0475
#
#
#
# Elastic Compliance Matrix: (Units=1/GPa)
#
#
# Indices 1 2 3 4 5 6 
#
# 1 0.014921 -0.000344 0.003569 0.000000 0.000000 0.000000
# 2 -0.000344 0.009354 -0.000757 0.000000 0.000000 0.000000
# 3 0.003569 -0.000757 0.038758 0.000000 0.000000 0.000000
# 4 0.000000 0.000000 0.000000 0.045202 0.000000 0.000000
# 5 0.000000 0.000000 0.000000 0.000000 0.039374 0.000000
# 6 0.000000 0.000000 0.000000 0.000000 0.000000 0.023230
#
#
# Mechanical properties :
#
#
# Convention : Reuss Voigt Hill
#
# Bulk Modulus (GPa) = 14.71259 21.93449 18.32354
# Shear Modulus (GPa) = 26.51706 31.74547 29.13127
#
# Velocity S-wave (km/s) = 3.24769 3.55347 3.40401
# Velocity P-wave (km/s) = 4.46267 5.05578 4.76845
#
# Compressibility (1/GPa) = 0.06796898
#
# Stress axis : x y z
#
# Youngs Moduli (GPa) = 67.02106 106.90917 25.80118
#
# Poissons Ratio (x) = 0.03675 -0.09208
# Poissons Ratio (y) = 0.02304 0.01953
# Poissons Ratio (z) = -0.23920 0.08093
#
# Static dielectric constant tensor:
#      x y z
#    x 2.047370 0.000000 0.000000 
#    y 0.000000 1.975910 0.000000 
#    z 0.000000 0.000000 2.002180 
# 
# From -- ./inp_files/5510.got.cif
#   From: 2010.05.17/outbox.cif.g08.bks.cpg/sg18_3_cif.got.tgz:5510.got - 2010.06.03 22:40:56.
