data_PCOD9312539
_publ_section_title
;
Structure prediction by ZEFSAII (Michael W. Deem and Ramdas Pophale) SiO2 
 PCOD9312539
Probable space group: P 21 21 2
;
_chemical_formula_sum "Si O2"
_cell_formula_units_Z 22
_cell_length_a 12.268161
_cell_length_b 9.482441
_cell_length_c 7.875023
_cell_angle_alpha 90.000000
_cell_angle_beta 90.000000
_cell_angle_gamma 90.000000
_cell_volume 916.118064
_symmetry_space_group_name_H-M "P 21 21 2"
_symmetry_group_IT_number 18
_symmetry_cell_setting 'orthorhombic'
loop_
_space_group_symop_operation_xyz
x,y,z
-x,-y,z
1/2+x,1/2-y,-z
1/2-x,1/2+y,-z
loop_
_atom_site_type_symbol
_atom_site_label
_atom_site_fract_x
_atom_site_fract_y
_atom_site_fract_z
Si Si1 0.268492 0.954069 0.508011
Si Si2 0.704139 0.615504 0.003627
Si Si3 0.698508 0.876242 0.800702
Si Si4 0.143875 0.715679 0.656280
Si Si5 0.500000 0.500000 0.794505
Si Si6 0.480665 0.788198 0.607223
O O1 0.186759 0.824204 0.506607
O O2 0.372316 0.880720 0.599344
O O3 0.227301 0.065301 0.648418
O O4 0.302033 0.060287 0.358442
O O5 0.790411 0.498605 0.059567
O O6 0.665044 0.706225 0.168269
O O7 0.746365 0.732943 0.874660
O O8 0.600295 0.544730 0.913653
O O9 0.575997 0.849909 0.730720
O O10 0.022247 0.701241 0.587211
O O11 0.462724 0.630978 0.677110
#
# Coordination Sequence:
#
# PCOD9312539 Si02
#       6
#     4   4   4   4   2   4
#     4  10  22  41  65  91 127 172 213 259 322 388
#     4  10  22  39  62  95 127 161 215 267 313 388
#     4   9  20  39  62  88 125 166 207 255 319 385
#     4  10  22  39  63  97 126 161 221 265 316 376
#     4  10  24  40  66  92 126 176 208 262 334 380
#     4  10  22  43  66  89 129 175 214 256 332 388
#
# _framework density 24.01437
#
# number of rings (size 3 to 8) (size 9 to 14) (size 15 to 20)
#    0.000    2.182    0.000    2.182    7.636    3.636 
#    6.545    7.273    0.000    0.000    0.000    0.000 
#    0.000    0.000    0.000    0.000    0.000    0.000 
#
# Total GULP energy -122825.534324 kJ/mol
# GULP energy per Si atom -5582.978833 kJ/mol
# Density = 2.395971 g / cm^3
# Si number density = 24.014370 Si / 1000 Ang^3
#
#
#
# Elastic Constant Matrix: (Units=GPa)
#
#
# Indices 1 2 3 4 5 6 
#
# 1 57.4425 29.8151 18.8243 0.0000 0.0000 0.0000
# 2 29.8151 146.3527 27.6060 0.0000 0.0000 0.0000
# 3 18.8243 27.6060 71.7323 0.0000 0.0000 0.0000
# 4 0.0000 0.0000 0.0000 56.9552 0.0000 0.0000
# 5 0.0000 0.0000 0.0000 0.0000 22.1099 0.0000
# 6 0.0000 0.0000 0.0000 0.0000 0.0000 30.5668
#
#
#
# Elastic Compliance Matrix: (Units=1/GPa)
#
#
# Indices 1 2 3 4 5 6 
#
# 1 0.020513 -0.003411 -0.004070 0.000000 0.000000 0.000000
# 2 -0.003411 0.007935 -0.002159 0.000000 0.000000 0.000000
# 3 -0.004070 -0.002159 0.015840 0.000000 0.000000 0.000000
# 4 0.000000 0.000000 0.000000 0.017558 0.000000 0.000000
# 5 0.000000 0.000000 0.000000 0.000000 0.045229 0.000000
# 6 0.000000 0.000000 0.000000 0.000000 0.000000 0.032715
#
#
# Mechanical properties :
#
#
# Convention : Reuss Voigt Hill
#
# Bulk Modulus (GPa) = 39.98808 47.55759 43.77284
# Shear Modulus (GPa) = 29.86764 35.21184 32.53974
#
# Velocity S-wave (km/s) = 3.53050 3.83336 3.68504
# Velocity P-wave (km/s) = 5.77123 6.28010 6.03103
#
# Compressibility (1/GPa) = 0.02500745
#
# Stress axis : x y z
#
# Youngs Moduli (GPa) = 48.74919 126.02559 63.13293
#
# Poissons Ratio (x) = 0.42990 0.25697
# Poissons Ratio (y) = 0.16629 0.13628
# Poissons Ratio (z) = 0.19843 0.27203
#
# Static dielectric constant tensor:
#      x y z
#    x 1.933620 0.000000 0.000000 
#    y 0.000000 1.981500 0.000000 
#    z 0.000000 0.000000 2.006200 
# 
# From -- ./inp_files/4162.got.cif
#   From: 2010.05.17/outbox.cif.g08.bks.cpg/sg18_3_cif.got.tgz:4162.got - 2010.06.03 22:40:56.
