data_PCOD9312012
_publ_section_title
;
Structure prediction by ZEFSAII (Michael W. Deem and Ramdas Pophale) SiO2 
 PCOD9312012
Probable space group: P 21 21 2
;
_chemical_formula_sum "Si O2"
_cell_formula_units_Z 26
_cell_length_a 6.424800
_cell_length_b 18.249220
_cell_length_c 11.942022
_cell_angle_alpha 90.000000
_cell_angle_beta 90.000000
_cell_angle_gamma 90.000000
_cell_volume 1400.173283
_symmetry_space_group_name_H-M "P 21 21 2"
_symmetry_group_IT_number 18
_symmetry_cell_setting 'orthorhombic'
loop_
_space_group_symop_operation_xyz
x,y,z
-x,-y,z
1/2+x,1/2-y,-z
1/2-x,1/2+y,-z
loop_
_atom_site_type_symbol
_atom_site_label
_atom_site_fract_x
_atom_site_fract_y
_atom_site_fract_z
Si Si1 0.000000 0.500000 0.626981
Si Si2 0.628537 0.424990 0.501530
Si Si3 0.916043 0.418583 0.048764
Si Si4 0.594062 0.332029 0.903437
Si Si5 0.908586 0.917289 0.749528
Si Si6 0.298623 0.315469 0.109872
Si Si7 0.386254 0.421519 0.713765
O O1 0.848557 0.449899 0.551964
O O2 0.851749 0.554798 0.696014
O O3 0.500000 0.500000 0.484600
O O4 0.647752 0.393962 0.377098
O O5 0.492064 0.388192 0.600463
O O6 0.784666 0.417075 0.164684
O O7 0.000000 0.500000 0.026956
O O8 0.109592 0.364378 0.063505
O O9 0.760234 0.389939 0.952676
O O10 0.712307 0.262668 0.851918
O O11 0.440345 0.370258 0.816533
O O12 0.461397 0.303585 0.009024
O O13 0.081589 0.862202 0.797107
O O14 0.000000 0.000000 0.752768
O O15 0.500000 0.500000 0.731538
#
# Coordination Sequence:
#
# PCOD9312012 Si02
#       7
#     2   4   4   4   4   4   4
#     4   8  16  34  54  92 122 152 186 244 316 336
#     4   8  17  33  57  91 121 146 192 247 294 354
#     4  11  23  37  59  88 115 156 202 246 298 347
#     4  11  24  41  58  85 123 160 201 246 297 367
#     4  10  20  35  62  93 119 148 202 250 290 360
#     4  11  23  40  58  84 121 161 195 242 306 349
#     4   9  20  36  59  90 118 150 202 245 291 359
#
# _framework density 18.569130999999999
#
# number of rings (size 3 to 8) (size 9 to 14) (size 15 to 20)
#    0.000    2.462    3.077    0.000    3.231    3.692 
#    1.385    0.000    3.385    0.000    0.000    0.000 
#    0.000    0.000    0.000    0.000    0.000    0.000 
#
# Total GULP energy -144978.724708 kJ/mol
# GULP energy per Si atom -5576.104796 kJ/mol
# Density = 1.852687 g / cm^3
# Si number density = 18.569131 Si / 1000 Ang^3
#
#
#
# Elastic Constant Matrix: (Units=GPa)
#
#
# Indices 1 2 3 4 5 6 
#
# 1 117.8701 40.2939 34.0503 0.0000 0.0000 0.0000
# 2 40.2939 81.3697 44.3869 0.0000 0.0000 0.0000
# 3 34.0503 44.3869 82.7206 0.0000 0.0000 0.0000
# 4 0.0000 0.0000 0.0000 37.3099 0.0000 0.0000
# 5 0.0000 0.0000 0.0000 0.0000 -40.3624 0.0000
# 6 0.0000 0.0000 0.0000 0.0000 0.0000 28.0387
#
#
#
# Elastic Compliance Matrix: (Units=1/GPa)
#
#
# Indices 1 2 3 4 5 6 
#
# 1 0.010479 -0.004010 -0.002162 0.000000 0.000000 0.000000
# 2 -0.004010 0.018910 -0.008496 0.000000 0.000000 0.000000
# 3 -0.002162 -0.008496 0.017538 0.000000 0.000000 0.000000
# 4 0.000000 0.000000 0.000000 0.026803 0.000000 0.000000
# 5 0.000000 0.000000 0.000000 0.000000 -0.024776 0.000000
# 6 0.000000 0.000000 0.000000 0.000000 0.000000 0.035665
#
#
# Mechanical properties :
#
#
# Convention : Reuss Voigt Hill
#
# Bulk Modulus (GPa) = 56.84789 57.71363 57.28076
# Shear Modulus (GPa) = 41.72969 15.87920 28.80445
#
# Velocity S-wave (km/s) = 4.74567 2.92745 3.94280
# Velocity P-wave (km/s) = 7.79161 6.52491 7.18623
#
# Compressibility (1/GPa) = 0.01759080
#
# Stress axis : x y z
#
# Youngs Moduli (GPa) = 95.42668 52.88211 57.01985
#
# Poissons Ratio (x) = 0.21206 0.12327
# Poissons Ratio (y) = 0.38266 0.48445
# Poissons Ratio (z) = 0.20630 0.44930
#
# Static dielectric constant tensor:
#      x y z
#    x 1.560370 0.000000 0.000000 
#    y 0.000000 1.621600 0.000000 
#    z 0.000000 0.000000 1.683870 
# 
# From -- ./inp_files/5162.got.cif
#   From: 2010.05.17/outbox.cif.g08.bks.cpg/sg18_3_cif.got.tgz:5162.got - 2010.06.03 22:40:56.
