data_PCOD9312604
_publ_section_title
;
Structure prediction by ZEFSAII (Michael W. Deem and Ramdas Pophale) SiO2 
 PCOD9312604
Probable space group: P 21 21 2
;
_chemical_formula_sum "Si O2"
_cell_formula_units_Z 18
_cell_length_a 9.531124
_cell_length_b 10.991387
_cell_length_c 7.066595
_cell_angle_alpha 90.000000
_cell_angle_beta 90.000000
_cell_angle_gamma 90.000000
_cell_volume 740.298417
_symmetry_space_group_name_H-M "P 21 21 2"
_symmetry_group_IT_number 18
_symmetry_cell_setting 'orthorhombic'
loop_
_space_group_symop_operation_xyz
x,y,z
-x,-y,z
1/2+x,1/2-y,-z
1/2-x,1/2+y,-z
loop_
_atom_site_type_symbol
_atom_site_label
_atom_site_fract_x
_atom_site_fract_y
_atom_site_fract_z
Si Si1 0.633309 0.696104 0.898646
Si Si2 0.993124 0.634353 0.513221
Si Si3 0.082084 0.378871 0.068731
Si Si4 0.000000 0.000000 0.396726
Si Si5 0.786379 0.834178 0.613663
O O1 0.500567 0.757298 0.000226
O O2 0.568766 0.604818 0.738054
O O3 0.709164 0.818998 0.814139
O O4 0.754717 0.627618 0.012537
O O5 0.934066 0.626124 0.297729
O O6 0.884504 0.718424 0.613266
O O7 0.000000 0.500000 0.589293
O O8 0.151556 0.681707 0.521247
O O9 0.000000 0.500000 0.007111
O O10 0.879555 0.943165 0.532105
#
# Coordination Sequence:
#
# PCOD9312604 Si02
#       5
#     4   4   4   2   4
#     4  11  26  46  71 103 137 184 226 289 343 413
#     4  10  22  41  66  95 139 168 223 278 334 408
#     4  10  24  46  67 101 138 179 227 279 352 406
#     4  12  24  46  72 104 136 178 240 284 340 410
#     4  11  22  44  69 101 130 178 226 283 339 398
#
# _framework density 24.314520000000002
#
# number of rings (size 3 to 8) (size 9 to 14) (size 15 to 20)
#    0.000    1.333    4.444    1.333    3.111    4.444 
#    8.000    0.000    0.000    0.000    0.000    0.000 
#    0.000    0.000    0.000    0.000    0.000    0.000 
#
# Total GULP energy -100479.010734 kJ/mol
# GULP energy per Si atom -5582.167263 kJ/mol
# Density = 2.425918 g / cm^3
# Si number density = 24.314520 Si / 1000 Ang^3
#
#
#
# Elastic Constant Matrix: (Units=GPa)
#
#
# Indices 1 2 3 4 5 6 
#
# 1 127.5130 43.1939 32.4132 0.0000 0.0000 0.0000
# 2 43.1939 122.7523 18.8987 0.0000 0.0000 0.0000
# 3 32.4132 18.8987 91.2419 0.0000 0.0000 0.0000
# 4 0.0000 0.0000 0.0000 22.8135 0.0000 0.0000
# 5 0.0000 0.0000 0.0000 0.0000 -8.5701 0.0000
# 6 0.0000 0.0000 0.0000 0.0000 0.0000 55.2310
#
#
#
# Elastic Compliance Matrix: (Units=1/GPa)
#
#
# Indices 1 2 3 4 5 6 
#
# 1 0.009542 -0.002929 -0.002783 0.000000 0.000000 0.000000
# 2 -0.002929 0.009314 -0.000889 0.000000 0.000000 0.000000
# 3 -0.002783 -0.000889 0.012133 0.000000 0.000000 0.000000
# 4 0.000000 0.000000 0.000000 0.043834 0.000000 0.000000
# 5 0.000000 0.000000 0.000000 0.000000 -0.116684 0.000000
# 6 0.000000 0.000000 0.000000 0.000000 0.000000 0.018106
#
#
# Mechanical properties :
#
#
# Convention : Reuss Voigt Hill
#
# Bulk Modulus (GPa) = 56.22090 58.94652 57.58371
# Shear Modulus (GPa) = -1080.94434 30.36163 -525.29135
#
# Velocity S-wave (km/s) = -21.10764 3.53753 -14.71425
# Velocity P-wave (km/s) = 23.89290 6.40168 16.27712
#
# Compressibility (1/GPa) = 0.01778698
#
# Stress axis : x y z
#
# Youngs Moduli (GPa) = 104.79994 107.36526 82.42260
#
# Poissons Ratio (x) = 0.31449 0.22938
# Poissons Ratio (y) = 0.30697 0.07324
# Poissons Ratio (z) = 0.29166 0.09541
#
# Static dielectric constant tensor:
#      x y z
#    x 1.927080 0.000000 0.000000 
#    y 0.000000 1.952480 0.000000 
#    z 0.000000 0.000000 2.021650 
# 
# From -- ./inp_files/2879.got.cif
#   From: 2010.05.17/outbox.cif.g08.bks.cpg/sg18_2_cif.got.tgz:2879.got - 2010.06.03 22:40:56.
