data_PCOD9312844
_publ_section_title
;
Structure prediction by ZEFSAII (Michael W. Deem and Ramdas Pophale) SiO2 
 PCOD9312844
Probable space group: P 21 21 2
;
_chemical_formula_sum "Si O2"
_cell_formula_units_Z 22
_cell_length_a 6.913363
_cell_length_b 14.379344
_cell_length_c 11.184705
_cell_angle_alpha 90.000000
_cell_angle_beta 90.000000
_cell_angle_gamma 90.000000
_cell_volume 1111.867327
_symmetry_space_group_name_H-M "P 21 21 2"
_symmetry_group_IT_number 18
_symmetry_cell_setting 'orthorhombic'
loop_
_space_group_symop_operation_xyz
x,y,z
-x,-y,z
1/2+x,1/2-y,-z
1/2-x,1/2+y,-z
loop_
_atom_site_type_symbol
_atom_site_label
_atom_site_fract_x
_atom_site_fract_y
_atom_site_fract_z
Si Si1 0.045913 0.727935 0.177192
Si Si2 0.386535 0.586724 0.710558
Si Si3 0.196217 0.556440 0.286531
Si Si4 0.500000 0.000000 0.208180
Si Si5 0.288941 0.860785 0.027090
Si Si6 0.000000 0.000000 0.517249
Si Si7 0.500000 0.500000 0.088061
O O1 0.926081 0.815674 0.227627
O O2 0.133659 0.664221 0.282172
O O3 0.217128 0.770020 0.096739
O O4 0.913514 0.666826 0.088693
O O5 0.500000 0.500000 0.771520
O O6 0.165023 0.552214 0.714797
O O7 0.482303 0.584516 0.578118
O O8 0.316918 0.515338 0.397483
O O9 0.332833 0.541574 0.172074
O O10 0.000000 0.500000 0.274770
O O11 0.406652 0.923948 0.119968
O O12 0.102158 0.918488 0.984973
#
# Coordination Sequence:
#
# PCOD9312844 Si02
#       7
#     4   4   4   2   4   2   2
#     4  12  23  41  65 105 133 171 234 265 330 403
#     4  10  23  47  64 100 130 173 227 282 327 401
#     4  11  23  45  67  96 131 173 219 285 329 396
#     4  12  22  42  70  92 146 182 218 266 342 394
#     4  12  22  38  66 101 139 185 212 270 329 407
#     4   9  24  47  70  88 130 173 218 281 352 370
#     4  11  22  43  64  96 146 175 222 257 342 404
#
# _framework density 19.786532999999999
#
# number of rings (size 3 to 8) (size 9 to 14) (size 15 to 20)
#    0.545    0.364    3.636    4.364    1.273    0.000 
#    3.273    0.000    0.000    0.000    0.000    0.000 
#    0.000    0.000    0.000    0.000    0.000    0.000 
#
# Total GULP energy -122724.699324 kJ/mol
# GULP energy per Si atom -5578.395424 kJ/mol
# Density = 1.974150 g / cm^3
# Si number density = 19.786533 Si / 1000 Ang^3
#
#
#
# Elastic Constant Matrix: (Units=GPa)
#
#
# Indices 1 2 3 4 5 6 
#
# 1 114.9559 48.9701 41.6456 0.0000 0.0000 0.0000
# 2 48.9701 98.1737 39.3396 0.0000 0.0000 0.0000
# 3 41.6456 39.3396 85.0160 0.0000 0.0000 0.0000
# 4 0.0000 0.0000 0.0000 24.1934 0.0000 0.0000
# 5 0.0000 0.0000 0.0000 0.0000 -3.8054 0.0000
# 6 0.0000 0.0000 0.0000 0.0000 0.0000 44.7256
#
#
#
# Elastic Compliance Matrix: (Units=1/GPa)
#
#
# Indices 1 2 3 4 5 6 
#
# 1 0.011972 -0.004446 -0.003807 0.000000 0.000000 0.000000
# 2 -0.004446 0.014156 -0.004372 0.000000 0.000000 0.000000
# 3 -0.003807 -0.004372 0.015651 0.000000 0.000000 0.000000
# 4 0.000000 0.000000 0.000000 0.041334 0.000000 0.000000
# 5 0.000000 0.000000 0.000000 0.000000 -0.262787 0.000000
# 6 0.000000 0.000000 0.000000 0.000000 0.000000 0.022359
#
#
# Mechanical properties :
#
#
# Convention : Reuss Voigt Hill
#
# Bulk Modulus (GPa) = 60.50650 62.00626 61.25638
# Shear Modulus (GPa) = -39.50856 24.23543 -7.63657
#
# Velocity S-wave (km/s) = -4.47334 3.50357 -1.96669
# Velocity P-wave (km/s) = 1.99124 6.91175 5.08613
#
# Compressibility (1/GPa) = 0.01652715
#
# Stress axis : x y z
#
# Youngs Moduli (GPa) = 83.52578 70.64167 63.89474
#
# Poissons Ratio (x) = 0.31409 0.24327
# Poissons Ratio (y) = 0.37138 0.27937
# Poissons Ratio (z) = 0.31801 0.30887
#
# Static dielectric constant tensor:
#      x y z
#    x 1.711770 0.000000 0.000000 
#    y 0.000000 1.736090 0.000000 
#    z 0.000000 0.000000 1.726540 
# 
# From -- ./inp_files/5116.got.cif
#   From: 2010.05.17/outbox.cif.g08.bks.cpg/sg18_3_cif.got.tgz:5116.got - 2010.06.03 22:40:56.
