data_PCOD9312941
_publ_section_title
;
Structure prediction by ZEFSAII (Michael W. Deem and Ramdas Pophale) SiO2 
 PCOD9312941
Probable space group: P 21 21 2
;
_chemical_formula_sum "Si O2"
_cell_formula_units_Z 18
_cell_length_a 7.944786
_cell_length_b 14.025596
_cell_length_c 6.241869
_cell_angle_alpha 90.000000
_cell_angle_beta 90.000000
_cell_angle_gamma 90.000000
_cell_volume 695.533702
_symmetry_space_group_name_H-M "P 21 21 2"
_symmetry_group_IT_number 18
_symmetry_cell_setting 'orthorhombic'
loop_
_space_group_symop_operation_xyz
x,y,z
-x,-y,z
1/2+x,1/2-y,-z
1/2-x,1/2+y,-z
loop_
_atom_site_type_symbol
_atom_site_label
_atom_site_fract_x
_atom_site_fract_y
_atom_site_fract_z
Si Si1 0.073574 0.879037 0.037101
Si Si2 0.000000 0.000000 0.411731
Si Si3 0.020644 0.355900 0.435482
Si Si4 0.258081 0.022954 0.715095
Si Si5 0.257369 0.206542 0.201306
O O1 0.102492 0.927385 0.265546
O O2 0.871438 0.859815 0.063606
O O3 0.156588 0.781867 0.959604
O O4 0.164815 0.957101 0.886294
O O5 0.887606 0.935631 0.565671
O O6 0.893241 0.394602 0.248855
O O7 0.906316 0.336974 0.647023
O O8 0.146136 0.445541 0.435316
O O9 0.130089 0.266825 0.355853
#
# Coordination Sequence:
#
# PCOD9312941 Si02
#       5
#     4   2   4   4   4
#     4  11  27  44  72 115 146 194 252 314 369 449
#     4  12  24  44  76 104 146 202 244 304 374 452
#     4  10  24  48  77 106 151 202 247 307 383 447
#     4  10  24  49  74 105 151 200 249 304 373 460
#     4  11  26  45  78 112 154 189 256 318 378 437
#
# _framework density 25.879407
#
# number of rings (size 3 to 8) (size 9 to 14) (size 15 to 20)
#    0.000    1.333    2.222    0.667    9.333    5.333 
#    0.000    2.222    0.000    0.000    0.000    0.000 
#    0.000    0.000    0.000    0.000    0.000    0.000 
#
# Total GULP energy -100350.878540 kJ/mol
# GULP energy per Si atom -5575.048808 kJ/mol
# Density = 2.582050 g / cm^3
# Si number density = 25.879407 Si / 1000 Ang^3
#
#
#
# Elastic Constant Matrix: (Units=GPa)
#
#
# Indices 1 2 3 4 5 6 
#
# 1 114.6076 14.2670 55.9067 0.0000 0.0000 0.0000
# 2 14.2670 113.2480 21.5618 0.0000 0.0000 0.0000
# 3 55.9067 21.5618 70.4796 0.0000 0.0000 0.0000
# 4 0.0000 0.0000 0.0000 15.2347 0.0000 0.0000
# 5 0.0000 0.0000 0.0000 0.0000 64.3303 0.0000
# 6 0.0000 0.0000 0.0000 0.0000 0.0000 52.6463
#
#
#
# Elastic Compliance Matrix: (Units=1/GPa)
#
#
# Indices 1 2 3 4 5 6 
#
# 1 0.014248 0.000379 -0.011418 0.000000 0.000000 0.000000
# 2 0.000379 0.009386 -0.003172 0.000000 0.000000 0.000000
# 3 -0.011418 -0.003172 0.024216 0.000000 0.000000 0.000000
# 4 0.000000 0.000000 0.000000 0.065640 0.000000 0.000000
# 5 0.000000 0.000000 0.000000 0.000000 0.015545 0.000000
# 6 0.000000 0.000000 0.000000 0.000000 0.000000 0.018995
#
#
# Mechanical properties :
#
#
# Convention : Reuss Voigt Hill
#
# Bulk Modulus (GPa) = 51.47167 53.53400 52.50284
# Shear Modulus (GPa) = 27.33318 40.21559 33.77438
#
# Velocity S-wave (km/s) = 3.25341 3.94631 3.61649
# Velocity P-wave (km/s) = 5.83482 6.44169 6.14575
#
# Compressibility (1/GPa) = 0.01942816
#
# Stress axis : x y z
#
# Youngs Moduli (GPa) = 70.18516 106.53712 41.29495
#
# Poissons Ratio (x) = -0.04037 0.47150
# Poissons Ratio (y) = -0.02660 0.13099
# Poissons Ratio (z) = 0.80137 0.33795
#
# Static dielectric constant tensor:
#      x y z
#    x 2.101370 0.000000 0.000000 
#    y 0.000000 2.054740 0.000000 
#    z 0.000000 0.000000 2.104550 
# 
# From -- ./inp_files/522.got.cif
#   From: 2010.05.17/outbox.cif.g08.bks.cpg/sg18_1_cif.got.tgz:522.got - 2010.06.03 22:40:56.
