data_PCOD9312244
_publ_section_title
;
Structure prediction by ZEFSAII (Michael W. Deem and Ramdas Pophale) SiO2 
 PCOD9312244
Probable space group: P 21 21 2
;
_chemical_formula_sum "Si O2"
_cell_formula_units_Z 26
_cell_length_a 8.768314
_cell_length_b 11.182616
_cell_length_c 11.128117
_cell_angle_alpha 90.000000
_cell_angle_beta 90.000000
_cell_angle_gamma 90.000000
_cell_volume 1091.141789
_symmetry_space_group_name_H-M "P 21 21 2"
_symmetry_group_IT_number 18
_symmetry_cell_setting 'orthorhombic'
loop_
_space_group_symop_operation_xyz
x,y,z
-x,-y,z
1/2+x,1/2-y,-z
1/2-x,1/2+y,-z
loop_
_atom_site_type_symbol
_atom_site_label
_atom_site_fract_x
_atom_site_fract_y
_atom_site_fract_z
Si Si1 0.000000 0.000000 0.442200
Si Si2 0.787974 0.643958 0.296770
Si Si3 0.289114 0.204769 0.941344
Si Si4 0.569572 0.718714 0.691258
Si Si5 0.467112 0.250876 0.166116
Si Si6 0.203181 0.569412 0.476044
Si Si7 0.000000 0.500000 0.113413
Si Si8 0.000000 0.500000 0.700277
O O1 0.884952 0.918733 0.516327
O O2 0.099538 0.910718 0.361648
O O3 0.611835 0.672161 0.271702
O O4 0.813207 0.558127 0.409695
O O5 0.884452 0.573992 0.195986
O O6 0.886931 0.763707 0.308625
O O7 0.366471 0.266904 0.825387
O O8 0.385450 0.083470 0.957260
O O9 0.113665 0.195450 0.902945
O O10 0.327534 0.260277 0.069608
O O11 0.637799 0.823459 0.606276
O O12 0.517956 0.119317 0.215544
O O13 0.123387 0.552265 0.604282
#
# Coordination Sequence:
#
# PCOD9312244 Si02
#       8
#     2   4   4   4   4   4   2   2
#     4  12  30  38  76 112 148 202 252 314 390 468
#     4  11  22  45  72 107 143 204 249 316 386 467
#     4  11  24  48  74 111 157 204 257 331 380 474
#     4  11  24  49  70 106 155 199 255 319 389 459
#     4  12  28  44  80 114 157 203 270 315 407 471
#     4  12  25  45  75 109 153 201 251 322 388 459
#     4  10  20  44  72  96 152 196 252 308 384 442
#     4  12  26  52  74 114 152 210 254 330 388 478
#
# _framework density 23.828251999999999
#
# number of rings (size 3 to 8) (size 9 to 14) (size 15 to 20)
#    0.000    0.615    4.615    4.154    6.462    0.615 
#    0.000    3.077    0.000    0.000    0.000    0.000 
#    0.000    0.000    0.000    0.000    0.000    0.000 
#
# Total GULP energy -145117.342985 kJ/mol
# GULP energy per Si atom -5581.436269 kJ/mol
# Density = 2.377402 g / cm^3
# Si number density = 23.828252 Si / 1000 Ang^3
#
#
#
# Elastic Constant Matrix: (Units=GPa)
#
#
# Indices 1 2 3 4 5 6 
#
# 1 96.1059 23.4914 47.2346 0.0000 0.0000 0.0000
# 2 23.4914 72.7034 34.6785 0.0000 0.0000 0.0000
# 3 47.2346 34.6785 91.9563 0.0000 0.0000 0.0000
# 4 0.0000 0.0000 0.0000 446.0196 0.0000 0.0000
# 5 0.0000 0.0000 0.0000 0.0000 15.3298 0.0000
# 6 0.0000 0.0000 0.0000 0.0000 0.0000 37.7832
#
#
#
# Elastic Compliance Matrix: (Units=1/GPa)
#
#
# Indices 1 2 3 4 5 6 
#
# 1 0.014025 -0.001336 -0.006700 0.000000 0.000000 0.000000
# 2 -0.001336 0.016899 -0.005687 0.000000 0.000000 0.000000
# 3 -0.006700 -0.005687 0.016461 0.000000 0.000000 0.000000
# 4 0.000000 0.000000 0.000000 0.002242 0.000000 0.000000
# 5 0.000000 0.000000 0.000000 0.000000 0.065232 0.000000
# 6 0.000000 0.000000 0.000000 0.000000 0.000000 0.026467
#
#
# Mechanical properties :
#
#
# Convention : Reuss Voigt Hill
#
# Bulk Modulus (GPa) = 50.15294 52.39719 51.27507
# Shear Modulus (GPa) = 28.50347 110.18393 69.34370
#
# Velocity S-wave (km/s) = 3.46237 6.80744 5.40043
# Velocity P-wave (km/s) = 6.08912 9.15563 7.77506
#
# Compressibility (1/GPa) = 0.01993901
#
# Stress axis : x y z
#
# Youngs Moduli (GPa) = 71.30247 59.17668 60.74965
#
# Poissons Ratio (x) = 0.07904 0.40704
# Poissons Ratio (y) = 0.09523 0.34547
# Poissons Ratio (z) = 0.47775 0.33652
#
# Static dielectric constant tensor:
#      x y z
#    x 1.833410 0.000000 0.000000 
#    y 0.000000 2.302050 0.000000 
#    z 0.000000 0.000000 1.998790 
# 
# From -- ./inp_files/5586.got.cif
#   From: 2010.05.17/outbox.cif.g08.bks.cpg/sg18_3_cif.got.tgz:5586.got - 2010.06.03 22:40:56.
