data_PCOD9312088
_publ_section_title
;
Structure prediction by ZEFSAII (Michael W. Deem and Ramdas Pophale) SiO2 
 PCOD9312088
Probable space group: P 21 21 2
;
_chemical_formula_sum "Si O2"
_cell_formula_units_Z 12
_cell_length_a 8.002424
_cell_length_b 5.007902
_cell_length_c 14.452860
_cell_angle_alpha 90.000000
_cell_angle_beta 90.000000
_cell_angle_gamma 90.000000
_cell_volume 579.203497
_symmetry_space_group_name_H-M "P 21 21 2"
_symmetry_group_IT_number 18
_symmetry_cell_setting 'orthorhombic'
loop_
_space_group_symop_operation_xyz
x,y,z
-x,-y,z
1/2+x,1/2-y,-z
1/2-x,1/2+y,-z
loop_
_atom_site_type_symbol
_atom_site_label
_atom_site_fract_x
_atom_site_fract_y
_atom_site_fract_z
Si Si1 0.314525 0.874160 0.549916
Si Si2 0.314525 0.874161 0.950084
Si Si3 0.375802 0.750755 0.750000
O O1 0.199693 0.116960 0.515686
O O2 0.723058 0.228093 0.653891
O O3 0.500000 0.000000 0.548103
O O4 0.276941 0.771909 0.846109
O O5 0.500000 0.000000 0.951897
O O6 0.300307 0.616960 0.015685
O O7 0.500000 0.500000 0.750001
O O8 0.500000 0.000000 0.750000
#
# Coordination Sequence:
#
# PCOD9312088 Si02
#       3
#     4   4   4
#     4  11  22  39  61  88 118 155 199 245 291 348
#     4  11  22  39  61  88 118 155 199 245 291 348
#     4  10  20  38  61  84 115 162 199 226 287 372
#
# _framework density 20.718107
#
# number of rings (size 3 to 8) (size 9 to 14) (size 15 to 20)
#    0.000    1.333    0.000   10.000    0.000    0.000 
#    0.000   10.000    0.000    0.000    0.000    0.000 
#    0.000    0.000    0.000    0.000    0.000    0.000 
#
# Total GULP energy -67008.165029 kJ/mol
# GULP energy per Si atom -5584.013752 kJ/mol
# Density = 2.067095 g / cm^3
# Si number density = 20.718107 Si / 1000 Ang^3
#
#
#
# Elastic Constant Matrix: (Units=GPa)
#
#
# Indices 1 2 3 4 5 6 
#
# 1 39.5505 18.0134 42.9927 0.0000 0.0000 0.0000
# 2 18.0134 178.2020 79.7993 0.0000 0.0000 0.0000
# 3 42.9927 79.7993 197.5815 0.0000 0.0000 0.0000
# 4 0.0000 0.0000 0.0000 61.9835 0.0000 0.0000
# 5 0.0000 0.0000 0.0000 0.0000 29.9022 0.0000
# 6 0.0000 0.0000 0.0000 0.0000 0.0000 49.0395
#
#
#
# Elastic Compliance Matrix: (Units=1/GPa)
#
#
# Indices 1 2 3 4 5 6 
#
# 1 0.033121 -0.000147 -0.007147 0.000000 0.000000 0.000000
# 2 -0.000147 0.006851 -0.002735 0.000000 0.000000 0.000000
# 3 -0.007147 -0.002735 0.007721 0.000000 0.000000 0.000000
# 4 0.000000 0.000000 0.000000 0.016133 0.000000 0.000000
# 5 0.000000 0.000000 0.000000 0.000000 0.033442 0.000000
# 6 0.000000 0.000000 0.000000 0.000000 0.000000 0.020392
#
#
# Mechanical properties :
#
#
# Convention : Reuss Voigt Hill
#
# Bulk Modulus (GPa) = 36.18796 77.43832 56.81314
# Shear Modulus (GPa) = 34.02955 46.48693 40.25824
#
# Velocity S-wave (km/s) = 4.05718 4.74200 4.41289
# Velocity P-wave (km/s) = 6.28111 8.21221 7.31070
#
# Compressibility (1/GPa) = 0.02763350
#
# Stress axis : x y z
#
# Youngs Moduli (GPa) = 30.19258 145.95863 129.51592
#
# Poissons Ratio (x) = 0.02151 0.92570
# Poissons Ratio (y) = 0.00445 0.35423
# Poissons Ratio (z) = 0.21580 0.39920
#
# Static dielectric constant tensor:
#      x y z
#    x 1.756060 0.000000 0.000000 
#    y 0.000000 1.703650 0.000000 
#    z 0.000000 0.000000 1.829580 
# 
# From -- ./inp_files/2380.got.cif
#   From: 2010.05.17/outbox.cif.g08.bks.cpg/sg18_2_cif.got.tgz:2380.got - 2010.06.03 22:40:56.
