data_PCOD9312228
_publ_section_title
;
Structure prediction by ZEFSAII (Michael W. Deem and Ramdas Pophale) SiO2 
 PCOD9312228
Probable space group: P 21 21 2
;
_chemical_formula_sum "Si O2"
_cell_formula_units_Z 28
_cell_length_a 18.163195
_cell_length_b 11.587613
_cell_length_c 4.824221
_cell_angle_alpha 90.000000
_cell_angle_beta 90.000000
_cell_angle_gamma 90.000000
_cell_volume 1015.344505
_symmetry_space_group_name_H-M "P 21 21 2"
_symmetry_group_IT_number 18
_symmetry_cell_setting 'orthorhombic'
loop_
_space_group_symop_operation_xyz
x,y,z
-x,-y,z
1/2+x,1/2-y,-z
1/2-x,1/2+y,-z
loop_
_atom_site_type_symbol
_atom_site_label
_atom_site_fract_x
_atom_site_fract_y
_atom_site_fract_z
Si Si1 0.034647 0.265468 0.266241
Si Si2 0.000000 0.500000 0.952099
Si Si3 0.846527 0.969238 0.431924
Si Si4 0.211149 0.466544 0.457104
Si Si5 0.103616 0.852534 0.013746
Si Si6 0.131878 0.255182 0.750385
Si Si7 0.347188 0.095748 0.083450
Si Si8 0.000000 0.000000 0.610799
O O1 0.055820 0.276414 0.585992
O O2 0.959189 0.196686 0.225117
O O3 0.107116 0.235209 0.068871
O O4 0.018943 0.392530 0.147048
O O5 0.925128 0.456366 0.803274
O O6 0.795891 0.059867 0.608103
O O7 0.848989 0.046185 0.152488
O O8 0.935105 0.945522 0.434844
O O9 0.829065 0.855468 0.619459
O O10 0.178168 0.362774 0.636977
O O11 0.169774 0.522728 0.196838
O O12 0.215897 0.566433 0.693973
O O13 0.145569 0.732891 0.948182
O O14 0.049444 0.913881 0.793009
#
# Coordination Sequence:
#
# PCOD9312228 Si02
#       8
#     4   2   4   4   4   4   4   2
#     4  11  23  43  75 110 146 194 247 323 375 464
#     4  10  20  42  74 110 146 194 248 322 376 456
#     4  12  30  47  79 110 158 209 261 335 391 481
#     4  12  28  51  75 118 157 212 261 328 407 481
#     4  11  27  47  77 114 155 206 263 332 389 474
#     4  12  24  48  73 107 152 196 258 309 395 469
#     4  11  27  48  78 113 161 201 269 322 406 467
#     4  12  24  50  76 116 148 206 276 312 408 464
#
# _framework density 27.576846
#
# number of rings (size 3 to 8) (size 9 to 14) (size 15 to 20)
#    0.000    0.571    4.286    2.143    6.000    4.571 
#    0.000    0.000    0.000    0.000    0.000    0.000 
#    0.000    0.000    0.000    0.000    0.000    0.000 
#
# Total GULP energy -156143.883182 kJ/mol
# GULP energy per Si atom -5576.567257 kJ/mol
# Density = 2.751408 g / cm^3
# Si number density = 27.576846 Si / 1000 Ang^3
#
#
#
# Elastic Constant Matrix: (Units=GPa)
#
#
# Indices 1 2 3 4 5 6 
#
# 1 38.6480 16.4687 17.0453 0.0000 0.0000 0.0000
# 2 16.4687 119.8153 36.0788 0.0000 0.0000 0.0000
# 3 17.0453 36.0788 129.5014 0.0000 0.0000 0.0000
# 4 0.0000 0.0000 0.0000 27.3155 0.0000 0.0000
# 5 0.0000 0.0000 0.0000 0.0000 10.2249 0.0000
# 6 0.0000 0.0000 0.0000 0.0000 0.0000 37.0884
#
#
#
# Elastic Compliance Matrix: (Units=1/GPa)
#
#
# Indices 1 2 3 4 5 6 
#
# 1 0.028447 -0.003037 -0.002898 0.000000 0.000000 0.000000
# 2 -0.003037 0.009435 -0.002229 0.000000 0.000000 0.000000
# 3 -0.002898 -0.002229 0.008724 0.000000 0.000000 0.000000
# 4 0.000000 0.000000 0.000000 0.036609 0.000000 0.000000
# 5 0.000000 0.000000 0.000000 0.000000 0.097800 0.000000
# 6 0.000000 0.000000 0.000000 0.000000 0.000000 0.026963
#
#
# Mechanical properties :
#
#
# Convention : Reuss Voigt Hill
#
# Bulk Modulus (GPa) = 33.02759 47.46114 40.24436
# Shear Modulus (GPa) = 21.33113 29.48389 25.40751
#
# Velocity S-wave (km/s) = 2.78423 3.27334 3.03864
# Velocity P-wave (km/s) = 4.72636 5.61553 5.19002
#
# Compressibility (1/GPa) = 0.03027772
#
# Stress axis : x y z
#
# Youngs Moduli (GPa) = 35.15312 105.99079 114.62252
#
# Poissons Ratio (x) = 0.32194 0.33218
# Poissons Ratio (y) = 0.10677 0.25546
# Poissons Ratio (z) = 0.10188 0.23622
#
# Static dielectric constant tensor:
#      x y z
#    x 0.798770 0.000000 0.000000 
#    y 0.000000 3.510790 0.000000 
#    z 0.000000 0.000000 2.153890 
# 
# From -- ./inp_files/1990.got.cif
#   From: 2010.05.17/outbox.cif.g08.bks.cpg/sg18_1_cif.got.tgz:1990.got - 2010.06.03 22:40:56.
