data_PCOD9312666
_publ_section_title
;
Structure prediction by ZEFSAII (Michael W. Deem and Ramdas Pophale) SiO2 
 PCOD9312666
Probable space group: P 21 21 2
;
_chemical_formula_sum "Si O2"
_cell_formula_units_Z 26
_cell_length_a 13.617841
_cell_length_b 13.897547
_cell_length_c 6.545951
_cell_angle_alpha 90.000000
_cell_angle_beta 90.000000
_cell_angle_gamma 90.000000
_cell_volume 1238.851242
_symmetry_space_group_name_H-M "P 21 21 2"
_symmetry_group_IT_number 18
_symmetry_cell_setting 'orthorhombic'
loop_
_space_group_symop_operation_xyz
x,y,z
-x,-y,z
1/2+x,1/2-y,-z
1/2-x,1/2+y,-z
loop_
_atom_site_type_symbol
_atom_site_label
_atom_site_fract_x
_atom_site_fract_y
_atom_site_fract_z
Si Si1 0.664762 0.956523 0.952762
Si Si2 0.835283 0.672133 0.037416
Si Si3 0.000000 0.000000 0.226175
Si Si4 0.823604 0.867007 0.262354
Si Si5 0.110835 0.821265 0.082135
Si Si6 0.484626 0.159963 0.203139
Si Si7 0.148661 0.683547 0.428717
O O1 0.663572 0.888664 0.757557
O O2 0.759174 0.927750 0.094224
O O3 0.572555 0.926545 0.091992
O O4 0.653652 0.065181 0.873460
O O5 0.721018 0.679595 0.997450
O O6 0.899608 0.663765 0.831270
O O7 0.864185 0.768020 0.160928
O O8 0.086048 0.064602 0.333718
O O9 0.941651 0.077064 0.090937
O O10 0.745048 0.829684 0.430190
O O11 0.123456 0.782940 0.314413
O O12 0.054873 0.750818 0.927596
O O13 0.444875 0.161578 0.430610
#
# Coordination Sequence:
#
# PCOD9312666 Si02
#       7
#     4   4   2   4   4   4   4
#     4  10  22  43  64  98 130 174 226 275 333 410
#     4  12  21  42  72  91 134 182 218 282 342 411
#     4  12  24  44  70 104 136 186 224 288 350 428
#     4  11  23  42  68  98 139 175 227 277 349 410
#     4  11  23  42  68  98 139 175 227 277 349 410
#     4  10  22  43  64  98 130 174 226 275 333 410
#     4  10  22  44  67  98 135 172 222 288 332 411
#
# _framework density 20.987183999999999
#
# number of rings (size 3 to 8) (size 9 to 14) (size 15 to 20)
#    0.000    1.231    7.692    0.462    0.000    2.462 
#    0.000    7.692    0.000    0.000    0.000    0.000 
#    0.000    0.000    0.000    0.000    0.000    0.000 
#
# Total GULP energy -144939.807148 kJ/mol
# GULP energy per Si atom -5574.607967 kJ/mol
# Density = 2.093942 g / cm^3
# Si number density = 20.987184 Si / 1000 Ang^3
#
#
#
# Elastic Constant Matrix: (Units=GPa)
#
#
# Indices 1 2 3 4 5 6 
#
# 1 71.8598 31.6987 -3.7216 0.0000 0.0000 0.0000
# 2 31.6987 122.7033 15.5274 0.0000 0.0000 0.0000
# 3 -3.7216 15.5274 54.0629 0.0000 0.0000 0.0000
# 4 0.0000 0.0000 0.0000 -1.3849 0.0000 0.0000
# 5 0.0000 0.0000 0.0000 0.0000 3.2774 0.0000
# 6 0.0000 0.0000 0.0000 0.0000 0.0000 42.5119
#
#
#
# Elastic Compliance Matrix: (Units=1/GPa)
#
#
# Indices 1 2 3 4 5 6 
#
# 1 0.015994 -0.004432 0.002374 0.000000 0.000000 0.000000
# 2 -0.004432 0.009685 -0.003087 0.000000 0.000000 0.000000
# 3 0.002374 -0.003087 0.019547 0.000000 0.000000 0.000000
# 4 0.000000 0.000000 0.000000 -0.722053 0.000000 0.000000
# 5 0.000000 0.000000 0.000000 0.000000 0.305123 0.000000
# 6 0.000000 0.000000 0.000000 0.000000 0.000000 0.023523
#
#
# Mechanical properties :
#
#
# Convention : Reuss Voigt Hill
#
# Bulk Modulus (GPa) = 28.62363 37.29281 32.95822
# Shear Modulus (GPa) = -15.32591 22.55564 3.61486
#
# Velocity S-wave (km/s) = -2.70525 3.28187 1.31383
# Velocity P-wave (km/s) = 1.97748 5.67175 4.24731
#
# Compressibility (1/GPa) = 0.03493617
#
# Stress axis : x y z
#
# Youngs Moduli (GPa) = 62.52308 103.24841 51.15885
#
# Poissons Ratio (x) = 0.45762 -0.12145
# Poissons Ratio (y) = 0.27712 0.15792
# Poissons Ratio (z) = -0.14843 0.31871
#
# Static dielectric constant tensor:
#      x y z
#    x 1.791300 0.000000 0.000000 
#    y 0.000000 1.818340 0.000000 
#    z 0.000000 0.000000 1.726200 
# 
# From -- ./inp_files/1541.got.cif
#   From: 2010.05.17/outbox.cif.g08.bks.cpg/sg18_1_cif.got.tgz:1541.got - 2010.06.03 22:40:56.
