data_PCOD9312023
_publ_section_title
;
Structure prediction by ZEFSAII (Michael W. Deem and Ramdas Pophale) SiO2 
 PCOD9312023
Probable space group: P 21 21 2
;
_chemical_formula_sum "Si O2"
_cell_formula_units_Z 32
_cell_length_a 12.849079
_cell_length_b 8.375735
_cell_length_c 13.556687
_cell_angle_alpha 90.000000
_cell_angle_beta 90.000000
_cell_angle_gamma 90.000000
_cell_volume 1458.977172
_symmetry_space_group_name_H-M "P 21 21 2"
_symmetry_group_IT_number 18
_symmetry_cell_setting 'orthorhombic'
loop_
_space_group_symop_operation_xyz
x,y,z
-x,-y,z
1/2+x,1/2-y,-z
1/2-x,1/2+y,-z
loop_
_atom_site_type_symbol
_atom_site_label
_atom_site_fract_x
_atom_site_fract_y
_atom_site_fract_z
Si Si1 0.245070 0.144159 0.827251
Si Si2 0.414331 0.629032 0.803341
Si Si3 0.338587 0.200290 0.617408
Si Si4 0.489768 0.685394 0.137770
Si Si5 0.735111 0.146593 0.553813
Si Si6 0.953070 0.845363 0.419490
Si Si7 0.297162 0.271590 0.224864
Si Si8 0.542679 0.830643 0.936121
O O1 0.291991 0.214618 0.725948
O O2 0.336050 0.169449 0.907388
O O3 0.132355 0.222425 0.847359
O O4 0.228133 0.952630 0.813292
O O5 0.500000 0.500000 0.840978
O O6 0.411161 0.598165 0.686688
O O7 0.291342 0.656448 0.824013
O O8 0.471683 0.788737 0.840898
O O9 0.304692 0.337962 0.542025
O O10 0.461830 0.215502 0.612641
O O11 0.301436 0.030897 0.576391
O O12 0.500000 0.500000 0.166610
O O13 0.584300 0.770723 0.196266
O O14 0.517815 0.708849 0.023516
O O15 0.636773 0.255291 0.525355
O O16 0.783626 0.214808 0.656033
O O17 0.000000 0.000000 0.472122
O O18 0.500000 0.000000 0.972529
#
# Coordination Sequence:
#
# PCOD9312023 Si02
#       8
#     4   4   4   4   4   4   4   4
#     4  10  22  40  66  90 127 172 213 261 328 393
#     4  10  20  36  61  92 116 159 207 270 312 367
#     4  11  21  39  61  92 126 165 213 262 317 386
#     4  10  24  43  63  91 124 172 216 261 326 396
#     4  10  22  36  63  91 125 171 207 263 319 382
#     4  10  20  36  58  89 118 157 213 262 315 373
#     4   9  20  42  63  88 129 168 214 261 323 386
#     4  12  23  39  63  92 126 162 212 271 322 386
#
# _framework density 21.933174000000001
#
# number of rings (size 3 to 8) (size 9 to 14) (size 15 to 20)
#    0.000    1.750    2.500    1.500    1.750    1.000 
#    2.250    2.500    0.000    0.000    0.000    0.000 
#    0.000    0.000    0.000    0.000    0.000    0.000 
#
# Total GULP energy -178399.647225 kJ/mol
# GULP energy per Si atom -5574.988976 kJ/mol
# Density = 2.188325 g / cm^3
# Si number density = 21.933174 Si / 1000 Ang^3
#
#
#
# Elastic Constant Matrix: (Units=GPa)
#
#
# Indices 1 2 3 4 5 6 
#
# 1 186.4492 30.3725 30.6277 0.0000 0.0000 0.0000
# 2 30.3725 29.5765 11.4981 0.0000 0.0000 0.0000
# 3 30.6277 11.4981 37.5343 0.0000 0.0000 0.0000
# 4 0.0000 0.0000 0.0000 19.7390 0.0000 0.0000
# 5 0.0000 0.0000 0.0000 0.0000 27.1968 0.0000
# 6 0.0000 0.0000 0.0000 0.0000 0.0000 33.3227
#
#
#
# Elastic Compliance Matrix: (Units=1/GPa)
#
#
# Indices 1 2 3 4 5 6 
#
# 1 0.006918 -0.005573 -0.003938 0.000000 0.000000 0.000000
# 2 -0.005573 0.042872 -0.008585 0.000000 0.000000 0.000000
# 3 -0.003938 -0.008585 0.032486 0.000000 0.000000 0.000000
# 4 0.000000 0.000000 0.000000 0.050661 0.000000 0.000000
# 5 0.000000 0.000000 0.000000 0.000000 0.036769 0.000000
# 6 0.000000 0.000000 0.000000 0.000000 0.000000 0.030010
#
#
# Mechanical properties :
#
#
# Convention : Reuss Voigt Hill
#
# Bulk Modulus (GPa) = 21.70030 44.28406 32.99218
# Shear Modulus (GPa) = 19.89900 28.12249 24.01075
#
# Velocity S-wave (km/s) = 3.01534 3.58465 3.31225
# Velocity P-wave (km/s) = 4.69450 6.11288 5.45003
#
# Compressibility (1/GPa) = 0.04608232
#
# Stress axis : x y z
#
# Youngs Moduli (GPa) = 144.54694 23.32542 30.78294
#
# Poissons Ratio (x) = 0.13000 0.12122
# Poissons Ratio (y) = 0.80563 0.26428
# Poissons Ratio (z) = 0.56920 0.20025
#
# Static dielectric constant tensor:
#      x y z
#    x 1.865690 0.000000 0.000000 
#    y 0.000000 1.881350 0.000000 
#    z 0.000000 0.000000 1.774240 
# 
# From -- ./inp_files/6802.got.cif
#   From: 2010.05.17/outbox.cif.g08.bks.cpg/sg18_4_cif.got.tgz:6802.got - 2010.06.03 22:40:56.
