data_PCOD9312019
_publ_section_title
;
Structure prediction by ZEFSAII (Michael W. Deem and Ramdas Pophale) SiO2 
 PCOD9312019
Probable space group: P 21 21 2
;
_chemical_formula_sum "Si O2"
_cell_formula_units_Z 24
_cell_length_a 14.634286
_cell_length_b 8.220528
_cell_length_c 9.440333
_cell_angle_alpha 90.000000
_cell_angle_beta 90.000000
_cell_angle_gamma 90.000000
_cell_volume 1135.686766
_symmetry_space_group_name_H-M "P 21 21 2"
_symmetry_group_IT_number 18
_symmetry_cell_setting 'orthorhombic'
loop_
_space_group_symop_operation_xyz
x,y,z
-x,-y,z
1/2+x,1/2-y,-z
1/2-x,1/2+y,-z
loop_
_atom_site_type_symbol
_atom_site_label
_atom_site_fract_x
_atom_site_fract_y
_atom_site_fract_z
Si Si1 0.500000 0.000000 0.010418
Si Si2 0.702532 0.965099 0.530387
Si Si3 0.500000 0.000000 0.523917
Si Si4 0.806815 0.496050 0.914333
Si Si5 0.822122 0.122650 0.311255
Si Si6 0.787226 0.682686 0.193414
Si Si7 0.992100 0.760034 0.226919
O O1 0.412627 0.961123 0.103007
O O2 0.525920 0.852593 0.904297
O O3 0.601858 0.990438 0.458027
O O4 0.783906 0.985119 0.418144
O O5 0.719821 0.098477 0.653803
O O6 0.695814 0.791843 0.607337
O O7 0.507803 0.152439 0.630470
O O8 0.742077 0.612425 0.824401
O O9 0.785775 0.315013 0.858597
O O10 0.788476 0.536782 0.078855
O O11 0.927078 0.113945 0.261020
O O12 0.885218 0.776583 0.188714
#
# Coordination Sequence:
#
# PCOD9312019 Si02
#       7
#     2   4   2   4   4   4   4
#     4   9  18  35  56  82 114 152 188 226 286 360
#     4  10  20  36  57  82 116 151 193 238 287 343
#     4   7  14  31  54  74 104 152 186 216 274 350
#     4  11  21  35  59  84 112 148 192 236 284 342
#     4  11  21  35  56  85 116 153 194 238 286 341
#     4  10  20  37  61  88 114 148 189 237 287 344
#     4   8  16  33  56  81 111 146 185 225 282 347
#
# _framework density 21.132588999999999
#
# number of rings (size 3 to 8) (size 9 to 14) (size 15 to 20)
#    0.000    2.333    0.000    6.000    0.000    1.333 
#    0.000    3.333    0.000    9.000    0.000    0.000 
#    0.000    0.000    0.000    0.000    0.000    0.000 
#
# Total GULP energy -133778.419597 kJ/mol
# GULP energy per Si atom -5574.100817 kJ/mol
# Density = 2.108449 g / cm^3
# Si number density = 21.132589 Si / 1000 Ang^3
#
#
#
# Elastic Constant Matrix: (Units=GPa)
#
#
# Indices 1 2 3 4 5 6 
#
# 1 128.7920 13.7237 45.7893 0.0000 0.0000 0.0000
# 2 13.7237 58.5465 13.1794 0.0000 0.0000 0.0000
# 3 45.7893 13.1794 86.5368 0.0000 0.0000 0.0000
# 4 0.0000 0.0000 0.0000 40.6931 0.0000 0.0000
# 5 0.0000 0.0000 0.0000 0.0000 118.3899 0.0000
# 6 0.0000 0.0000 0.0000 0.0000 0.0000 35.8784
#
#
#
# Elastic Compliance Matrix: (Units=1/GPa)
#
#
# Indices 1 2 3 4 5 6 
#
# 1 0.009638 -0.001151 -0.004924 0.000000 0.000000 0.000000
# 2 -0.001151 0.017824 -0.002106 0.000000 0.000000 0.000000
# 3 -0.004924 -0.002106 0.014482 0.000000 0.000000 0.000000
# 4 0.000000 0.000000 0.000000 0.024574 0.000000 0.000000
# 5 0.000000 0.000000 0.000000 0.000000 0.008447 0.000000
# 6 0.000000 0.000000 0.000000 0.000000 0.000000 0.027872
#
#
# Mechanical properties :
#
#
# Convention : Reuss Voigt Hill
#
# Bulk Modulus (GPa) = 39.08919 46.58446 42.83682
# Shear Modulus (GPa) = 39.14627 52.40449 45.77538
#
# Velocity S-wave (km/s) = 4.30864 4.98516 4.65919
# Velocity P-wave (km/s) = 6.57949 7.43152 7.01845
#
# Compressibility (1/GPa) = 0.02558252
#
# Stress axis : x y z
#
# Youngs Moduli (GPa) = 103.75762 56.10353 69.05057
#
# Poissons Ratio (x) = 0.06456 0.34004
# Poissons Ratio (y) = 0.11939 0.14540
# Poissons Ratio (z) = 0.51095 0.11814
#
# Static dielectric constant tensor:
#      x y z
#    x 1.852420 0.000000 0.000000 
#    y 0.000000 1.826070 0.000000 
#    z 0.000000 0.000000 1.747980 
# 
# From -- ./inp_files/3199.got.cif
#   From: 2010.05.17/outbox.cif.g08.bks.cpg/sg18_2_cif.got.tgz:3199.got - 2010.06.03 22:40:56.
