data_PCOD9312805
_publ_section_title
;
Structure prediction by ZEFSAII (Michael W. Deem and Ramdas Pophale) SiO2 
 PCOD9312805
Probable space group: P 21 21 2
;
_chemical_formula_sum "Si O2"
_cell_formula_units_Z 28
_cell_length_a 23.789484
_cell_length_b 9.605923
_cell_length_c 5.009766
_cell_angle_alpha 90.000000
_cell_angle_beta 90.000000
_cell_angle_gamma 90.000000
_cell_volume 1144.831483
_symmetry_space_group_name_H-M "P 21 21 2"
_symmetry_group_IT_number 18
_symmetry_cell_setting 'orthorhombic'
loop_
_space_group_symop_operation_xyz
x,y,z
-x,-y,z
1/2+x,1/2-y,-z
1/2-x,1/2+y,-z
loop_
_atom_site_type_symbol
_atom_site_label
_atom_site_fract_x
_atom_site_fract_y
_atom_site_fract_z
Si Si1 0.639890 0.316806 0.337409
Si Si2 0.884303 0.459830 0.071074
Si Si3 0.784213 0.596277 0.411003
Si Si4 0.382777 0.384403 0.511187
Si Si5 0.073559 0.249118 0.147079
Si Si6 0.448953 0.314441 0.980149
Si Si7 0.203221 0.678164 0.658643
O O1 0.690417 0.209603 0.384695
O O2 0.646648 0.476542 0.411932
O O3 0.623355 0.313728 0.029979
O O4 0.589920 0.264769 0.541075
O O5 0.925200 0.592005 0.035831
O O6 0.926743 0.334465 0.130585
O O7 0.843499 0.391892 0.848366
O O8 0.837949 0.530279 0.262704
O O9 0.762806 0.455663 0.553689
O O10 0.742925 0.695463 0.238531
O O11 0.426774 0.338524 0.279400
O O12 0.335237 0.265852 0.549833
O O13 0.416532 0.415354 0.778644
O O14 0.014971 0.181225 0.063129
#
# Coordination Sequence:
#
# PCOD9312805 Si02
#       7
#     4   4   4   4   4   4   4
#     4  11  24  43  64 102 140 175 229 284 334 412
#     4  10  23  44  62 102 138 170 239 280 338 424
#     4  11  23  44  69  95 134 181 229 287 344 408
#     4  11  24  43  64 102 140 175 229 284 334 412
#     4  11  23  41  70  97 138 184 224 283 344 400
#     4  11  23  41  70  97 138 184 224 283 344 400
#     4  11  23  44  69  95 134 181 229 287 344 408
#
# _framework density 24.457747000000001
#
# number of rings (size 3 to 8) (size 9 to 14) (size 15 to 20)
#    0.000    1.143    2.857    3.000    0.000    4.571 
#   10.286    2.857    0.000    0.000    0.000    0.000 
#    0.000    0.000    0.000    0.000    0.000    0.000 
#
# Total GULP energy -156207.477303 kJ/mol
# GULP energy per Si atom -5578.838475 kJ/mol
# Density = 2.440208 g / cm^3
# Si number density = 24.457747 Si / 1000 Ang^3
#
#
#
# Elastic Constant Matrix: (Units=GPa)
#
#
# Indices 1 2 3 4 5 6 
#
# 1 57.3561 2.8190 -3.7389 0.0000 0.0000 0.0000
# 2 2.8190 152.7520 -2.9177 0.0000 0.0000 0.0000
# 3 -3.7389 -2.9177 56.9785 0.0000 0.0000 0.0000
# 4 0.0000 0.0000 0.0000 31.0684 0.0000 0.0000
# 5 0.0000 0.0000 0.0000 0.0000 14.2128 0.0000
# 6 0.0000 0.0000 0.0000 0.0000 0.0000 40.0058
#
#
#
# Elastic Compliance Matrix: (Units=1/GPa)
#
#
# Indices 1 2 3 4 5 6 
#
# 1 0.017524 -0.000302 0.001134 0.000000 0.000000 0.000000
# 2 -0.000302 0.006558 0.000316 0.000000 0.000000 0.000000
# 3 0.001134 0.000316 0.017641 0.000000 0.000000 0.000000
# 4 0.000000 0.000000 0.000000 0.032187 0.000000 0.000000
# 5 0.000000 0.000000 0.000000 0.000000 0.070359 0.000000
# 6 0.000000 0.000000 0.000000 0.000000 0.000000 0.024996
#
#
# Mechanical properties :
#
#
# Convention : Reuss Voigt Hill
#
# Bulk Modulus (GPa) = 22.71672 28.82350 25.77011
# Shear Modulus (GPa) = 27.52672 35.11900 31.32286
#
# Velocity S-wave (km/s) = 3.35846 3.79344 3.58256
# Velocity P-wave (km/s) = 4.93430 5.56755 5.26046
#
# Compressibility (1/GPa) = 0.04402045
#
# Stress axis : x y z
#
# Youngs Moduli (GPa) = 57.06550 152.48167 56.68577
#
# Poissons Ratio (x) = 0.04601 -0.06431
# Poissons Ratio (y) = 0.01722 -0.01791
# Poissons Ratio (z) = -0.06474 -0.04819
#
# Static dielectric constant tensor:
#      x y z
#    x 1.973470 0.000000 0.000000 
#    y 0.000000 2.050380 0.000000 
#    z 0.000000 0.000000 1.961450 
# 
# From -- ./inp_files/2206.got.cif
#   From: 2010.05.17/outbox.cif.g08.bks.cpg/sg18_2_cif.got.tgz:2206.got - 2010.06.03 22:40:56.
