data_PCOD9312310
_publ_section_title
;
Structure prediction by ZEFSAII (Michael W. Deem and Ramdas Pophale) SiO2 
 PCOD9312310
Probable space group: P 21 21 2
;
_chemical_formula_sum "Si O2"
_cell_formula_units_Z 32
_cell_length_a 5.562542
_cell_length_b 14.778731
_cell_length_c 17.059809
_cell_angle_alpha 90.000000
_cell_angle_beta 90.000000
_cell_angle_gamma 90.000000
_cell_volume 1402.441039
_symmetry_space_group_name_H-M "P 21 21 2"
_symmetry_group_IT_number 18
_symmetry_cell_setting 'orthorhombic'
loop_
_space_group_symop_operation_xyz
x,y,z
-x,-y,z
1/2+x,1/2-y,-z
1/2-x,1/2+y,-z
loop_
_atom_site_type_symbol
_atom_site_label
_atom_site_fract_x
_atom_site_fract_y
_atom_site_fract_z
Si Si1 0.519231 0.397459 0.270792
Si Si2 0.347578 0.638653 0.445560
Si Si3 0.699278 0.743559 0.805964
Si Si4 0.253979 0.551977 0.930710
Si Si5 0.327526 0.748611 0.677413
Si Si6 0.850630 0.669268 0.493618
Si Si7 0.920738 0.399575 0.773677
Si Si8 0.064695 0.715154 0.028167
O O1 0.500000 0.500000 0.245021
O O2 0.647778 0.396854 0.356748
O O3 0.648989 0.334480 0.208341
O O4 0.274612 0.342835 0.287504
O O5 0.600456 0.615218 0.488055
O O6 0.352896 0.749619 0.443688
O O7 0.099802 0.615139 0.489303
O O8 0.566868 0.727857 0.724226
O O9 0.536199 0.766429 0.879849
O O10 0.869943 0.657512 0.816516
O O11 0.500000 0.500000 0.948859
O O12 0.280419 0.591018 0.841722
O O13 0.000000 0.500000 0.924014
O O14 0.192776 0.624458 0.997507
O O15 0.353820 0.771419 0.587091
O O16 0.159387 0.664830 0.702319
O O17 0.000000 0.500000 0.749059
O O18 0.291834 0.781440 0.005356
#
# Coordination Sequence:
#
# PCOD9312310 Si02
#       8
#     4   4   4   4   4   4   4   4
#     4  10  22  40  60  92 133 173 219 263 312 380
#     4   9  17  34  59  89 118 165 208 255 304 366
#     4  11  23  41  65  92 124 166 216 261 323 383
#     4  11  24  43  64  92 123 162 211 259 324 388
#     4  10  21  38  63  93 124 171 212 262 324 381
#     4   9  17  33  61  88 121 158 210 253 307 369
#     4  10  23  39  63  91 120 161 206 265 326 389
#     4  12  25  43  66  92 125 165 209 268 324 385
#
# _framework density 22.817357999999999
#
# number of rings (size 3 to 8) (size 9 to 14) (size 15 to 20)
#    0.000    1.750    2.500    1.500    7.000    1.000 
#    2.250    0.000    2.750    0.000    0.000    0.000 
#    0.000    0.000    0.000    0.000    0.000    0.000 
#
# Total GULP energy -178438.857211 kJ/mol
# GULP energy per Si atom -5576.214288 kJ/mol
# Density = 2.276543 g / cm^3
# Si number density = 22.817358 Si / 1000 Ang^3
#
#
#
# Elastic Constant Matrix: (Units=GPa)
#
#
# Indices 1 2 3 4 5 6 
#
# 1 108.4899 16.4737 -4.6890 0.0000 0.0000 0.0000
# 2 16.4737 118.7220 12.5102 0.0000 0.0000 0.0000
# 3 -4.6890 12.5102 51.3565 0.0000 0.0000 0.0000
# 4 0.0000 0.0000 0.0000 13.8726 0.0000 0.0000
# 5 0.0000 0.0000 0.0000 0.0000 21.7956 0.0000
# 6 0.0000 0.0000 0.0000 0.0000 0.0000 25.0335
#
#
#
# Elastic Compliance Matrix: (Units=1/GPa)
#
#
# Indices 1 2 3 4 5 6 
#
# 1 0.009490 -0.001445 0.001218 0.000000 0.000000 0.000000
# 2 -0.001445 0.008865 -0.002291 0.000000 0.000000 0.000000
# 3 0.001218 -0.002291 0.020141 0.000000 0.000000 0.000000
# 4 0.000000 0.000000 0.000000 0.072084 0.000000 0.000000
# 5 0.000000 0.000000 0.000000 0.000000 0.045881 0.000000
# 6 0.000000 0.000000 0.000000 0.000000 0.000000 0.039946
#
#
# Mechanical properties :
#
#
# Convention : Reuss Voigt Hill
#
# Bulk Modulus (GPa) = 29.88689 36.35092 33.11890
# Shear Modulus (GPa) = 23.51871 29.09192 26.30532
#
# Velocity S-wave (km/s) = 3.21399 3.57457 3.39907
# Velocity P-wave (km/s) = 5.18650 5.74479 5.47277
#
# Compressibility (1/GPa) = 0.03345949
#
# Stress axis : x y z
#
# Youngs Moduli (GPa) = 105.37901 112.80288 49.64958
#
# Poissons Ratio (x) = 0.16302 -0.06050
# Poissons Ratio (y) = 0.15229 0.11377
# Poissons Ratio (z) = -0.12840 0.25848
#
# Static dielectric constant tensor:
#      x y z
#    x 1.989590 0.000000 0.000000 
#    y 0.000000 1.859530 0.000000 
#    z 0.000000 0.000000 1.876400 
# 
# From -- ./inp_files/7201.got.cif
#   From: 2010.05.17/outbox.cif.g08.bks.cpg/sg18_4_cif.got.tgz:7201.got - 2010.06.03 22:40:56.
