data_PCOD9312171
_publ_section_title
;
Structure prediction by ZEFSAII (Michael W. Deem and Ramdas Pophale) SiO2 
 PCOD9312171
Probable space group: P 21 21 2
;
_chemical_formula_sum "Si O2"
_cell_formula_units_Z 18
_cell_length_a 11.279849
_cell_length_b 7.118536
_cell_length_c 9.756981
_cell_angle_alpha 90.000000
_cell_angle_beta 90.000000
_cell_angle_gamma 90.000000
_cell_volume 783.446655
_symmetry_space_group_name_H-M "P 21 21 2"
_symmetry_group_IT_number 18
_symmetry_cell_setting 'orthorhombic'
loop_
_space_group_symop_operation_xyz
x,y,z
-x,-y,z
1/2+x,1/2-y,-z
1/2-x,1/2+y,-z
loop_
_atom_site_type_symbol
_atom_site_label
_atom_site_fract_x
_atom_site_fract_y
_atom_site_fract_z
Si Si1 0.500000 0.000000 0.615434
Si Si2 0.761044 0.637975 0.010576
Si Si3 0.707965 0.820930 0.764527
Si Si4 0.510844 0.723273 0.093297
Si Si5 0.567385 0.306478 0.401080
O O1 0.419079 0.127039 0.711595
O O2 0.562343 0.148402 0.515418
O O3 0.752459 0.478831 0.125671
O O4 0.647781 0.769933 0.060249
O O5 0.721892 0.628181 0.849801
O O6 0.901227 0.691729 0.994900
O O7 0.796602 0.839098 0.638284
O O8 0.500000 0.500000 0.070775
O O9 0.487785 0.758926 0.254366
O O10 0.500000 0.500000 0.438939
#
# Coordination Sequence:
#
# PCOD9312171 Si02
#       5
#     2   4   4   4   4
#     4  12  28  46  70 114 140 188 258 280 348 450
#     4  11  20  43  71  97 146 173 239 299 359 428
#     4  11  25  44  70 109 136 187 240 297 363 428
#     4  10  20  40  64 102 139 187 234 292 365 425
#     4  10  23  48  69  97 144 195 236 289 363 416
#
# _framework density 22.975398999999999
#
# number of rings (size 3 to 8) (size 9 to 14) (size 15 to 20)
#    0.000    1.333    6.667    1.333    3.111    3.556 
#    4.000    0.000    0.000    0.000    0.000    0.000 
#    0.000    0.000    0.000    0.000    0.000    0.000 
#
# Total GULP energy -100266.615235 kJ/mol
# GULP energy per Si atom -5570.367513 kJ/mol
# Density = 2.292311 g / cm^3
# Si number density = 22.975399 Si / 1000 Ang^3
#
#
#
# Elastic Constant Matrix: (Units=GPa)
#
#
# Indices 1 2 3 4 5 6 
#
# 1 102.7973 6.0281 45.5970 0.0000 0.0000 0.0000
# 2 6.0281 74.5333 32.0729 0.0000 0.0000 0.0000
# 3 45.5970 32.0729 47.8793 0.0000 0.0000 0.0000
# 4 0.0000 0.0000 0.0000 43.8288 0.0000 0.0000
# 5 0.0000 0.0000 0.0000 0.0000 -69.8220 0.0000
# 6 0.0000 0.0000 0.0000 0.0000 0.0000 31.5875
#
#
#
# Elastic Compliance Matrix: (Units=1/GPa)
#
#
# Indices 1 2 3 4 5 6 
#
# 1 0.020814 0.009619 -0.026266 0.000000 0.000000 0.000000
# 2 0.009619 0.023296 -0.024766 0.000000 0.000000 0.000000
# 3 -0.026266 -0.024766 0.062489 0.000000 0.000000 0.000000
# 4 0.000000 0.000000 0.000000 0.022816 0.000000 0.000000
# 5 0.000000 0.000000 0.000000 0.000000 -0.014322 0.000000
# 6 0.000000 0.000000 0.000000 0.000000 0.000000 0.031658
#
#
# Mechanical properties :
#
#
# Convention : Reuss Voigt Hill
#
# Bulk Modulus (GPa) = 42.06127 43.62285 42.84206
# Shear Modulus (GPa) = 21.05253 10.55299 15.80276
#
# Velocity S-wave (km/s) = 3.03034 2.14549 2.62546
# Velocity P-wave (km/s) = 5.53089 5.01652 5.27998
#
# Compressibility (1/GPa) = 0.02377484
#
# Stress axis : x y z
#
# Youngs Moduli (GPa) = 48.04400 42.92589 16.00274
#
# Poissons Ratio (x) = -0.41291 0.42032
# Poissons Ratio (y) = -0.46214 0.39632
# Poissons Ratio (z) = 1.26191 1.06309
#
# Static dielectric constant tensor:
#      x y z
#    x 1.934450 0.000000 0.000000 
#    y 0.000000 2.441350 0.000000 
#    z 0.000000 0.000000 1.829180 
# 
# From -- ./inp_files/2841.got.cif
#   From: 2010.05.17/outbox.cif.g08.bks.cpg/sg18_2_cif.got.tgz:2841.got - 2010.06.03 22:40:56.
