data_PCOD9312858
_publ_section_title
;
Structure prediction by ZEFSAII (Michael W. Deem and Ramdas Pophale) SiO2 
 PCOD9312858
Probable space group: P 21 21 2
;
_chemical_formula_sum "Si O2"
_cell_formula_units_Z 20
_cell_length_a 8.034973
_cell_length_b 9.176467
_cell_length_c 11.651755
_cell_angle_alpha 90.000000
_cell_angle_beta 90.000000
_cell_angle_gamma 90.000000
_cell_volume 859.114943
_symmetry_space_group_name_H-M "P 21 21 2"
_symmetry_group_IT_number 18
_symmetry_cell_setting 'orthorhombic'
loop_
_space_group_symop_operation_xyz
x,y,z
-x,-y,z
1/2+x,1/2-y,-z
1/2-x,1/2+y,-z
loop_
_atom_site_type_symbol
_atom_site_label
_atom_site_fract_x
_atom_site_fract_y
_atom_site_fract_z
Si Si1 0.890625 0.769781 0.901767
Si Si2 0.219714 0.795506 0.338972
Si Si3 0.646963 0.155164 0.650286
Si Si4 0.252201 0.585763 0.528332
Si Si5 0.751402 0.085547 0.900908
O O1 0.807081 0.712733 0.784097
O O2 0.081550 0.817196 0.891739
O O3 0.798489 0.921240 0.931923
O O4 0.864417 0.656454 0.003679
O O5 0.326826 0.692167 0.427292
O O6 0.032955 0.731255 0.345854
O O7 0.193167 0.960344 0.382492
O O8 0.782585 0.279867 0.615592
O O9 0.677408 0.088337 0.774067
O O10 0.661734 0.028737 0.556394
#
# Coordination Sequence:
#
# PCOD9312858 Si02
#       5
#     4   4   4   4   4
#     4  11  26  46  69  98 131 171 220 274 328 390
#     4  11  23  43  69  98 134 175 219 272 326 385
#     4  11  23  43  69  98 134 175 219 272 326 385
#     4  10  24  40  64 102 134 174 214 266 326 392
#     4  11  26  46  69  98 131 171 220 274 328 390
#
# _framework density 23.279772000000001
#
# number of rings (size 3 to 8) (size 9 to 14) (size 15 to 20)
#    0.000    1.200    2.000    2.400    2.800   12.000 
#    0.000    0.000    0.000    0.000    0.000    0.000 
#    0.000    0.000    0.000    0.000    0.000    0.000 
#
# Total GULP energy -111397.338588 kJ/mol
# GULP energy per Si atom -5569.866929 kJ/mol
# Density = 2.322679 g / cm^3
# Si number density = 23.279772 Si / 1000 Ang^3
#
#
#
# Elastic Constant Matrix: (Units=GPa)
#
#
# Indices 1 2 3 4 5 6 
#
# 1 61.4538 29.3321 15.2995 0.0000 0.0000 0.0000
# 2 29.3321 107.1676 0.0477 0.0000 0.0000 0.0000
# 3 15.2995 0.0477 71.1826 0.0000 0.0000 0.0000
# 4 0.0000 0.0000 0.0000 782.0429 0.0000 0.0000
# 5 0.0000 0.0000 0.0000 0.0000 162.0647 0.0000
# 6 0.0000 0.0000 0.0000 0.0000 0.0000 26.8971
#
#
#
# Elastic Compliance Matrix: (Units=1/GPa)
#
#
# Indices 1 2 3 4 5 6 
#
# 1 0.019943 -0.005457 -0.004283 0.000000 0.000000 0.000000
# 2 -0.005457 0.010824 0.001166 0.000000 0.000000 0.000000
# 3 -0.004283 0.001166 0.014968 0.000000 0.000000 0.000000
# 4 0.000000 0.000000 0.000000 0.001279 0.000000 0.000000
# 5 0.000000 0.000000 0.000000 0.000000 0.006170 0.000000
# 6 0.000000 0.000000 0.000000 0.000000 0.000000 0.037179
#
#
# Mechanical properties :
#
#
# Convention : Reuss Voigt Hill
#
# Bulk Modulus (GPa) = 34.98007 36.57363 35.77685
# Shear Modulus (GPa) = 42.72044 207.20926 124.96485
#
# Velocity S-wave (km/s) = 4.28844 9.44466 7.33458
# Velocity P-wave (km/s) = 6.29123 11.60517 9.33433
#
# Compressibility (1/GPa) = 0.02858771
#
# Stress axis : x y z
#
# Youngs Moduli (GPa) = 50.14273 92.38608 66.80869
#
# Poissons Ratio (x) = 0.50411 0.28613
# Poissons Ratio (y) = 0.27361 -0.07787
# Poissons Ratio (z) = 0.21475 -0.10768
#
# Static dielectric constant tensor:
#      x y z
#    x 1.983410 0.000000 0.000000 
#    y 0.000000 1.612620 0.000000 
#    z 0.000000 0.000000 1.845730 
# 
# From -- ./inp_files/5411.got.cif
#   From: 2010.05.17/outbox.cif.g08.bks.cpg/sg18_3_cif.got.tgz:5411.got - 2010.06.03 22:40:56.
