data_PCOD9312897
_publ_section_title
;
Structure prediction by ZEFSAII (Michael W. Deem and Ramdas Pophale) SiO2 
 PCOD9312897
Probable space group: P 21 21 2
;
_chemical_formula_sum "Si O2"
_cell_formula_units_Z 24
_cell_length_a 13.943988
_cell_length_b 14.097993
_cell_length_c 5.307793
_cell_angle_alpha 90.000000
_cell_angle_beta 90.000000
_cell_angle_gamma 90.000000
_cell_volume 1043.417865
_symmetry_space_group_name_H-M "P 21 21 2"
_symmetry_group_IT_number 18
_symmetry_cell_setting 'orthorhombic'
loop_
_space_group_symop_operation_xyz
x,y,z
-x,-y,z
1/2+x,1/2-y,-z
1/2-x,1/2+y,-z
loop_
_atom_site_type_symbol
_atom_site_label
_atom_site_fract_x
_atom_site_fract_y
_atom_site_fract_z
Si Si1 0.842589 0.326923 0.977428
Si Si2 0.778686 0.440379 0.484153
Si Si3 0.153893 0.255620 0.002226
Si Si4 0.070651 0.418364 0.310101
Si Si5 0.506759 0.244132 0.348814
Si Si6 0.564309 0.410634 0.648865
O O1 0.815059 0.395188 0.745651
O O2 0.765788 0.243395 0.963352
O O3 0.943119 0.280028 0.895454
O O4 0.814348 0.379034 0.239265
O O5 0.839606 0.536500 0.454950
O O6 0.662419 0.445992 0.506886
O O7 0.113490 0.354418 0.094778
O O8 0.106408 0.164895 0.145705
O O9 0.119216 0.246260 0.718474
O O10 0.000000 0.500000 0.213440
O O11 0.005865 0.347819 0.476296
O O12 0.491495 0.344053 0.484766
O O13 0.500000 0.500000 0.738334
#
# Coordination Sequence:
#
# PCOD9312897 Si02
#       6
#     4   4   4   4   4   4
#     4  11  24  45  70  98 142 183 225 291 346 410
#     4  11  24  46  68 103 141 176 231 287 345 416
#     4  10  24  44  66 100 141 179 236 290 349 417
#     4  11  23  41  68 103 134 183 224 289 347 417
#     4  11  23  43  68 100 135 184 230 288 350 418
#     4  10  24  46  67  98 138 185 236 289 349 425
#
# _framework density 23.001329999999999
#
# number of rings (size 3 to 8) (size 9 to 14) (size 15 to 20)
#    0.000    1.333    3.333    1.000    7.000    1.333 
#    3.000    0.000    0.000    0.000    0.000    0.000 
#    0.000    0.000    0.000    0.000    0.000    0.000 
#
# Total GULP energy -133792.254084 kJ/mol
# GULP energy per Si atom -5574.677254 kJ/mol
# Density = 2.294898 g / cm^3
# Si number density = 23.001330 Si / 1000 Ang^3
#
#
#
# Elastic Constant Matrix: (Units=GPa)
#
#
# Indices 1 2 3 4 5 6 
#
# 1 105.0181 30.5807 4.3086 0.0000 0.0000 0.0000
# 2 30.5807 93.7865 7.1868 0.0000 0.0000 0.0000
# 3 4.3086 7.1868 60.9643 0.0000 0.0000 0.0000
# 4 0.0000 0.0000 0.0000 10.3618 0.0000 0.0000
# 5 0.0000 0.0000 0.0000 0.0000 30.8787 0.0000
# 6 0.0000 0.0000 0.0000 0.0000 0.0000 34.2622
#
#
#
# Elastic Compliance Matrix: (Units=1/GPa)
#
#
# Indices 1 2 3 4 5 6 
#
# 1 0.010528 -0.003407 -0.000342 0.000000 0.000000 0.000000
# 2 -0.003407 0.011862 -0.001158 0.000000 0.000000 0.000000
# 3 -0.000342 -0.001158 0.016564 0.000000 0.000000 0.000000
# 4 0.000000 0.000000 0.000000 0.096508 0.000000 0.000000
# 5 0.000000 0.000000 0.000000 0.000000 0.032385 0.000000
# 6 0.000000 0.000000 0.000000 0.000000 0.000000 0.029187
#
#
# Mechanical properties :
#
#
# Convention : Reuss Voigt Hill
#
# Bulk Modulus (GPa) = 34.31652 38.21344 36.26498
# Shear Modulus (GPa) = 23.08820 29.61339 26.35080
#
# Velocity S-wave (km/s) = 3.17168 3.59202 3.38837
# Velocity P-wave (km/s) = 5.32583 5.81834 5.57753
#
# Compressibility (1/GPa) = 0.02914049
#
# Stress axis : x y z
#
# Youngs Moduli (GPa) = 94.98283 84.30268 60.37299
#
# Poissons Ratio (x) = 0.28719 0.02068
# Poissons Ratio (y) = 0.32357 0.06989
# Poissons Ratio (z) = 0.03253 0.09759
#
# Static dielectric constant tensor:
#      x y z
#    x 1.908310 0.000000 0.000000 
#    y 0.000000 1.883490 0.000000 
#    z 0.000000 0.000000 1.914170 
# 
# From -- ./inp_files/1524.got.cif
#   From: 2010.05.17/outbox.cif.g08.bks.cpg/sg18_1_cif.got.tgz:1524.got - 2010.06.03 22:40:56.
