data_PCOD9312784
_publ_section_title
;
Structure prediction by ZEFSAII (Michael W. Deem and Ramdas Pophale) SiO2 
 PCOD9312784
Probable space group: P 21 21 2
;
_chemical_formula_sum "Si O2"
_cell_formula_units_Z 30
_cell_length_a 12.401847
_cell_length_b 17.424852
_cell_length_c 5.068370
_cell_angle_alpha 90.000000
_cell_angle_beta 90.000000
_cell_angle_gamma 90.000000
_cell_volume 1095.276523
_symmetry_space_group_name_H-M "P 21 21 2"
_symmetry_group_IT_number 18
_symmetry_cell_setting 'orthorhombic'
loop_
_space_group_symop_operation_xyz
x,y,z
-x,-y,z
1/2+x,1/2-y,-z
1/2-x,1/2+y,-z
loop_
_atom_site_type_symbol
_atom_site_label
_atom_site_fract_x
_atom_site_fract_y
_atom_site_fract_z
Si Si1 0.314566 0.431909 0.360134
Si Si2 0.500000 0.500000 0.744852
Si Si3 0.170676 0.331347 0.705555
Si Si4 0.841589 0.455384 0.086197
Si Si5 0.321761 0.662908 0.277269
Si Si6 0.980677 0.667051 0.200086
Si Si7 0.309282 0.557529 0.756537
Si Si8 0.542761 0.663612 0.970674
O O1 0.266249 0.383040 0.602197
O O2 0.208928 0.476837 0.249386
O O3 0.382160 0.500894 0.516091
O O4 0.362488 0.369587 0.157006
O O5 0.392311 0.512746 0.951293
O O6 0.509143 0.600959 0.748675
O O7 0.221179 0.247646 0.736835
O O8 0.079185 0.327410 0.477939
O O9 0.107599 0.347055 0.973475
O O10 0.742516 0.390983 0.068886
O O11 0.941629 0.407632 0.180159
O O12 0.816025 0.474514 0.783310
O O13 0.301622 0.630465 0.566042
O O14 0.441860 0.665964 0.174235
O O15 0.040252 0.748367 0.138328
#
# Coordination Sequence:
#
# PCOD9312784 Si02
#       8
#     4   2   4   4   4   4   4   4
#     4  11  26  45  70 107 143 193 253 303 372 437
#     4  12  18  36  70 102 148 180 222 312 370 446
#     4  11  28  50  74 105 146 198 251 308 356 441
#     4  11  25  46  71 104 143 194 240 306 368 444
#     4  10  23  42  71 102 144 181 234 297 381 435
#     4  11  29  49  73 105 148 198 253 299 370 434
#     4  11  22  38  69 102 142 186 237 294 375 437
#     4  11  22  43  68 108 146 181 240 304 374 448
#
# _framework density 27.390340999999999
#
# number of rings (size 3 to 8) (size 9 to 14) (size 15 to 20)
#    0.000    1.067    2.667    2.400    9.333    3.733 
#    0.000    0.000    0.000    0.000    0.000    0.000 
#    0.000    0.000    0.000    0.000    0.000    0.000 
#
# Total GULP energy -167162.087525 kJ/mol
# GULP energy per Si atom -5572.069584 kJ/mol
# Density = 2.732800 g / cm^3
# Si number density = 27.390341 Si / 1000 Ang^3
#
#
#
# Elastic Constant Matrix: (Units=GPa)
#
#
# Indices 1 2 3 4 5 6 
#
# 1 86.5435 50.4696 36.1776 0.0000 0.0000 0.0000
# 2 50.4696 161.4528 49.0540 0.0000 0.0000 0.0000
# 3 36.1776 49.0540 134.3675 0.0000 0.0000 0.0000
# 4 0.0000 0.0000 0.0000 46.6442 0.0000 0.0000
# 5 0.0000 0.0000 0.0000 0.0000 20.4113 0.0000
# 6 0.0000 0.0000 0.0000 0.0000 0.0000 45.4007
#
#
#
# Elastic Compliance Matrix: (Units=1/GPa)
#
#
# Indices 1 2 3 4 5 6 
#
# 1 0.014896 -0.003867 -0.002599 0.000000 0.000000 0.000000
# 2 -0.003867 0.007970 -0.001869 0.000000 0.000000 0.000000
# 3 -0.002599 -0.001869 0.008824 0.000000 0.000000 0.000000
# 4 0.000000 0.000000 0.000000 0.021439 0.000000 0.000000
# 5 0.000000 0.000000 0.000000 0.000000 0.048992 0.000000
# 6 0.000000 0.000000 0.000000 0.000000 0.000000 0.022026
#
#
# Mechanical properties :
#
#
# Convention : Reuss Voigt Hill
#
# Bulk Modulus (GPa) = 66.56987 72.64069 69.60528
# Shear Modulus (GPa) = 34.28773 38.93543 36.61158
#
# Velocity S-wave (km/s) = 3.54194 3.77437 3.66000
# Velocity P-wave (km/s) = 6.40968 6.75075 6.58243
#
# Compressibility (1/GPa) = 0.01502181
#
# Stress axis : x y z
#
# Youngs Moduli (GPa) = 67.13019 125.46626 113.32434
#
# Poissons Ratio (x) = 0.48517 0.29454
# Poissons Ratio (y) = 0.25959 0.21176
# Poissons Ratio (z) = 0.17448 0.23445
#
# Static dielectric constant tensor:
#      x y z
#    x 2.507530 0.000000 0.000000 
#    y 0.000000 2.360380 0.000000 
#    z 0.000000 0.000000 2.410170 
# 
# From -- ./inp_files/1626.got.cif
#   From: 2010.05.17/outbox.cif.g08.bks.cpg/sg18_1_cif.got.tgz:1626.got - 2010.06.03 22:40:56.
