data_PCOD9312658
_publ_section_title
;
Structure prediction by ZEFSAII (Michael W. Deem and Ramdas Pophale) SiO2 
 PCOD9312658
Probable space group: P 21 21 2
;
_chemical_formula_sum "Si O2"
_cell_formula_units_Z 32
_cell_length_a 8.979632
_cell_length_b 19.507734
_cell_length_c 7.330842
_cell_angle_alpha 90.000000
_cell_angle_beta 90.000000
_cell_angle_gamma 90.000000
_cell_volume 1284.160252
_symmetry_space_group_name_H-M "P 21 21 2"
_symmetry_group_IT_number 18
_symmetry_cell_setting 'orthorhombic'
loop_
_space_group_symop_operation_xyz
x,y,z
-x,-y,z
1/2+x,1/2-y,-z
1/2-x,1/2+y,-z
loop_
_atom_site_type_symbol
_atom_site_label
_atom_site_fract_x
_atom_site_fract_y
_atom_site_fract_z
Si Si1 0.732020 0.115297 0.338728
Si Si2 0.828485 0.327763 0.504783
Si Si3 0.335465 0.023900 0.455109
Si Si4 0.080645 0.287640 0.952571
Si Si5 0.018081 0.815727 0.518909
Si Si6 0.254323 0.870667 0.752955
Si Si7 0.674931 0.486347 0.162314
Si Si8 0.276948 0.159507 0.914697
O O1 0.645714 0.163462 0.203669
O O2 0.677049 0.124706 0.549479
O O3 0.898550 0.145895 0.352080
O O4 0.719887 0.033891 0.314076
O O5 0.854458 0.398479 0.610593
O O6 0.653577 0.312471 0.519109
O O7 0.846474 0.341154 0.288992
O O8 0.918171 0.259891 0.548351
O O9 0.216842 0.025742 0.621931
O O10 0.500000 0.000000 0.517941
O O11 0.165598 0.312598 0.134739
O O12 0.906927 0.304399 0.969819
O O13 0.136272 0.210608 0.919855
O O14 0.917642 0.142225 0.692770
O O15 0.259794 0.941281 0.865187
O O16 0.500000 0.500000 0.136731
O O17 0.731477 0.419478 0.054747
#
# Coordination Sequence:
#
# PCOD9312658 Si02
#       8
#     4   4   4   4   4   4   4   4
#     4   9  23  46  70 105 146 190 248 307 366 443
#     4  11  24  42  74 116 149 192 263 302 377 462
#     4  10  23  40  71 107 149 191 248 307 378 441
#     4  12  26  47  72 107 155 187 262 303 373 449
#     4  10  23  40  75 108 146 192 244 312 369 440
#     4   9  22  42  77  95 144 199 234 313 375 426
#     4  10  22  42  74 107 145 192 257 299 378 449
#     4  11  27  43  73 109 150 205 248 311 378 448
#
# _framework density 24.919008999999999
#
# number of rings (size 3 to 8) (size 9 to 14) (size 15 to 20)
#    0.750    1.000    1.250    1.500   14.000    0.000 
#    2.250    0.000    2.750    0.000    0.000    0.000 
#    0.000    0.000    0.000    0.000    0.000    0.000 
#
# Total GULP energy -178949.169242 kJ/mol
# GULP energy per Si atom -5592.161539 kJ/mol
# Density = 2.486229 g / cm^3
# Si number density = 24.919009 Si / 1000 Ang^3
#
#
#
# Elastic Constant Matrix: (Units=GPa)
#
#
# Indices 1 2 3 4 5 6 
#
# 1 131.6523 42.2513 15.1343 0.0000 0.0000 0.0000
# 2 42.2513 188.7843 18.9452 0.0000 0.0000 0.0000
# 3 15.1343 18.9452 55.1666 0.0000 0.0000 0.0000
# 4 0.0000 0.0000 0.0000 34.2088 0.0000 0.0000
# 5 0.0000 0.0000 0.0000 0.0000 25.1692 0.0000
# 6 0.0000 0.0000 0.0000 0.0000 0.0000 37.8669
#
#
#
# Elastic Compliance Matrix: (Units=1/GPa)
#
#
# Indices 1 2 3 4 5 6 
#
# 1 0.008336 -0.001694 -0.001705 0.000000 0.000000 0.000000
# 2 -0.001694 0.005831 -0.001537 0.000000 0.000000 0.000000
# 3 -0.001705 -0.001537 0.019123 0.000000 0.000000 0.000000
# 4 0.000000 0.000000 0.000000 0.029232 0.000000 0.000000
# 5 0.000000 0.000000 0.000000 0.000000 0.039731 0.000000
# 6 0.000000 0.000000 0.000000 0.000000 0.000000 0.026408
#
#
# Mechanical properties :
#
#
# Convention : Reuss Voigt Hill
#
# Bulk Modulus (GPa) = 42.70739 58.69611 50.70175
# Shear Modulus (GPa) = 34.16723 39.40047 36.78385
#
# Velocity S-wave (km/s) = 3.70690 3.98067 3.84622
# Velocity P-wave (km/s) = 5.95795 6.68831 6.33367
#
# Compressibility (1/GPa) = 0.02341515
#
# Stress axis : x y z
#
# Youngs Moduli (GPa) = 119.96803 171.50970 52.29415
#
# Poissons Ratio (x) = 0.29062 0.08915
# Poissons Ratio (y) = 0.20328 0.08040
# Poissons Ratio (z) = 0.20453 0.26369
#
# Static dielectric constant tensor:
#      x y z
#    x 1.991050 0.000000 0.000000 
#    y 0.000000 2.001890 0.000000 
#    z 0.000000 0.000000 2.014530 
# 
# From -- ./inp_files/5736.got.cif
#   From: 2010.05.17/outbox.cif.g08.bks.cpg/sg18_3_cif.got.tgz:5736.got - 2010.06.03 22:40:56.
