data_PCOD9312327
_publ_section_title
;
Structure prediction by ZEFSAII (Michael W. Deem and Ramdas Pophale) SiO2 
 PCOD9312327
Probable space group: P 21 21 2
;
_chemical_formula_sum "Si O2"
_cell_formula_units_Z 32
_cell_length_a 11.247540
_cell_length_b 9.465426
_cell_length_c 11.689672
_cell_angle_alpha 90.000000
_cell_angle_beta 90.000000
_cell_angle_gamma 90.000000
_cell_volume 1244.514716
_symmetry_space_group_name_H-M "P 21 21 2"
_symmetry_group_IT_number 18
_symmetry_cell_setting 'orthorhombic'
loop_
_space_group_symop_operation_xyz
x,y,z
-x,-y,z
1/2+x,1/2-y,-z
1/2-x,1/2+y,-z
loop_
_atom_site_type_symbol
_atom_site_label
_atom_site_fract_x
_atom_site_fract_y
_atom_site_fract_z
Si Si1 0.648008 0.660400 0.474305
Si Si2 0.615062 0.094677 0.526244
Si Si3 0.434394 0.713945 0.322261
Si Si4 0.260879 0.161103 0.031023
Si Si5 0.672686 0.797690 0.259184
Si Si6 0.006477 0.833833 0.045743
Si Si7 0.451124 0.226927 0.703365
Si Si8 0.743358 0.980695 0.797482
O O1 0.750355 0.545947 0.453478
O O2 0.526519 0.635358 0.407115
O O3 0.690526 0.798107 0.397075
O O4 0.618948 0.689917 0.604668
O O5 0.631437 0.185445 0.411275
O O6 0.569351 0.184023 0.634834
O O7 0.500000 0.000000 0.504216
O O8 0.529542 0.801212 0.247197
O O9 0.351093 0.617483 0.247209
O O10 0.377092 0.259900 0.008943
O O11 0.271753 0.045104 0.932286
O O12 0.269985 0.105337 0.162347
O O13 0.126753 0.223402 0.018115
O O14 0.720737 0.641739 0.224276
O O15 0.023946 0.811327 0.181956
O O16 0.000000 0.000000 0.016769
O O17 0.374291 0.088667 0.739380
#
# Coordination Sequence:
#
# PCOD9312327 Si02
#       8
#     4   4   4   4   4   4   4   4
#     4   9  20  38  61  93 136 178 228 279 353 425
#     4  11  20  39  61  94 140 180 229 294 353 419
#     4   9  21  37  61  94 131 175 228 284 340 436
#     4  11  24  44  75 102 144 184 248 306 364 440
#     4  10  21  39  62 100 123 182 226 283 348 424
#     4  11  25  48  72 108 150 193 240 318 375 436
#     4  10  22  40  63  98 137 184 230 295 349 444
#     4  11  20  40  67  92 135 174 232 289 357 424
#
# _framework density 25.712831999999999
#
# number of rings (size 3 to 8) (size 9 to 14) (size 15 to 20)
#    0.750    1.000    1.250    3.375    0.000    0.000 
#    6.750    6.250    0.000    0.000    0.000    0.000 
#    0.000    0.000    0.000    0.000    0.000    0.000 
#
# Total GULP energy -178595.512855 kJ/mol
# GULP energy per Si atom -5581.109777 kJ/mol
# Density = 2.565431 g / cm^3
# Si number density = 25.712832 Si / 1000 Ang^3
#
#
#
# Elastic Constant Matrix: (Units=GPa)
#
#
# Indices 1 2 3 4 5 6 
#
# 1 154.2206 7.8687 9.3565 0.0000 0.0000 0.0000
# 2 7.8687 20.2002 7.1533 0.0000 0.0000 0.0000
# 3 9.3565 7.1533 143.9476 0.0000 0.0000 0.0000
# 4 0.0000 0.0000 0.0000 29.1853 0.0000 0.0000
# 5 0.0000 0.0000 0.0000 0.0000 24.5555 0.0000
# 6 0.0000 0.0000 0.0000 0.0000 0.0000 22.9791
#
#
#
# Elastic Compliance Matrix: (Units=1/GPa)
#
#
# Indices 1 2 3 4 5 6 
#
# 1 0.006629 -0.002473 -0.000308 0.000000 0.000000 0.000000
# 2 -0.002473 0.051314 -0.002389 0.000000 0.000000 0.000000
# 3 -0.000308 -0.002389 0.007086 0.000000 0.000000 0.000000
# 4 0.000000 0.000000 0.000000 0.034264 0.000000 0.000000
# 5 0.000000 0.000000 0.000000 0.000000 0.040724 0.000000
# 6 0.000000 0.000000 0.000000 0.000000 0.000000 0.043518
#
#
# Mechanical properties :
#
#
# Convention : Reuss Voigt Hill
#
# Bulk Modulus (GPa) = 18.28556 40.79174 29.53865
# Shear Modulus (GPa) = 23.57327 34.94332 29.25829
#
# Velocity S-wave (km/s) = 3.03114 3.69044 3.37692
# Velocity P-wave (km/s) = 4.40196 5.83592 5.16891
#
# Compressibility (1/GPa) = 0.05468796
#
# Stress axis : x y z
#
# Youngs Moduli (GPa) = 150.85022 19.48784 141.12892
#
# Poissons Ratio (x) = 0.04820 0.04347
# Poissons Ratio (y) = 0.37309 0.33719
# Poissons Ratio (z) = 0.04646 0.04656
#
# Static dielectric constant tensor:
#      x y z
#    x 2.083920 0.000000 0.000000 
#    y 0.000000 2.071830 0.000000 
#    z 0.000000 0.000000 2.096130 
# 
# From -- ./inp_files/5955.got.cif
#   From: 2010.05.17/outbox.cif.g08.bks.cpg/sg18_3_cif.got.tgz:5955.got - 2010.06.03 22:40:56.
