data_PCOD9312643
_publ_section_title
;
Structure prediction by ZEFSAII (Michael W. Deem and Ramdas Pophale) SiO2 
 PCOD9312643
Probable space group: P 21 21 2
;
_chemical_formula_sum "Si O2"
_cell_formula_units_Z 32
_cell_length_a 30.508432
_cell_length_b 8.107306
_cell_length_c 5.439457
_cell_angle_alpha 90.000000
_cell_angle_beta 90.000000
_cell_angle_gamma 90.000000
_cell_volume 1345.401788
_symmetry_space_group_name_H-M "P 21 21 2"
_symmetry_group_IT_number 18
_symmetry_cell_setting 'orthorhombic'
loop_
_space_group_symop_operation_xyz
x,y,z
-x,-y,z
1/2+x,1/2-y,-z
1/2-x,1/2+y,-z
loop_
_atom_site_type_symbol
_atom_site_label
_atom_site_fract_x
_atom_site_fract_y
_atom_site_fract_z
Si Si1 0.161298 0.081270 0.807617
Si Si2 0.586734 0.663904 0.195845
Si Si3 0.629654 0.077312 0.441653
Si Si4 0.448605 0.477247 0.689406
Si Si5 0.209703 0.599697 0.756633
Si Si6 0.393344 0.751872 0.830907
Si Si7 0.252745 0.232887 0.749743
Si Si8 0.552153 0.014162 0.169381
O O1 0.142842 0.243053 0.663618
O O2 0.212595 0.101658 0.776066
O O3 0.135203 0.913046 0.756489
O O4 0.144229 0.127405 0.078208
O O5 0.564291 0.642418 0.464073
O O6 0.574672 0.843256 0.091048
O O7 0.565603 0.558448 0.971901
O O8 0.659761 0.948189 0.306516
O O9 0.636038 0.097269 0.729701
O O10 0.578130 0.039420 0.423444
O O11 0.500000 0.500000 0.682649
O O12 0.422812 0.646954 0.643726
O O13 0.234333 0.420144 0.764798
O O14 0.227052 0.699551 0.518711
O O15 0.217028 0.693319 0.013832
O O16 0.428602 0.834464 0.012273
O O17 0.500000 0.000000 0.174887
#
# Coordination Sequence:
#
# PCOD9312643 Si02
#       8
#     4   4   4   4   4   4   4   4
#     4   9  22  43  69  94 132 179 236 270 340 402
#     4  11  24  41  63  99 129 172 223 291 329 394
#     4  10  23  43  69  91 137 186 223 274 347 426
#     4  11  23  40  67  92 129 172 237 274 328 402
#     4  11  26  44  72 103 139 178 230 278 352 404
#     4  10  22  42  68  92 130 191 221 279 346 420
#     4  11  25  44  73 105 142 180 229 288 337 427
#     4  11  26  41  64 100 141 178 229 290 359 404
#
# _framework density 23.784717000000001
#
# number of rings (size 3 to 8) (size 9 to 14) (size 15 to 20)
#    0.000    1.500    1.250    1.875   12.250    2.500 
#    0.000    0.000    0.000    0.000    0.000    0.000 
#    0.000    0.000    0.000    0.000    0.000    0.000 
#
# Total GULP energy -178266.556343 kJ/mol
# GULP energy per Si atom -5570.829886 kJ/mol
# Density = 2.373058 g / cm^3
# Si number density = 23.784717 Si / 1000 Ang^3
#
#
#
# Elastic Constant Matrix: (Units=GPa)
#
#
# Indices 1 2 3 4 5 6 
#
# 1 79.4431 -8.8804 15.2628 0.0000 0.0000 0.0000
# 2 -8.8804 85.7730 4.1815 0.0000 0.0000 0.0000
# 3 15.2628 4.1815 68.3689 0.0000 0.0000 0.0000
# 4 0.0000 0.0000 0.0000 25.0706 0.0000 0.0000
# 5 0.0000 0.0000 0.0000 0.0000 17.6187 0.0000
# 6 0.0000 0.0000 0.0000 0.0000 0.0000 28.7541
#
#
#
# Elastic Compliance Matrix: (Units=1/GPa)
#
#
# Indices 1 2 3 4 5 6 
#
# 1 0.013349 0.001532 -0.003074 0.000000 0.000000 0.000000
# 2 0.001532 0.011869 -0.001068 0.000000 0.000000 0.000000
# 3 -0.003074 -0.001068 0.015378 0.000000 0.000000 0.000000
# 4 0.000000 0.000000 0.000000 0.039887 0.000000 0.000000
# 5 0.000000 0.000000 0.000000 0.000000 0.056758 0.000000
# 6 0.000000 0.000000 0.000000 0.000000 0.000000 0.034778
#
#
# Mechanical properties :
#
#
# Convention : Reuss Voigt Hill
#
# Bulk Modulus (GPa) = 28.26680 28.30143 28.28411
# Shear Modulus (GPa) = 26.45056 29.15674 27.80365
#
# Velocity S-wave (km/s) = 3.33841 3.50503 3.42273
# Velocity P-wave (km/s) = 5.17399 5.32026 5.24763
#
# Compressibility (1/GPa) = 0.03537719
#
# Stress axis : x y z
#
# Youngs Moduli (GPa) = 74.90962 84.25058 65.02770
#
# Poissons Ratio (x) = -0.12907 0.19989
# Poissons Ratio (y) = -0.11476 0.06945
# Poissons Ratio (z) = 0.23026 0.08997
#
# Static dielectric constant tensor:
#      x y z
#    x 1.908520 0.000000 0.000000 
#    y 0.000000 2.114660 0.000000 
#    z 0.000000 0.000000 2.198840 
# 
# From -- ./inp_files/2309.got.cif
#   From: 2010.05.17/outbox.cif.g08.bks.cpg/sg18_2_cif.got.tgz:2309.got - 2010.06.03 22:40:56.
