data_PCOD9312095
_publ_section_title
;
Structure prediction by ZEFSAII (Michael W. Deem and Ramdas Pophale) SiO2 
 PCOD9312095
Probable space group: P 21 21 2
;
_chemical_formula_sum "Si O2"
_cell_formula_units_Z 24
_cell_length_a 13.008523
_cell_length_b 13.304435
_cell_length_c 5.336037
_cell_angle_alpha 90.000000
_cell_angle_beta 90.000000
_cell_angle_gamma 90.000000
_cell_volume 923.513519
_symmetry_space_group_name_H-M "P 21 21 2"
_symmetry_group_IT_number 18
_symmetry_cell_setting 'orthorhombic'
loop_
_space_group_symop_operation_xyz
x,y,z
-x,-y,z
1/2+x,1/2-y,-z
1/2-x,1/2+y,-z
loop_
_atom_site_type_symbol
_atom_site_label
_atom_site_fract_x
_atom_site_fract_y
_atom_site_fract_z
Si Si1 0.603256 0.067663 0.339970
Si Si2 0.828002 0.601236 0.160005
Si Si3 0.236930 0.114120 0.299856
Si Si4 0.506221 0.388959 0.532199
Si Si5 0.321653 0.138661 0.800336
Si Si6 0.904321 0.175166 0.957064
O O1 0.703974 0.993685 0.308791
O O2 0.500000 0.000000 0.356257
O O3 0.623549 0.136997 0.579577
O O4 0.608603 0.128982 0.084292
O O5 0.845954 0.479866 0.196364
O O6 0.709569 0.632055 0.118096
O O7 0.300731 0.171820 0.516993
O O8 0.124325 0.120149 0.402488
O O9 0.232480 0.146119 0.010606
O O10 0.500000 0.500000 0.419064
O O11 0.445095 0.384224 0.796980
O O12 0.466290 0.323921 0.301341
O O13 0.399986 0.212601 0.931330
#
# Coordination Sequence:
#
# PCOD9312095 Si02
#       6
#     4   4   4   4   4   4
#     4  10  20  38  62  86 117 165 209 251 314 378
#     4  10  21  40  61  88 127 164 207 273 318 370
#     4  10  21  40  63  90 132 166 204 269 318 369
#     4  12  23  40  67 100 130 171 217 266 330 393
#     4  10  21  41  60  86 127 166 207 260 310 372
#     4  12  24  41  68  98 129 172 218 265 331 402
#
# _framework density 25.987708999999999
#
# number of rings (size 3 to 8) (size 9 to 14) (size 15 to 20)
#    0.000    1.333    0.000    8.000    0.000    0.000 
#    0.000   20.000    0.000    0.000    0.000    0.000 
#    0.000    0.000    0.000    0.000    0.000    0.000 
#
# Total GULP energy -134081.113119 kJ/mol
# GULP energy per Si atom -5586.713047 kJ/mol
# Density = 2.592856 g / cm^3
# Si number density = 25.987709 Si / 1000 Ang^3
#
#
#
# Elastic Constant Matrix: (Units=GPa)
#
#
# Indices 1 2 3 4 5 6 
#
# 1 100.4593 19.4316 19.8792 0.0000 0.0000 0.0000
# 2 19.4316 79.7701 -10.8826 0.0000 0.0000 0.0000
# 3 19.8792 -10.8826 149.5089 0.0000 0.0000 0.0000
# 4 0.0000 0.0000 0.0000 19.0929 0.0000 0.0000
# 5 0.0000 0.0000 0.0000 0.0000 90.7260 0.0000
# 6 0.0000 0.0000 0.0000 0.0000 0.0000 22.5475
#
#
#
# Elastic Compliance Matrix: (Units=1/GPa)
#
#
# Indices 1 2 3 4 5 6 
#
# 1 0.010835 -0.002864 -0.001649 0.000000 0.000000 0.000000
# 2 -0.002864 0.013419 0.001358 0.000000 0.000000 0.000000
# 3 -0.001649 0.001358 0.007007 0.000000 0.000000 0.000000
# 4 0.000000 0.000000 0.000000 0.052375 0.000000 0.000000
# 5 0.000000 0.000000 0.000000 0.000000 0.011022 0.000000
# 6 0.000000 0.000000 0.000000 0.000000 0.000000 0.044351
#
#
# Mechanical properties :
#
#
# Convention : Reuss Voigt Hill
#
# Bulk Modulus (GPa) = 40.08218 42.95497 41.51857
# Shear Modulus (GPa) = 32.54435 46.56060 39.55248
#
# Velocity S-wave (km/s) = 3.54262 4.23737 3.90547
# Velocity P-wave (km/s) = 5.67367 6.36437 6.02892
#
# Compressibility (1/GPa) = 0.02494874
#
# Stress axis : x y z
#
# Youngs Moduli (GPa) = 92.29661 74.52148 142.72155
#
# Poissons Ratio (x) = 0.21345 0.23536
# Poissons Ratio (y) = 0.26436 -0.19376
# Poissons Ratio (z) = 0.15221 -0.10117
#
# Static dielectric constant tensor:
#      x y z
#    x 2.012730 0.000000 0.000000 
#    y 0.000000 2.181980 0.000000 
#    z 0.000000 0.000000 2.192400 
# 
# From -- ./inp_files/1125.got.cif
#   From: 2010.05.17/outbox.cif.g08.bks.cpg/sg18_1_cif.got.tgz:1125.got - 2010.06.03 22:40:56.
