data_PCOD9312797
_publ_section_title
;
Structure prediction by ZEFSAII (Michael W. Deem and Ramdas Pophale) SiO2 
 PCOD9312797
Probable space group: P 21 21 2
;
_chemical_formula_sum "Si O2"
_cell_formula_units_Z 22
_cell_length_a 6.667727
_cell_length_b 11.488513
_cell_length_c 13.250100
_cell_angle_alpha 90.000000
_cell_angle_beta 90.000000
_cell_angle_gamma 90.000000
_cell_volume 1014.987715
_symmetry_space_group_name_H-M "P 21 21 2"
_symmetry_group_IT_number 18
_symmetry_cell_setting 'orthorhombic'
loop_
_space_group_symop_operation_xyz
x,y,z
-x,-y,z
1/2+x,1/2-y,-z
1/2-x,1/2+y,-z
loop_
_atom_site_type_symbol
_atom_site_label
_atom_site_fract_x
_atom_site_fract_y
_atom_site_fract_z
Si Si1 0.000000 0.500000 0.775337
Si Si2 0.563585 0.766809 0.146103
Si Si3 0.316863 0.584214 0.614376
Si Si4 0.352590 0.597413 0.990620
Si Si5 0.334446 0.831590 0.700853
Si Si6 0.000000 0.500000 0.459554
Si Si7 0.500000 0.000000 0.869318
O O1 0.939311 0.615609 0.835584
O O2 0.189565 0.534216 0.708058
O O3 0.467252 0.679880 0.068310
O O4 0.619869 0.699998 0.248937
O O5 0.761779 0.821442 0.095466
O O6 0.500000 0.500000 0.587941
O O7 0.398182 0.709470 0.650333
O O8 0.146375 0.581056 0.527035
O O9 0.500000 0.500000 0.948613
O O10 0.181800 0.534171 0.057307
O O11 0.452564 0.891421 0.794590
O O12 0.354897 0.924594 0.611926
#
# Coordination Sequence:
#
# PCOD9312797 Si02
#       7
#     2   4   4   4   4   2   2
#     4   9  23  43  65  96 134 166 229 271 335 413
#     4  11  24  43  69  99 135 186 225 285 342 401
#     4  10  23  43  69  99 130 178 218 280 351 403
#     4  12  26  44  70 100 142 185 235 285 343 404
#     4  10  23  45  66 100 133 175 228 278 344 412
#     4  10  24  46  66  98 138 166 228 286 334 426
#     4  11  23  47  67 102 142 180 231 283 339 419
#
# _framework density 21.675139000000001
#
# number of rings (size 3 to 8) (size 9 to 14) (size 15 to 20)
#    0.000    1.455    1.818    1.636    7.636    2.909 
#    6.545    0.000    0.000    0.000    0.000    0.000 
#    0.000    0.000    0.000    0.000    0.000    0.000 
#
# Total GULP energy -122829.362725 kJ/mol
# GULP energy per Si atom -5583.152851 kJ/mol
# Density = 2.162581 g / cm^3
# Si number density = 21.675139 Si / 1000 Ang^3
#
#
#
# Elastic Constant Matrix: (Units=GPa)
#
#
# Indices 1 2 3 4 5 6 
#
# 1 58.0878 38.2857 22.2985 0.0000 0.0000 0.0000
# 2 38.2857 124.3410 43.2900 0.0000 0.0000 0.0000
# 3 22.2985 43.2900 83.4783 0.0000 0.0000 0.0000
# 4 0.0000 0.0000 0.0000 34.0015 0.0000 0.0000
# 5 0.0000 0.0000 0.0000 0.0000 124.3007 0.0000
# 6 0.0000 0.0000 0.0000 0.0000 0.0000 38.7273
#
#
#
# Elastic Compliance Matrix: (Units=1/GPa)
#
#
# Indices 1 2 3 4 5 6 
#
# 1 0.022162 -0.005812 -0.002906 0.000000 0.000000 0.000000
# 2 -0.005812 0.011339 -0.004327 0.000000 0.000000 0.000000
# 3 -0.002906 -0.004327 0.014999 0.000000 0.000000 0.000000
# 4 0.000000 0.000000 0.000000 0.029410 0.000000 0.000000
# 5 0.000000 0.000000 0.000000 0.000000 0.008045 0.000000
# 6 0.000000 0.000000 0.000000 0.000000 0.000000 0.025822
#
#
# Mechanical properties :
#
#
# Convention : Reuss Voigt Hill
#
# Bulk Modulus (GPa) = 44.62476 52.62841 48.62658
# Shear Modulus (GPa) = 34.40285 50.20809 42.30547
#
# Velocity S-wave (km/s) = 3.98829 4.81811 4.42271
# Velocity P-wave (km/s) = 6.46849 7.43542 6.96875
#
# Compressibility (1/GPa) = 0.02240909
#
# Stress axis : x y z
#
# Youngs Moduli (GPa) = 45.12328 88.19413 66.66912
#
# Poissons Ratio (x) = 0.51259 0.19372
# Poissons Ratio (y) = 0.26226 0.28851
# Poissons Ratio (z) = 0.13111 0.38166
#
# Static dielectric constant tensor:
#      x y z
#    x 1.771920 0.000000 0.000000 
#    y 0.000000 1.780700 0.000000 
#    z 0.000000 0.000000 1.788900 
# 
# From -- ./inp_files/6453.got.cif
#   From: 2010.05.17/outbox.cif.g08.bks.cpg/sg18_4_cif.got.tgz:6453.got - 2010.06.03 22:40:56.
