data_PCOD9312247
_publ_section_title
;
Structure prediction by ZEFSAII (Michael W. Deem and Ramdas Pophale) SiO2 
 PCOD9312247
Probable space group: P 21 21 2
;
_chemical_formula_sum "Si O2"
_cell_formula_units_Z 20
_cell_length_a 7.631102
_cell_length_b 5.359996
_cell_length_c 20.617279
_cell_angle_alpha 90.000000
_cell_angle_beta 90.000000
_cell_angle_gamma 90.000000
_cell_volume 843.301887
_symmetry_space_group_name_H-M "P 21 21 2"
_symmetry_group_IT_number 18
_symmetry_cell_setting 'orthorhombic'
loop_
_space_group_symop_operation_xyz
x,y,z
-x,-y,z
1/2+x,1/2-y,-z
1/2-x,1/2+y,-z
loop_
_atom_site_type_symbol
_atom_site_label
_atom_site_fract_x
_atom_site_fract_y
_atom_site_fract_z
Si Si1 0.694697 0.115249 0.032660
Si Si2 0.615021 0.251103 0.169688
Si Si3 0.000000 0.000000 0.510873
Si Si4 0.708861 0.853514 0.416242
Si Si5 0.500000 0.000000 0.615654
Si Si6 0.673268 0.610246 0.709965
O O1 0.733291 0.206199 0.105962
O O2 0.500000 0.000000 0.032071
O O3 0.698520 0.371266 0.990937
O O4 0.500000 0.500000 0.160143
O O5 0.715236 0.256782 0.237555
O O6 0.500000 0.000000 0.174382
O O7 0.832982 0.021017 0.462422
O O8 0.025092 0.757135 0.557333
O O9 0.834761 0.608936 0.420427
O O10 0.715494 0.936412 0.340348
O O11 0.422346 0.210482 0.660468
O O12 0.500000 0.500000 0.745395
#
# Coordination Sequence:
#
# PCOD9312247 Si02
#       6
#     4   4   2   4   2   4
#     4  11  23  45  73 107 154 197 246 301 355 425
#     4  11  26  47  71 108 152 195 243 300 362 431
#     4  12  24  44  70  92 140 180 234 292 382 426
#     4  11  24  44  65 101 132 182 232 303 359 450
#     4  10  20  46  66  94 140 172 232 308 352 434
#     4  10  24  45  70  98 140 181 243 298 365 431
#
# _framework density 23.716301999999999
#
# number of rings (size 3 to 8) (size 9 to 14) (size 15 to 20)
#    0.000    1.200    3.000    4.200    5.600    3.200 
#    1.800    0.000    0.000    0.000    0.000    0.000 
#    0.000    0.000    0.000    0.000    0.000    0.000 
#
# Total GULP energy -111547.103118 kJ/mol
# GULP energy per Si atom -5577.355156 kJ/mol
# Density = 2.366232 g / cm^3
# Si number density = 23.716302 Si / 1000 Ang^3
#
#
#
# Elastic Constant Matrix: (Units=GPa)
#
#
# Indices 1 2 3 4 5 6 
#
# 1 65.5664 11.8262 41.1778 0.0000 0.0000 0.0000
# 2 11.8262 106.0243 22.6848 0.0000 0.0000 0.0000
# 3 41.1778 22.6848 119.8905 0.0000 0.0000 0.0000
# 4 0.0000 0.0000 0.0000 357.0920 0.0000 0.0000
# 5 0.0000 0.0000 0.0000 0.0000-1859.3067 0.0000
# 6 0.0000 0.0000 0.0000 0.0000 0.0000 43.0563
#
#
#
# Elastic Compliance Matrix: (Units=1/GPa)
#
#
# Indices 1 2 3 4 5 6 
#
# 1 0.019507 -0.000774 -0.006554 0.000000 0.000000 0.000000
# 2 -0.000774 0.009860 -0.001600 0.000000 0.000000 0.000000
# 3 -0.006554 -0.001600 0.010895 0.000000 0.000000 0.000000
# 4 0.000000 0.000000 0.000000 0.002800 0.000000 0.000000
# 5 0.000000 0.000000 0.000000 0.000000 -0.000538 0.000000
# 6 0.000000 0.000000 0.000000 0.000000 0.000000 0.023225
#
#
# Mechanical properties :
#
#
# Convention : Reuss Voigt Hill
#
# Bulk Modulus (GPa) = 44.62760 49.20656 46.91708
# Shear Modulus (GPa) = 54.90057 -277.44552 -111.27248
#
# Velocity S-wave (km/s) = 4.81655 -10.82770 -6.85711
# Velocity P-wave (km/s) = 7.05622 11.64155 6.54735
#
# Compressibility (1/GPa) = 0.02240766
#
# Stress axis : x y z
#
# Youngs Moduli (GPa) = 51.26335 101.41550 91.78879
#
# Poissons Ratio (x) = 0.07846 0.60154
# Poissons Ratio (y) = 0.03966 0.14686
# Poissons Ratio (z) = 0.33596 0.16226
#
# Static dielectric constant tensor:
#      x y z
#    x 1.994230 0.000000 0.000000 
#    y 0.000000 11.182030 0.000000 
#    z 0.000000 0.000000 1.938950 
# 
# From -- ./inp_files/7282.got.cif
#   From: 2010.05.17/outbox.cif.g08.bks.cpg/sg18_4_cif.got.tgz:7282.got - 2010.06.03 22:40:56.
