data_PCOD9312850
_publ_section_title
;
Structure prediction by ZEFSAII (Michael W. Deem and Ramdas Pophale) SiO2 
 PCOD9312850
Probable space group: P 21 21 2
;
_chemical_formula_sum "Si O2"
_cell_formula_units_Z 24
_cell_length_a 11.027237
_cell_length_b 9.542642
_cell_length_c 8.997623
_cell_angle_alpha 90.000000
_cell_angle_beta 90.000000
_cell_angle_gamma 90.000000
_cell_volume 946.810645
_symmetry_space_group_name_H-M "P 21 21 2"
_symmetry_group_IT_number 18
_symmetry_cell_setting 'orthorhombic'
loop_
_space_group_symop_operation_xyz
x,y,z
-x,-y,z
1/2+x,1/2-y,-z
1/2-x,1/2+y,-z
loop_
_atom_site_type_symbol
_atom_site_label
_atom_site_fract_x
_atom_site_fract_y
_atom_site_fract_z
Si Si1 0.828326 0.552853 0.745460
Si Si2 0.923935 0.219108 0.219466
Si Si3 0.827172 0.821287 0.134547
Si Si4 0.693282 0.618008 0.312180
Si Si5 0.677229 0.882713 0.535820
Si Si6 0.993002 0.773320 0.892484
O O1 0.701913 0.639521 0.751192
O O2 0.787818 0.414830 0.833048
O O3 0.860173 0.499723 0.582502
O O4 0.064468 0.360797 0.815969
O O5 0.918449 0.342724 0.338252
O O6 0.054576 0.142569 0.235460
O O7 0.931294 0.254930 0.044277
O O8 0.791965 0.664598 0.186088
O O9 0.875483 0.845769 0.969189
O O10 0.703509 0.741304 0.439124
O O11 0.713993 0.464411 0.379184
O O12 0.567591 0.640694 0.226878
#
# Coordination Sequence:
#
# PCOD9312850 Si02
#       6
#     4   4   4   4   4   4
#     4  11  22  50  77 112 159 204 267 330 400 470
#     4  10  23  49  72 116 146 213 257 328 398 465
#     4   9  24  44  76 106 150 199 260 338 384 465
#     4  11  24  51  73 117 155 210 265 328 400 472
#     4  11  25  49  79 107 163 209 264 324 399 486
#     4  10  25  48  78 114 154 206 262 339 388 479
#
# _framework density 25.348257
#
# number of rings (size 3 to 8) (size 9 to 14) (size 15 to 20)
#    1.000    0.667    1.667    1.500    0.000    6.000 
#   27.000    0.000    0.000    0.000    0.000    0.000 
#    0.000    0.000    0.000    0.000    0.000    0.000 
#
# Total GULP energy -134023.588733 kJ/mol
# GULP energy per Si atom -5584.316197 kJ/mol
# Density = 2.529056 g / cm^3
# Si number density = 25.348257 Si / 1000 Ang^3
#
#
#
# Elastic Constant Matrix: (Units=GPa)
#
#
# Indices 1 2 3 4 5 6 
#
# 1 119.2286 44.9642 48.0227 0.0000 0.0000 0.0000
# 2 44.9642 78.6975 54.6734 0.0000 0.0000 0.0000
# 3 48.0227 54.6734 142.1695 0.0000 0.0000 0.0000
# 4 0.0000 0.0000 0.0000 14.4893 0.0000 0.0000
# 5 0.0000 0.0000 0.0000 0.0000 20.5730 0.0000
# 6 0.0000 0.0000 0.0000 0.0000 0.0000 46.4788
#
#
#
# Elastic Compliance Matrix: (Units=1/GPa)
#
#
# Indices 1 2 3 4 5 6 
#
# 1 0.011009 -0.005058 -0.001774 0.000000 0.000000 0.000000
# 2 -0.005058 0.019663 -0.005853 0.000000 0.000000 0.000000
# 3 -0.001774 -0.005853 0.009884 0.000000 0.000000 0.000000
# 4 0.000000 0.000000 0.000000 0.069016 0.000000 0.000000
# 5 0.000000 0.000000 0.000000 0.000000 0.048607 0.000000
# 6 0.000000 0.000000 0.000000 0.000000 0.000000 0.021515
#
#
# Mechanical properties :
#
#
# Convention : Reuss Voigt Hill
#
# Bulk Modulus (GPa) = 65.84760 70.60181 68.22471
# Shear Modulus (GPa) = 23.79514 29.13725 26.46620
#
# Velocity S-wave (km/s) = 3.06719 3.39407 3.23476
# Velocity P-wave (km/s) = 6.21105 6.57821 6.39726
#
# Compressibility (1/GPa) = 0.01518658
#
# Stress axis : x y z
#
# Youngs Moduli (GPa) = 90.83405 50.85648 101.17442
#
# Poissons Ratio (x) = 0.25723 0.17944
# Poissons Ratio (y) = 0.45943 0.59220
# Poissons Ratio (z) = 0.16110 0.29768
#
# Static dielectric constant tensor:
#      x y z
#    x 2.075640 0.000000 0.000000 
#    y 0.000000 2.130840 0.000000 
#    z 0.000000 0.000000 2.017540 
# 
# From -- ./inp_files/3752.got.cif
#   From: 2010.05.17/outbox.cif.g08.bks.cpg/sg18_2_cif.got.tgz:3752.got - 2010.06.03 22:40:56.
