data_PCOD9312286
_publ_section_title
;
Structure prediction by ZEFSAII (Michael W. Deem and Ramdas Pophale) SiO2 
 PCOD9312286
Probable space group: P 21 21 2
;
_chemical_formula_sum "Si O2"
_cell_formula_units_Z 24
_cell_length_a 7.614553
_cell_length_b 19.053761
_cell_length_c 8.911081
_cell_angle_alpha 90.000000
_cell_angle_beta 90.000000
_cell_angle_gamma 90.000000
_cell_volume 1292.871966
_symmetry_space_group_name_H-M "P 21 21 2"
_symmetry_group_IT_number 18
_symmetry_cell_setting 'orthorhombic'
loop_
_space_group_symop_operation_xyz
x,y,z
-x,-y,z
1/2+x,1/2-y,-z
1/2-x,1/2+y,-z
loop_
_atom_site_type_symbol
_atom_site_label
_atom_site_fract_x
_atom_site_fract_y
_atom_site_fract_z
Si Si1 0.061317 0.922028 0.069446
Si Si2 0.254679 0.182626 0.430505
Si Si3 0.745317 0.817374 0.069497
Si Si4 0.370046 0.838840 0.570469
Si Si5 0.370044 0.838840 0.929531
Si Si6 0.438680 0.422029 0.569447
O O1 0.908329 0.867010 0.027975
O O2 0.082713 0.919620 0.249999
O O3 0.000000 0.000000 0.027893
O O4 0.241391 0.897778 0.994006
O O5 0.274036 0.180078 0.250001
O O6 0.434432 0.157988 0.505450
O O7 0.209894 0.262679 0.473825
O O8 0.091666 0.132991 0.472025
O O9 0.790103 0.737322 0.026177
O O10 0.565564 0.842011 0.994554
O O11 0.375439 0.841991 0.750000
O O12 0.241395 0.897779 0.505992
O O13 0.500000 0.500000 0.527895
#
# Coordination Sequence:
#
# PCOD9312286 Si02
#       6
#     4   4   4   4   4   4
#     4  10  22  41  62  85 118 157 196 239 288 347
#     4  10  21  37  59  86 114 151 196 237 286 347
#     4  10  21  37  59  86 114 151 196 237 286 347
#     4  11  22  36  60  89 117 151 192 243 292 342
#     4  11  22  36  60  89 117 151 192 243 292 342
#     4  10  22  41  62  85 118 157 196 239 288 347
#
# _framework density 18.563321999999999
#
# number of rings (size 3 to 8) (size 9 to 14) (size 15 to 20)
#    0.000    1.667    3.333    1.000    0.000    4.667 
#    0.000    6.667    0.000    0.000    0.000    0.000 
#    0.000    0.000    0.000    0.000    0.000    0.000 
#
# Total GULP energy -134116.730088 kJ/mol
# GULP energy per Si atom -5588.197087 kJ/mol
# Density = 1.852107 g / cm^3
# Si number density = 18.563322 Si / 1000 Ang^3
#
#
#
# Elastic Constant Matrix: (Units=GPa)
#
#
# Indices 1 2 3 4 5 6 
#
# 1 76.4662 -24.3172 14.5964 0.0000 0.0000 0.0000
# 2 -24.3172 34.9763 1.7008 0.0000 0.0000 0.0000
# 3 14.5964 1.7008 10.0139 0.0000 0.0000 0.0000
# 4 0.0000 0.0000 0.0000 19.1388 0.0000 0.0000
# 5 0.0000 0.0000 0.0000 0.0000 35.8482 0.0000
# 6 0.0000 0.0000 0.0000 0.0000 0.0000 26.8457
#
#
#
# Elastic Compliance Matrix: (Units=1/GPa)
#
#
# Indices 1 2 3 4 5 6 
#
# 1 0.028994 0.022398 -0.046066 0.000000 0.000000 0.000000
# 2 0.022398 0.046131 -0.040483 0.000000 0.000000 0.000000
# 3 -0.046066 -0.040483 0.173884 0.000000 0.000000 0.000000
# 4 0.000000 0.000000 0.000000 0.052250 0.000000 0.000000
# 5 0.000000 0.000000 0.000000 0.000000 0.027895 0.000000
# 6 0.000000 0.000000 0.000000 0.000000 0.000000 0.037250
#
#
# Mechanical properties :
#
#
# Convention : Reuss Voigt Hill
#
# Bulk Modulus (GPa) = 8.28450 11.71292 9.99871
# Shear Modulus (GPa) = 9.34681 24.99829 17.17255
#
# Velocity S-wave (km/s) = 2.24634 3.67365 3.04481
# Velocity P-wave (km/s) = 3.34672 4.93130 4.21416
#
# Compressibility (1/GPa) = 0.12070739
#
# Stress axis : x y z
#
# Youngs Moduli (GPa) = 34.48990 21.67717 5.75097
#
# Poissons Ratio (x) = -0.48553 0.26493
# Poissons Ratio (y) = -0.77251 0.23281
# Poissons Ratio (z) = 1.58882 0.87755
#
# Static dielectric constant tensor:
#      x y z
#    x 1.597730 0.000000 0.000000 
#    y 0.000000 1.634300 0.000000 
#    z 0.000000 0.000000 1.612510 
# 
# From -- ./inp_files/3298.got.cif
#   From: 2010.05.17/outbox.cif.g08.bks.cpg/sg18_2_cif.got.tgz:3298.got - 2010.06.03 22:40:56.
