data_PCOD9312081
_publ_section_title
;
Structure prediction by ZEFSAII (Michael W. Deem and Ramdas Pophale) SiO2 
 PCOD9312081
Probable space group: P 21 21 2
;
_chemical_formula_sum "Si O2"
_cell_formula_units_Z 32
_cell_length_a 8.974474
_cell_length_b 14.445360
_cell_length_c 11.853252
_cell_angle_alpha 90.000000
_cell_angle_beta 90.000000
_cell_angle_gamma 90.000000
_cell_volume 1536.649754
_symmetry_space_group_name_H-M "P 21 21 2"
_symmetry_group_IT_number 18
_symmetry_cell_setting 'orthorhombic'
loop_
_space_group_symop_operation_xyz
x,y,z
-x,-y,z
1/2+x,1/2-y,-z
1/2-x,1/2+y,-z
loop_
_atom_site_type_symbol
_atom_site_label
_atom_site_fract_x
_atom_site_fract_y
_atom_site_fract_z
Si Si1 0.182406 0.236175 0.857925
Si Si2 0.383644 0.869871 0.936266
Si Si3 0.565227 0.225776 0.381072
Si Si4 0.162000 0.476691 0.601713
Si Si5 0.176835 0.655976 0.468330
Si Si6 0.777068 0.434712 0.022483
Si Si7 0.868182 0.934257 0.215368
Si Si8 0.498840 0.240210 0.741034
O O1 0.077244 0.261615 0.753141
O O2 0.180417 0.128965 0.894141
O O3 0.349721 0.257490 0.815152
O O4 0.151743 0.295096 0.968630
O O5 0.551993 0.904179 0.959738
O O6 0.390755 0.823822 0.813469
O O7 0.274683 0.956885 0.949324
O O8 0.658967 0.308592 0.437463
O O9 0.398828 0.207782 0.424880
O O10 0.656556 0.132657 0.416838
O O11 0.174438 0.546736 0.496009
O O12 0.283585 0.506454 0.690972
O O13 0.000000 0.500000 0.653466
O O14 0.065797 0.687156 0.367613
O O15 0.731600 0.414964 0.893959
O O16 0.926585 0.840105 0.272533
O O17 0.000000 0.000000 0.172870
#
# Coordination Sequence:
#
# PCOD9312081 Si02
#       8
#     4   4   4   4   4   4   4   4
#     4  10  20  40  61  88 124 159 201 260 306 363
#     4  10  20  38  59  90 125 164 210 250 311 383
#     4  10  21  40  62  90 121 160 205 258 305 359
#     4  10  23  39  63  91 115 162 208 256 304 366
#     4  10  21  40  62  90 121 157 210 251 308 362
#     4  10  22  35  60  92 121 165 202 249 317 377
#     4  12  22  37  63  95 128 160 211 258 312 369
#     4  10  21  38  60  89 125 167 202 261 313 368
#
# _framework density 20.824525000000001
#
# number of rings (size 3 to 8) (size 9 to 14) (size 15 to 20)
#    0.000    1.750    1.250    3.750    5.250    0.000 
#   20.250    0.000    0.000    0.000    0.000    0.000 
#    0.000    0.000    0.000    0.000    0.000    0.000 
#
# Total GULP energy -178692.550886 kJ/mol
# GULP energy per Si atom -5584.142215 kJ/mol
# Density = 2.077713 g / cm^3
# Si number density = 20.824525 Si / 1000 Ang^3
#
#
#
# Elastic Constant Matrix: (Units=GPa)
#
#
# Indices 1 2 3 4 5 6 
#
# 1 5.7108 -0.5063 -3.5807 0.0000 0.0000 0.0000
# 2 -0.5063 73.2946 28.5840 0.0000 0.0000 0.0000
# 3 -3.5807 28.5840 44.9601 0.0000 0.0000 0.0000
# 4 0.0000 0.0000 0.0000 8.9353 0.0000 0.0000
# 5 0.0000 0.0000 0.0000 0.0000 29.8044 0.0000
# 6 0.0000 0.0000 0.0000 0.0000 0.0000 22.1516
#
#
#
# Elastic Compliance Matrix: (Units=1/GPa)
#
#
# Indices 1 2 3 4 5 6 
#
# 1 0.186262 -0.005982 0.018637 0.000000 0.000000 0.000000
# 2 -0.005982 0.018334 -0.012132 0.000000 0.000000 0.000000
# 3 0.018637 -0.012132 0.031440 0.000000 0.000000 0.000000
# 4 0.000000 0.000000 0.000000 0.111916 0.000000 0.000000
# 5 0.000000 0.000000 0.000000 0.000000 0.033552 0.000000
# 6 0.000000 0.000000 0.000000 0.000000 0.000000 0.045143
#
#
# Mechanical properties :
#
#
# Convention : Reuss Voigt Hill
#
# Bulk Modulus (GPa) = 4.21795 19.21773 11.71784
# Shear Modulus (GPa) = 9.90829 18.80949 14.35889
#
# Velocity S-wave (km/s) = 2.18365 3.00865 2.62872
# Velocity P-wave (km/s) = 2.89614 4.61712 3.85392
#
# Compressibility (1/GPa) = 0.23708197
#
# Stress axis : x y z
#
# Youngs Moduli (GPa) = 5.36877 54.54428 31.80706
#
# Poissons Ratio (x) = 0.32627 -0.59280
# Poissons Ratio (y) = 0.03211 0.38589
# Poissons Ratio (z) = -0.10006 0.66175
#
# Static dielectric constant tensor:
#      x y z
#    x 1.755920 0.000000 0.000000 
#    y 0.000000 1.764170 0.000000 
#    z 0.000000 0.000000 1.743010 
# 
# From -- ./inp_files/5664.got.cif
#   From: 2010.05.17/outbox.cif.g08.bks.cpg/sg18_3_cif.got.tgz:5664.got - 2010.06.03 22:40:56.
