data_PCOD9312947
_publ_section_title
;
Structure prediction by ZEFSAII (Michael W. Deem and Ramdas Pophale) SiO2 
 PCOD9312947
Probable space group: P 21 21 2
;
_chemical_formula_sum "Si O2"
_cell_formula_units_Z 14
_cell_length_a 5.033633
_cell_length_b 10.778900
_cell_length_c 9.630990
_cell_angle_alpha 90.000000
_cell_angle_beta 90.000000
_cell_angle_gamma 90.000000
_cell_volume 522.548882
_symmetry_space_group_name_H-M "P 21 21 2"
_symmetry_group_IT_number 18
_symmetry_cell_setting 'orthorhombic'
loop_
_space_group_symop_operation_xyz
x,y,z
-x,-y,z
1/2+x,1/2-y,-z
1/2-x,1/2+y,-z
loop_
_atom_site_type_symbol
_atom_site_label
_atom_site_fract_x
_atom_site_fract_y
_atom_site_fract_z
Si Si1 0.556815 0.675169 0.025804
Si Si2 0.500000 0.000000 0.468492
Si Si3 0.798378 0.400107 0.265614
Si Si4 0.166383 0.880367 0.263603
O O1 0.575656 0.762133 0.722647
O O2 0.699499 0.599664 0.902269
O O3 0.270301 0.714823 0.962171
O O4 0.718470 0.952199 0.579064
O O5 0.417754 0.890832 0.364582
O O6 0.000000 0.500000 0.195525
O O7 0.536545 0.376654 0.173695
O O8 0.000000 0.000000 0.308313
#
# Coordination Sequence:
#
# PCOD9312947 Si02
#       4
#     4   2   4   4
#     4  10  24  50  84 120 159 211 275 341 394 482
#     4  10  26  50  76 114 166 212 262 334 408 486
#     4   9  24  49  81 113 164 207 274 326 415 469
#     4  11  26  45  81 112 162 208 275 324 412 472
#
# _framework density 26.791753
#
# number of rings (size 3 to 8) (size 9 to 14) (size 15 to 20)
#    0.857    1.143    0.000    0.000   12.000    9.143 
#   10.286    0.000    0.000    0.000    0.000    0.000 
#    0.000    0.000    0.000    0.000    0.000    0.000 
#
# Total GULP energy -78011.275818 kJ/mol
# GULP energy per Si atom -5572.233987 kJ/mol
# Density = 2.673077 g / cm^3
# Si number density = 26.791753 Si / 1000 Ang^3
#
#
#
# Elastic Constant Matrix: (Units=GPa)
#
#
# Indices 1 2 3 4 5 6 
#
# 1 128.4681 40.9272 64.0693 0.0000 0.0000 0.0000
# 2 40.9272 158.3681 32.1958 0.0000 0.0000 0.0000
# 3 64.0693 32.1958 238.0214 0.0000 0.0000 0.0000
# 4 0.0000 0.0000 0.0000 36.5048 0.0000 0.0000
# 5 0.0000 0.0000 0.0000 0.0000 46.8296 0.0000
# 6 0.0000 0.0000 0.0000 0.0000 0.0000 43.7461
#
#
#
# Elastic Compliance Matrix: (Units=1/GPa)
#
#
# Indices 1 2 3 4 5 6 
#
# 1 0.009573 -0.002005 -0.002305 0.000000 0.000000 0.000000
# 2 -0.002005 0.006913 -0.000395 0.000000 0.000000 0.000000
# 3 -0.002305 -0.000395 0.004875 0.000000 0.000000 0.000000
# 4 0.000000 0.000000 0.000000 0.027394 0.000000 0.000000
# 5 0.000000 0.000000 0.000000 0.000000 0.021354 0.000000
# 6 0.000000 0.000000 0.000000 0.000000 0.000000 0.022859
#
#
# Mechanical properties :
#
#
# Convention : Reuss Voigt Hill
#
# Bulk Modulus (GPa) = 83.68916 88.80471 86.24694
# Shear Modulus (GPa) = 47.00891 51.26043 49.13467
#
# Velocity S-wave (km/s) = 4.19334 4.37886 4.28711
# Velocity P-wave (km/s) = 7.39934 7.66708 7.53440
#
# Compressibility (1/GPa) = 0.01194898
#
# Stress axis : x y z
#
# Youngs Moduli (GPa) = 104.46459 144.65562 205.11326
#
# Poissons Ratio (x) = 0.29006 0.47288
# Poissons Ratio (y) = 0.20947 0.08109
# Poissons Ratio (z) = 0.24084 0.05719
#
# Static dielectric constant tensor:
#      x y z
#    x 2.550880 0.000000 0.000000 
#    y 0.000000 2.268690 0.000000 
#    z 0.000000 0.000000 2.035150 
# 
# From -- ./inp_files/4936.got.cif
#   From: 2010.05.17/outbox.cif.g08.bks.cpg/sg18_3_cif.got.tgz:4936.got - 2010.06.03 22:40:56.
