data_PCOD9312718
_publ_section_title
;
Structure prediction by ZEFSAII (Michael W. Deem and Ramdas Pophale) SiO2 
 PCOD9312718
Probable space group: P 21 21 2
;
_chemical_formula_sum "Si O2"
_cell_formula_units_Z 22
_cell_length_a 14.402604
_cell_length_b 5.149473
_cell_length_c 13.405221
_cell_angle_alpha 90.000000
_cell_angle_beta 90.000000
_cell_angle_gamma 90.000000
_cell_volume 994.209213
_symmetry_space_group_name_H-M "P 21 21 2"
_symmetry_group_IT_number 18
_symmetry_cell_setting 'orthorhombic'
loop_
_space_group_symop_operation_xyz
x,y,z
-x,-y,z
1/2+x,1/2-y,-z
1/2-x,1/2+y,-z
loop_
_atom_site_type_symbol
_atom_site_label
_atom_site_fract_x
_atom_site_fract_y
_atom_site_fract_z
Si Si1 0.500000 0.000000 0.456584
Si Si2 0.220100 0.756815 0.870085
Si Si3 0.500000 0.000000 0.788740
Si Si4 0.163228 0.751416 0.084818
Si Si5 0.652335 0.374227 0.527145
Si Si6 0.335858 0.277905 0.356972
Si Si7 0.000000 0.000000 0.340867
O O1 0.420577 0.859887 0.520737
O O2 0.561921 0.816650 0.386491
O O3 0.301026 0.538893 0.885526
O O4 0.180224 0.743324 0.759444
O O5 0.257593 0.047751 0.883831
O O6 0.152854 0.722795 0.965387
O O7 0.575772 0.858732 0.857033
O O8 0.468536 0.751167 0.723017
O O9 0.669027 0.442455 0.411245
O O10 0.749342 0.352121 0.583556
O O11 0.588513 0.574554 0.590247
#
# Coordination Sequence:
#
# PCOD9312718 Si02
#       7
#     2   4   2   4   4   4   2
#     4  12  25  45  64  98 144 180 241 283 332 424
#     4  10  24  43  71  94 139 177 230 277 355 408
#     4  12  23  39  72  98 130 174 227 287 354 394
#     4  10  22  45  66 104 129 172 231 295 331 421
#     4  12  25  42  66  97 144 184 232 284 341 417
#     4  12  25  43  69  98 137 195 219 288 351 416
#     4  12  26  42  68 104 140 178 234 286 336 416
#
# _framework density 22.128136999999999
#
# number of rings (size 3 to 8) (size 9 to 14) (size 15 to 20)
#    0.000    0.727    3.636    3.818    2.545    2.182 
#    0.000    0.000    8.000    0.000    0.000    0.000 
#    0.000    0.000    0.000    0.000    0.000    0.000 
#
# Total GULP energy -122722.542014 kJ/mol
# GULP energy per Si atom -5578.297364 kJ/mol
# Density = 2.207777 g / cm^3
# Si number density = 22.128137 Si / 1000 Ang^3
#
#
#
# Elastic Constant Matrix: (Units=GPa)
#
#
# Indices 1 2 3 4 5 6 
#
# 1 86.0306 15.8001 45.1677 0.0000 0.0000 0.0000
# 2 15.8001 77.5703 33.1737 0.0000 0.0000 0.0000
# 3 45.1677 33.1737 197.7768 0.0000 0.0000 0.0000
# 4 0.0000 0.0000 0.0000 30.2008 0.0000 0.0000
# 5 0.0000 0.0000 0.0000 0.0000 42.8845 0.0000
# 6 0.0000 0.0000 0.0000 0.0000 0.0000 34.4282
#
#
#
# Elastic Compliance Matrix: (Units=1/GPa)
#
#
# Indices 1 2 3 4 5 6 
#
# 1 0.013373 -0.001527 -0.002798 0.000000 0.000000 0.000000
# 2 -0.001527 0.014062 -0.002010 0.000000 0.000000 0.000000
# 3 -0.002798 -0.002010 0.006032 0.000000 0.000000 0.000000
# 4 0.000000 0.000000 0.000000 0.033112 0.000000 0.000000
# 5 0.000000 0.000000 0.000000 0.000000 0.023318 0.000000
# 6 0.000000 0.000000 0.000000 0.000000 0.000000 0.029046
#
#
# Mechanical properties :
#
#
# Convention : Reuss Voigt Hill
#
# Bulk Modulus (GPa) = 48.08311 61.07340 54.57825
# Shear Modulus (GPa) = 36.08891 39.31846 37.70369
#
# Velocity S-wave (km/s) = 4.04283 4.21985 4.13229
# Velocity P-wave (km/s) = 6.60070 7.16956 6.89100
#
# Compressibility (1/GPa) = 0.02079733
#
# Stress axis : x y z
#
# Youngs Moduli (GPa) = 74.77609 71.11267 165.77389
#
# Poissons Ratio (x) = 0.10862 0.46383
# Poissons Ratio (y) = 0.11421 0.33318
# Poissons Ratio (z) = 0.20922 0.14293
#
# Static dielectric constant tensor:
#      x y z
#    x 1.835480 0.000000 0.000000 
#    y 0.000000 1.939960 0.000000 
#    z 0.000000 0.000000 1.871140 
# 
# From -- ./inp_files/5117.got.cif
#   From: 2010.05.17/outbox.cif.g08.bks.cpg/sg18_3_cif.got.tgz:5117.got - 2010.06.03 22:40:56.
