data_PCOD9312218
_publ_section_title
;
Structure prediction by ZEFSAII (Michael W. Deem and Ramdas Pophale) SiO2 
 PCOD9312218
Probable space group: P 21 21 2
;
_chemical_formula_sum "Si O2"
_cell_formula_units_Z 26
_cell_length_a 13.818963
_cell_length_b 14.030852
_cell_length_c 6.585020
_cell_angle_alpha 90.000000
_cell_angle_beta 90.000000
_cell_angle_gamma 90.000000
_cell_volume 1276.781543
_symmetry_space_group_name_H-M "P 21 21 2"
_symmetry_group_IT_number 18
_symmetry_cell_setting 'orthorhombic'
loop_
_space_group_symop_operation_xyz
x,y,z
-x,-y,z
1/2+x,1/2-y,-z
1/2-x,1/2+y,-z
loop_
_atom_site_type_symbol
_atom_site_label
_atom_site_fract_x
_atom_site_fract_y
_atom_site_fract_z
Si Si1 0.655392 0.464079 0.305858
Si Si2 0.681200 0.921777 0.385905
Si Si3 0.400360 0.236674 0.674030
Si Si4 0.043999 0.293867 0.005227
Si Si5 0.742729 0.309109 0.004116
Si Si6 0.500000 0.000000 0.160156
Si Si7 0.957850 0.143201 0.686724
O O1 0.731097 0.471280 0.491564
O O2 0.704189 0.400567 0.130943
O O3 0.559053 0.406840 0.373890
O O4 0.613294 0.563400 0.221374
O O5 0.625666 0.857668 0.550277
O O6 0.598809 0.987787 0.288102
O O7 0.722048 0.850848 0.210926
O O8 0.326542 0.238385 0.861195
O O9 0.401792 0.319469 0.509986
O O10 0.504907 0.233093 0.774296
O O11 0.155956 0.266368 0.003649
O O12 0.015736 0.403055 0.965028
O O13 0.989984 0.228324 0.836071
#
# Coordination Sequence:
#
# PCOD9312218 Si02
#       7
#     4   4   4   4   4   2   4
#     4   9  22  39  69  93 129 170 216 269 328 389
#     4  11  23  44  61  96 131 167 224 266 325 403
#     4  11  21  41  64  91 131 168 214 268 324 386
#     4  11  24  43  65  91 133 175 215 272 331 387
#     4  10  22  43  64  95 131 173 217 271 325 396
#     4  12  24  44  62  94 132 168 220 268 320 398
#     4  10  20  42  64  99 127 167 221 268 325 396
#
# _framework density 20.363702
#
# number of rings (size 3 to 8) (size 9 to 14) (size 15 to 20)
#    0.000    1.538    3.077    0.923    2.154    1.846 
#    2.769    3.077    0.000    0.000    0.000    0.000 
#    0.000    0.000    0.000    0.000    0.000    0.000 
#
# Total GULP energy -145110.193009 kJ/mol
# GULP energy per Si atom -5581.161270 kJ/mol
# Density = 2.031735 g / cm^3
# Si number density = 20.363702 Si / 1000 Ang^3
#
#
#
# Elastic Constant Matrix: (Units=GPa)
#
#
# Indices 1 2 3 4 5 6 
#
# 1 50.0994 6.8954 9.7766 0.0000 0.0000 0.0000
# 2 6.8954 75.8755 3.3393 0.0000 0.0000 0.0000
# 3 9.7766 3.3393 50.6917 0.0000 0.0000 0.0000
# 4 0.0000 0.0000 0.0000 4.4476 0.0000 0.0000
# 5 0.0000 0.0000 0.0000 0.0000 21.7312 0.0000
# 6 0.0000 0.0000 0.0000 0.0000 0.0000 29.1403
#
#
#
# Elastic Compliance Matrix: (Units=1/GPa)
#
#
# Indices 1 2 3 4 5 6 
#
# 1 0.020966 -0.001732 -0.003929 0.000000 0.000000 0.000000
# 2 -0.001732 0.013361 -0.000546 0.000000 0.000000 0.000000
# 3 -0.003929 -0.000546 0.020521 0.000000 0.000000 0.000000
# 4 0.000000 0.000000 0.000000 0.224840 0.000000 0.000000
# 5 0.000000 0.000000 0.000000 0.000000 0.046017 0.000000
# 6 0.000000 0.000000 0.000000 0.000000 0.000000 0.034317
#
#
# Mechanical properties :
#
#
# Convention : Reuss Voigt Hill
#
# Bulk Modulus (GPa) = 23.56720 24.07657 23.82189
# Shear Modulus (GPa) = 12.93391 21.50750 17.22071
#
# Velocity S-wave (km/s) = 2.52294 3.25340 2.91117
# Velocity P-wave (km/s) = 4.48166 5.09527 4.79828
#
# Compressibility (1/GPa) = 0.04243185
#
# Stress axis : x y z
#
# Youngs Moduli (GPa) = 47.69727 74.84502 48.73079
#
# Poissons Ratio (x) = 0.12966 0.19148
# Poissons Ratio (y) = 0.08263 0.02661
# Poissons Ratio (z) = 0.18742 0.04087
#
# Static dielectric constant tensor:
#      x y z
#    x 1.727260 0.000000 0.000000 
#    y 0.000000 1.724900 0.000000 
#    z 0.000000 0.000000 1.693190 
# 
# From -- ./inp_files/1540.got.cif
#   From: 2010.05.17/outbox.cif.g08.bks.cpg/sg18_1_cif.got.tgz:1540.got - 2010.06.03 22:40:56.
