data_PCOD9312887
_publ_section_title
;
Structure prediction by ZEFSAII (Michael W. Deem and Ramdas Pophale) SiO2 
 PCOD9312887
Probable space group: P 21 21 2
;
_chemical_formula_sum "Si O2"
_cell_formula_units_Z 30
_cell_length_a 19.593270
_cell_length_b 8.336900
_cell_length_c 8.627469
_cell_angle_alpha 90.000000
_cell_angle_beta 90.000000
_cell_angle_gamma 90.000000
_cell_volume 1409.272323
_symmetry_space_group_name_H-M "P 21 21 2"
_symmetry_group_IT_number 18
_symmetry_cell_setting 'orthorhombic'
loop_
_space_group_symop_operation_xyz
x,y,z
-x,-y,z
1/2+x,1/2-y,-z
1/2-x,1/2+y,-z
loop_
_atom_site_type_symbol
_atom_site_label
_atom_site_fract_x
_atom_site_fract_y
_atom_site_fract_z
Si Si1 0.270024 0.547492 0.680048
Si Si2 0.478814 0.818225 0.220423
Si Si3 0.494464 0.694414 0.881718
Si Si4 0.788809 0.396160 0.362971
Si Si5 0.318109 0.818221 0.170682
Si Si6 0.156681 0.320683 0.183076
Si Si7 0.105967 0.849405 0.362150
Si Si8 0.000000 0.000000 0.578601
O O1 0.248141 0.514662 0.504269
O O2 0.208980 0.495304 0.789731
O O3 0.296076 0.725432 0.697280
O O4 0.336434 0.446161 0.731485
O O5 0.396851 0.807614 0.215381
O O6 0.499385 0.665622 0.325260
O O7 0.500000 0.000000 0.267032
O O8 0.505812 0.781209 0.046227
O O9 0.500000 0.500000 0.904464
O O10 0.420918 0.756961 0.821654
O O11 0.550554 0.727890 0.751053
O O12 0.730254 0.298827 0.270566
O O13 0.831235 0.499215 0.238860
O O14 0.846930 0.284013 0.442194
O O15 0.314300 0.789210 0.988126
O O16 0.066204 0.974729 0.470258
#
# Coordination Sequence:
#
# PCOD9312887 Si02
#       8
#     4   4   4   4   4   4   4   2
#     4  11  22  43  65  93 138 176 231 284 353 427
#     4  11  27  46  71 105 140 184 238 297 357 424
#     4  11  22  46  69  97 136 185 235 297 352 426
#     4  11  25  42  66 100 139 186 232 299 352 426
#     4  10  24  43  63  98 136 175 236 290 352 423
#     4  11  22  41  69  98 132 182 237 291 353 431
#     4  11  24  42  67  98 134 187 233 279 360 426
#     4  12  24  46  68 100 146 184 228 298 360 414
#
# _framework density 21.287580999999999
#
# number of rings (size 3 to 8) (size 9 to 14) (size 15 to 20)
#    0.000    1.067    2.667    3.200    5.600    1.067 
#    0.000    0.000    0.000    0.000    0.000    0.000 
#    0.000    0.000    0.000    0.000    0.000    0.000 
#
# Total GULP energy -167347.486732 kJ/mol
# GULP energy per Si atom -5578.249558 kJ/mol
# Density = 2.123913 g / cm^3
# Si number density = 21.287581 Si / 1000 Ang^3
#
#
#
# Elastic Constant Matrix: (Units=GPa)
#
#
# Indices 1 2 3 4 5 6 
#
# 1 78.5971 35.2180 56.2725 0.0000 0.0000 0.0000
# 2 35.2180 84.4151 23.3605 0.0000 0.0000 0.0000
# 3 56.2725 23.3605 80.0911 0.0000 0.0000 0.0000
# 4 0.0000 0.0000 0.0000 35.6388 0.0000 0.0000
# 5 0.0000 0.0000 0.0000 0.0000 27.2662 0.0000
# 6 0.0000 0.0000 0.0000 0.0000 0.0000 37.2604
#
#
#
# Elastic Compliance Matrix: (Units=1/GPa)
#
#
# Indices 1 2 3 4 5 6 
#
# 1 0.028983 -0.007023 -0.018315 0.000000 0.000000 0.000000
# 2 -0.007023 0.014588 0.000680 0.000000 0.000000 0.000000
# 3 -0.018315 0.000680 0.025156 0.000000 0.000000 0.000000
# 4 0.000000 0.000000 0.000000 0.028059 0.000000 0.000000
# 5 0.000000 0.000000 0.000000 0.000000 0.036675 0.000000
# 6 0.000000 0.000000 0.000000 0.000000 0.000000 0.026838
#
#
# Mechanical properties :
#
#
# Convention : Reuss Voigt Hill
#
# Bulk Modulus (GPa) = 51.52118 52.53394 52.02756
# Shear Modulus (GPa) = 23.13870 28.58322 25.86096
#
# Velocity S-wave (km/s) = 3.30048 3.66829 3.48923
# Velocity P-wave (km/s) = 6.22730 6.53250 6.38172
#
# Compressibility (1/GPa) = 0.01940949
#
# Stress axis : x y z
#
# Youngs Moduli (GPa) = 34.50275 68.54812 39.75199
#
# Poissons Ratio (x) = 0.48144 0.72807
# Poissons Ratio (y) = 0.24233 -0.02702
# Poissons Ratio (z) = 0.63193 -0.04659
#
# Static dielectric constant tensor:
#      x y z
#    x 1.740470 0.000000 0.000000 
#    y 0.000000 1.857100 0.000000 
#    z 0.000000 0.000000 1.751420 
# 
# From -- ./inp_files/4694.got.cif
#   From: 2010.05.17/outbox.cif.g08.bks.cpg/sg18_3_cif.got.tgz:4694.got - 2010.06.03 22:40:56.
