data_PCOD9312163
_publ_section_title
;
Structure prediction by ZEFSAII (Michael W. Deem and Ramdas Pophale) SiO2 
 PCOD9312163
Probable space group: P 21 21 2
;
_chemical_formula_sum "Si O2"
_cell_formula_units_Z 24
_cell_length_a 9.852344
_cell_length_b 7.987413
_cell_length_c 15.058473
_cell_angle_alpha 90.000000
_cell_angle_beta 90.000000
_cell_angle_gamma 90.000000
_cell_volume 1185.022626
_symmetry_space_group_name_H-M "P 21 21 2"
_symmetry_group_IT_number 18
_symmetry_cell_setting 'orthorhombic'
loop_
_space_group_symop_operation_xyz
x,y,z
-x,-y,z
1/2+x,1/2-y,-z
1/2-x,1/2+y,-z
loop_
_atom_site_type_symbol
_atom_site_label
_atom_site_fract_x
_atom_site_fract_y
_atom_site_fract_z
Si Si1 0.109461 0.650289 0.238818
Si Si2 0.692959 0.313256 0.551340
Si Si3 0.647452 0.578774 0.305027
Si Si4 0.125721 0.621100 0.049158
Si Si5 0.895541 0.194094 0.417449
Si Si6 0.629693 0.618078 0.105738
O O1 0.250608 0.569239 0.273162
O O2 0.109069 0.726359 0.140413
O O3 0.071765 0.778027 0.314910
O O4 0.000000 0.500000 0.237893
O O5 0.776933 0.199290 0.623058
O O6 0.780635 0.307096 0.462103
O O7 0.537873 0.254996 0.536438
O O8 0.662600 0.506617 0.574374
O O9 0.500000 0.500000 0.332819
O O10 0.628418 0.671172 0.209420
O O11 0.247112 0.500675 0.077653
O O12 0.000000 0.500000 0.036176
O O13 0.138992 0.729304 0.961821
O O14 0.500000 0.500000 0.092574
#
# Coordination Sequence:
#
# PCOD9312163 Si02
#       6
#     4   4   4   4   4   4
#     4  10  20  40  62  87 122 165 206 256 309 371
#     4  11  25  42  65  94 125 164 207 260 314 375
#     4  10  22  40  63  86 126 167 207 251 313 371
#     4  10  21  37  63  90 121 163 206 251 312 361
#     4  11  25  42  64  95 125 161 210 257 316 374
#     4  10  21  39  60  91 124 163 203 254 306 366
#
# _framework density 20.252776999999998
#
# number of rings (size 3 to 8) (size 9 to 14) (size 15 to 20)
#    0.000    1.667    1.667    2.000    4.667    1.333 
#    3.000    0.000    0.000    0.000    0.000    0.000 
#    0.000    0.000    0.000    0.000    0.000    0.000 
#
# Total GULP energy -133754.545050 kJ/mol
# GULP energy per Si atom -5573.106044 kJ/mol
# Density = 2.020668 g / cm^3
# Si number density = 20.252777 Si / 1000 Ang^3
#
#
#
# Elastic Constant Matrix: (Units=GPa)
#
#
# Indices 1 2 3 4 5 6 
#
# 1 120.8314 21.3923 13.9514 0.0000 0.0000 0.0000
# 2 21.3923 40.7225 32.5211 0.0000 0.0000 0.0000
# 3 13.9514 32.5211 122.4021 0.0000 0.0000 0.0000
# 4 0.0000 0.0000 0.0000 36.9368 0.0000 0.0000
# 5 0.0000 0.0000 0.0000 0.0000 27.5646 0.0000
# 6 0.0000 0.0000 0.0000 0.0000 0.0000 23.4943
#
#
#
# Elastic Compliance Matrix: (Units=1/GPa)
#
#
# Indices 1 2 3 4 5 6 
#
# 1 0.009133 -0.005035 0.000297 0.000000 0.000000 0.000000
# 2 -0.005035 0.033946 -0.008445 0.000000 0.000000 0.000000
# 3 0.000297 -0.008445 0.010380 0.000000 0.000000 0.000000
# 4 0.000000 0.000000 0.000000 0.027073 0.000000 0.000000
# 5 0.000000 0.000000 0.000000 0.000000 0.036278 0.000000
# 6 0.000000 0.000000 0.000000 0.000000 0.000000 0.042563
#
#
# Mechanical properties :
#
#
# Convention : Reuss Voigt Hill
#
# Bulk Modulus (GPa) = 36.91117 46.63175 41.77146
# Shear Modulus (GPa) = 25.67120 32.00522 28.83821
#
# Velocity S-wave (km/s) = 3.56412 3.97960 3.77757
# Velocity P-wave (km/s) = 5.93313 6.64764 6.30052
#
# Compressibility (1/GPa) = 0.02709207
#
# Stress axis : x y z
#
# Youngs Moduli (GPa) = 109.49182 29.45889 96.34118
#
# Poissons Ratio (x) = 0.14832 -0.02858
# Poissons Ratio (y) = 0.55126 0.81362
# Poissons Ratio (z) = -0.03248 0.24879
#
# Static dielectric constant tensor:
#      x y z
#    x 1.756020 0.000000 0.000000 
#    y 0.000000 1.708510 0.000000 
#    z 0.000000 0.000000 1.782800 
# 
# From -- ./inp_files/6639.got.cif
#   From: 2010.05.17/outbox.cif.g08.bks.cpg/sg18_4_cif.got.tgz:6639.got - 2010.06.03 22:40:56.
