data_PCOD9312681
_publ_section_title
;
Structure prediction by ZEFSAII (Michael W. Deem and Ramdas Pophale) SiO2 
 PCOD9312681
Probable space group: P 21 21 2
;
_chemical_formula_sum "Si O2"
_cell_formula_units_Z 16
_cell_length_a 8.256569
_cell_length_b 7.941784
_cell_length_c 10.711825
_cell_angle_alpha 90.000000
_cell_angle_beta 90.000000
_cell_angle_gamma 90.000000
_cell_volume 702.394585
_symmetry_space_group_name_H-M "P 21 21 2"
_symmetry_group_IT_number 18
_symmetry_cell_setting 'orthorhombic'
loop_
_space_group_symop_operation_xyz
x,y,z
-x,-y,z
1/2+x,1/2-y,-z
1/2-x,1/2+y,-z
loop_
_atom_site_type_symbol
_atom_site_label
_atom_site_fract_x
_atom_site_fract_y
_atom_site_fract_z
Si Si1 0.827522 0.061876 0.174274
Si Si2 0.185951 0.561455 0.585706
Si Si3 0.691344 0.066635 0.672182
Si Si4 0.820705 0.432684 0.068492
O O1 0.831642 0.243561 0.114350
O O2 0.728199 0.061689 0.300520
O O3 0.000000 0.000000 0.217017
O O4 0.772428 0.943346 0.061325
O O5 0.254281 0.742376 0.635214
O O6 0.258627 0.536569 0.446902
O O7 0.000000 0.500000 0.565410
O O8 0.500000 0.000000 0.685065
O O9 0.753455 0.032061 0.812604
O O10 0.000000 0.500000 0.041356
#
# Coordination Sequence:
#
# PCOD9312681 Si02
#       4
#     4   4   4   4
#     4  12  24  41  66  96 131 175 221 279 342 406
#     4  11  24  44  69 101 136 178 225 278 339 410
#     4  10  22  43  68  99 135 177 225 283 343 406
#     4  11  23  42  63  92 129 172 223 278 335 404
#
# _framework density 22.779219000000001
#
# number of rings (size 3 to 8) (size 9 to 14) (size 15 to 20)
#    0.000    1.000    0.000    8.250    0.000    4.000 
#    0.000    6.250    0.000    0.000    0.000    0.000 
#    0.000    0.000    0.000    0.000    0.000    0.000 
#
# Total GULP energy -89152.734502 kJ/mol
# GULP energy per Si atom -5572.045906 kJ/mol
# Density = 2.272737 g / cm^3
# Si number density = 22.779219 Si / 1000 Ang^3
#
#
#
# Elastic Constant Matrix: (Units=GPa)
#
#
# Indices 1 2 3 4 5 6 
#
# 1 30.6130 9.1973 18.8594 0.0000 0.0000 0.0000
# 2 9.1973 81.0992 -29.9354 0.0000 0.0000 0.0000
# 3 18.8594 -29.9354 117.1810 0.0000 0.0000 0.0000
# 4 0.0000 0.0000 0.0000 55.0232 0.0000 0.0000
# 5 0.0000 0.0000 0.0000 0.0000 60.9433 0.0000
# 6 0.0000 0.0000 0.0000 0.0000 0.0000 27.5333
#
#
#
# Elastic Compliance Matrix: (Units=1/GPa)
#
#
# Indices 1 2 3 4 5 6 
#
# 1 0.040155 -0.007662 -0.008420 0.000000 0.000000 0.000000
# 2 -0.007662 0.015076 0.005085 0.000000 0.000000 0.000000
# 3 -0.008420 0.005085 0.011188 0.000000 0.000000 0.000000
# 4 0.000000 0.000000 0.000000 0.018174 0.000000 0.000000
# 5 0.000000 0.000000 0.000000 0.000000 0.016409 0.000000
# 6 0.000000 0.000000 0.000000 0.000000 0.000000 0.036320
#
#
# Mechanical properties :
#
#
# Convention : Reuss Voigt Hill
#
# Bulk Modulus (GPa) = 22.51006 25.01508 23.76257
# Shear Modulus (GPa) = 28.71511 44.08475 36.39993
#
# Velocity S-wave (km/s) = 3.55432 4.40398 4.00177
# Velocity P-wave (km/s) = 5.17180 6.07169 5.63973
#
# Compressibility (1/GPa) = 0.04442458
#
# Stress axis : x y z
#
# Youngs Moduli (GPa) = 24.90353 66.32919 89.38262
#
# Poissons Ratio (x) = 0.50821 0.75260
# Poissons Ratio (y) = 0.19081 -0.45447
# Poissons Ratio (z) = 0.20969 -0.33726
#
# Static dielectric constant tensor:
#      x y z
#    x 0.819280 0.000000 0.000000 
#    y 0.000000 1.879040 0.000000 
#    z 0.000000 0.000000 1.841610 
# 
# From -- ./inp_files/5355.got.cif
#   From: 2010.05.17/outbox.cif.g08.bks.cpg/sg18_3_cif.got.tgz:5355.got - 2010.06.03 22:40:56.
