data_PCOD9312080
_publ_section_title
;
Structure prediction by ZEFSAII (Michael W. Deem and Ramdas Pophale) SiO2 
 PCOD9312080
Probable space group: P 21 21 2
;
_chemical_formula_sum "Si O2"
_cell_formula_units_Z 28
_cell_length_a 13.311184
_cell_length_b 12.008755
_cell_length_c 8.966925
_cell_angle_alpha 90.000000
_cell_angle_beta 90.000000
_cell_angle_gamma 90.000000
_cell_volume 1433.369663
_symmetry_space_group_name_H-M "P 21 21 2"
_symmetry_group_IT_number 18
_symmetry_cell_setting 'orthorhombic'
loop_
_space_group_symop_operation_xyz
x,y,z
-x,-y,z
1/2+x,1/2-y,-z
1/2-x,1/2+y,-z
loop_
_atom_site_type_symbol
_atom_site_label
_atom_site_fract_x
_atom_site_fract_y
_atom_site_fract_z
Si Si1 0.130676 0.338314 0.335164
Si Si2 0.162095 0.092048 0.816600
Si Si3 0.500000 0.000000 0.836985
Si Si4 0.526734 0.314260 0.433912
Si Si5 0.500000 0.500000 0.665543
Si Si6 0.865934 0.302453 0.062921
Si Si7 0.339512 0.329170 0.232032
Si Si8 0.446838 0.660272 0.887209
O O1 0.070586 0.289427 0.474843
O O2 0.249331 0.332490 0.351612
O O3 0.111061 0.259055 0.192918
O O4 0.084908 0.452354 0.274671
O O5 0.116339 0.125656 0.656678
O O6 0.269226 0.151860 0.846974
O O7 0.160427 0.957448 0.826180
O O8 0.087751 0.136526 0.946311
O O9 0.554810 0.905453 0.935098
O O10 0.479334 0.398318 0.555339
O O11 0.440693 0.293717 0.314673
O O12 0.423300 0.553973 0.783269
O O13 0.936410 0.200235 0.121392
O O14 0.828137 0.256974 0.904142
#
# Coordination Sequence:
#
# PCOD9312080 Si02
#       8
#     4   4   2   4   2   4   4   4
#     4  10  23  41  66  92 133 174 219 266 346 400
#     4  12  22  41  69 100 130 178 228 276 334 392
#     4  10  22  46  64  94 136 178 216 280 334 398
#     4  11  24  41  66  95 136 168 222 283 330 400
#     4  10  20  38  58  94 122 172 208 272 334 376
#     4  11  23  39  69  96 131 176 220 277 332 398
#     4  12  22  42  68  96 132 177 224 279 334 400
#     4  10  21  38  64  95 128 168 225 272 326 391
#
# _framework density 19.534389000000001
#
# number of rings (size 3 to 8) (size 9 to 14) (size 15 to 20)
#    0.000    1.143    5.714    0.857    0.000    3.429 
#    0.000    0.714    0.000    0.000    0.000    0.000 
#    0.000    0.000    0.000    0.000    0.000    0.000 
#
# Total GULP energy -155890.558936 kJ/mol
# GULP energy per Si atom -5567.519962 kJ/mol
# Density = 1.948993 g / cm^3
# Si number density = 19.534389 Si / 1000 Ang^3
#
#
#
# Elastic Constant Matrix: (Units=GPa)
#
#
# Indices 1 2 3 4 5 6 
#
# 1 119.2341 30.4922 32.1001 0.0000 0.0000 0.0000
# 2 30.4922 80.2066 29.0775 0.0000 0.0000 0.0000
# 3 32.1001 29.0775 73.7887 0.0000 0.0000 0.0000
# 4 0.0000 0.0000 0.0000 11.0676 0.0000 0.0000
# 5 0.0000 0.0000 0.0000 0.0000 25.3740 0.0000
# 6 0.0000 0.0000 0.0000 0.0000 0.0000 16.6137
#
#
#
# Elastic Compliance Matrix: (Units=1/GPa)
#
#
# Indices 1 2 3 4 5 6 
#
# 1 0.009937 -0.002579 -0.003306 0.000000 0.000000 0.000000
# 2 -0.002579 0.015215 -0.004874 0.000000 0.000000 0.000000
# 3 -0.003306 -0.004874 0.016911 0.000000 0.000000 0.000000
# 4 0.000000 0.000000 0.000000 0.090354 0.000000 0.000000
# 5 0.000000 0.000000 0.000000 0.000000 0.039410 0.000000
# 6 0.000000 0.000000 0.000000 0.000000 0.000000 0.060191
#
#
# Mechanical properties :
#
#
# Convention : Reuss Voigt Hill
#
# Bulk Modulus (GPa) = 48.67471 50.72989 49.70230
# Shear Modulus (GPa) = 19.20232 22.71503 20.95867
#
# Velocity S-wave (km/s) = 3.13869 3.41372 3.27909
# Velocity P-wave (km/s) = 6.17306 6.44700 6.31152
#
# Compressibility (1/GPa) = 0.02054455
#
# Stress axis : x y z
#
# Youngs Moduli (GPa) = 100.63879 65.72398 59.13243
#
# Poissons Ratio (x) = 0.16950 0.19552
# Poissons Ratio (y) = 0.25954 0.28820
# Poissons Ratio (z) = 0.33275 0.32033
#
# Static dielectric constant tensor:
#      x y z
#    x 1.750000 0.000000 0.000000 
#    y 0.000000 1.761040 0.000000 
#    z 0.000000 0.000000 1.669370 
# 
# From -- ./inp_files/4259.got.cif
#   From: 2010.05.17/outbox.cif.g08.bks.cpg/sg18_3_cif.got.tgz:4259.got - 2010.06.03 22:40:56.
