data_PCOD9312966
_publ_section_title
;
Structure prediction by ZEFSAII (Michael W. Deem and Ramdas Pophale) SiO2 
 PCOD9312966
Probable space group: P 21 21 2
;
_chemical_formula_sum "Si O2"
_cell_formula_units_Z 30
_cell_length_a 18.313089
_cell_length_b 5.654446
_cell_length_c 12.265283
_cell_angle_alpha 90.000000
_cell_angle_beta 90.000000
_cell_angle_gamma 90.000000
_cell_volume 1270.074628
_symmetry_space_group_name_H-M "P 21 21 2"
_symmetry_group_IT_number 18
_symmetry_cell_setting 'orthorhombic'
loop_
_space_group_symop_operation_xyz
x,y,z
-x,-y,z
1/2+x,1/2-y,-z
1/2-x,1/2+y,-z
loop_
_atom_site_type_symbol
_atom_site_label
_atom_site_fract_x
_atom_site_fract_y
_atom_site_fract_z
Si Si1 0.771707 0.115215 0.559442
Si Si2 0.000000 0.500000 0.540387
Si Si3 0.644810 0.352612 0.077219
Si Si4 0.833718 0.858266 0.277500
Si Si5 0.579739 0.095896 0.878338
Si Si6 0.192134 0.807838 0.074861
Si Si7 0.582068 0.614731 0.534976
Si Si8 0.536970 0.245521 0.246074
O O1 0.756172 0.358024 0.486520
O O2 0.727391 0.188788 0.668760
O O3 0.860279 0.089676 0.566625
O O4 0.062900 0.609004 0.468414
O O5 0.031664 0.307300 0.625261
O O6 0.590118 0.252418 0.986420
O O7 0.654721 0.622369 0.040381
O O8 0.724819 0.254778 0.055579
O O9 0.616069 0.277372 0.193891
O O10 0.905409 0.729774 0.233195
O O11 0.807059 0.992482 0.168949
O O12 0.865761 0.033181 0.368161
O O13 0.500000 0.000000 0.879699
O O14 0.643174 0.902175 0.881079
O O15 0.500000 0.500000 0.541961
O O16 0.500000 0.500000 0.221960
O O17 0.500000 0.000000 0.201092
#
# Coordination Sequence:
#
# PCOD9312966 Si02
#       8
#     4   2   4   4   4   4   4   4
#     4  10  25  48  73 105 146 199 260 313 392 462
#     4  10  26  46  72 112 148 200 258 320 398 454
#     4  11  24  45  72 104 153 194 251 319 384 465
#     4  10  27  45  72 108 145 209 255 321 387 475
#     4  11  26  45  73 109 152 196 255 318 389 469
#     4  11  25  45  70 110 144 200 254 316 396 460
#     4  11  26  47  74 107 158 200 266 330 391 459
#     4  10  25  46  73 112 146 197 254 307 388 460
#
# _framework density 23.620660000000001
#
# number of rings (size 3 to 8) (size 9 to 14) (size 15 to 20)
#    0.400    1.067    1.333    0.800   14.933    1.067 
#    4.800    0.000    0.000    0.000    0.000    0.000 
#    0.000    0.000    0.000    0.000    0.000    0.000 
#
# Total GULP energy -167276.603854 kJ/mol
# GULP energy per Si atom -5575.886795 kJ/mol
# Density = 2.356690 g / cm^3
# Si number density = 23.620660 Si / 1000 Ang^3
#
#
#
# Elastic Constant Matrix: (Units=GPa)
#
#
# Indices 1 2 3 4 5 6 
#
# 1 104.8373 20.9147 11.4380 0.0000 0.0000 0.0000
# 2 20.9147 88.2144 13.4151 0.0000 0.0000 0.0000
# 3 11.4380 13.4151 59.4374 0.0000 0.0000 0.0000
# 4 0.0000 0.0000 0.0000 30.7632 0.0000 0.0000
# 5 0.0000 0.0000 0.0000 0.0000 30.6519 0.0000
# 6 0.0000 0.0000 0.0000 0.0000 0.0000 41.2321
#
#
#
# Elastic Compliance Matrix: (Units=1/GPa)
#
#
# Indices 1 2 3 4 5 6 
#
# 1 0.010133 -0.002181 -0.001458 0.000000 0.000000 0.000000
# 2 -0.002181 0.012208 -0.002336 0.000000 0.000000 0.000000
# 3 -0.001458 -0.002336 0.017632 0.000000 0.000000 0.000000
# 4 0.000000 0.000000 0.000000 0.032506 0.000000 0.000000
# 5 0.000000 0.000000 0.000000 0.000000 0.032624 0.000000
# 6 0.000000 0.000000 0.000000 0.000000 0.000000 0.024253
#
#
# Mechanical properties :
#
#
# Convention : Reuss Voigt Hill
#
# Bulk Modulus (GPa) = 35.68279 38.22496 36.95387
# Shear Modulus (GPa) = 33.19024 34.31085 33.75055
#
# Velocity S-wave (km/s) = 3.75258 3.81541 3.78412
# Velocity P-wave (km/s) = 5.82368 5.96890 5.89673
#
# Compressibility (1/GPa) = 0.02802471
#
# Stress axis : x y z
#
# Youngs Moduli (GPa) = 98.69070 81.91185 56.71458
#
# Poissons Ratio (x) = 0.17862 0.08267
# Poissons Ratio (y) = 0.21521 0.13247
# Poissons Ratio (z) = 0.14386 0.19133
#
# Static dielectric constant tensor:
#      x y z
#    x 1.864670 0.000000 0.000000 
#    y 0.000000 2.004640 0.000000 
#    z 0.000000 0.000000 1.882440 
# 
# From -- ./inp_files/7011.got.cif
#   From: 2010.05.17/outbox.cif.g08.bks.cpg/sg18_4_cif.got.tgz:7011.got - 2010.06.03 22:40:56.
