data_PCOD9312418
_publ_section_title
;
Structure prediction by ZEFSAII (Michael W. Deem and Ramdas Pophale) SiO2 
 PCOD9312418
Probable space group: P 21 21 2
;
_chemical_formula_sum "Si O2"
_cell_formula_units_Z 24
_cell_length_a 9.217821
_cell_length_b 7.872896
_cell_length_c 15.028820
_cell_angle_alpha 90.000000
_cell_angle_beta 90.000000
_cell_angle_gamma 90.000000
_cell_volume 1090.655686
_symmetry_space_group_name_H-M "P 21 21 2"
_symmetry_group_IT_number 18
_symmetry_cell_setting 'orthorhombic'
loop_
_space_group_symop_operation_xyz
x,y,z
-x,-y,z
1/2+x,1/2-y,-z
1/2-x,1/2+y,-z
loop_
_atom_site_type_symbol
_atom_site_label
_atom_site_fract_x
_atom_site_fract_y
_atom_site_fract_z
Si Si1 0.896775 0.251620 0.257338
Si Si2 0.638209 0.593789 0.100531
Si Si3 0.613741 0.845236 0.940497
Si Si4 0.220935 0.381169 0.590093
Si Si5 0.707751 0.140572 0.723202
Si Si6 0.089630 0.753978 0.566615
O O1 0.896107 0.237228 0.150616
O O2 0.787568 0.133404 0.311397
O O3 0.841721 0.444310 0.274625
O O4 0.062415 0.249331 0.291898
O O5 0.500000 0.500000 0.141636
O O6 0.733729 0.443637 0.057592
O O7 0.729400 0.678724 0.179278
O O8 0.594998 0.727657 0.025609
O O9 0.500000 0.000000 0.935600
O O10 0.153741 0.563159 0.568558
O O11 0.350690 0.337124 0.523079
O O12 0.083665 0.254906 0.576147
O O13 0.830330 0.161099 0.649867
#
# Coordination Sequence:
#
# PCOD9312418 Si02
#       6
#     4   4   4   4   4   4
#     4  10  21  42  66  88 128 171 214 265 321 381
#     4  11  24  39  68  97 131 178 222 274 335 387
#     4  11  22  45  63  97 133 175 223 274 330 396
#     4  11  25  43  65  96 130 168 210 268 318 388
#     4  10  22  41  63  93 126 169 217 262 320 387
#     4  11  25  43  64  98 130 164 215 262 324 384
#
# _framework density 22.005110999999999
#
# number of rings (size 3 to 8) (size 9 to 14) (size 15 to 20)
#    0.000    1.333    3.333    3.000    4.667    8.000 
#    3.000    0.000    0.000    0.000    0.000    0.000 
#    0.000    0.000    0.000    0.000    0.000    0.000 
#
# Total GULP energy -134248.595402 kJ/mol
# GULP energy per Si atom -5593.691475 kJ/mol
# Density = 2.195503 g / cm^3
# Si number density = 22.005111 Si / 1000 Ang^3
#
#
#
# Elastic Constant Matrix: (Units=GPa)
#
#
# Indices 1 2 3 4 5 6 
#
# 1 92.2536 14.6139 17.4703 0.0000 0.0000 0.0000
# 2 14.6139 29.7096 22.5897 0.0000 0.0000 0.0000
# 3 17.4703 22.5897 98.7827 0.0000 0.0000 0.0000
# 4 0.0000 0.0000 0.0000 15.9281 0.0000 0.0000
# 5 0.0000 0.0000 0.0000 0.0000 54.7859 0.0000
# 6 0.0000 0.0000 0.0000 0.0000 0.0000 23.3564
#
#
#
# Elastic Compliance Matrix: (Units=1/GPa)
#
#
# Indices 1 2 3 4 5 6 
#
# 1 0.011825 -0.005116 -0.000921 0.000000 0.000000 0.000000
# 2 -0.005116 0.042957 -0.008919 0.000000 0.000000 0.000000
# 3 -0.000921 -0.008919 0.012326 0.000000 0.000000 0.000000
# 4 0.000000 0.000000 0.000000 0.062782 0.000000 0.000000
# 5 0.000000 0.000000 0.000000 0.000000 0.018253 0.000000
# 6 0.000000 0.000000 0.000000 0.000000 0.000000 0.042815
#
#
# Mechanical properties :
#
#
# Convention : Reuss Voigt Hill
#
# Bulk Modulus (GPa) = 26.88504 36.67709 31.78107
# Shear Modulus (GPa) = 21.43466 29.88555 25.66011
#
# Velocity S-wave (km/s) = 3.12441 3.68926 3.41852
# Velocity P-wave (km/s) = 5.02594 5.90350 5.48230
#
# Compressibility (1/GPa) = 0.03719541
#
# Stress axis : x y z
#
# Youngs Moduli (GPa) = 84.56965 23.27916 81.13127
#
# Poissons Ratio (x) = 0.11909 0.07475
# Poissons Ratio (y) = 0.43265 0.72358
# Poissons Ratio (z) = 0.07792 0.20762
#
# Static dielectric constant tensor:
#      x y z
#    x 1.853560 0.000000 0.000000 
#    y 0.000000 1.812930 0.000000 
#    z 0.000000 0.000000 1.774070 
# 
# From -- ./inp_files/6660.got.cif
#   From: 2010.05.17/outbox.cif.g08.bks.cpg/sg18_4_cif.got.tgz:6660.got - 2010.06.03 22:40:56.
