data_PCOD9312204
_publ_section_title
;
Structure prediction by ZEFSAII (Michael W. Deem and Ramdas Pophale) SiO2 
 PCOD9312204
Probable space group: P 21 21 2
;
_chemical_formula_sum "Si O2"
_cell_formula_units_Z 30
_cell_length_a 13.449518
_cell_length_b 16.498812
_cell_length_c 6.647894
_cell_angle_alpha 90.000000
_cell_angle_beta 90.000000
_cell_angle_gamma 90.000000
_cell_volume 1475.174785
_symmetry_space_group_name_H-M "P 21 21 2"
_symmetry_group_IT_number 18
_symmetry_cell_setting 'orthorhombic'
loop_
_space_group_symop_operation_xyz
x,y,z
-x,-y,z
1/2+x,1/2-y,-z
1/2-x,1/2+y,-z
loop_
_atom_site_type_symbol
_atom_site_label
_atom_site_fract_x
_atom_site_fract_y
_atom_site_fract_z
Si Si1 0.745801 0.758525 0.714692
Si Si2 0.411643 0.702698 0.971290
Si Si3 0.662658 0.025677 0.435507
Si Si4 0.500000 0.000000 0.110353
Si Si5 0.814038 0.969494 0.112075
Si Si6 0.867793 0.142486 0.015419
Si Si7 0.638013 0.919832 0.817709
Si Si8 0.293794 0.812908 0.683423
O O1 0.696128 0.676587 0.797261
O O2 0.671465 0.828756 0.783107
O O3 0.759125 0.753682 0.477868
O O4 0.850015 0.775969 0.826558
O O5 0.368454 0.616780 0.889362
O O6 0.527818 0.688186 0.001984
O O7 0.380717 0.773337 0.816475
O O8 0.584097 0.034832 0.255928
O O9 0.760528 0.990229 0.323961
O O10 0.625457 0.962369 0.603254
O O11 0.675470 0.109205 0.554422
O O12 0.544764 0.932325 0.962896
O O13 0.879901 0.046559 0.048548
O O14 0.728276 0.962294 0.940864
O O15 0.797126 0.162151 0.826837
#
# Coordination Sequence:
#
# PCOD9312204 Si02
#       8
#     4   4   4   2   4   4   4   4
#     4  10  23  42  61  91 131 163 205 257 317 377
#     4  10  24  40  66  95 126 166 215 260 315 382
#     4  11  21  39  67  89 132 167 212 260 318 376
#     4  10  24  36  62  98 118 172 216 256 314 376
#     4  10  20  41  65  90 125 169 209 263 317 375
#     4  11  22  41  66  93 125 170 208 262 320 376
#     4  10  21  40  61  90 127 164 211 262 310 375
#     4  11  23  42  65  94 130 167 209 264 319 376
#
# _framework density 20.336572
#
# number of rings (size 3 to 8) (size 9 to 14) (size 15 to 20)
#    0.000    1.600    2.667    1.600    0.000    5.333 
#    0.000    0.000    0.000    0.000    0.000    0.000 
#    0.000    0.000    0.000    0.000    0.000    0.000 
#
# Total GULP energy -167617.769767 kJ/mol
# GULP energy per Si atom -5587.258992 kJ/mol
# Density = 2.029028 g / cm^3
# Si number density = 20.336572 Si / 1000 Ang^3
#
#
#
# Elastic Constant Matrix: (Units=GPa)
#
#
# Indices 1 2 3 4 5 6 
#
# 1 70.6189 23.7024 18.7613 0.0000 0.0000 0.0000
# 2 23.7024 73.5541 25.7332 0.0000 0.0000 0.0000
# 3 18.7613 25.7332 102.0182 0.0000 0.0000 0.0000
# 4 0.0000 0.0000 0.0000 29.5273 0.0000 0.0000
# 5 0.0000 0.0000 0.0000 0.0000 17.4736 0.0000
# 6 0.0000 0.0000 0.0000 0.0000 0.0000 20.7665
#
#
#
# Elastic Compliance Matrix: (Units=1/GPa)
#
#
# Indices 1 2 3 4 5 6 
#
# 1 0.016181 -0.004577 -0.001821 0.000000 0.000000 0.000000
# 2 -0.004577 0.016206 -0.003246 0.000000 0.000000 0.000000
# 3 -0.001821 -0.003246 0.010956 0.000000 0.000000 0.000000
# 4 0.000000 0.000000 0.000000 0.033867 0.000000 0.000000
# 5 0.000000 0.000000 0.000000 0.000000 0.057229 0.000000
# 6 0.000000 0.000000 0.000000 0.000000 0.000000 0.048155
#
#
# Mechanical properties :
#
#
# Convention : Reuss Voigt Hill
#
# Bulk Modulus (GPa) = 41.57308 42.50944 42.04126
# Shear Modulus (GPa) = 23.82092 25.41976 24.62034
#
# Velocity S-wave (km/s) = 3.42619 3.53930 3.48321
# Velocity P-wave (km/s) = 6.01154 6.13600 6.07409
#
# Compressibility (1/GPa) = 0.02405403
#
# Stress axis : x y z
#
# Youngs Moduli (GPa) = 61.80264 61.70559 91.27513
#
# Poissons Ratio (x) = 0.28242 0.16622
# Poissons Ratio (y) = 0.28287 0.29629
# Poissons Ratio (z) = 0.11255 0.20030
#
# Static dielectric constant tensor:
#      x y z
#    x 1.719540 0.000000 0.000000 
#    y 0.000000 1.744520 0.000000 
#    z 0.000000 0.000000 1.695990 
# 
# From -- ./inp_files/1615.got.cif
#   From: 2010.05.17/outbox.cif.g08.bks.cpg/sg18_1_cif.got.tgz:1615.got - 2010.06.03 22:40:56.
