data_PCOD9312852
_publ_section_title
;
Structure prediction by ZEFSAII (Michael W. Deem and Ramdas Pophale) SiO2 
 PCOD9312852
Probable space group: P 21 21 2
;
_chemical_formula_sum "Si O2"
_cell_formula_units_Z 20
_cell_length_a 16.821321
_cell_length_b 8.445120
_cell_length_c 5.417526
_cell_angle_alpha 90.000000
_cell_angle_beta 90.000000
_cell_angle_gamma 90.000000
_cell_volume 769.603312
_symmetry_space_group_name_H-M "P 21 21 2"
_symmetry_group_IT_number 18
_symmetry_cell_setting 'orthorhombic'
loop_
_space_group_symop_operation_xyz
x,y,z
-x,-y,z
1/2+x,1/2-y,-z
1/2-x,1/2+y,-z
loop_
_atom_site_type_symbol
_atom_site_label
_atom_site_fract_x
_atom_site_fract_y
_atom_site_fract_z
Si Si1 0.111770 0.721689 0.200658
Si Si2 0.207268 0.506340 0.498502
Si Si3 0.500000 0.500000 0.634918
Si Si4 0.230865 0.123649 0.997049
Si Si5 0.000000 0.500000 0.902661
Si Si6 0.101345 0.235350 0.682176
O O1 0.142805 0.648387 0.460400
O O2 0.051879 0.868430 0.218539
O O3 0.193620 0.740913 0.048151
O O4 0.067972 0.574316 0.072061
O O5 0.255757 0.513616 0.245682
O O6 0.166358 0.337046 0.532091
O O7 0.257419 0.545138 0.740135
O O8 0.563151 0.408211 0.463354
O O9 0.144779 0.194401 0.940139
O O10 0.967153 0.640549 0.738731
#
# Coordination Sequence:
#
# PCOD9312852 Si02
#       6
#     4   4   2   4   2   4
#     4  10  25  47  75 111 158 204 265 315 405 464
#     4  10  23  50  77 104 151 212 260 310 403 470
#     4  12  28  42  72 128 158 198 262 352 386 468
#     4  10  26  46  81 106 147 207 273 315 375 483
#     4  12  24  54  78 112 158 234 244 328 414 504
#     4  12  26  48  80 113 163 204 272 324 406 474
#
# _framework density 25.987413
#
# number of rings (size 3 to 8) (size 9 to 14) (size 15 to 20)
#    1.200    0.000    2.000    2.400    2.800    7.200 
#    0.000    0.000    0.000    0.000    0.000    0.000 
#    0.000    0.000    0.000    0.000    0.000    0.000 
#
# Total GULP energy -112039.113276 kJ/mol
# GULP energy per Si atom -5601.955664 kJ/mol
# Density = 2.592826 g / cm^3
# Si number density = 25.987413 Si / 1000 Ang^3
#
#
#
# Elastic Constant Matrix: (Units=GPa)
#
#
# Indices 1 2 3 4 5 6 
#
# 1 93.0996 33.2125 19.7502 0.0000 0.0000 0.0000
# 2 33.2125 110.4013 44.8826 0.0000 0.0000 0.0000
# 3 19.7502 44.8826 118.7319 0.0000 0.0000 0.0000
# 4 0.0000 0.0000 0.0000 35.6310 0.0000 0.0000
# 5 0.0000 0.0000 0.0000 0.0000 -0.6783 0.0000
# 6 0.0000 0.0000 0.0000 0.0000 0.0000 68.8258
#
#
#
# Elastic Compliance Matrix: (Units=1/GPa)
#
#
# Indices 1 2 3 4 5 6 
#
# 1 0.012089 -0.003331 -0.000752 0.000000 0.000000 0.000000
# 2 -0.003331 0.011621 -0.003839 0.000000 0.000000 0.000000
# 3 -0.000752 -0.003839 0.009998 0.000000 0.000000 0.000000
# 4 0.000000 0.000000 0.000000 0.028065 0.000000 0.000000
# 5 0.000000 0.000000 0.000000 0.000000 -1.474250 0.000000
# 6 0.000000 0.000000 0.000000 0.000000 0.000000 0.014529
#
#
# Mechanical properties :
#
#
# Convention : Reuss Voigt Hill
#
# Bulk Modulus (GPa) = 55.97537 57.54702 56.76119
# Shear Modulus (GPa) = -3.63333 35.71486 16.04077
#
# Velocity S-wave (km/s) = -1.18370 3.71120 2.48715
# Velocity P-wave (km/s) = 4.44049 6.36838 5.48973
#
# Compressibility (1/GPa) = 0.01786500
#
# Stress axis : x y z
#
# Youngs Moduli (GPa) = 82.71961 86.05426 100.01559
#
# Poissons Ratio (x) = 0.28667 0.07518
# Poissons Ratio (y) = 0.27556 0.38392
# Poissons Ratio (z) = 0.06218 0.33033
#
# Static dielectric constant tensor:
#      x y z
#    x 2.135500 0.000000 0.000000 
#    y 0.000000 2.222800 0.000000 
#    z 0.000000 0.000000 1.992180 
# 
# From -- ./inp_files/1762.got.cif
#   From: 2010.05.17/outbox.cif.g08.bks.cpg/sg18_1_cif.got.tgz:1762.got - 2010.06.03 22:40:56.
