data_PCOD9312883
_publ_section_title
;
Structure prediction by ZEFSAII (Michael W. Deem and Ramdas Pophale) SiO2 
 PCOD9312883
Probable space group: P 21 21 2
;
_chemical_formula_sum "Si O2"
_cell_formula_units_Z 20
_cell_length_a 8.104828
_cell_length_b 11.548143
_cell_length_c 9.067904
_cell_angle_alpha 90.000000
_cell_angle_beta 90.000000
_cell_angle_gamma 90.000000
_cell_volume 848.716938
_symmetry_space_group_name_H-M "P 21 21 2"
_symmetry_group_IT_number 18
_symmetry_cell_setting 'orthorhombic'
loop_
_space_group_symop_operation_xyz
x,y,z
-x,-y,z
1/2+x,1/2-y,-z
1/2-x,1/2+y,-z
loop_
_atom_site_type_symbol
_atom_site_label
_atom_site_fract_x
_atom_site_fract_y
_atom_site_fract_z
Si Si1 0.606303 0.119376 0.431615
Si Si2 0.007507 0.362778 0.895131
Si Si3 0.802100 0.140280 0.921613
Si Si4 0.500270 0.343974 0.569799
Si Si5 0.000000 0.000000 0.168137
Si Si6 0.500000 0.500000 0.317616
O O1 0.579019 0.168356 0.265729
O O2 0.534527 0.209594 0.550529
O O3 0.805750 0.122924 0.443233
O O4 0.500000 0.000000 0.443568
O O5 0.112083 0.348559 0.043648
O O6 0.000000 0.500000 0.883690
O O7 0.862277 0.272000 0.914241
O O8 0.875597 0.068855 0.062366
O O9 0.868882 0.066689 0.784554
O O10 0.568849 0.403530 0.717946
O O11 0.579790 0.406318 0.427472
#
# Coordination Sequence:
#
# PCOD9312883 Si02
#       6
#     4   4   4   4   2   2
#     4  11  26  44  70 105 140 182 234 284 353 416
#     4  11  26  44  70 105 140 182 234 284 353 416
#     4  11  24  45  71 100 142 184 232 290 345 412
#     4  11  24  45  71 100 142 184 232 290 345 412
#     4  10  24  42  72  94 138 192 228 276 358 398
#     4  10  24  42  72  98 138 188 232 284 346 406
#
# _framework density 23.564982000000001
#
# number of rings (size 3 to 8) (size 9 to 14) (size 15 to 20)
#    0.000    1.200    4.000    0.000   11.200    1.600 
#    0.000    2.000    0.000    0.000    0.000    0.000 
#    0.000    0.000    0.000    0.000    0.000    0.000 
#
# Total GULP energy -111614.364136 kJ/mol
# GULP energy per Si atom -5580.718207 kJ/mol
# Density = 2.351135 g / cm^3
# Si number density = 23.564982 Si / 1000 Ang^3
#
#
#
# Elastic Constant Matrix: (Units=GPa)
#
#
# Indices 1 2 3 4 5 6 
#
# 1 42.6341 21.1977 -4.3594 0.0000 0.0000 0.0000
# 2 21.1977 121.7000 22.2336 0.0000 0.0000 0.0000
# 3 -4.3594 22.2336 110.4643 0.0000 0.0000 0.0000
# 4 0.0000 0.0000 0.0000 8.9821 0.0000 0.0000
# 5 0.0000 0.0000 0.0000 0.0000 -7.3507 0.0000
# 6 0.0000 0.0000 0.0000 0.0000 0.0000 21.4824
#
#
#
# Elastic Compliance Matrix: (Units=1/GPa)
#
#
# Indices 1 2 3 4 5 6 
#
# 1 0.026106 -0.004916 0.002020 0.000000 0.000000 0.000000
# 2 -0.004916 0.009456 -0.002097 0.000000 0.000000 0.000000
# 3 0.002020 -0.002097 0.009555 0.000000 0.000000 0.000000
# 4 0.000000 0.000000 0.000000 0.111333 0.000000 0.000000
# 5 0.000000 0.000000 0.000000 0.000000 -0.136042 0.000000
# 6 0.000000 0.000000 0.000000 0.000000 0.000000 0.046550
#
#
# Mechanical properties :
#
#
# Convention : Reuss Voigt Hill
#
# Bulk Modulus (GPa) = 28.46595 39.21580 33.84088
# Shear Modulus (GPa) = 56.39796 20.33785 38.36790
#
# Velocity S-wave (km/s) = 4.89744 2.94096 4.03944
# Velocity P-wave (km/s) = 6.63972 5.31131 6.01232
#
# Compressibility (1/GPa) = 0.03512969
#
# Stress axis : x y z
#
# Youngs Moduli (GPa) = 38.30496 105.74853 104.66226
#
# Poissons Ratio (x) = 0.51988 -0.21139
# Poissons Ratio (y) = 0.18831 0.21951
# Poissons Ratio (z) = -0.07737 0.22179
#
# Static dielectric constant tensor:
#      x y z
#    x 1.956050 0.000000 0.000000 
#    y 0.000000 2.257280 0.000000 
#    z 0.000000 0.000000 1.944350 
# 
# From -- ./inp_files/2994.got.cif
#   From: 2010.05.17/outbox.cif.g08.bks.cpg/sg18_2_cif.got.tgz:2994.got - 2010.06.03 22:40:56.
