data_PCOD9312190
_publ_section_title
;
Structure prediction by ZEFSAII (Michael W. Deem and Ramdas Pophale) SiO2 
 PCOD9312190
Probable space group: P 21 21 2
;
_chemical_formula_sum "Si O2"
_cell_formula_units_Z 18
_cell_length_a 9.569305
_cell_length_b 13.912824
_cell_length_c 5.006186
_cell_angle_alpha 90.000000
_cell_angle_beta 90.000000
_cell_angle_gamma 90.000000
_cell_volume 666.503861
_symmetry_space_group_name_H-M "P 21 21 2"
_symmetry_group_IT_number 18
_symmetry_cell_setting 'orthorhombic'
loop_
_space_group_symop_operation_xyz
x,y,z
-x,-y,z
1/2+x,1/2-y,-z
1/2-x,1/2+y,-z
loop_
_atom_site_type_symbol
_atom_site_label
_atom_site_fract_x
_atom_site_fract_y
_atom_site_fract_z
Si Si1 0.500000 0.500000 0.399845
Si Si2 0.753813 0.919936 0.311811
Si Si3 0.970588 0.201515 0.807883
Si Si4 0.171041 0.285996 0.394005
Si Si5 0.423652 0.126961 0.836038
O O1 0.365839 0.502429 0.595639
O O2 0.517393 0.408268 0.207191
O O3 0.838836 0.820333 0.255318
O O4 0.662012 0.895726 0.572101
O O5 0.645914 0.934992 0.071565
O O6 0.834344 0.196183 0.615423
O O7 0.090766 0.266816 0.671094
O O8 0.912865 0.263026 0.054792
O O9 0.086323 0.370988 0.247680
#
# Coordination Sequence:
#
# PCOD9312190 Si02
#       5
#     2   4   4   4   4
#     4  10  24  48  66 110 144 184 232 312 360 414
#     4  10  24  40  69 101 141 181 233 288 346 417
#     4  10  23  40  74  99 142 181 245 286 359 413
#     4  10  20  40  69 100 130 185 235 283 333 433
#     4  11  21  41  68 100 135 185 237 281 339 436
#
# _framework density 27.006598
#
# number of rings (size 3 to 8) (size 9 to 14) (size 15 to 20)
#    0.000    1.778    4.444    0.000   12.444    0.889 
#    4.000    1.111    4.889    0.000    0.000    0.000 
#    0.000    0.000    0.000    0.000    0.000    0.000 
#
# Total GULP energy -100593.730349 kJ/mol
# GULP energy per Si atom -5588.540575 kJ/mol
# Density = 2.694513 g / cm^3
# Si number density = 27.006598 Si / 1000 Ang^3
#
#
#
# Elastic Constant Matrix: (Units=GPa)
#
#
# Indices 1 2 3 4 5 6 
#
# 1 81.9883 -9.1416 21.3346 0.0000 0.0000 0.0000
# 2 -9.1416 81.5347 19.6887 0.0000 0.0000 0.0000
# 3 21.3346 19.6887 143.8124 0.0000 0.0000 0.0000
# 4 0.0000 0.0000 0.0000 32.5339 0.0000 0.0000
# 5 0.0000 0.0000 0.0000 0.0000 31.5008 0.0000
# 6 0.0000 0.0000 0.0000 0.0000 0.0000 44.1116
#
#
#
# Elastic Compliance Matrix: (Units=1/GPa)
#
#
# Indices 1 2 3 4 5 6 
#
# 1 0.012991 0.001988 -0.002199 0.000000 0.000000 0.000000
# 2 0.001988 0.012988 -0.002073 0.000000 0.000000 0.000000
# 3 -0.002199 -0.002073 0.007564 0.000000 0.000000 0.000000
# 4 0.000000 0.000000 0.000000 0.030737 0.000000 0.000000
# 5 0.000000 0.000000 0.000000 0.000000 0.031745 0.000000
# 6 0.000000 0.000000 0.000000 0.000000 0.000000 0.022670
#
#
# Mechanical properties :
#
#
# Convention : Reuss Voigt Hill
#
# Bulk Modulus (GPa) = 34.51482 41.23320 37.87401
# Shear Modulus (GPa) = 37.61612 39.99285 38.80448
#
# Velocity S-wave (km/s) = 3.73614 3.85236 3.79470
# Velocity P-wave (km/s) = 5.60531 5.92356 5.76663
#
# Compressibility (1/GPa) = 0.02897306
#
# Stress axis : x y z
#
# Youngs Moduli (GPa) = 76.97777 76.99329 132.21265
#
# Poissons Ratio (x) = -0.15303 0.29077
# Poissons Ratio (y) = -0.15300 0.27408
# Poissons Ratio (z) = 0.16930 0.15961
#
# Static dielectric constant tensor:
#      x y z
#    x 2.164310 0.000000 0.000000 
#    y 0.000000 2.157230 0.000000 
#    z 0.000000 0.000000 2.167900 
# 
# From -- ./inp_files/455.got.cif
#   From: 2010.05.17/outbox.cif.g08.bks.cpg/sg18_1_cif.got.tgz:455.got - 2010.06.03 22:40:56.
