data_PCOD9312605
_publ_section_title
;
Structure prediction by ZEFSAII (Michael W. Deem and Ramdas Pophale) SiO2 
 PCOD9312605
Probable space group: P 21 21 2
;
_chemical_formula_sum "Si O2"
_cell_formula_units_Z 24
_cell_length_a 8.715476
_cell_length_b 10.934787
_cell_length_c 11.543623
_cell_angle_alpha 90.000000
_cell_angle_beta 90.000000
_cell_angle_gamma 90.000000
_cell_volume 1100.128901
_symmetry_space_group_name_H-M "P 21 21 2"
_symmetry_group_IT_number 18
_symmetry_cell_setting 'orthorhombic'
loop_
_space_group_symop_operation_xyz
x,y,z
-x,-y,z
1/2+x,1/2-y,-z
1/2-x,1/2+y,-z
loop_
_atom_site_type_symbol
_atom_site_label
_atom_site_fract_x
_atom_site_fract_y
_atom_site_fract_z
Si Si1 0.896424 0.616060 0.387979
Si Si2 0.341870 0.123808 0.286776
Si Si3 0.839013 0.703778 0.136097
Si Si4 0.338235 0.263407 0.520814
Si Si5 0.588265 0.631694 0.957257
Si Si6 0.178311 0.338276 0.744392
O O1 0.884221 0.624748 0.248939
O O2 0.732354 0.618088 0.453689
O O3 0.000000 0.500000 0.417666
O O4 0.989523 0.735474 0.435579
O O5 0.215357 0.171771 0.198746
O O6 0.319081 0.169136 0.416399
O O7 0.498440 0.186650 0.238873
O O8 0.335288 0.979619 0.291737
O O9 0.970372 0.753419 0.050073
O O10 0.702212 0.639720 0.066625
O O11 0.242766 0.257364 0.639600
O O12 0.500000 0.500000 0.953755
O O13 0.702099 0.657949 0.848875
#
# Coordination Sequence:
#
# PCOD9312605 Si02
#       6
#     4   4   4   4   4   4
#     4  11  24  45  66 103 140 180 225 279 348 408
#     4  10  22  41  67 100 135 179 228 280 348 404
#     4  11  25  45  68  95 142 175 235 287 342 402
#     4  11  21  39  69  99 138 178 214 282 333 418
#     4  12  25  46  71 101 134 184 237 285 343 415
#     4  11  21  41  70  97 135 182 227 280 343 413
#
# _framework density 21.815624
#
# number of rings (size 3 to 8) (size 9 to 14) (size 15 to 20)
#    0.000    1.000    5.000    2.000    0.000    1.333 
#    6.000    2.500    0.000    0.000    0.000    0.000 
#    0.000    0.000    0.000    0.000    0.000    0.000 
#
# Total GULP energy -133670.960197 kJ/mol
# GULP energy per Si atom -5569.623342 kJ/mol
# Density = 2.176597 g / cm^3
# Si number density = 21.815624 Si / 1000 Ang^3
#
#
#
# Elastic Constant Matrix: (Units=GPa)
#
#
# Indices 1 2 3 4 5 6 
#
# 1 102.1752 34.7976 49.7860 0.0000 0.0000 0.0000
# 2 34.7976 32.5025 28.5588 0.0000 0.0000 0.0000
# 3 49.7860 28.5588 125.9374 0.0000 0.0000 0.0000
# 4 0.0000 0.0000 0.0000 22.8897 0.0000 0.0000
# 5 0.0000 0.0000 0.0000 0.0000 53.1080 0.0000
# 6 0.0000 0.0000 0.0000 0.0000 0.0000 29.4281
#
#
#
# Elastic Compliance Matrix: (Units=1/GPa)
#
#
# Indices 1 2 3 4 5 6 
#
# 1 0.016324 -0.014744 -0.003110 0.000000 0.000000 0.000000
# 2 -0.014744 0.051740 -0.005904 0.000000 0.000000 0.000000
# 3 -0.003110 -0.005904 0.010509 0.000000 0.000000 0.000000
# 4 0.000000 0.000000 0.000000 0.043688 0.000000 0.000000
# 5 0.000000 0.000000 0.000000 0.000000 0.018830 0.000000
# 6 0.000000 0.000000 0.000000 0.000000 0.000000 0.033981
#
#
# Mechanical properties :
#
#
# Convention : Reuss Voigt Hill
#
# Bulk Modulus (GPa) = 32.19962 54.10000 43.14981
# Shear Modulus (GPa) = 21.46486 30.91668 26.19077
#
# Velocity S-wave (km/s) = 3.14015 3.76863 3.46866
# Velocity P-wave (km/s) = 5.28577 6.61735 5.98869
#
# Compressibility (1/GPa) = 0.03105627
#
# Stress axis : x y z
#
# Youngs Moduli (GPa) = 61.26081 19.32742 95.15925
#
# Poissons Ratio (x) = 0.28496 0.29591
# Poissons Ratio (y) = 0.90323 0.56186
# Poissons Ratio (z) = 0.19050 0.11412
#
# Static dielectric constant tensor:
#      x y z
#    x 1.928750 0.000000 0.000000 
#    y 0.000000 1.804310 0.000000 
#    z 0.000000 0.000000 1.780480 
# 
# From -- ./inp_files/5515.got.cif
#   From: 2010.05.17/outbox.cif.g08.bks.cpg/sg18_3_cif.got.tgz:5515.got - 2010.06.03 22:40:56.
