data_PCOD9312457
_publ_section_title
;
Structure prediction by ZEFSAII (Michael W. Deem and Ramdas Pophale) SiO2 
 PCOD9312457
Probable space group: P 21 21 2
;
_chemical_formula_sum "Si O2"
_cell_formula_units_Z 30
_cell_length_a 10.576147
_cell_length_b 15.486152
_cell_length_c 8.456267
_cell_angle_alpha 90.000000
_cell_angle_beta 90.000000
_cell_angle_gamma 90.000000
_cell_volume 1384.999712
_symmetry_space_group_name_H-M "P 21 21 2"
_symmetry_group_IT_number 18
_symmetry_cell_setting 'orthorhombic'
loop_
_space_group_symop_operation_xyz
x,y,z
-x,-y,z
1/2+x,1/2-y,-z
1/2-x,1/2+y,-z
loop_
_atom_site_type_symbol
_atom_site_label
_atom_site_fract_x
_atom_site_fract_y
_atom_site_fract_z
Si Si1 0.462002 0.146503 0.112714
Si Si2 0.723335 0.771865 0.658664
Si Si3 0.826738 0.856580 0.160026
Si Si4 0.621101 0.107365 0.432045
Si Si5 0.500000 0.500000 0.323856
Si Si6 0.965936 0.837488 0.857130
Si Si7 0.226219 0.063138 0.464726
Si Si8 0.954181 0.679855 0.224974
O O1 0.316396 0.119534 0.112708
O O2 0.532131 0.117720 0.275121
O O3 0.457525 0.250518 0.121500
O O4 0.530088 0.128433 0.942617
O O5 0.767910 0.678835 0.596592
O O6 0.836915 0.805627 0.770579
O O7 0.716728 0.845718 0.523800
O O8 0.589619 0.773111 0.746181
O O9 0.853800 0.912540 0.312146
O O10 0.850519 0.755159 0.198998
O O11 0.921407 0.876370 0.020930
O O12 0.570515 0.129519 0.609818
O O13 0.671389 0.010173 0.435127
O O14 0.535251 0.587157 0.232897
O O15 0.625764 0.473838 0.414104
#
# Coordination Sequence:
#
# PCOD9312457 Si02
#       8
#     4   4   4   4   2   4   4   4
#     4  10  23  44  70  98 134 171 233 274 341 410
#     4  10  21  44  65  95 136 171 225 272 331 403
#     4  11  22  42  66  99 133 175 224 286 336 397
#     4  11  25  42  70 100 135 181 222 280 338 403
#     4  10  24  42  62  92 138 172 224 282 330 404
#     4   9  21  42  65  93 129 178 214 283 332 393
#     4  11  25  42  67 102 136 177 230 276 344 399
#     4  11  23  42  72  96 133 188 218 275 346 403
#
# _framework density 21.660654000000001
#
# number of rings (size 3 to 8) (size 9 to 14) (size 15 to 20)
#    0.000    1.600    2.667    0.800    3.733    2.667 
#    7.200    1.333    0.000    0.000    0.000    0.000 
#    0.000    0.000    0.000    0.000    0.000    0.000 
#
# Total GULP energy -167433.311793 kJ/mol
# GULP energy per Si atom -5581.110393 kJ/mol
# Density = 2.161135 g / cm^3
# Si number density = 21.660654 Si / 1000 Ang^3
#
#
#
# Elastic Constant Matrix: (Units=GPa)
#
#
# Indices 1 2 3 4 5 6 
#
# 1 44.5170 13.4631 13.2947 0.0000 0.0000 0.0000
# 2 13.4631 58.5332 29.2241 0.0000 0.0000 0.0000
# 3 13.2947 29.2241 123.9368 0.0000 0.0000 0.0000
# 4 0.0000 0.0000 0.0000 7.7400 0.0000 0.0000
# 5 0.0000 0.0000 0.0000 0.0000 18.3536 0.0000
# 6 0.0000 0.0000 0.0000 0.0000 0.0000 28.2576
#
#
#
# Elastic Compliance Matrix: (Units=1/GPa)
#
#
# Indices 1 2 3 4 5 6 
#
# 1 0.024375 -0.004875 -0.001465 0.000000 0.000000 0.000000
# 2 -0.004875 0.020339 -0.004273 0.000000 0.000000 0.000000
# 3 -0.001465 -0.004273 0.009233 0.000000 0.000000 0.000000
# 4 0.000000 0.000000 0.000000 0.129199 0.000000 0.000000
# 5 0.000000 0.000000 0.000000 0.000000 0.054485 0.000000
# 6 0.000000 0.000000 0.000000 0.000000 0.000000 0.035389
#
#
# Mechanical properties :
#
#
# Convention : Reuss Voigt Hill
#
# Bulk Modulus (GPa) = 30.56116 37.66120 34.11118
# Shear Modulus (GPa) = 16.38519 22.27058 19.32789
#
# Velocity S-wave (km/s) = 2.75335 3.20997 2.99039
# Velocity P-wave (km/s) = 4.92418 5.58240 5.26359
#
# Compressibility (1/GPa) = 0.03272127
#
# Stress axis : x y z
#
# Youngs Moduli (GPa) = 41.02531 49.16666 108.30300
#
# Poissons Ratio (x) = 0.23969 0.15869
# Poissons Ratio (y) = 0.20000 0.46277
# Poissons Ratio (z) = 0.06011 0.21009
#
# Static dielectric constant tensor:
#      x y z
#    x 1.793970 0.000000 0.000000 
#    y 0.000000 1.757500 0.000000 
#    z 0.000000 0.000000 1.854800 
# 
# From -- ./inp_files/3899.got.cif
#   From: 2010.05.17/outbox.cif.g08.bks.cpg/sg18_2_cif.got.tgz:3899.got - 2010.06.03 22:40:56.
