data_PCOD9312386
_publ_section_title
;
Structure prediction by ZEFSAII (Michael W. Deem and Ramdas Pophale) SiO2 
 PCOD9312386
Probable space group: P 21 21 2
;
_chemical_formula_sum "Si O2"
_cell_formula_units_Z 26
_cell_length_a 8.594439
_cell_length_b 11.032577
_cell_length_c 11.080947
_cell_angle_alpha 90.000000
_cell_angle_beta 90.000000
_cell_angle_gamma 90.000000
_cell_volume 1050.682209
_symmetry_space_group_name_H-M "P 21 21 2"
_symmetry_group_IT_number 18
_symmetry_cell_setting 'orthorhombic'
loop_
_space_group_symop_operation_xyz
x,y,z
-x,-y,z
1/2+x,1/2-y,-z
1/2-x,1/2+y,-z
loop_
_atom_site_type_symbol
_atom_site_label
_atom_site_fract_x
_atom_site_fract_y
_atom_site_fract_z
Si Si1 0.000000 0.000000 0.460019
Si Si2 0.769389 0.680571 0.324188
Si Si3 0.313080 0.200599 0.935174
Si Si4 0.567119 0.687205 0.725980
Si Si5 0.492434 0.228297 0.174460
Si Si6 0.221823 0.652116 0.468325
Si Si7 0.000000 0.500000 0.213579
Si Si8 0.000000 0.500000 0.651653
O O1 0.883559 0.919407 0.537815
O O2 0.096772 0.921947 0.363161
O O3 0.602120 0.684435 0.264000
O O4 0.756737 0.721935 0.461129
O O5 0.883067 0.786373 0.273049
O O6 0.866275 0.562027 0.294019
O O7 0.375834 0.318844 0.861912
O O8 0.133192 0.207300 0.896952
O O9 0.412395 0.093437 0.874362
O O10 0.363188 0.197691 0.072987
O O11 0.645436 0.801644 0.655007
O O12 0.544397 0.111110 0.255113
O O13 0.113801 0.572377 0.558239
#
# Coordination Sequence:
#
# PCOD9312386 Si02
#       8
#     2   4   4   4   4   4   2   2
#     4  10  22  40  64  92 132 176 216 264 330 398
#     4   9  22  41  60  88 126 169 220 271 324 395
#     4  11  23  40  66  96 132 173 221 279 333 395
#     4  10  22  40  61  94 133 172 221 276 329 392
#     4  11  23  43  68  96 131 174 227 278 335 407
#     4  10  22  40  66  97 130 172 221 271 324 397
#     4  10  21  41  62  90 132 171 211 274 336 384
#     4  10  23  45  70  94 128 175 219 270 340 400
#
# _framework density 24.745826999999998
#
# number of rings (size 3 to 8) (size 9 to 14) (size 15 to 20)
#    0.000    1.846    0.000    3.231    0.000   12.923 
#    0.000    3.077    0.000    0.000    0.000    0.000 
#    0.000    0.000    0.000    0.000    0.000    0.000 
#
# Total GULP energy -145220.684437 kJ/mol
# GULP energy per Si atom -5585.410940 kJ/mol
# Density = 2.468950 g / cm^3
# Si number density = 24.745827 Si / 1000 Ang^3
#
#
#
# Elastic Constant Matrix: (Units=GPa)
#
#
# Indices 1 2 3 4 5 6 
#
# 1 88.6801 29.7583 55.7971 0.0000 0.0000 0.0000
# 2 29.7583 105.4567 35.2103 0.0000 0.0000 0.0000
# 3 55.7971 35.2103 119.1564 0.0000 0.0000 0.0000
# 4 0.0000 0.0000 0.0000 18.6072 0.0000 0.0000
# 5 0.0000 0.0000 0.0000 0.0000 43.0506 0.0000
# 6 0.0000 0.0000 0.0000 0.0000 0.0000 32.8206
#
#
#
# Elastic Compliance Matrix: (Units=1/GPa)
#
#
# Indices 1 2 3 4 5 6 
#
# 1 0.016475 -0.002300 -0.007035 0.000000 0.000000 0.000000
# 2 -0.002300 0.010842 -0.002127 0.000000 0.000000 0.000000
# 3 -0.007035 -0.002127 0.012315 0.000000 0.000000 0.000000
# 4 0.000000 0.000000 0.000000 0.053743 0.000000 0.000000
# 5 0.000000 0.000000 0.000000 0.000000 0.023228 0.000000
# 6 0.000000 0.000000 0.000000 0.000000 0.000000 0.030469
#
#
# Mechanical properties :
#
#
# Convention : Reuss Voigt Hill
#
# Bulk Modulus (GPa) = 59.85119 61.64716 60.74918
# Shear Modulus (GPa) = 28.47973 31.73085 30.10529
#
# Velocity S-wave (km/s) = 3.39616 3.58477 3.49174
# Velocity P-wave (km/s) = 6.29424 6.48847 6.39209
#
# Compressibility (1/GPa) = 0.01670811
#
# Stress axis : x y z
#
# Youngs Moduli (GPa) = 60.69932 92.23691 81.20203
#
# Poissons Ratio (x) = 0.21215 0.57125
# Poissons Ratio (y) = 0.13961 0.17269
# Poissons Ratio (z) = 0.42701 0.19615
#
# Static dielectric constant tensor:
#      x y z
#    x 2.056910 0.000000 0.000000 
#    y 0.000000 2.060980 0.000000 
#    z 0.000000 0.000000 1.913080 
# 
# From -- ./inp_files/5587.got.cif
#   From: 2010.05.17/outbox.cif.g08.bks.cpg/sg18_3_cif.got.tgz:5587.got - 2010.06.03 22:40:56.
