data_PCOD9312806
_publ_section_title
;
Structure prediction by ZEFSAII (Michael W. Deem and Ramdas Pophale) SiO2 
 PCOD9312806
Probable space group: P 21 21 2
;
_chemical_formula_sum "Si O2"
_cell_formula_units_Z 16
_cell_length_a 5.476553
_cell_length_b 10.437782
_cell_length_c 11.528648
_cell_angle_alpha 90.000000
_cell_angle_beta 90.000000
_cell_angle_gamma 90.000000
_cell_volume 659.012870
_symmetry_space_group_name_H-M "P 21 21 2"
_symmetry_group_IT_number 18
_symmetry_cell_setting 'orthorhombic'
loop_
_space_group_symop_operation_xyz
x,y,z
-x,-y,z
1/2+x,1/2-y,-z
1/2-x,1/2+y,-z
loop_
_atom_site_type_symbol
_atom_site_label
_atom_site_fract_x
_atom_site_fract_y
_atom_site_fract_z
Si Si1 0.000000 0.500000 0.133090
Si Si2 0.746691 0.558507 0.583244
Si Si3 0.753869 0.778187 0.734973
Si Si4 0.739201 0.673960 0.971224
Si Si5 0.500000 0.500000 0.356751
O O1 0.936977 0.380516 0.214740
O O2 0.788565 0.546709 0.045160
O O3 0.500000 0.500000 0.637126
O O4 0.726742 0.708350 0.612357
O O5 0.718753 0.521524 0.448005
O O6 0.000000 0.500000 0.625653
O O7 0.765137 0.668299 0.832049
O O8 0.981468 0.873111 0.719080
O O9 0.474620 0.735339 0.997736
#
# Coordination Sequence:
#
# PCOD9312806 Si02
#       5
#     2   4   4   4   2
#     4  10  24  44  72 108 138 186 238 296 354 426
#     4  10  27  46  68 105 146 183 236 290 347 426
#     4  11  24  45  75 102 143 190 234 292 364 415
#     4  10  23  44  65 101 138 177 231 288 341 424
#     4  10  26  42  72 104 136 188 230 296 338 424
#
# _framework density 24.278735000000001
#
# number of rings (size 3 to 8) (size 9 to 14) (size 15 to 20)
#    0.750    1.000    0.000    1.500    7.000    9.000 
#    9.000    0.000    0.000    0.000    0.000    0.000 
#    0.000    0.000    0.000    0.000    0.000    0.000 
#
# Total GULP energy -89170.399637 kJ/mol
# GULP energy per Si atom -5573.149977 kJ/mol
# Density = 2.422348 g / cm^3
# Si number density = 24.278735 Si / 1000 Ang^3
#
#
#
# Elastic Constant Matrix: (Units=GPa)
#
#
# Indices 1 2 3 4 5 6 
#
# 1 127.5123 26.9075 24.3079 0.0000 0.0000 0.0000
# 2 26.9075 78.7145 33.9487 0.0000 0.0000 0.0000
# 3 24.3079 33.9487 80.7950 0.0000 0.0000 0.0000
# 4 0.0000 0.0000 0.0000 -57.4872 0.0000 0.0000
# 5 0.0000 0.0000 0.0000 0.0000 14.3000 0.0000
# 6 0.0000 0.0000 0.0000 0.0000 0.0000 34.7449
#
#
#
# Elastic Compliance Matrix: (Units=1/GPa)
#
#
# Indices 1 2 3 4 5 6 
#
# 1 0.008630 -0.002235 -0.001657 0.000000 0.000000 0.000000
# 2 -0.002235 0.016095 -0.006090 0.000000 0.000000 0.000000
# 3 -0.001657 -0.006090 0.015435 0.000000 0.000000 0.000000
# 4 0.000000 0.000000 0.000000 -0.017395 0.000000 0.000000
# 5 0.000000 0.000000 0.000000 0.000000 0.069930 0.000000
# 6 0.000000 0.000000 0.000000 0.000000 0.000000 0.028781
#
#
# Mechanical properties :
#
#
# Convention : Reuss Voigt Hill
#
# Bulk Modulus (GPa) = 49.51980 50.81670 50.16825
# Shear Modulus (GPa) = 33.74445 11.76872 22.75659
#
# Velocity S-wave (km/s) = 3.73215 2.20406 3.06487
# Velocity P-wave (km/s) = 6.24600 5.23957 5.76479
#
# Compressibility (1/GPa) = 0.02019394
#
# Stress axis : x y z
#
# Youngs Moduli (GPa) = 115.87507 62.13128 64.78935
#
# Poissons Ratio (x) = 0.13888 0.10737
# Poissons Ratio (y) = 0.25902 0.39459
# Poissons Ratio (z) = 0.19202 0.37840
#
# Static dielectric constant tensor:
#      x y z
#    x 2.022940 0.000000 0.000000 
#    y 0.000000 1.912580 0.000000 
#    z 0.000000 0.000000 2.006450 
# 
# From -- ./inp_files/4957.got.cif
#   From: 2010.05.17/outbox.cif.g08.bks.cpg/sg18_3_cif.got.tgz:4957.got - 2010.06.03 22:40:56.
