data_PCOD9312591
_publ_section_title
;
Structure prediction by ZEFSAII (Michael W. Deem and Ramdas Pophale) SiO2 
 PCOD9312591
Probable space group: P 21 21 2
;
_chemical_formula_sum "Si O2"
_cell_formula_units_Z 24
_cell_length_a 8.743266
_cell_length_b 7.999058
_cell_length_c 16.670255
_cell_angle_alpha 90.000000
_cell_angle_beta 90.000000
_cell_angle_gamma 90.000000
_cell_volume 1165.882491
_symmetry_space_group_name_H-M "P 21 21 2"
_symmetry_group_IT_number 18
_symmetry_cell_setting 'orthorhombic'
loop_
_space_group_symop_operation_xyz
x,y,z
-x,-y,z
1/2+x,1/2-y,-z
1/2-x,1/2+y,-z
loop_
_atom_site_type_symbol
_atom_site_label
_atom_site_fract_x
_atom_site_fract_y
_atom_site_fract_z
Si Si1 0.167163 0.092395 0.432813
Si Si2 0.989168 0.249234 0.141599
Si Si3 0.263977 0.505248 0.145106
Si Si4 0.813778 0.742555 0.606877
Si Si5 0.500000 0.500000 0.002868
Si Si6 0.500000 0.500000 0.287055
Si Si7 0.489950 0.802322 0.690352
O O1 0.192795 0.168833 0.520310
O O2 0.141462 0.246135 0.371268
O O3 0.299430 0.958833 0.408751
O O4 0.000000 0.000000 0.433491
O O5 0.125206 0.380581 0.130411
O O6 0.030241 0.187773 0.230946
O O7 0.819089 0.318547 0.155882
O O8 0.986214 0.149137 0.059972
O O9 0.362882 0.459608 0.223704
O O10 0.360888 0.510806 0.064321
O O11 0.654161 0.774237 0.651302
O O12 0.943781 0.842193 0.658374
O O13 0.500000 0.000000 0.711628
#
# Coordination Sequence:
#
# PCOD9312591 Si02
#       7
#     4   4   4   4   2   2   4
#     4  10  23  37  62  94 132 170 227 274 335 403
#     4  11  21  40  65  90 126 170 210 267 326 405
#     4  10  22  41  61  95 123 170 213 262 334 402
#     4  11  21  39  63  93 132 172 222 282 332 390
#     4  11  24  36  67  92 128 156 217 268 332 383
#     4  11  20  38  69  92 130 176 219 280 332 393
#     4  11  21  39  65  90 123 177 223 268 334 404
#
# _framework density 20.585266000000001
#
# number of rings (size 3 to 8) (size 9 to 14) (size 15 to 20)
#    0.000    1.333    4.167    2.000    3.500    0.000 
#    0.000    0.000    0.000    6.000    0.000    0.000 
#    0.000    0.000    0.000    0.000    0.000    0.000 
#
# Total GULP energy -133668.746038 kJ/mol
# GULP energy per Si atom -5569.531085 kJ/mol
# Density = 2.053841 g / cm^3
# Si number density = 20.585266 Si / 1000 Ang^3
#
#
#
# Elastic Constant Matrix: (Units=GPa)
#
#
# Indices 1 2 3 4 5 6 
#
# 1 86.1162 24.3475 45.5106 0.0000 0.0000 0.0000
# 2 24.3475 77.8804 40.2832 0.0000 0.0000 0.0000
# 3 45.5106 40.2832 180.1565 0.0000 0.0000 0.0000
# 4 0.0000 0.0000 0.0000 61.5222 0.0000 0.0000
# 5 0.0000 0.0000 0.0000 0.0000 27.5899 0.0000
# 6 0.0000 0.0000 0.0000 0.0000 0.0000 32.7481
#
#
#
# Elastic Compliance Matrix: (Units=1/GPa)
#
#
# Indices 1 2 3 4 5 6 
#
# 1 0.013946 -0.002870 -0.002881 0.000000 0.000000 0.000000
# 2 -0.002870 0.015110 -0.002654 0.000000 0.000000 0.000000
# 3 -0.002881 -0.002654 0.006872 0.000000 0.000000 0.000000
# 4 0.000000 0.000000 0.000000 0.016254 0.000000 0.000000
# 5 0.000000 0.000000 0.000000 0.000000 0.036245 0.000000
# 6 0.000000 0.000000 0.000000 0.000000 0.000000 0.030536
#
#
# Mechanical properties :
#
#
# Convention : Reuss Voigt Hill
#
# Bulk Modulus (GPa) = 52.30450 62.71507 57.50978
# Shear Modulus (GPa) = 35.17506 39.97282 37.57394
#
# Velocity S-wave (km/s) = 4.13819 4.41139 4.27697
# Velocity P-wave (km/s) = 6.94958 7.51527 7.23795
#
# Compressibility (1/GPa) = 0.01911882
#
# Stress axis : x y z
#
# Youngs Moduli (GPa) = 71.70355 66.18176 145.51808
#
# Poissons Ratio (x) = 0.18991 0.41930
# Poissons Ratio (y) = 0.20576 0.38616
# Poissons Ratio (z) = 0.20661 0.17563
#
# Static dielectric constant tensor:
#      x y z
#    x 1.739020 0.000000 0.000000 
#    y 0.000000 1.831480 0.000000 
#    z 0.000000 0.000000 1.711210 
# 
# From -- ./inp_files/6688.got.cif
#   From: 2010.05.17/outbox.cif.g08.bks.cpg/sg18_4_cif.got.tgz:6688.got - 2010.06.03 22:40:56.
