data_PCOD9312460
_publ_section_title
;
Structure prediction by ZEFSAII (Michael W. Deem and Ramdas Pophale) SiO2 
 PCOD9312460
Probable space group: P 21 21 2
;
_chemical_formula_sum "Si O2"
_cell_formula_units_Z 32
_cell_length_a 12.682083
_cell_length_b 9.593603
_cell_length_c 11.679587
_cell_angle_alpha 90.000000
_cell_angle_beta 90.000000
_cell_angle_gamma 90.000000
_cell_volume 1421.018788
_symmetry_space_group_name_H-M "P 21 21 2"
_symmetry_group_IT_number 18
_symmetry_cell_setting 'orthorhombic'
loop_
_space_group_symop_operation_xyz
x,y,z
-x,-y,z
1/2+x,1/2-y,-z
1/2-x,1/2+y,-z
loop_
_atom_site_type_symbol
_atom_site_label
_atom_site_fract_x
_atom_site_fract_y
_atom_site_fract_z
Si Si1 0.105157 0.914629 0.306965
Si Si2 0.382479 0.969860 0.469263
Si Si3 0.259551 0.719360 0.447040
Si Si4 0.322126 0.024949 0.219881
Si Si5 0.787128 0.183586 0.867880
Si Si6 0.114197 0.295562 0.957893
Si Si7 0.558254 0.650235 0.934351
Si Si8 0.618851 0.432652 0.243775
O O1 0.166868 0.819629 0.397453
O O2 0.076121 0.819634 0.197995
O O3 0.198160 0.010197 0.252765
O O4 0.000000 0.000000 0.343182
O O5 0.334446 0.825492 0.515971
O O6 0.500000 0.000000 0.510813
O O7 0.301328 0.094531 0.493241
O O8 0.382437 0.964396 0.330346
O O9 0.336761 0.651005 0.352260
O O10 0.341326 0.185497 0.193153
O O11 0.354366 0.933059 0.110768
O O12 0.798644 0.056312 0.781596
O O13 0.678045 0.229090 0.924449
O O14 0.842836 0.131387 0.984202
O O15 0.123878 0.171780 0.864449
O O16 0.997371 0.279794 0.004816
O O17 0.500000 0.500000 0.937694
O O18 0.500000 0.500000 0.253656
#
# Coordination Sequence:
#
# PCOD9312460 Si02
#       8
#     4   4   4   4   4   4   4   4
#     4  10  21  44  70  96 142 187 229 285 355 432
#     4  11  28  50  77 104 143 180 241 311 367 429
#     4  11  27  51  74 108 140 182 245 306 367 434
#     4  11  25  40  67 102 139 176 236 296 353 417
#     4  12  22  35  66  99 137 184 225 280 345 414
#     4  12  21  41  61 102 142 182 232 286 335 429
#     4  11  20  36  62  94 134 184 227 263 341 417
#     4  12  24  44  71 100 140 189 241 292 353 433
#
# _framework density 22.519054000000001
#
# number of rings (size 3 to 8) (size 9 to 14) (size 15 to 20)
#    0.000    0.750    6.250    2.250    5.250    2.000 
#    2.250    0.625    0.000    0.000    0.000    0.000 
#    0.000    0.000    0.000    0.000    0.000    0.000 
#
# Total GULP energy -178605.643397 kJ/mol
# GULP energy per Si atom -5581.426356 kJ/mol
# Density = 2.246780 g / cm^3
# Si number density = 22.519054 Si / 1000 Ang^3
#
#
#
# Elastic Constant Matrix: (Units=GPa)
#
#
# Indices 1 2 3 4 5 6 
#
# 1 98.0534 34.7172 11.8643 0.0000 0.0000 0.0000
# 2 34.7172 114.1505 14.6528 0.0000 0.0000 0.0000
# 3 11.8643 14.6528 25.6388 0.0000 0.0000 0.0000
# 4 0.0000 0.0000 0.0000 28.3603 0.0000 0.0000
# 5 0.0000 0.0000 0.0000 0.0000 18.5679 0.0000
# 6 0.0000 0.0000 0.0000 0.0000 0.0000 21.6712
#
#
#
# Elastic Compliance Matrix: (Units=1/GPa)
#
#
# Indices 1 2 3 4 5 6 
#
# 1 0.011739 -0.003100 -0.003660 0.000000 0.000000 0.000000
# 2 -0.003100 0.010273 -0.004436 0.000000 0.000000 0.000000
# 3 -0.003660 -0.004436 0.043232 0.000000 0.000000 0.000000
# 4 0.000000 0.000000 0.000000 0.035261 0.000000 0.000000
# 5 0.000000 0.000000 0.000000 0.000000 0.053856 0.000000
# 6 0.000000 0.000000 0.000000 0.000000 0.000000 0.046144
#
#
# Mechanical properties :
#
#
# Convention : Reuss Voigt Hill
#
# Bulk Modulus (GPa) = 23.33701 40.03458 31.68579
# Shear Modulus (GPa) = 21.08076 25.49376 23.28726
#
# Velocity S-wave (km/s) = 3.06294 3.36832 3.21925
# Velocity P-wave (km/s) = 4.78483 5.73969 5.28387
#
# Compressibility (1/GPa) = 0.04285039
#
# Stress axis : x y z
#
# Youngs Moduli (GPa) = 85.18483 97.34465 23.13075
#
# Poissons Ratio (x) = 0.30181 0.08467
# Poissons Ratio (y) = 0.26411 0.10261
# Poissons Ratio (z) = 0.31181 0.43184
#
# Static dielectric constant tensor:
#      x y z
#    x 2.213790 0.000000 0.000000 
#    y 0.000000 1.659040 0.000000 
#    z 0.000000 0.000000 1.827850 
# 
# From -- ./inp_files/6932.got.cif
#   From: 2010.05.17/outbox.cif.g08.bks.cpg/sg18_4_cif.got.tgz:6932.got - 2010.06.03 22:40:56.
