data_PCOD9312262
_publ_section_title
;
Structure prediction by ZEFSAII (Michael W. Deem and Ramdas Pophale) SiO2 
 PCOD9312262
Probable space group: P 21 21 2
;
_chemical_formula_sum "Si O2"
_cell_formula_units_Z 26
_cell_length_a 21.217484
_cell_length_b 8.647899
_cell_length_c 6.222672
_cell_angle_alpha 90.000000
_cell_angle_beta 90.000000
_cell_angle_gamma 90.000000
_cell_volume 1141.777293
_symmetry_space_group_name_H-M "P 21 21 2"
_symmetry_group_IT_number 18
_symmetry_cell_setting 'orthorhombic'
loop_
_space_group_symop_operation_xyz
x,y,z
-x,-y,z
1/2+x,1/2-y,-z
1/2-x,1/2+y,-z
loop_
_atom_site_type_symbol
_atom_site_label
_atom_site_fract_x
_atom_site_fract_y
_atom_site_fract_z
Si Si1 0.465409 0.792838 0.311520
Si Si2 0.634907 0.386650 0.094371
Si Si3 0.295993 0.804962 0.777114
Si Si4 0.500000 0.000000 0.691491
Si Si5 0.916714 0.412602 0.920966
Si Si6 0.241985 0.616287 0.406114
Si Si7 0.180798 0.808832 0.077021
O O1 0.482588 0.850569 0.548458
O O2 0.424522 0.646004 0.246611
O O3 0.530663 0.799042 0.180400
O O4 0.422622 0.936908 0.226423
O O5 0.644188 0.256694 0.908432
O O6 0.635654 0.547148 0.964878
O O7 0.696424 0.386516 0.250156
O O8 0.268133 0.663586 0.637127
O O9 0.295213 0.954667 0.622960
O O10 0.246405 0.846635 0.963138
O O11 0.557426 0.956300 0.845271
O O12 0.850002 0.334632 0.949529
O O13 0.196086 0.751025 0.315627
#
# Coordination Sequence:
#
# PCOD9312262 Si02
#       7
#     4   4   4   2   4   4   4
#     4   9  19  35  56  78 106 142 176 218 264 315
#     4  10  21  36  54  80 110 140 178 219 265 318
#     4  10  21  37  54  80 110 141 181 219 265 320
#     4   8  18  36  56  82 104 132 184 218 262 322
#     4   9  19  35  56  80 106 142 178 218 267 315
#     4  10  21  35  56  79 108 145 177 220 268 314
#     4  10  21  36  54  80 110 140 177 220 266 317
#
# _framework density 22.771515999999998
#
# number of rings (size 3 to 8) (size 9 to 14) (size 15 to 20)
#    0.000    2.769    0.000    1.846    0.000   10.462 
#    0.000    0.000    0.000    7.385    0.000    0.000 
#    0.000    0.000    0.000    0.000    0.000    0.000 
#
# Total GULP energy -145092.113975 kJ/mol
# GULP energy per Si atom -5580.465922 kJ/mol
# Density = 2.271969 g / cm^3
# Si number density = 22.771516 Si / 1000 Ang^3
#
#
#
# Elastic Constant Matrix: (Units=GPa)
#
#
# Indices 1 2 3 4 5 6 
#
# 1 27.6506 -1.6418 -1.6516 0.0000 0.0000 0.0000
# 2 -1.6418 41.5201 6.8241 0.0000 0.0000 0.0000
# 3 -1.6516 6.8241 68.4922 0.0000 0.0000 0.0000
# 4 0.0000 0.0000 0.0000 17.4992 0.0000 0.0000
# 5 0.0000 0.0000 0.0000 0.0000 20.2894 0.0000
# 6 0.0000 0.0000 0.0000 0.0000 0.0000 30.7351
#
#
#
# Elastic Compliance Matrix: (Units=1/GPa)
#
#
# Indices 1 2 3 4 5 6 
#
# 1 0.036288 0.001313 0.000744 0.000000 0.000000 0.000000
# 2 0.001313 0.024533 -0.002413 0.000000 0.000000 0.000000
# 3 0.000744 -0.002413 0.014859 0.000000 0.000000 0.000000
# 4 0.000000 0.000000 0.000000 0.057146 0.000000 0.000000
# 5 0.000000 0.000000 0.000000 0.000000 0.049287 0.000000
# 6 0.000000 0.000000 0.000000 0.000000 0.000000 0.032536
#
#
# Mechanical properties :
#
#
# Convention : Reuss Voigt Hill
#
# Bulk Modulus (GPa) = 13.33903 16.08048 14.70976
# Shear Modulus (GPa) = 20.80308 22.64689 21.72498
#
# Velocity S-wave (km/s) = 3.02579 3.15703 3.09211
# Velocity P-wave (km/s) = 4.25179 4.51289 4.38428
#
# Compressibility (1/GPa) = 0.07496797
#
# Stress axis : x y z
#
# Youngs Moduli (GPa) = 27.55736 40.76116 67.30140
#
# Poissons Ratio (x) = -0.05350 -0.05009
# Poissons Ratio (y) = -0.03617 0.16238
# Poissons Ratio (z) = -0.02051 0.09834
#
# Static dielectric constant tensor:
#      x y z
#    x 1.854800 0.000000 0.000000 
#    y 0.000000 1.927000 0.000000 
#    z 0.000000 0.000000 1.822680 
# 
# From -- ./inp_files/657.got.cif
#   From: 2010.05.17/outbox.cif.g08.bks.cpg/sg18_1_cif.got.tgz:657.got - 2010.06.03 22:40:56.
