data_PCOD9312865
_publ_section_title
;
Structure prediction by ZEFSAII (Michael W. Deem and Ramdas Pophale) SiO2 
 PCOD9312865
Probable space group: P 21 21 2
;
_chemical_formula_sum "Si O2"
_cell_formula_units_Z 22
_cell_length_a 20.710481
_cell_length_b 5.046424
_cell_length_c 10.022312
_cell_angle_alpha 90.000000
_cell_angle_beta 90.000000
_cell_angle_gamma 90.000000
_cell_volume 1047.470597
_symmetry_space_group_name_H-M "P 21 21 2"
_symmetry_group_IT_number 18
_symmetry_cell_setting 'orthorhombic'
loop_
_space_group_symop_operation_xyz
x,y,z
-x,-y,z
1/2+x,1/2-y,-z
1/2-x,1/2+y,-z
loop_
_atom_site_type_symbol
_atom_site_label
_atom_site_fract_x
_atom_site_fract_y
_atom_site_fract_z
Si Si1 0.430135 0.039214 0.892397
Si Si2 0.371678 0.532692 0.775036
Si Si3 0.000000 0.500000 0.854384
Si Si4 0.253649 0.059348 0.401496
Si Si5 0.391317 0.889751 0.355048
Si Si6 0.429678 0.406867 0.498780
O O1 0.378302 0.245886 0.840058
O O2 0.500000 0.000000 0.818310
O O3 0.396693 0.754270 0.877177
O O4 0.455585 0.148747 0.035623
O O5 0.303733 0.594240 0.704876
O O6 0.419734 0.496234 0.649604
O O7 0.945381 0.621331 0.759541
O O8 0.241022 0.806264 0.497440
O O9 0.320749 0.003458 0.324496
O O10 0.417537 0.099987 0.466485
O O11 0.383330 0.596967 0.413268
O O12 0.500000 0.500000 0.455396
#
# Coordination Sequence:
#
# PCOD9312865 Si02
#       6
#     4   4   2   4   4   4
#     4  10  24  41  65  88 128 171 215 272 305 368
#     4  12  22  41  64  98 131 163 215 264 326 381
#     4  10  26  46  64  90 134 168 232 252 330 356
#     4  12  23  42  64  98 136 168 203 260 334 399
#     4  12  23  42  64  96 131 171 202 273 319 393
#     4  12  22  35  65  99 128 156 212 269 338 377
#
# _framework density 21.002976
#
# number of rings (size 3 to 8) (size 9 to 14) (size 15 to 20)
#    0.545    0.000    5.455    3.818    0.000    2.909 
#    0.000    1.818    0.000    0.000    0.000    0.000 
#    0.000    0.000    0.000    0.000    0.000    0.000 
#
# Total GULP energy -122546.293879 kJ/mol
# GULP energy per Si atom -5570.286085 kJ/mol
# Density = 2.095517 g / cm^3
# Si number density = 21.002976 Si / 1000 Ang^3
#
#
#
# Elastic Constant Matrix: (Units=GPa)
#
#
# Indices 1 2 3 4 5 6 
#
# 1 93.0453 0.2294 27.9382 0.0000 0.0000 0.0000
# 2 0.2294 92.8169 16.5349 0.0000 0.0000 0.0000
# 3 27.9382 16.5349 62.3716 0.0000 0.0000 0.0000
# 4 0.0000 0.0000 0.0000 1.3066 0.0000 0.0000
# 5 0.0000 0.0000 0.0000 0.0000 25.9099 0.0000
# 6 0.0000 0.0000 0.0000 0.0000 0.0000 27.0922
#
#
#
# Elastic Compliance Matrix: (Units=1/GPa)
#
#
# Indices 1 2 3 4 5 6 
#
# 1 0.012508 0.001015 -0.005872 0.000000 0.000000 0.000000
# 2 0.001015 0.011390 -0.003474 0.000000 0.000000 0.000000
# 3 -0.005872 -0.003474 0.019584 0.000000 0.000000 0.000000
# 4 0.000000 0.000000 0.000000 0.765366 0.000000 0.000000
# 5 0.000000 0.000000 0.000000 0.000000 0.038595 0.000000
# 6 0.000000 0.000000 0.000000 0.000000 0.000000 0.036911
#
#
# Mechanical properties :
#
#
# Convention : Reuss Voigt Hill
#
# Bulk Modulus (GPa) = 37.28498 37.51543 37.40020
# Shear Modulus (GPa) = 5.49476 24.43050 14.96263
#
# Velocity S-wave (km/s) = 1.61922 3.41426 2.67199
# Velocity P-wave (km/s) = 4.61374 5.78305 5.23117
#
# Compressibility (1/GPa) = 0.02682045
#
# Stress axis : x y z
#
# Youngs Moduli (GPa) = 79.94840 87.79382 51.06165
#
# Poissons Ratio (x) = -0.08912 0.29983
# Poissons Ratio (y) = -0.08116 0.17740
# Poissons Ratio (z) = 0.46945 0.30502
#
# Static dielectric constant tensor:
#      x y z
#    x 1.819700 0.000000 0.000000 
#    y 0.000000 1.739250 0.000000 
#    z 0.000000 0.000000 1.799080 
# 
# From -- ./inp_files/4720.got.cif
#   From: 2010.05.17/outbox.cif.g08.bks.cpg/sg18_3_cif.got.tgz:4720.got - 2010.06.03 22:40:56.
