data_PCOD9312105
_publ_section_title
;
Structure prediction by ZEFSAII (Michael W. Deem and Ramdas Pophale) SiO2 
 PCOD9312105
Probable space group: P 21 21 2
;
_chemical_formula_sum "Si O2"
_cell_formula_units_Z 18
_cell_length_a 5.063846
_cell_length_b 12.472216
_cell_length_c 12.269872
_cell_angle_alpha 90.000000
_cell_angle_beta 90.000000
_cell_angle_gamma 90.000000
_cell_volume 774.932982
_symmetry_space_group_name_H-M "P 21 21 2"
_symmetry_group_IT_number 18
_symmetry_cell_setting 'orthorhombic'
loop_
_space_group_symop_operation_xyz
x,y,z
-x,-y,z
1/2+x,1/2-y,-z
1/2-x,1/2+y,-z
loop_
_atom_site_type_symbol
_atom_site_label
_atom_site_fract_x
_atom_site_fract_y
_atom_site_fract_z
Si Si1 0.390504 0.679465 0.518965
Si Si2 0.232336 0.568467 0.933391
Si Si3 0.298598 0.731721 0.747792
Si Si4 0.802676 0.882164 0.707969
Si Si5 0.500000 0.000000 0.860202
O O1 0.690644 0.720630 0.506451
O O2 0.324322 0.651933 0.643513
O O3 0.327025 0.598659 0.421293
O O4 0.500000 0.500000 0.953301
O O5 0.304287 0.668590 0.860305
O O6 0.000000 0.500000 0.873994
O O7 0.085297 0.589429 0.049272
O O8 0.538756 0.812973 0.730887
O O9 0.033735 0.801100 0.740622
O O10 0.741791 0.988373 0.777168
#
# Coordination Sequence:
#
# PCOD9312105 Si02
#       5
#     4   4   4   4   2
#     4   8  16  33  56  85 110 140 187 241 280 351
#     4  10  23  40  57  82 121 150 193 256 283 333
#     4  10  20  38  64  84 113 155 200 232 299 352
#     4  10  21  36  62  86 116 156 191 239 296 353
#     4  10  26  38  56  84 130 148 198 248 286 342
#
# _framework density 23.227813000000001
#
# number of rings (size 3 to 8) (size 9 to 14) (size 15 to 20)
#    0.667    1.778    0.000    1.333    3.111    1.778 
#    2.000    0.000    0.000    0.000    0.000    0.000 
#    0.000    0.000    0.000    0.000    0.000    0.000 
#
# Total GULP energy -100216.119304 kJ/mol
# GULP energy per Si atom -5567.562184 kJ/mol
# Density = 2.317495 g / cm^3
# Si number density = 23.227813 Si / 1000 Ang^3
#
#
#
# Elastic Constant Matrix: (Units=GPa)
#
#
# Indices 1 2 3 4 5 6 
#
# 1 167.6900 33.0558 7.1790 0.0000 0.0000 0.0000
# 2 33.0558 54.1814 53.8297 0.0000 0.0000 0.0000
# 3 7.1790 53.8297 151.3510 0.0000 0.0000 0.0000
# 4 0.0000 0.0000 0.0000 -143.7780 0.0000 0.0000
# 5 0.0000 0.0000 0.0000 0.0000 89.4782 0.0000
# 6 0.0000 0.0000 0.0000 0.0000 0.0000 27.0581
#
#
#
# Elastic Compliance Matrix: (Units=1/GPa)
#
#
# Indices 1 2 3 4 5 6 
#
# 1 0.007103 -0.006183 0.001862 0.000000 0.000000 0.000000
# 2 -0.006183 0.033925 -0.011773 0.000000 0.000000 0.000000
# 3 0.001862 -0.011773 0.010706 0.000000 0.000000 0.000000
# 4 0.000000 0.000000 0.000000 -0.006955 0.000000 0.000000
# 5 0.000000 0.000000 0.000000 0.000000 0.011176 0.000000
# 6 0.000000 0.000000 0.000000 0.000000 0.000000 0.036957
#
#
# Mechanical properties :
#
#
# Convention : Reuss Voigt Hill
#
# Bulk Modulus (GPa) = 51.16088 62.37237 56.76662
# Shear Modulus (GPa) = 37.98966 13.16219 25.57593
#
# Velocity S-wave (km/s) = 4.04855 2.38304 3.32187
# Velocity P-wave (km/s) = 6.62781 5.87219 6.26141
#
# Compressibility (1/GPa) = 0.01954618
#
# Stress axis : x y z
#
# Youngs Moduli (GPa) = 140.79409 29.47660 93.40667
#
# Poissons Ratio (x) = 0.18227 -0.17395
# Poissons Ratio (y) = 0.87060 1.09964
# Poissons Ratio (z) = -0.26221 0.34702
#
# Static dielectric constant tensor:
#      x y z
#    x 1.875970 0.000000 0.000000 
#    y 0.000000 1.999790 0.000000 
#    z 0.000000 0.000000 1.927330 
# 
# From -- ./inp_files/5025.got.cif
#   From: 2010.05.17/outbox.cif.g08.bks.cpg/sg18_3_cif.got.tgz:5025.got - 2010.06.03 22:40:56.
