data_PCOD9312493
_publ_section_title
;
Structure prediction by ZEFSAII (Michael W. Deem and Ramdas Pophale) SiO2 
 PCOD9312493
Probable space group: P 21 21 2
;
_chemical_formula_sum "Si O2"
_cell_formula_units_Z 30
_cell_length_a 11.380883
_cell_length_b 8.457549
_cell_length_c 15.590192
_cell_angle_alpha 90.000000
_cell_angle_beta 90.000000
_cell_angle_gamma 90.000000
_cell_volume 1500.624197
_symmetry_space_group_name_H-M "P 21 21 2"
_symmetry_group_IT_number 18
_symmetry_cell_setting 'orthorhombic'
loop_
_space_group_symop_operation_xyz
x,y,z
-x,-y,z
1/2+x,1/2-y,-z
1/2-x,1/2+y,-z
loop_
_atom_site_type_symbol
_atom_site_label
_atom_site_fract_x
_atom_site_fract_y
_atom_site_fract_z
Si Si1 0.139932 0.471713 0.773658
Si Si2 0.150360 0.273936 0.602507
Si Si3 0.500000 0.500000 0.109373
Si Si4 0.613804 0.666474 0.411585
Si Si5 0.183593 0.254177 0.939350
Si Si6 0.802521 0.164932 0.774958
Si Si7 0.861135 0.514952 0.095346
Si Si8 0.778027 0.458080 0.496702
O O1 0.171286 0.375124 0.687681
O O2 0.165974 0.365745 0.856697
O O3 0.198822 0.644454 0.779493
O O4 0.000000 0.500000 0.769165
O O5 0.142574 0.390082 0.518786
O O6 0.259235 0.156589 0.584712
O O7 0.023306 0.191665 0.606416
O O8 0.578354 0.374627 0.057883
O O9 0.410974 0.400465 0.168574
O O10 0.672178 0.616089 0.322288
O O11 0.651277 0.547358 0.488192
O O12 0.675976 0.833320 0.433840
O O13 0.300759 0.151850 0.926878
O O14 0.181227 0.361185 0.023164
O O15 0.689311 0.081920 0.815479
O O16 0.000000 0.500000 0.093952
#
# Coordination Sequence:
#
# PCOD9312493 Si02
#       8
#     4   4   2   4   4   4   4   4
#     4  12  20  38  70 101 131 167 224 291 328 382
#     4  11  21  39  64  97 127 170 211 285 329 385
#     4  10  22  36  68 108 124 166 228 284 328 388
#     4  11  21  39  64  90 129 167 223 269 328 392
#     4  11  24  41  71  99 134 175 226 272 335 403
#     4  11  23  41  67 102 130 176 225 278 332 395
#     4  11  27  46  66 101 144 179 213 275 344 403
#     4  10  23  35  59  95 130 162 210 275 340 390
#
# _framework density 19.991679999999999
#
# number of rings (size 3 to 8) (size 9 to 14) (size 15 to 20)
#    0.000    1.067    4.000    2.000    9.333    0.000 
#    0.000    2.667    2.933    0.000    0.000    0.000 
#    0.000    0.000    0.000    0.000    0.000    0.000 
#
# Total GULP energy -167205.225060 kJ/mol
# GULP energy per Si atom -5573.507502 kJ/mol
# Density = 1.994618 g / cm^3
# Si number density = 19.991680 Si / 1000 Ang^3
#
#
#
# Elastic Constant Matrix: (Units=GPa)
#
#
# Indices 1 2 3 4 5 6 
#
# 1 65.3306 19.3122 27.3462 0.0000 0.0000 0.0000
# 2 19.3122 77.3029 28.5685 0.0000 0.0000 0.0000
# 3 27.3462 28.5685 61.4349 0.0000 0.0000 0.0000
# 4 0.0000 0.0000 0.0000 43.9499 0.0000 0.0000
# 5 0.0000 0.0000 0.0000 0.0000 13.5565 0.0000
# 6 0.0000 0.0000 0.0000 0.0000 0.0000 37.8546
#
#
#
# Elastic Compliance Matrix: (Units=1/GPa)
#
#
# Indices 1 2 3 4 5 6 
#
# 1 0.019055 -0.001963 -0.007569 0.000000 0.000000 0.000000
# 2 -0.001963 0.015823 -0.006484 0.000000 0.000000 0.000000
# 3 -0.007569 -0.006484 0.022662 0.000000 0.000000 0.000000
# 4 0.000000 0.000000 0.000000 0.022753 0.000000 0.000000
# 5 0.000000 0.000000 0.000000 0.000000 0.073766 0.000000
# 6 0.000000 0.000000 0.000000 0.000000 0.000000 0.026417
#
#
# Mechanical properties :
#
#
# Convention : Reuss Voigt Hill
#
# Bulk Modulus (GPa) = 39.20451 39.39137 39.29794
# Shear Modulus (GPa) = 22.62331 27.66163 25.14247
#
# Velocity S-wave (km/s) = 3.36763 3.72379 3.55018
# Velocity P-wave (km/s) = 5.89697 6.18348 6.04192
#
# Compressibility (1/GPa) = 0.02550727
#
# Stress axis : x y z
#
# Youngs Moduli (GPa) = 52.47858 63.19957 44.12713
#
# Poissons Ratio (x) = 0.12408 0.33400
# Poissons Ratio (y) = 0.10303 0.28612
# Poissons Ratio (z) = 0.39721 0.40979
#
# Static dielectric constant tensor:
#      x y z
#    x 1.685640 0.000000 0.000000 
#    y 0.000000 1.785860 0.000000 
#    z 0.000000 0.000000 1.699390 
# 
# From -- ./inp_files/6901.got.cif
#   From: 2010.05.17/outbox.cif.g08.bks.cpg/sg18_4_cif.got.tgz:6901.got - 2010.06.03 22:40:56.
