data_PCOD9312445
_publ_section_title
;
Structure prediction by ZEFSAII (Michael W. Deem and Ramdas Pophale) SiO2 
 PCOD9312445
Probable space group: P 21 21 2
;
_chemical_formula_sum "Si O2"
_cell_formula_units_Z 24
_cell_length_a 8.688097
_cell_length_b 10.446867
_cell_length_c 12.273038
_cell_angle_alpha 90.000000
_cell_angle_beta 90.000000
_cell_angle_gamma 90.000000
_cell_volume 1113.942582
_symmetry_space_group_name_H-M "P 21 21 2"
_symmetry_group_IT_number 18
_symmetry_cell_setting 'orthorhombic'
loop_
_space_group_symop_operation_xyz
x,y,z
-x,-y,z
1/2+x,1/2-y,-z
1/2-x,1/2+y,-z
loop_
_atom_site_type_symbol
_atom_site_label
_atom_site_fract_x
_atom_site_fract_y
_atom_site_fract_z
Si Si1 0.636984 0.745165 0.262591
Si Si2 0.931493 0.640449 0.315711
Si Si3 0.071384 0.358418 0.560909
Si Si4 0.432496 0.643147 0.069834
Si Si5 0.875826 0.235521 0.127737
Si Si6 0.315188 0.976061 0.233434
O O1 0.762126 0.635045 0.264299
O O2 0.545826 0.766578 0.375089
O O3 0.513046 0.716731 0.170444
O O4 0.733256 0.876764 0.244977
O O5 0.902248 0.690447 0.439316
O O6 0.000000 0.500000 0.320433
O O7 0.045387 0.720646 0.239662
O O8 0.197103 0.394538 0.653573
O O9 0.000000 0.500000 0.546575
O O10 0.500000 0.500000 0.070258
O O11 0.249999 0.661645 0.085259
O O12 0.492819 0.711241 0.960853
O O13 0.778923 0.104320 0.146228
O O14 0.500000 0.000000 0.213084
#
# Coordination Sequence:
#
# PCOD9312445 Si02
#       6
#     4   4   4   4   4   4
#     4  10  21  43  67  91 130 171 209 267 315 378
#     4  11  24  41  65  97 134 167 213 259 327 379
#     4   8  18  39  67  93 124 167 205 261 317 377
#     4  12  27  43  66  95 131 167 221 263 317 379
#     4  12  26  42  67  93 129 173 212 266 318 376
#     4   9  19  42  68  92 123 166 212 259 324 371
#
# _framework density 21.545095
#
# number of rings (size 3 to 8) (size 9 to 14) (size 15 to 20)
#    0.000    2.000    3.333    2.000    7.000    0.000 
#    0.000    0.000    0.000    0.000    0.000    0.000 
#    0.000    0.000    0.000    0.000    0.000    0.000 
#
# Total GULP energy -133815.868324 kJ/mol
# GULP energy per Si atom -5575.661180 kJ/mol
# Density = 2.149606 g / cm^3
# Si number density = 21.545095 Si / 1000 Ang^3
#
#
#
# Elastic Constant Matrix: (Units=GPa)
#
#
# Indices 1 2 3 4 5 6 
#
# 1 53.7181 6.0839 35.5236 0.0000 0.0000 0.0000
# 2 6.0839 47.0582 15.0103 0.0000 0.0000 0.0000
# 3 35.5236 15.0103 99.0556 0.0000 0.0000 0.0000
# 4 0.0000 0.0000 0.0000 29.9473 0.0000 0.0000
# 5 0.0000 0.0000 0.0000 0.0000 8.3948 0.0000
# 6 0.0000 0.0000 0.0000 0.0000 0.0000 32.7596
#
#
#
# Elastic Compliance Matrix: (Units=1/GPa)
#
#
# Indices 1 2 3 4 5 6 
#
# 1 0.024410 -0.000382 -0.008696 0.000000 0.000000 0.000000
# 2 -0.000382 0.022336 -0.003248 0.000000 0.000000 0.000000
# 3 -0.008696 -0.003248 0.013706 0.000000 0.000000 0.000000
# 4 0.000000 0.000000 0.000000 0.033392 0.000000 0.000000
# 5 0.000000 0.000000 0.000000 0.000000 0.119122 0.000000
# 6 0.000000 0.000000 0.000000 0.000000 0.000000 0.030525
#
#
# Mechanical properties :
#
#
# Convention : Reuss Voigt Hill
#
# Bulk Modulus (GPa) = 27.93293 34.78529 31.35911
# Shear Modulus (GPa) = 17.85238 23.76794 20.81016
#
# Velocity S-wave (km/s) = 2.88167 3.32501 3.11125
# Velocity P-wave (km/s) = 4.90562 5.56069 5.24339
#
# Compressibility (1/GPa) = 0.03580004
#
# Stress axis : x y z
#
# Youngs Moduli (GPa) = 40.96759 44.77161 72.96054
#
# Poissons Ratio (x) = 0.01710 0.63446
# Poissons Ratio (y) = 0.01565 0.23695
# Poissons Ratio (z) = 0.35625 0.14540
#
# Static dielectric constant tensor:
#      x y z
#    x 1.802790 0.000000 0.000000 
#    y 0.000000 1.839060 0.000000 
#    z 0.000000 0.000000 1.827750 
# 
# From -- ./inp_files/5498.got.cif
#   From: 2010.05.17/outbox.cif.g08.bks.cpg/sg18_3_cif.got.tgz:5498.got - 2010.06.03 22:40:56.
