data_PCOD9312107
_publ_section_title
;
Structure prediction by ZEFSAII (Michael W. Deem and Ramdas Pophale) SiO2 
 PCOD9312107
Probable space group: P 21 21 2
;
_chemical_formula_sum "Si O2"
_cell_formula_units_Z 22
_cell_length_a 14.180894
_cell_length_b 9.199121
_cell_length_c 7.496707
_cell_angle_alpha 90.000000
_cell_angle_beta 90.000000
_cell_angle_gamma 90.000000
_cell_volume 977.958621
_symmetry_space_group_name_H-M "P 21 21 2"
_symmetry_group_IT_number 18
_symmetry_cell_setting 'orthorhombic'
loop_
_space_group_symop_operation_xyz
x,y,z
-x,-y,z
1/2+x,1/2-y,-z
1/2-x,1/2+y,-z
loop_
_atom_site_type_symbol
_atom_site_label
_atom_site_fract_x
_atom_site_fract_y
_atom_site_fract_z
Si Si1 0.333914 0.196208 0.324857
Si Si2 0.000000 0.500000 0.723212
Si Si3 0.817379 0.349717 0.085851
Si Si4 0.076727 0.815714 0.368454
Si Si5 0.120920 0.129768 0.298439
Si Si6 0.642920 0.170378 0.037649
O O1 0.361774 0.326556 0.452557
O O2 0.227397 0.148805 0.363685
O O3 0.414181 0.078183 0.376518
O O4 0.341058 0.214132 0.111745
O O5 0.055244 0.383709 0.846109
O O6 0.892502 0.314209 0.238312
O O7 0.811910 0.521716 0.044490
O O8 0.721736 0.265355 0.139587
O O9 0.966562 0.818170 0.417934
O O10 0.101656 0.961447 0.259839
O O11 0.111937 0.226498 0.122276
#
# Coordination Sequence:
#
# PCOD9312107 Si02
#       6
#     4   2   4   4   4   4
#     4  10  23  39  60  92 124 160 212 260 310 382
#     4  10  20  38  64  96 126 166 216 262 320 384
#     4  10  21  39  64  93 125 168 211 260 320 377
#     4  11  23  41  64  90 128 170 207 263 326 379
#     4  10  23  42  61  93 130 163 214 265 318 386
#     4  10  20  39  66  95 128 165 214 265 317 384
#
# _framework density 22.495837000000002
#
# number of rings (size 3 to 8) (size 9 to 14) (size 15 to 20)
#    0.000    1.818    0.000    5.455    0.000    7.273 
#    0.000   10.909    0.000    0.000    0.000    0.000 
#    0.000    0.000    0.000    0.000    0.000    0.000 
#
# Total GULP energy -122741.264967 kJ/mol
# GULP energy per Si atom -5579.148408 kJ/mol
# Density = 2.244464 g / cm^3
# Si number density = 22.495837 Si / 1000 Ang^3
#
#
#
# Elastic Constant Matrix: (Units=GPa)
#
#
# Indices 1 2 3 4 5 6 
#
# 1 176.9114 19.3705 20.0586 0.0000 0.0000 0.0000
# 2 19.3705 73.8599 24.7043 0.0000 0.0000 0.0000
# 3 20.0586 24.7043 71.2751 0.0000 0.0000 0.0000
# 4 0.0000 0.0000 0.0000 16.1368 0.0000 0.0000
# 5 0.0000 0.0000 0.0000 0.0000 18.2152 0.0000
# 6 0.0000 0.0000 0.0000 0.0000 0.0000 40.9116
#
#
#
# Elastic Compliance Matrix: (Units=1/GPa)
#
#
# Indices 1 2 3 4 5 6 
#
# 1 0.005920 -0.001126 -0.001276 0.000000 0.000000 0.000000
# 2 -0.001126 0.015529 -0.005065 0.000000 0.000000 0.000000
# 3 -0.001276 -0.005065 0.016145 0.000000 0.000000 0.000000
# 4 0.000000 0.000000 0.000000 0.061970 0.000000 0.000000
# 5 0.000000 0.000000 0.000000 0.000000 0.054899 0.000000
# 6 0.000000 0.000000 0.000000 0.000000 0.000000 0.024443
#
#
# Mechanical properties :
#
#
# Convention : Reuss Voigt Hill
#
# Bulk Modulus (GPa) = 44.13161 50.03480 47.08320
# Shear Modulus (GPa) = 24.82695 32.24694 28.53695
#
# Velocity S-wave (km/s) = 3.32569 3.79022 3.56553
# Velocity P-wave (km/s) = 5.86577 6.43773 6.15839
#
# Compressibility (1/GPa) = 0.02265950
#
# Stress axis : x y z
#
# Youngs Moduli (GPa) = 168.90477 64.39686 61.93895
#
# Poissons Ratio (x) = 0.07251 0.07903
# Poissons Ratio (y) = 0.19018 0.31375
# Poissons Ratio (z) = 0.21551 0.32620
#
# Static dielectric constant tensor:
#      x y z
#    x 1.906690 0.000000 0.000000 
#    y 0.000000 1.875240 0.000000 
#    z 0.000000 0.000000 1.819590 
# 
# From -- ./inp_files/4131.got.cif
#   From: 2010.05.17/outbox.cif.g08.bks.cpg/sg18_3_cif.got.tgz:4131.got - 2010.06.03 22:40:56.
