data_PCOD9312466
_publ_section_title
;
Structure prediction by ZEFSAII (Michael W. Deem and Ramdas Pophale) SiO2 
 PCOD9312466
Probable space group: P 21 21 2
;
_chemical_formula_sum "Si O2"
_cell_formula_units_Z 28
_cell_length_a 9.581632
_cell_length_b 20.103767
_cell_length_c 5.232279
_cell_angle_alpha 90.000000
_cell_angle_beta 90.000000
_cell_angle_gamma 90.000000
_cell_volume 1007.877669
_symmetry_space_group_name_H-M "P 21 21 2"
_symmetry_group_IT_number 18
_symmetry_cell_setting 'orthorhombic'
loop_
_space_group_symop_operation_xyz
x,y,z
-x,-y,z
1/2+x,1/2-y,-z
1/2-x,1/2+y,-z
loop_
_atom_site_type_symbol
_atom_site_label
_atom_site_fract_x
_atom_site_fract_y
_atom_site_fract_z
Si Si1 0.574383 0.104258 0.165653
Si Si2 0.067201 0.250000 0.893079
Si Si3 0.595099 0.750000 0.612566
Si Si4 0.686813 0.604062 0.471679
Si Si5 0.186813 0.604062 0.528322
Si Si6 0.500000 0.500000 0.785940
Si Si7 0.925618 0.895742 0.834347
Si Si8 0.000000 0.500000 0.214061
O O1 0.623782 0.175743 0.055449
O O2 0.654838 0.092348 0.433224
O O3 0.406475 0.104100 0.213209
O O4 0.596736 0.045957 0.967334
O O5 0.123782 0.175744 0.944551
O O6 0.032537 0.250000 0.591195
O O7 0.938888 0.250000 0.089629
O O8 0.667172 0.680951 0.550860
O O9 0.667172 0.819049 0.550860
O O10 0.601657 0.549138 0.632820
O O11 0.593525 0.604100 0.213209
O O12 0.345162 0.592348 0.433225
O O13 0.101657 0.549138 0.367181
O O14 0.403264 0.545957 0.967335
#
# Coordination Sequence:
#
# PCOD9312466 Si02
#       8
#     4   4   4   4   4   2   4   2
#     4  11  25  45  70 102 139 186 238 298 360 429
#     4  10  21  46  72 105 139 184 236 298 357 423
#     4  10  21  46  72 105 139 184 236 298 357 423
#     4  11  25  45  70 102 139 186 238 298 360 429
#     4  11  25  45  70 102 139 186 238 298 360 429
#     4  12  24  42  68 100 142 186 238 290 360 434
#     4  11  25  45  70 102 139 186 238 298 360 429
#     4  12  24  42  68 100 142 186 238 290 360 434
#
# _framework density 27.781148000000002
#
# number of rings (size 3 to 8) (size 9 to 14) (size 15 to 20)
#    0.000    1.143    2.857    2.571    0.000    6.857 
#    0.000    2.857    0.000    0.000    0.000    0.000 
#    0.000    0.000    0.000    0.000    0.000    0.000 
#
# Total GULP energy -156406.383876 kJ/mol
# GULP energy per Si atom -5585.942281 kJ/mol
# Density = 2.771792 g / cm^3
# Si number density = 27.781148 Si / 1000 Ang^3
#
#
#
# Elastic Constant Matrix: (Units=GPa)
#
#
# Indices 1 2 3 4 5 6 
#
# 1 76.6809 32.0345 -8.0898 0.0000 0.0000 0.0000
# 2 32.0345 233.0688 41.7648 0.0000 0.0000 0.0000
# 3 -8.0898 41.7648 51.8539 0.0000 0.0000 0.0000
# 4 0.0000 0.0000 0.0000 48.9185 0.0000 0.0000
# 5 0.0000 0.0000 0.0000 0.0000 12.5243 0.0000
# 6 0.0000 0.0000 0.0000 0.0000 0.0000 17.0859
#
#
#
# Elastic Compliance Matrix: (Units=1/GPa)
#
#
# Indices 1 2 3 4 5 6 
#
# 1 0.014713 -0.002844 0.004586 0.000000 0.000000 0.000000
# 2 -0.002844 0.005564 -0.004925 0.000000 0.000000 0.000000
# 3 0.004586 -0.004925 0.023967 0.000000 0.000000 0.000000
# 4 0.000000 0.000000 0.000000 0.020442 0.000000 0.000000
# 5 0.000000 0.000000 0.000000 0.000000 0.079845 0.000000
# 6 0.000000 0.000000 0.000000 0.000000 0.000000 0.058528
#
#
# Mechanical properties :
#
#
# Convention : Reuss Voigt Hill
#
# Bulk Modulus (GPa) = 26.40046 54.78029 40.59038
# Shear Modulus (GPa) = 22.51728 35.43200 28.97464
#
# Velocity S-wave (km/s) = 2.85006 3.57514 3.23299
# Velocity P-wave (km/s) = 4.51155 6.06659 5.34592
#
# Compressibility (1/GPa) = 0.03787812
#
# Stress axis : x y z
#
# Youngs Moduli (GPa) = 67.96696 179.72525 41.72349
#
# Poissons Ratio (x) = 0.51115 -0.19135
# Poissons Ratio (y) = 0.19330 0.20550
# Poissons Ratio (z) = -0.31170 0.88518
#
# Static dielectric constant tensor:
#      x y z
#    x 2.305460 0.000000 0.000000 
#    y 0.000000 2.105570 0.000000 
#    z 0.000000 0.000000 2.185320 
# 
# From -- ./inp_files/1256.got.cif
#   From: 2010.05.17/outbox.cif.g08.bks.cpg/sg18_1_cif.got.tgz:1256.got - 2010.06.03 22:40:56.
