data_PCOD9312146
_publ_section_title
;
Structure prediction by ZEFSAII (Michael W. Deem and Ramdas Pophale) SiO2 
 PCOD9312146
Probable space group: P 21 21 2
;
_chemical_formula_sum "Si O2"
_cell_formula_units_Z 24
_cell_length_a 22.007735
_cell_length_b 7.626112
_cell_length_c 5.452140
_cell_angle_alpha 90.000000
_cell_angle_beta 90.000000
_cell_angle_gamma 90.000000
_cell_volume 915.051477
_symmetry_space_group_name_H-M "P 21 21 2"
_symmetry_group_IT_number 18
_symmetry_cell_setting 'orthorhombic'
loop_
_space_group_symop_operation_xyz
x,y,z
-x,-y,z
1/2+x,1/2-y,-z
1/2-x,1/2+y,-z
loop_
_atom_site_type_symbol
_atom_site_label
_atom_site_fract_x
_atom_site_fract_y
_atom_site_fract_z
Si Si1 0.199580 0.252880 0.722214
Si Si2 0.412978 0.893049 0.036301
Si Si3 0.313016 0.417078 0.581532
Si Si4 0.938021 0.103999 0.243029
Si Si5 0.373191 0.039450 0.526499
Si Si6 0.028627 0.805123 0.754332
O O1 0.146166 0.269913 0.921917
O O2 0.260432 0.366498 0.777067
O O3 0.172217 0.371494 0.501797
O O4 0.207940 0.055302 0.624969
O O5 0.408352 0.023547 0.267920
O O6 0.475630 0.798502 0.102690
O O7 0.407750 0.988543 0.777617
O O8 0.378022 0.494539 0.666980
O O9 0.333767 0.217745 0.515671
O O10 0.953538 0.234858 0.470778
O O11 0.922198 0.166277 0.969381
O O12 0.000000 0.000000 0.212730
O O13 0.000000 0.000000 0.710636
#
# Coordination Sequence:
#
# PCOD9312146 Si02
#       6
#     4   4   4   4   4   4
#     4  10  23  46  75 107 143 197 236 322 377 443
#     4  10  22  47  72 102 150 181 252 300 367 441
#     4  12  23  50  75 108 152 194 257 310 388 459
#     4  10  23  40  67 106 139 195 243 296 375 445
#     4  10  25  46  66 112 135 192 240 308 371 445
#     4  10  20  39  68 100 137 189 239 294 365 436
#
# _framework density 26.228031999999999
#
# number of rings (size 3 to 8) (size 9 to 14) (size 15 to 20)
#    1.000    0.667    1.667    3.000    4.667    1.333 
#   12.000    5.000    0.000    0.000    0.000    0.000 
#    0.000    0.000    0.000    0.000    0.000    0.000 
#
# Total GULP energy -133683.872338 kJ/mol
# GULP energy per Si atom -5570.161347 kJ/mol
# Density = 2.616834 g / cm^3
# Si number density = 26.228032 Si / 1000 Ang^3
#
#
#
# Elastic Constant Matrix: (Units=GPa)
#
#
# Indices 1 2 3 4 5 6 
#
# 1 106.3382 -7.6375 22.9858 0.0000 0.0000 0.0000
# 2 -7.6375 98.7936 51.9216 0.0000 0.0000 0.0000
# 3 22.9858 51.9216 183.1825 0.0000 0.0000 0.0000
# 4 0.0000 0.0000 0.0000 62.1438 0.0000 0.0000
# 5 0.0000 0.0000 0.0000 0.0000 37.4711 0.0000
# 6 0.0000 0.0000 0.0000 0.0000 0.0000 35.0003
#
#
#
# Elastic Compliance Matrix: (Units=1/GPa)
#
#
# Indices 1 2 3 4 5 6 
#
# 1 0.009894 0.001665 -0.001714 0.000000 0.000000 0.000000
# 2 0.001665 0.012174 -0.003660 0.000000 0.000000 0.000000
# 3 -0.001714 -0.003660 0.006711 0.000000 0.000000 0.000000
# 4 0.000000 0.000000 0.000000 0.016092 0.000000 0.000000
# 5 0.000000 0.000000 0.000000 0.000000 0.026687 0.000000
# 6 0.000000 0.000000 0.000000 0.000000 0.000000 0.028571
#
#
# Mechanical properties :
#
#
# Convention : Reuss Voigt Hill
#
# Bulk Modulus (GPa) = 46.80767 58.09488 52.45127
# Shear Modulus (GPa) = 43.60469 48.32600 45.96534
#
# Velocity S-wave (km/s) = 4.08183 4.29713 4.19086
# Velocity P-wave (km/s) = 6.33248 6.84240 6.59237
#
# Compressibility (1/GPa) = 0.02136402
#
# Stress axis : x y z
#
# Youngs Moduli (GPa) = 101.07159 82.14072 149.00114
#
# Poissons Ratio (x) = -0.13680 0.25532
# Poissons Ratio (y) = -0.16833 0.54529
# Poissons Ratio (z) = 0.17319 0.30061
#
# Static dielectric constant tensor:
#      x y z
#    x 2.209870 0.000000 0.000000 
#    y 0.000000 2.415080 0.000000 
#    z 0.000000 0.000000 2.010270 
# 
# From -- ./inp_files/2081.got.cif
#   From: 2010.05.17/outbox.cif.g08.bks.cpg/sg18_2_cif.got.tgz:2081.got - 2010.06.03 22:40:56.
