data_PCOD9312187
_publ_section_title
;
Structure prediction by ZEFSAII (Michael W. Deem and Ramdas Pophale) SiO2 
 PCOD9312187
Probable space group: P 21 21 2
;
_chemical_formula_sum "Si O2"
_cell_formula_units_Z 30
_cell_length_a 12.248374
_cell_length_b 14.322036
_cell_length_c 7.476964
_cell_angle_alpha 90.000000
_cell_angle_beta 90.000000
_cell_angle_gamma 90.000000
_cell_volume 1311.621387
_symmetry_space_group_name_H-M "P 21 21 2"
_symmetry_group_IT_number 18
_symmetry_cell_setting 'orthorhombic'
loop_
_space_group_symop_operation_xyz
x,y,z
-x,-y,z
1/2+x,1/2-y,-z
1/2-x,1/2+y,-z
loop_
_atom_site_type_symbol
_atom_site_label
_atom_site_fract_x
_atom_site_fract_y
_atom_site_fract_z
Si Si1 0.025024 0.375802 0.694886
Si Si2 0.927991 0.815689 0.790183
Si Si3 0.987568 0.253428 0.167892
Si Si4 0.850572 0.609487 0.060087
Si Si5 0.649194 0.584402 0.848591
Si Si6 0.701864 0.904288 0.786105
Si Si7 0.500000 0.500000 0.146800
Si Si8 0.186060 0.527499 0.601125
O O1 0.060782 0.270178 0.657742
O O2 0.098869 0.443095 0.572543
O O3 0.896498 0.395544 0.684436
O O4 0.064139 0.400411 0.895821
O O5 0.807843 0.847444 0.850324
O O6 0.994787 0.781938 0.964124
O O7 0.982712 0.911022 0.731261
O O8 0.935730 0.156488 0.244581
O O9 0.899036 0.333961 0.199418
O O10 0.100964 0.311980 0.193241
O O11 0.828312 0.505250 0.131156
O O12 0.741389 0.642454 0.957308
O O13 0.594515 0.523043 0.004448
O O14 0.717097 0.516053 0.718514
O O15 0.727754 0.929483 0.581049
#
# Coordination Sequence:
#
# PCOD9312187 Si02
#       8
#     4   4   4   4   4   4   2   4
#     4   9  21  41  65  95 134 180 227 280 349 412
#     4  10  22  41  66  99 137 170 235 303 333 399
#     4  10  22  36  69  98 127 173 229 288 336 404
#     4  10  21  36  70  99 125 171 239 293 328 397
#     4  10  21  43  66  94 137 180 221 286 363 415
#     4  12  23  39  68 104 135 172 234 290 345 406
#     4  10  20  40  68  98 126 182 240 290 340 416
#     4  10  23  39  65  94 142 182 214 279 355 432
#
# _framework density 22.872453
#
# number of rings (size 3 to 8) (size 9 to 14) (size 15 to 20)
#    0.000    1.867    1.333    2.800   16.800    0.000 
#    0.000    6.000    8.800    0.000    0.000    0.000 
#    0.000    0.000    0.000    0.000    0.000    0.000 
#
# Total GULP energy -167088.678520 kJ/mol
# GULP energy per Si atom -5569.622617 kJ/mol
# Density = 2.282039 g / cm^3
# Si number density = 22.872453 Si / 1000 Ang^3
#
#
#
# Elastic Constant Matrix: (Units=GPa)
#
#
# Indices 1 2 3 4 5 6 
#
# 1 71.0003 39.8978 25.3861 0.0000 0.0000 0.0000
# 2 39.8978 153.3802 12.1644 0.0000 0.0000 0.0000
# 3 25.3861 12.1644 36.9177 0.0000 0.0000 0.0000
# 4 0.0000 0.0000 0.0000 13.9500 0.0000 0.0000
# 5 0.0000 0.0000 0.0000 0.0000 8.0240 0.0000
# 6 0.0000 0.0000 0.0000 0.0000 0.0000 39.6634
#
#
#
# Elastic Compliance Matrix: (Units=1/GPa)
#
#
# Indices 1 2 3 4 5 6 
#
# 1 0.021328 -0.004502 -0.013182 0.000000 0.000000 0.000000
# 2 -0.004502 0.007645 0.000577 0.000000 0.000000 0.000000
# 3 -0.013182 0.000577 0.035962 0.000000 0.000000 0.000000
# 4 0.000000 0.000000 0.000000 0.071685 0.000000 0.000000
# 5 0.000000 0.000000 0.000000 0.000000 0.124627 0.000000
# 6 0.000000 0.000000 0.000000 0.000000 0.000000 0.025212
#
#
# Mechanical properties :
#
#
# Convention : Reuss Voigt Hill
#
# Bulk Modulus (GPa) = 32.55285 46.24388 39.39837
# Shear Modulus (GPa) = 15.10967 24.58412 19.84690
#
# Velocity S-wave (km/s) = 2.57301 3.28202 2.94891
# Velocity P-wave (km/s) = 4.80525 5.88424 5.37191
#
# Compressibility (1/GPa) = 0.03071927
#
# Stress axis : x y z
#
# Youngs Moduli (GPa) = 46.88701 130.80159 27.80721
#
# Poissons Ratio (x) = 0.58892 0.36656
# Poissons Ratio (y) = 0.21110 -0.01604
# Poissons Ratio (z) = 0.61808 -0.07546
#
# Static dielectric constant tensor:
#      x y z
#    x 1.980290 0.000000 0.000000 
#    y 0.000000 1.946950 0.000000 
#    z 0.000000 0.000000 1.867900 
# 
# From -- ./inp_files/3908.got.cif
#   From: 2010.05.17/outbox.cif.g08.bks.cpg/sg18_2_cif.got.tgz:3908.got - 2010.06.03 22:40:56.
