data_PCOD9312366
_publ_section_title
;
Structure prediction by ZEFSAII (Michael W. Deem and Ramdas Pophale) SiO2 
 PCOD9312366
Probable space group: P 21 21 2
;
_chemical_formula_sum "Si O2"
_cell_formula_units_Z 28
_cell_length_a 25.149427
_cell_length_b 8.217646
_cell_length_c 5.775814
_cell_angle_alpha 90.000000
_cell_angle_beta 90.000000
_cell_angle_gamma 90.000000
_cell_volume 1193.682213
_symmetry_space_group_name_H-M "P 21 21 2"
_symmetry_group_IT_number 18
_symmetry_cell_setting 'orthorhombic'
loop_
_space_group_symop_operation_xyz
x,y,z
-x,-y,z
1/2+x,1/2-y,-z
1/2-x,1/2+y,-z
loop_
_atom_site_type_symbol
_atom_site_label
_atom_site_fract_x
_atom_site_fract_y
_atom_site_fract_z
Si Si1 0.576017 0.401135 0.867740
Si Si2 0.320843 0.945166 0.468458
Si Si3 0.731244 0.367275 0.696024
Si Si4 0.463613 0.242646 0.969607
Si Si5 0.577811 0.863344 0.468263
Si Si6 0.681579 0.303345 0.099841
Si Si7 0.639621 0.533000 0.494365
O O1 0.524028 0.303688 0.940307
O O2 0.569887 0.586194 0.967171
O O3 0.588753 0.433179 0.596208
O O4 0.627317 0.306894 0.954568
O O5 0.281341 0.097455 0.461396
O O6 0.382516 0.984727 0.495171
O O7 0.296873 0.801751 0.623361
O O8 0.314009 0.870746 0.213746
O O9 0.688019 0.513739 0.675363
O O10 0.735742 0.345274 0.968770
O O11 0.451069 0.156205 0.719909
O O12 0.452805 0.150319 0.216928
O O13 0.617611 0.709527 0.453240
O O14 0.667114 0.441866 0.283891
#
# Coordination Sequence:
#
# PCOD9312366 Si02
#       7
#     4   4   4   4   4   4   4
#     4   9  19  37  66  95 130 166 220 275 330 389
#     4  11  25  41  65  89 137 167 224 274 339 399
#     4  10  23  43  63  94 123 176 219 274 338 405
#     4  10  22  37  68  99 130 173 224 272 329 395
#     4  11  23  40  63 100 133 173 220 276 325 391
#     4  10  21  40  66  93 126 169 216 277 331 397
#     4   9  19  39  64  95 127 165 218 275 327 387
#
# _framework density 23.456827000000001
#
# number of rings (size 3 to 8) (size 9 to 14) (size 15 to 20)
#    0.000    2.000    1.429    0.857    4.000    4.571 
#    0.000    0.714    0.000    0.000    0.000    0.000 
#    0.000    0.000    0.000    0.000    0.000    0.000 
#
# Total GULP energy -155920.977262 kJ/mol
# GULP energy per Si atom -5568.606331 kJ/mol
# Density = 2.340344 g / cm^3
# Si number density = 23.456827 Si / 1000 Ang^3
#
#
#
# Elastic Constant Matrix: (Units=GPa)
#
#
# Indices 1 2 3 4 5 6 
#
# 1 52.9080 3.1088 18.9217 0.0000 0.0000 0.0000
# 2 3.1088 40.5635 15.7530 0.0000 0.0000 0.0000
# 3 18.9217 15.7530 93.8875 0.0000 0.0000 0.0000
# 4 0.0000 0.0000 0.0000 19.3467 0.0000 0.0000
# 5 0.0000 0.0000 0.0000 0.0000 17.1204 0.0000
# 6 0.0000 0.0000 0.0000 0.0000 0.0000 42.6277
#
#
#
# Elastic Compliance Matrix: (Units=1/GPa)
#
#
# Indices 1 2 3 4 5 6 
#
# 1 0.020369 0.000035 -0.004111 0.000000 0.000000 0.000000
# 2 0.000035 0.026371 -0.004432 0.000000 0.000000 0.000000
# 3 -0.004111 -0.004432 0.012223 0.000000 0.000000 0.000000
# 4 0.000000 0.000000 0.000000 0.051688 0.000000 0.000000
# 5 0.000000 0.000000 0.000000 0.000000 0.058410 0.000000
# 6 0.000000 0.000000 0.000000 0.000000 0.000000 0.023459
#
#
# Mechanical properties :
#
#
# Convention : Reuss Voigt Hill
#
# Bulk Modulus (GPa) = 23.83884 29.21402 26.52643
# Shear Modulus (GPa) = 22.36957 25.79066 24.08011
#
# Velocity S-wave (km/s) = 3.09147 3.31946 3.20749
# Velocity P-wave (km/s) = 4.78830 5.21279 5.00505
#
# Compressibility (1/GPa) = 0.04194834
#
# Stress axis : x y z
#
# Youngs Moduli (GPa) = 49.09446 37.92023 81.81183
#
# Poissons Ratio (x) = -0.00134 0.33633
# Poissons Ratio (y) = -0.00174 0.36258
# Poissons Ratio (z) = 0.20183 0.16806
#
# Static dielectric constant tensor:
#      x y z
#    x 1.919420 0.000000 0.000000 
#    y 0.000000 1.924330 0.000000 
#    z 0.000000 0.000000 2.128050 
# 
# From -- ./inp_files/2210.got.cif
#   From: 2010.05.17/outbox.cif.g08.bks.cpg/sg18_2_cif.got.tgz:2210.got - 2010.06.03 22:40:56.
