data_PCOD9312668
_publ_section_title
;
Structure prediction by ZEFSAII (Michael W. Deem and Ramdas Pophale) SiO2 
 PCOD9312668
Probable space group: P 21 21 2
;
_chemical_formula_sum "Si O2"
_cell_formula_units_Z 26
_cell_length_a 7.813071
_cell_length_b 16.658245
_cell_length_c 9.009504
_cell_angle_alpha 90.000000
_cell_angle_beta 90.000000
_cell_angle_gamma 90.000000
_cell_volume 1172.605423
_symmetry_space_group_name_H-M "P 21 21 2"
_symmetry_group_IT_number 18
_symmetry_cell_setting 'orthorhombic'
loop_
_space_group_symop_operation_xyz
x,y,z
-x,-y,z
1/2+x,1/2-y,-z
1/2-x,1/2+y,-z
loop_
_atom_site_type_symbol
_atom_site_label
_atom_site_fract_x
_atom_site_fract_y
_atom_site_fract_z
Si Si1 0.435112 0.830230 0.431780
Si Si2 0.500000 0.000000 0.316397
Si Si3 0.385895 0.281421 0.229353
Si Si4 0.438418 0.588922 0.410696
Si Si5 0.931667 0.768448 0.066592
Si Si6 0.638659 0.431784 0.759617
Si Si7 0.160448 0.707011 0.306181
O O1 0.427636 0.925277 0.412121
O O2 0.591062 0.798826 0.326360
O O3 0.273437 0.779979 0.373617
O O4 0.490076 0.802486 0.593951
O O5 0.668040 0.967330 0.230623
O O6 0.416452 0.351977 0.346465
O O7 0.221088 0.286459 0.127435
O O8 0.536435 0.276893 0.107048
O O9 0.500000 0.500000 0.372743
O O10 0.403055 0.590708 0.587012
O O11 0.268583 0.625772 0.333827
O O12 0.895194 0.855351 0.137389
O O13 0.097688 0.729128 0.143516
O O14 0.500000 0.500000 0.799168
#
# Coordination Sequence:
#
# PCOD9312668 Si02
#       7
#     4   2   4   4   4   4   4
#     4  11  22  41  66 101 131 177 218 288 330 408
#     4  12  22  40  68 106 134 170 234 276 348 402
#     4  11  23  42  68  89 134 177 223 275 340 409
#     4  10  22  43  66 100 135 173 219 285 344 402
#     4  12  24  44  66  97 129 183 229 275 343 419
#     4  11  24  42  69 100 139 172 220 287 345 405
#     4  11  22  40  68  94 135 176 223 276 350 403
#
# _framework density 22.172847000000001
#
# number of rings (size 3 to 8) (size 9 to 14) (size 15 to 20)
#    0.000    0.923    3.077    5.538    0.000    5.538 
#    0.000    0.000    0.000    0.000    0.000    0.000 
#    0.000    0.000    0.000    0.000    0.000    0.000 
#
# Total GULP energy -145324.082826 kJ/mol
# GULP energy per Si atom -5589.387801 kJ/mol
# Density = 2.212238 g / cm^3
# Si number density = 22.172847 Si / 1000 Ang^3
#
#
#
# Elastic Constant Matrix: (Units=GPa)
#
#
# Indices 1 2 3 4 5 6 
#
# 1 95.7134 11.5476 -0.2111 0.0000 0.0000 0.0000
# 2 11.5476 127.5975 21.8369 0.0000 0.0000 0.0000
# 3 -0.2111 21.8369 82.3142 0.0000 0.0000 0.0000
# 4 0.0000 0.0000 0.0000 16.6525 0.0000 0.0000
# 5 0.0000 0.0000 0.0000 0.0000 32.7015 0.0000
# 6 0.0000 0.0000 0.0000 0.0000 0.0000 38.2603
#
#
#
# Elastic Compliance Matrix: (Units=1/GPa)
#
#
# Indices 1 2 3 4 5 6 
#
# 1 0.010570 -0.001007 0.000294 0.000000 0.000000 0.000000
# 2 -0.001007 0.008306 -0.002206 0.000000 0.000000 0.000000
# 3 0.000294 -0.002206 0.012735 0.000000 0.000000 0.000000
# 4 0.000000 0.000000 0.000000 0.060051 0.000000 0.000000
# 5 0.000000 0.000000 0.000000 0.000000 0.030580 0.000000
# 6 0.000000 0.000000 0.000000 0.000000 0.000000 0.026137
#
#
# Mechanical properties :
#
#
# Convention : Reuss Voigt Hill
#
# Bulk Modulus (GPa) = 38.80040 41.33020 40.06530
# Shear Modulus (GPa) = 30.71137 35.68631 33.19884
#
# Velocity S-wave (km/s) = 3.72572 4.01616 3.87366
# Velocity P-wave (km/s) = 6.00375 6.33928 6.17380
#
# Compressibility (1/GPa) = 0.02577293
#
# Stress axis : x y z
#
# Youngs Moduli (GPa) = 94.60748 120.39772 78.52657
#
# Poissons Ratio (x) = 0.12123 -0.02311
# Poissons Ratio (y) = 0.09526 0.17323
# Poissons Ratio (z) = -0.02784 0.26560
#
# Static dielectric constant tensor:
#      x y z
#    x 1.958200 0.000000 0.000000 
#    y 0.000000 1.787620 0.000000 
#    z 0.000000 0.000000 1.752860 
# 
# From -- ./inp_files/3366.got.cif
#   From: 2010.05.17/outbox.cif.g08.bks.cpg/sg18_2_cif.got.tgz:3366.got - 2010.06.03 22:40:56.
