data_PCOD9312271
_publ_section_title
;
Structure prediction by ZEFSAII (Michael W. Deem and Ramdas Pophale) SiO2 
 PCOD9312271
Probable space group: P 21 21 2
;
_chemical_formula_sum "Si O2"
_cell_formula_units_Z 20
_cell_length_a 7.798693
_cell_length_b 7.465741
_cell_length_c 13.377513
_cell_angle_alpha 90.000000
_cell_angle_beta 90.000000
_cell_angle_gamma 90.000000
_cell_volume 778.879235
_symmetry_space_group_name_H-M "P 21 21 2"
_symmetry_group_IT_number 18
_symmetry_cell_setting 'orthorhombic'
loop_
_space_group_symop_operation_xyz
x,y,z
-x,-y,z
1/2+x,1/2-y,-z
1/2-x,1/2+y,-z
loop_
_atom_site_type_symbol
_atom_site_label
_atom_site_fract_x
_atom_site_fract_y
_atom_site_fract_z
Si Si1 0.184855 0.404329 0.055100
Si Si2 0.432374 0.705245 0.357532
Si Si3 0.046659 0.209698 0.233232
Si Si4 0.451923 0.287381 0.563068
Si Si5 0.314013 0.722062 0.151933
O O1 0.330121 0.534180 0.095901
O O2 0.000000 0.500000 0.049160
O O3 0.169700 0.253264 0.141135
O O4 0.214869 0.350092 0.941549
O O5 0.500000 0.500000 0.346378
O O6 0.535212 0.787375 0.450994
O O7 0.238048 0.740159 0.397907
O O8 0.436612 0.775953 0.243161
O O9 0.081800 0.272410 0.347169
O O10 0.868818 0.304027 0.205505
O O11 0.000000 0.000000 0.236770
O O12 0.500000 0.500000 0.553072
#
# Coordination Sequence:
#
# PCOD9312271 Si02
#       5
#     4   4   4   4   4
#     4  10  21  36  58  87 121 166 215 273 337 398
#     4  10  22  41  65  98 134 178 230 284 345 411
#     4   9  18  35  58  82 115 160 209 265 332 396
#     4   9  20  41  65  93 130 173 224 280 339 407
#     4  10  21  37  58  88 125 167 220 272 333 408
#
# _framework density 25.67792
#
# number of rings (size 3 to 8) (size 9 to 14) (size 15 to 20)
#    0.000    2.400    0.000    1.200    0.000    7.200 
#    0.000   18.000    0.000    0.000    0.000    0.000 
#    0.000    0.000    0.000    0.000    0.000    0.000 
#
# Total GULP energy -111410.284813 kJ/mol
# GULP energy per Si atom -5570.514241 kJ/mol
# Density = 2.561948 g / cm^3
# Si number density = 25.677920 Si / 1000 Ang^3
#
#
#
# Elastic Constant Matrix: (Units=GPa)
#
#
# Indices 1 2 3 4 5 6 
#
# 1 73.4422 17.9135 32.0152 0.0000 0.0000 0.0000
# 2 17.9135 65.1712 22.6939 0.0000 0.0000 0.0000
# 3 32.0152 22.6939 280.6261 0.0000 0.0000 0.0000
# 4 0.0000 0.0000 0.0000 -12.6175 0.0000 0.0000
# 5 0.0000 0.0000 0.0000 0.0000 -18.3426 0.0000
# 6 0.0000 0.0000 0.0000 0.0000 0.0000 19.8022
#
#
#
# Elastic Compliance Matrix: (Units=1/GPa)
#
#
# Indices 1 2 3 4 5 6 
#
# 1 0.015133 -0.003661 -0.001430 0.000000 0.000000 0.000000
# 2 -0.003661 0.016675 -0.000931 0.000000 0.000000 0.000000
# 3 -0.001430 -0.000931 0.003802 0.000000 0.000000 0.000000
# 4 0.000000 0.000000 0.000000 -0.079255 0.000000 0.000000
# 5 0.000000 0.000000 0.000000 0.000000 -0.054518 0.000000
# 6 0.000000 0.000000 0.000000 0.000000 0.000000 0.050499
#
#
# Mechanical properties :
#
#
# Convention : Reuss Voigt Hill
#
# Bulk Modulus (GPa) = 42.43700 62.72052 52.57876
# Shear Modulus (GPa) = -180.08849 20.87621 -79.60614
#
# Velocity S-wave (km/s) = -8.38367 2.85441 -5.57397
# Velocity P-wave (km/s) = 8.78362 5.94495 4.57217
#
# Compressibility (1/GPa) = 0.02356434
#
# Stress axis : x y z
#
# Youngs Moduli (GPa) = 66.08189 59.97100 263.02588
#
# Poissons Ratio (x) = 0.21958 0.37621
# Poissons Ratio (y) = 0.24196 0.24481
# Poissons Ratio (z) = 0.09452 0.05582
#
# Static dielectric constant tensor:
#      x y z
#    x 2.056850 0.000000 0.000000 
#    y 0.000000 2.291750 0.000000 
#    z 0.000000 0.000000 2.184720 
# 
# From -- ./inp_files/5394.got.cif
#   From: 2010.05.17/outbox.cif.g08.bks.cpg/sg18_3_cif.got.tgz:5394.got - 2010.06.03 22:40:56.
