data_PCOD9312224
_publ_section_title
;
Structure prediction by ZEFSAII (Michael W. Deem and Ramdas Pophale) SiO2 
 PCOD9312224
Probable space group: P 21 21 2
;
_chemical_formula_sum "Si O2"
_cell_formula_units_Z 16
_cell_length_a 13.232872
_cell_length_b 5.105167
_cell_length_c 9.757682
_cell_angle_alpha 90.000000
_cell_angle_beta 90.000000
_cell_angle_gamma 90.000000
_cell_volume 659.190174
_symmetry_space_group_name_H-M "P 21 21 2"
_symmetry_group_IT_number 18
_symmetry_cell_setting 'orthorhombic'
loop_
_space_group_symop_operation_xyz
x,y,z
-x,-y,z
1/2+x,1/2-y,-z
1/2-x,1/2+y,-z
loop_
_atom_site_type_symbol
_atom_site_label
_atom_site_fract_x
_atom_site_fract_y
_atom_site_fract_z
Si Si1 0.707823 0.335975 0.078251
Si Si2 0.370678 0.333742 0.737765
Si Si3 0.183009 0.206975 0.475748
Si Si4 0.000000 0.000000 0.015554
Si Si5 0.000000 0.500000 0.474939
O O1 0.760184 0.267528 0.221565
O O2 0.757526 0.603660 0.023267
O O3 0.587156 0.362539 0.072186
O O4 0.355040 0.625418 0.677469
O O5 0.436284 0.325077 0.876270
O O6 0.430059 0.178478 0.622019
O O7 0.265512 0.436805 0.476698
O O8 0.081800 0.315342 0.549174
#
# Coordination Sequence:
#
# PCOD9312224 Si02
#       5
#     4   4   4   2   2
#     4  10  23  38  66 106 144 178 237 290 342 424
#     4  11  22  41  74 103 143 191 242 290 356 435
#     4  12  26  43  72 109 140 180 251 310 354 431
#     4  10  20  42  70 108 138 190 228 286 352 426
#     4  12  22  44  76 102 138 192 242 296 366 434
#
# _framework density 24.272207000000002
#
# number of rings (size 3 to 8) (size 9 to 14) (size 15 to 20)
#    0.000    1.000    5.000    1.500    3.500    3.000 
#    0.000    0.000   11.000    0.000    0.000    0.000 
#    0.000    0.000    0.000    0.000    0.000    0.000 
#
# Total GULP energy -89391.020456 kJ/mol
# GULP energy per Si atom -5586.938778 kJ/mol
# Density = 2.421696 g / cm^3
# Si number density = 24.272207 Si / 1000 Ang^3
#
#
#
# Elastic Constant Matrix: (Units=GPa)
#
#
# Indices 1 2 3 4 5 6 
#
# 1 220.9106 86.0264 40.0842 0.0000 0.0000 0.0000
# 2 86.0264 118.9574 18.6200 0.0000 0.0000 0.0000
# 3 40.0842 18.6200 30.0923 0.0000 0.0000 0.0000
# 4 0.0000 0.0000 0.0000 26.8732 0.0000 0.0000
# 5 0.0000 0.0000 0.0000 0.0000 52.5642 0.0000
# 6 0.0000 0.0000 0.0000 0.0000 0.0000 59.1867
#
#
#
# Elastic Compliance Matrix: (Units=1/GPa)
#
#
# Indices 1 2 3 4 5 6 
#
# 1 0.007540 -0.004297 -0.007385 0.000000 0.000000 0.000000
# 2 -0.004297 0.011756 -0.001551 0.000000 0.000000 0.000000
# 3 -0.007385 -0.001551 0.044028 0.000000 0.000000 0.000000
# 4 0.000000 0.000000 0.000000 0.037212 0.000000 0.000000
# 5 0.000000 0.000000 0.000000 0.000000 0.019024 0.000000
# 6 0.000000 0.000000 0.000000 0.000000 0.000000 0.016896
#
#
# Mechanical properties :
#
#
# Convention : Reuss Voigt Hill
#
# Bulk Modulus (GPa) = 27.13047 73.26903 50.19975
# Shear Modulus (GPa) = 28.53763 42.74014 35.63889
#
# Velocity S-wave (km/s) = 3.43262 4.20082 3.83600
# Velocity P-wave (km/s) = 5.18771 7.33356 6.35191
#
# Compressibility (1/GPa) = 0.03685893
#
# Stress axis : x y z
#
# Youngs Moduli (GPa) = 132.62772 85.06009 22.71295
#
# Poissons Ratio (x) = 0.36548 0.16773
# Poissons Ratio (y) = 0.56986 0.03523
# Poissons Ratio (z) = 0.97943 0.13193
#
# Static dielectric constant tensor:
#      x y z
#    x 1.999140 0.000000 0.000000 
#    y 0.000000 1.968210 0.000000 
#    z 0.000000 0.000000 1.991750 
# 
# From -- ./inp_files/5782.got.cif
#   From: 2010.05.17/outbox.cif.g08.bks.cpg/sg18_3_cif.got.tgz:5782.got - 2010.06.03 22:40:56.
