data_PCOD9312694
_publ_section_title
;
Structure prediction by ZEFSAII (Michael W. Deem and Ramdas Pophale) SiO2 
 PCOD9312694
Probable space group: P 21 21 2
;
_chemical_formula_sum "Si O2"
_cell_formula_units_Z 18
_cell_length_a 13.577299
_cell_length_b 6.891788
_cell_length_c 8.543331
_cell_angle_alpha 90.000000
_cell_angle_beta 90.000000
_cell_angle_gamma 90.000000
_cell_volume 799.415426
_symmetry_space_group_name_H-M "P 21 21 2"
_symmetry_group_IT_number 18
_symmetry_cell_setting 'orthorhombic'
loop_
_space_group_symop_operation_xyz
x,y,z
-x,-y,z
1/2+x,1/2-y,-z
1/2-x,1/2+y,-z
loop_
_atom_site_type_symbol
_atom_site_label
_atom_site_fract_x
_atom_site_fract_y
_atom_site_fract_z
Si Si1 0.194776 0.686635 0.665802
Si Si2 0.894689 0.677924 0.488264
Si Si3 0.886175 0.539830 0.937302
Si Si4 0.598517 0.421691 0.210587
Si Si5 0.000000 0.500000 0.229659
O O1 0.133801 0.538460 0.552409
O O2 0.297257 0.721557 0.579564
O O3 0.189709 0.576220 0.831945
O O4 0.157053 0.898814 0.717831
O O5 0.930770 0.795335 0.637696
O O6 0.971897 0.670604 0.347324
O O7 0.858873 0.764225 0.909552
O O8 0.000000 0.500000 0.876271
O O9 0.905224 0.478472 0.116373
O O10 0.500000 0.500000 0.131478
#
# Coordination Sequence:
#
# PCOD9312694 Si02
#       5
#     4   4   4   4   2
#     4  11  21  40  62  93 120 162 208 260 310 364
#     4  11  23  39  64  93 126 154 217 268 302 365
#     4   9  21  40  59  84 125 159 203 242 315 381
#     4  11  19  37  67  87 116 166 202 253 309 365
#     4  10  22  44  58  90 128 164 200 258 308 386
#
# _framework density 22.516454
#
# number of rings (size 3 to 8) (size 9 to 14) (size 15 to 20)
#    0.667    0.889    4.444    1.333    3.111    0.000 
#    4.000   10.000    0.000    0.000    0.000    0.000 
#    0.000    0.000    0.000    0.000    0.000    0.000 
#
# Total GULP energy -100247.684633 kJ/mol
# GULP energy per Si atom -5569.315813 kJ/mol
# Density = 2.246521 g / cm^3
# Si number density = 22.516454 Si / 1000 Ang^3
#
#
#
# Elastic Constant Matrix: (Units=GPa)
#
#
# Indices 1 2 3 4 5 6 
#
# 1 21.6769 22.1965 15.2711 0.0000 0.0000 0.0000
# 2 22.1965 127.5404 35.7517 0.0000 0.0000 0.0000
# 3 15.2711 35.7517 102.2977 0.0000 0.0000 0.0000
# 4 0.0000 0.0000 0.0000 -2.7309 0.0000 0.0000
# 5 0.0000 0.0000 0.0000 0.0000 30.6689 0.0000
# 6 0.0000 0.0000 0.0000 0.0000 0.0000 33.7389
#
#
#
# Elastic Compliance Matrix: (Units=1/GPa)
#
#
# Indices 1 2 3 4 5 6 
#
# 1 0.059079 -0.008658 -0.005794 0.000000 0.000000 0.000000
# 2 -0.008658 0.009961 -0.002189 0.000000 0.000000 0.000000
# 3 -0.005794 -0.002189 0.011405 0.000000 0.000000 0.000000
# 4 0.000000 0.000000 0.000000 -0.366184 0.000000 0.000000
# 5 0.000000 0.000000 0.000000 0.000000 0.032606 0.000000
# 6 0.000000 0.000000 0.000000 0.000000 0.000000 0.029639
#
#
# Mechanical properties :
#
#
# Convention : Reuss Voigt Hill
#
# Bulk Modulus (GPa) = 21.20225 44.21708 32.70966
# Shear Modulus (GPa) = -28.65470 24.22178 -2.21646
#
# Velocity S-wave (km/s) = -3.57124 3.28340 -0.99323
# Velocity P-wave (km/s) = 2.75104 5.83563 3.63912
#
# Compressibility (1/GPa) = 0.04716480
#
# Stress axis : x y z
#
# Youngs Moduli (GPa) = 16.92651 100.39187 87.67921
#
# Poissons Ratio (x) = 0.86917 0.50798
# Poissons Ratio (y) = 0.14655 0.19191
# Poissons Ratio (z) = 0.09807 0.21974
#
# Static dielectric constant tensor:
#      x y z
#    x 1.850340 0.000000 0.000000 
#    y 0.000000 1.873970 0.000000 
#    z 0.000000 0.000000 1.824640 
# 
# From -- ./inp_files/2450.got.cif
#   From: 2010.05.17/outbox.cif.g08.bks.cpg/sg18_2_cif.got.tgz:2450.got - 2010.06.03 22:40:56.
