data_PCOD9312953
_publ_section_title
;
Structure prediction by ZEFSAII (Michael W. Deem and Ramdas Pophale) SiO2 
 PCOD9312953
Probable space group: P 21 21 2
;
_chemical_formula_sum "Si O2"
_cell_formula_units_Z 22
_cell_length_a 5.176486
_cell_length_b 13.843249
_cell_length_c 13.008749
_cell_angle_alpha 90.000000
_cell_angle_beta 90.000000
_cell_angle_gamma 90.000000
_cell_volume 932.198948
_symmetry_space_group_name_H-M "P 21 21 2"
_symmetry_group_IT_number 18
_symmetry_cell_setting 'orthorhombic'
loop_
_space_group_symop_operation_xyz
x,y,z
-x,-y,z
1/2+x,1/2-y,-z
1/2-x,1/2+y,-z
loop_
_atom_site_type_symbol
_atom_site_label
_atom_site_fract_x
_atom_site_fract_y
_atom_site_fract_z
Si Si1 0.000000 0.500000 0.181495
Si Si2 0.500000 0.500000 0.704597
Si Si3 0.801293 0.837773 0.754211
Si Si4 0.500000 0.000000 0.429718
Si Si5 0.267174 0.195874 0.529149
Si Si6 0.791731 0.159185 0.937123
Si Si7 0.523075 0.331384 0.856316
O O1 0.195695 0.553875 0.255228
O O2 0.085092 0.414679 0.107196
O O3 0.249914 0.467920 0.638460
O O4 0.601576 0.414435 0.778917
O O5 0.877017 0.809899 0.639624
O O6 0.607207 0.752898 0.789298
O O7 0.992068 0.848024 0.849650
O O8 0.381273 0.092567 0.490595
O O9 0.529361 0.261078 0.538218
O O10 0.723031 0.272429 0.928138
O O11 0.840806 0.129121 0.053668
#
# Coordination Sequence:
#
# PCOD9312953 Si02
#       7
#     2   2   4   2   4   4   4
#     4  10  25  41  70 104 140 190 243 297 366 438
#     4  12  30  46  82 104 160 192 254 300 394 438
#     4  11  24  46  71 100 146 187 243 303 369 439
#     4  12  27  55  72 118 148 198 257 327 372 464
#     4  12  28  49  82 109 148 199 257 319 386 442
#     4  11  24  44  69 103 151 186 249 292 378 439
#     4  11  25  43  70 107 142 200 234 306 361 464
#
# _framework density 23.600114000000001
#
# number of rings (size 3 to 8) (size 9 to 14) (size 15 to 20)
#    0.000    0.727    1.818    4.364   12.727    0.727 
#    6.545    0.000    0.000    0.000    0.000    0.000 
#    0.000    0.000    0.000    0.000    0.000    0.000 
#
# Total GULP energy -122674.964687 kJ/mol
# GULP energy per Si atom -5576.134758 kJ/mol
# Density = 2.354640 g / cm^3
# Si number density = 23.600114 Si / 1000 Ang^3
#
#
#
# Elastic Constant Matrix: (Units=GPa)
#
#
# Indices 1 2 3 4 5 6 
#
# 1 58.2745 8.6958 1.5580 0.0000 0.0000 0.0000
# 2 8.6958 96.1611 13.8649 0.0000 0.0000 0.0000
# 3 1.5580 13.8649 103.7528 0.0000 0.0000 0.0000
# 4 0.0000 0.0000 0.0000 33.1342 0.0000 0.0000
# 5 0.0000 0.0000 0.0000 0.0000 -41.4302 0.0000
# 6 0.0000 0.0000 0.0000 0.0000 0.0000 13.0158
#
#
#
# Elastic Compliance Matrix: (Units=1/GPa)
#
#
# Indices 1 2 3 4 5 6 
#
# 1 0.017395 -0.001566 -0.000052 0.000000 0.000000 0.000000
# 2 -0.001566 0.010744 -0.001412 0.000000 0.000000 0.000000
# 3 -0.000052 -0.001412 0.009828 0.000000 0.000000 0.000000
# 4 0.000000 0.000000 0.000000 0.030180 0.000000 0.000000
# 5 0.000000 0.000000 0.000000 0.000000 -0.024137 0.000000
# 6 0.000000 0.000000 0.000000 0.000000 0.000000 0.076830
#
#
# Mechanical properties :
#
#
# Convention : Reuss Voigt Hill
#
# Bulk Modulus (GPa) = 31.34041 34.04732 32.69387
# Shear Modulus (GPa) = 36.35405 16.54859 26.45132
#
# Velocity S-wave (km/s) = 3.92907 2.65091 3.35149
# Velocity P-wave (km/s) = 5.82169 4.88137 5.37215
#
# Compressibility (1/GPa) = 0.03190768
#
# Stress axis : x y z
#
# Youngs Moduli (GPa) = 57.48720 93.07155 101.75205
#
# Poissons Ratio (x) = 0.14571 0.00529
# Poissons Ratio (y) = 0.09000 0.14371
# Poissons Ratio (z) = 0.00299 0.13145
#
# Static dielectric constant tensor:
#      x y z
#    x 2.174870 0.000000 0.000000 
#    y 0.000000 1.934020 0.000000 
#    z 0.000000 0.000000 2.268310 
# 
# From -- ./inp_files/5112.got.cif
#   From: 2010.05.17/outbox.cif.g08.bks.cpg/sg18_3_cif.got.tgz:5112.got - 2010.06.03 22:40:56.
