data_PCOD9312636
_publ_section_title
;
Structure prediction by ZEFSAII (Michael W. Deem and Ramdas Pophale) SiO2 
 PCOD9312636
Probable space group: P 21 21 2
;
_chemical_formula_sum "Si O2"
_cell_formula_units_Z 30
_cell_length_a 19.862279
_cell_length_b 11.456648
_cell_length_c 5.413810
_cell_angle_alpha 90.000000
_cell_angle_beta 90.000000
_cell_angle_gamma 90.000000
_cell_volume 1231.940287
_symmetry_space_group_name_H-M "P 21 21 2"
_symmetry_group_IT_number 18
_symmetry_cell_setting 'orthorhombic'
loop_
_space_group_symop_operation_xyz
x,y,z
-x,-y,z
1/2+x,1/2-y,-z
1/2-x,1/2+y,-z
loop_
_atom_site_type_symbol
_atom_site_label
_atom_site_fract_x
_atom_site_fract_y
_atom_site_fract_z
Si Si1 0.000000 0.000000 0.445732
Si Si2 0.959285 0.305384 0.636557
Si Si3 0.245983 0.436605 0.531020
Si Si4 0.474028 0.730834 0.841957
Si Si5 0.352006 0.044185 0.134239
Si Si6 0.877138 0.077786 0.725518
Si Si7 0.192334 0.771789 0.097963
Si Si8 0.165911 0.314488 0.149993
O O1 0.936588 0.994302 0.633913
O O2 0.999463 0.108345 0.260429
O O3 0.001278 0.314735 0.383827
O O4 0.085114 0.583060 0.703141
O O5 0.904270 0.200407 0.606960
O O6 0.000024 0.267689 0.886216
O O7 0.218152 0.532462 0.716782
O O8 0.306668 0.478876 0.360170
O O9 0.180915 0.387202 0.395271
O O10 0.279303 0.322143 0.651393
O O11 0.393176 0.722759 0.837422
O O12 0.341676 0.146123 0.929639
O O13 0.360779 0.915458 0.031090
O O14 0.858103 0.127652 0.995440
O O15 0.260513 0.772244 0.933158
#
# Coordination Sequence:
#
# PCOD9312636 Si02
#       8
#     2   4   4   4   4   4   4   4
#     4  10  24  44  74 100 144 184 238 294 376 420
#     4  10  25  45  72  98 143 187 239 289 358 431
#     4  10  22  42  67 100 139 177 246 297 355 427
#     4  11  26  47  70 106 143 190 239 302 350 439
#     4  10  23  42  70  98 134 196 232 295 363 421
#     4   9  21  42  65 100 131 183 230 294 355 434
#     4   9  21  42  68  95 139 179 238 299 355 425
#     4  10  24  43  64 106 137 178 245 294 355 424
#
# _framework density 24.35183
#
# number of rings (size 3 to 8) (size 9 to 14) (size 15 to 20)
#    0.000    2.133    0.000    0.000   14.933    4.800 
#    4.800    0.000    0.000    0.000    0.000    0.000 
#    0.000    0.000    0.000    0.000    0.000    0.000 
#
# Total GULP energy -167400.690474 kJ/mol
# GULP energy per Si atom -5580.023016 kJ/mol
# Density = 2.429640 g / cm^3
# Si number density = 24.351830 Si / 1000 Ang^3
#
#
#
# Elastic Constant Matrix: (Units=GPa)
#
#
# Indices 1 2 3 4 5 6 
#
# 1 112.7755 12.8718 40.6062 0.0000 0.0000 0.0000
# 2 12.8718 30.9660 12.8706 0.0000 0.0000 0.0000
# 3 40.6062 12.8706 69.1558 0.0000 0.0000 0.0000
# 4 0.0000 0.0000 0.0000 5.6933 0.0000 0.0000
# 5 0.0000 0.0000 0.0000 0.0000 23.9163 0.0000
# 6 0.0000 0.0000 0.0000 0.0000 0.0000 27.6592
#
#
#
# Elastic Compliance Matrix: (Units=1/GPa)
#
#
# Indices 1 2 3 4 5 6 
#
# 1 0.011371 -0.002115 -0.006283 0.000000 0.000000 0.000000
# 2 -0.002115 0.035394 -0.005345 0.000000 0.000000 0.000000
# 3 -0.006283 -0.005345 0.019144 0.000000 0.000000 0.000000
# 4 0.000000 0.000000 0.000000 0.175645 0.000000 0.000000
# 5 0.000000 0.000000 0.000000 0.000000 0.041812 0.000000
# 6 0.000000 0.000000 0.000000 0.000000 0.000000 0.036154
#
#
# Mechanical properties :
#
#
# Convention : Reuss Voigt Hill
#
# Bulk Modulus (GPa) = 26.02644 38.39938 32.21291
# Shear Modulus (GPa) = 13.89600 21.22368 17.55984
#
# Velocity S-wave (km/s) = 2.39139 2.95539 2.68822
# Velocity P-wave (km/s) = 4.28204 5.23914 4.78458
#
# Compressibility (1/GPa) = 0.03842247
#
# Stress axis : x y z
#
# Youngs Moduli (GPa) = 87.94419 28.25311 52.23547
#
# Poissons Ratio (x) = 0.05976 0.32819
# Poissons Ratio (y) = 0.18602 0.27921
# Poissons Ratio (z) = 0.55255 0.15102
#
# Static dielectric constant tensor:
#      x y z
#    x 1.990370 0.000000 0.000000 
#    y 0.000000 1.935890 0.000000 
#    z 0.000000 0.000000 2.072660 
# 
# From -- ./inp_files/2011.got.cif
#   From: 2010.05.17/outbox.cif.g08.bks.cpg/sg18_2_cif.got.tgz:2011.got - 2010.06.03 22:40:56.
