data_PCOD9312704
_publ_section_title
;
Structure prediction by ZEFSAII (Michael W. Deem and Ramdas Pophale) SiO2 
 PCOD9312704
Probable space group: P 21 21 2
;
_chemical_formula_sum "Si O2"
_cell_formula_units_Z 24
_cell_length_a 8.531798
_cell_length_b 20.073719
_cell_length_c 6.530638
_cell_angle_alpha 90.000000
_cell_angle_beta 90.000000
_cell_angle_gamma 90.000000
_cell_volume 1118.469166
_symmetry_space_group_name_H-M "P 21 21 2"
_symmetry_group_IT_number 18
_symmetry_cell_setting 'orthorhombic'
loop_
_space_group_symop_operation_xyz
x,y,z
-x,-y,z
1/2+x,1/2-y,-z
1/2-x,1/2+y,-z
loop_
_atom_site_type_symbol
_atom_site_label
_atom_site_fract_x
_atom_site_fract_y
_atom_site_fract_z
Si Si1 0.114671 0.307665 0.967766
Si Si2 0.518468 0.389055 0.635403
Si Si3 0.872501 0.363399 0.634939
Si Si4 0.000000 0.500000 0.695121
Si Si5 0.609549 0.750175 0.701496
Si Si6 0.778509 0.056290 0.030559
Si Si7 0.500000 0.500000 0.294880
O O1 0.237564 0.264326 0.838032
O O2 0.979522 0.333487 0.814606
O O3 0.205130 0.373714 0.044201
O O4 0.034065 0.267892 0.149378
O O5 0.695814 0.376980 0.705443
O O6 0.435038 0.318703 0.589663
O O7 0.522812 0.436464 0.439493
O O8 0.416917 0.423881 0.812374
O O9 0.866292 0.310524 0.452754
O O10 0.951583 0.433868 0.572892
O O11 0.146053 0.481283 0.839923
O O12 0.851007 0.013737 0.848613
#
# Coordination Sequence:
#
# PCOD9312704 Si02
#       7
#     4   4   4   2   4   4   2
#     4  10  24  42  65  95 130 170 214 266 322 386
#     4  11  25  42  65  97 130 165 218 270 312 382
#     4  11  23  41  66  95 129 169 212 265 324 379
#     4  10  22  44  68  96 134 168 216 274 316 382
#     4  11  24  43  66  95 129 168 215 266 322 385
#     4  10  24  44  65  95 133 169 215 267 319 382
#     4  12  24  42  68  94 128 176 214 262 332 382
#
# _framework density 21.457901
#
# number of rings (size 3 to 8) (size 9 to 14) (size 15 to 20)
#    0.000    1.333    0.000    4.500    0.000   16.000 
#    0.000    1.667    0.000    0.000    0.000    0.000 
#    0.000    0.000    0.000    0.000    0.000    0.000 
#
# Total GULP energy -134373.195820 kJ/mol
# GULP energy per Si atom -5598.883159 kJ/mol
# Density = 2.140906 g / cm^3
# Si number density = 21.457901 Si / 1000 Ang^3
#
#
#
# Elastic Constant Matrix: (Units=GPa)
#
#
# Indices 1 2 3 4 5 6 
#
# 1 149.1467 58.1675 55.2223 0.0000 0.0000 0.0000
# 2 58.1675 153.6302 67.5953 0.0000 0.0000 0.0000
# 3 55.2223 67.5953 64.4602 0.0000 0.0000 0.0000
# 4 0.0000 0.0000 0.0000 22.3090 0.0000 0.0000
# 5 0.0000 0.0000 0.0000 0.0000 16.2689 0.0000
# 6 0.0000 0.0000 0.0000 0.0000 0.0000 39.7597
#
#
#
# Elastic Compliance Matrix: (Units=1/GPa)
#
#
# Indices 1 2 3 4 5 6 
#
# 1 0.009820 -0.000031 -0.008380 0.000000 0.000000 0.000000
# 2 -0.000031 0.012085 -0.012646 0.000000 0.000000 0.000000
# 3 -0.008380 -0.012646 0.035954 0.000000 0.000000 0.000000
# 4 0.000000 0.000000 0.000000 0.044825 0.000000 0.000000
# 5 0.000000 0.000000 0.000000 0.000000 0.061467 0.000000
# 6 0.000000 0.000000 0.000000 0.000000 0.000000 0.025151
#
#
# Mechanical properties :
#
#
# Convention : Reuss Voigt Hill
#
# Bulk Modulus (GPa) = 63.51574 81.02303 72.26938
# Shear Modulus (GPa) = 21.12698 28.08433 24.60566
#
# Velocity S-wave (km/s) = 3.14120 3.62167 3.38996
# Velocity P-wave (km/s) = 6.54375 7.43840 7.00537
#
# Compressibility (1/GPa) = 0.01574413
#
# Stress axis : x y z
#
# Youngs Moduli (GPa) = 101.83761 82.74677 27.81332
#
# Poissons Ratio (x) = 0.00255 0.23308
# Poissons Ratio (y) = 0.00314 0.35174
# Poissons Ratio (z) = 0.85340 1.04645
#
# Static dielectric constant tensor:
#      x y z
#    x 1.760210 0.000000 0.000000 
#    y 0.000000 1.797080 0.000000 
#    z 0.000000 0.000000 1.727610 
# 
# From -- ./inp_files/642.got.cif
#   From: 2010.05.17/outbox.cif.g08.bks.cpg/sg18_1_cif.got.tgz:642.got - 2010.06.03 22:40:56.
