data_PCOD9312245
_publ_section_title
;
Structure prediction by ZEFSAII (Michael W. Deem and Ramdas Pophale) SiO2 
 PCOD9312245
Probable space group: P 21 21 2
;
_chemical_formula_sum "Si O2"
_cell_formula_units_Z 20
_cell_length_a 12.073698
_cell_length_b 8.353224
_cell_length_c 8.465601
_cell_angle_alpha 90.000000
_cell_angle_beta 90.000000
_cell_angle_gamma 90.000000
_cell_volume 853.792296
_symmetry_space_group_name_H-M "P 21 21 2"
_symmetry_group_IT_number 18
_symmetry_cell_setting 'orthorhombic'
loop_
_space_group_symop_operation_xyz
x,y,z
-x,-y,z
1/2+x,1/2-y,-z
1/2-x,1/2+y,-z
loop_
_atom_site_type_symbol
_atom_site_label
_atom_site_fract_x
_atom_site_fract_y
_atom_site_fract_z
Si Si1 0.841782 0.015510 0.752476
Si Si2 0.952111 0.171509 0.037079
Si Si3 0.692107 0.404618 0.561489
Si Si4 0.248318 0.294661 0.727287
Si Si5 0.410718 0.872467 0.756930
O O1 0.845827 0.825236 0.796026
O O2 0.869395 0.015924 0.567531
O O3 0.712333 0.058812 0.775502
O O4 0.909471 0.134194 0.861630
O O5 0.038000 0.309595 0.079585
O O6 0.847698 0.207852 0.149485
O O7 0.000000 0.000000 0.089911
O O8 0.761886 0.519476 0.676976
O O9 0.765385 0.297746 0.440836
O O10 0.610235 0.283355 0.648446
O O11 0.500000 0.000000 0.692317
#
# Coordination Sequence:
#
# PCOD9312245 Si02
#       5
#     4   4   4   4   4
#     4  10  24  45  69 103 148 183 246 296 370 432
#     4  12  26  41  68 105 145 194 234 296 372 435
#     4  10  20  44  76  99 133 187 245 305 363 427
#     4  10  21  43  72  99 138 190 235 302 368 431
#     4  12  23  43  76 108 144 194 252 301 370 440
#
# _framework density 23.424900000000001
#
# number of rings (size 3 to 8) (size 9 to 14) (size 15 to 20)
#    1.200    0.000    6.000    0.000    2.800    0.000 
#    3.600    0.000    4.400    0.000    0.000    0.000 
#    0.000    0.000    0.000    0.000    0.000    0.000 
#
# Total GULP energy -111342.190549 kJ/mol
# GULP energy per Si atom -5567.109527 kJ/mol
# Density = 2.337158 g / cm^3
# Si number density = 23.424900 Si / 1000 Ang^3
#
#
#
# Elastic Constant Matrix: (Units=GPa)
#
#
# Indices 1 2 3 4 5 6 
#
# 1 108.7460 43.7792 37.9889 0.0000 0.0000 0.0000
# 2 43.7792 112.6793 53.7044 0.0000 0.0000 0.0000
# 3 37.9889 53.7044 100.5790 0.0000 0.0000 0.0000
# 4 0.0000 0.0000 0.0000 43.1639 0.0000 0.0000
# 5 0.0000 0.0000 0.0000 0.0000 -132.0736 0.0000
# 6 0.0000 0.0000 0.0000 0.0000 0.0000 49.4177
#
#
#
# Elastic Compliance Matrix: (Units=1/GPa)
#
#
# Indices 1 2 3 4 5 6 
#
# 1 0.011386 -0.003185 -0.002600 0.000000 0.000000 0.000000
# 2 -0.003185 0.012795 -0.005629 0.000000 0.000000 0.000000
# 3 -0.002600 -0.005629 0.013930 0.000000 0.000000 0.000000
# 4 0.000000 0.000000 0.000000 0.023168 0.000000 0.000000
# 5 0.000000 0.000000 0.000000 0.000000 -0.007572 0.000000
# 6 0.000000 0.000000 0.000000 0.000000 0.000000 0.020236
#
#
# Mechanical properties :
#
#
# Convention : Reuss Voigt Hill
#
# Bulk Modulus (GPa) = 65.42944 65.88326 65.65635
# Shear Modulus (GPa) = 49.08461 4.53705 26.81083
#
# Velocity S-wave (km/s) = 4.58252 1.39322 3.38678
# Velocity P-wave (km/s) = 7.48275 5.54747 6.58658
#
# Compressibility (1/GPa) = 0.01528364
#
# Stress axis : x y z
#
# Youngs Moduli (GPa) = 87.82626 78.15604 71.78673
#
# Poissons Ratio (x) = 0.24889 0.18666
# Poissons Ratio (y) = 0.27969 0.40409
# Poissons Ratio (z) = 0.22836 0.43994
#
# Static dielectric constant tensor:
#      x y z
#    x 1.931920 0.000000 0.000000 
#    y 0.000000 2.032010 0.000000 
#    z 0.000000 0.000000 1.926050 
# 
# From -- ./inp_files/3655.got.cif
#   From: 2010.05.17/outbox.cif.g08.bks.cpg/sg18_2_cif.got.tgz:3655.got - 2010.06.03 22:40:56.
