data_PCOD9312346
_publ_section_title
;
Structure prediction by ZEFSAII (Michael W. Deem and Ramdas Pophale) SiO2 
 PCOD9312346
Probable space group: P 21 21 2
;
_chemical_formula_sum "Si O2"
_cell_formula_units_Z 20
_cell_length_a 12.034701
_cell_length_b 5.365322
_cell_length_c 12.695111
_cell_angle_alpha 90.000000
_cell_angle_beta 90.000000
_cell_angle_gamma 90.000000
_cell_volume 819.723902
_symmetry_space_group_name_H-M "P 21 21 2"
_symmetry_group_IT_number 18
_symmetry_cell_setting 'orthorhombic'
loop_
_space_group_symop_operation_xyz
x,y,z
-x,-y,z
1/2+x,1/2-y,-z
1/2-x,1/2+y,-z
loop_
_atom_site_type_symbol
_atom_site_label
_atom_site_fract_x
_atom_site_fract_y
_atom_site_fract_z
Si Si1 0.220081 0.137083 0.438612
Si Si2 0.379738 0.129015 0.058999
Si Si3 0.500000 0.500000 0.667687
Si Si4 0.180800 0.328621 0.746511
Si Si5 0.500000 0.500000 0.187757
Si Si6 0.618952 0.863795 0.814403
O O1 0.235138 0.902056 0.519628
O O2 0.293423 0.026431 0.343097
O O3 0.088576 0.151038 0.404736
O O4 0.405711 0.396077 0.108968
O O5 0.500000 0.000000 0.060225
O O6 0.307735 0.975106 0.141891
O O7 0.350104 0.130717 0.937041
O O8 0.585031 0.616552 0.751882
O O9 0.267400 0.094631 0.750050
O O10 0.058142 0.212218 0.743957
O O11 0.500000 0.000000 0.804413
#
# Coordination Sequence:
#
# PCOD9312346 Si02
#       6
#     4   4   2   4   2   4
#     4  11  28  50  76 108 141 194 256 314 380 436
#     4   9  20  39  60 103 139 186 235 286 367 440
#     4  10  25  47  74 106 140 190 249 313 374 454
#     4  10  24  41  67 104 142 187 240 310 366 450
#     4  10  21  39  66  92 146 176 229 293 370 438
#     4  10  22  40  71  99 146 192 238 296 367 458
#
# _framework density 24.398458999999999
#
# number of rings (size 3 to 8) (size 9 to 14) (size 15 to 20)
#    0.000    2.000    0.000    0.600   11.200    2.400 
#   10.800    0.000    0.000    0.000    0.000    0.000 
#    0.000    0.000    0.000    0.000    0.000    0.000 
#
# Total GULP energy -111356.537832 kJ/mol
# GULP energy per Si atom -5567.826892 kJ/mol
# Density = 2.434293 g / cm^3
# Si number density = 24.398459 Si / 1000 Ang^3
#
#
#
# Elastic Constant Matrix: (Units=GPa)
#
#
# Indices 1 2 3 4 5 6 
#
# 1 65.8063 14.4371 38.6396 0.0000 0.0000 0.0000
# 2 14.4371 52.0435 31.8197 0.0000 0.0000 0.0000
# 3 38.6396 31.8197 129.2122 0.0000 0.0000 0.0000
# 4 0.0000 0.0000 0.0000 53.1336 0.0000 0.0000
# 5 0.0000 0.0000 0.0000 0.0000 -11.0781 0.0000
# 6 0.0000 0.0000 0.0000 0.0000 0.0000 39.2239
#
#
#
# Elastic Compliance Matrix: (Units=1/GPa)
#
#
# Indices 1 2 3 4 5 6 
#
# 1 0.018621 -0.002073 -0.005058 0.000000 0.000000 0.000000
# 2 -0.002073 0.022851 -0.005007 0.000000 0.000000 0.000000
# 3 -0.005058 -0.005007 0.010485 0.000000 0.000000 0.000000
# 4 0.000000 0.000000 0.000000 0.018820 0.000000 0.000000
# 5 0.000000 0.000000 0.000000 0.000000 -0.090268 0.000000
# 6 0.000000 0.000000 0.000000 0.000000 0.000000 0.025495
#
#
# Mechanical properties :
#
#
# Convention : Reuss Voigt Hill
#
# Bulk Modulus (GPa) = 36.12684 46.31718 41.22201
# Shear Modulus (GPa) = 126.55978 27.06694 76.81336
#
# Velocity S-wave (km/s) = 7.21004 3.33434 5.61705
# Velocity P-wave (km/s) = 9.17344 5.81795 7.68117
#
# Compressibility (1/GPa) = 0.02768025
#
# Stress axis : x y z
#
# Youngs Moduli (GPa) = 53.70356 43.76111 95.37600
#
# Poissons Ratio (x) = 0.09072 0.48240
# Poissons Ratio (y) = 0.11133 0.47759
# Poissons Ratio (z) = 0.27162 0.21913
#
# Static dielectric constant tensor:
#      x y z
#    x 2.117980 0.000000 0.000000 
#    y 0.000000 2.134360 0.000000 
#    z 0.000000 0.000000 1.963550 
# 
# From -- ./inp_files/6000.got.cif
#   From: 2010.05.17/outbox.cif.g08.bks.cpg/sg18_3_cif.got.tgz:6000.got - 2010.06.03 22:40:56.
