data_PCOD9312735
_publ_section_title
;
Structure prediction by ZEFSAII (Michael W. Deem and Ramdas Pophale) SiO2 
 PCOD9312735
Probable space group: P 21 21 2
;
_chemical_formula_sum "Si O2"
_cell_formula_units_Z 14
_cell_length_a 12.946654
_cell_length_b 5.076369
_cell_length_c 8.739963
_cell_angle_alpha 90.000000
_cell_angle_beta 90.000000
_cell_angle_gamma 90.000000
_cell_volume 574.407787
_symmetry_space_group_name_H-M "P 21 21 2"
_symmetry_group_IT_number 18
_symmetry_cell_setting 'orthorhombic'
loop_
_space_group_symop_operation_xyz
x,y,z
-x,-y,z
1/2+x,1/2-y,-z
1/2-x,1/2+y,-z
loop_
_atom_site_type_symbol
_atom_site_label
_atom_site_fract_x
_atom_site_fract_y
_atom_site_fract_z
Si Si1 0.322533 0.220408 0.979595
Si Si2 0.500000 0.000000 0.198069
Si Si3 0.114599 0.168052 0.551239
Si Si4 0.356958 0.165861 0.635187
O O1 0.372376 0.235285 0.811213
O O2 0.264507 0.490927 0.019890
O O3 0.410968 0.136580 0.097974
O O4 0.446898 0.782347 0.305553
O O5 0.233913 0.173061 0.606034
O O6 0.107013 0.376736 0.412418
O O7 0.097331 0.879568 0.481946
#
# Coordination Sequence:
#
# PCOD9312735 Si02
#       4
#     4   2   4   4
#     4  12  27  48  79 116 160 203 260 328 393 458
#     4  12  28  48  82 116 154 210 270 318 388 470
#     4  10  23  43  75 106 143 196 259 308 376 461
#     4  10  22  46  72 105 151 196 244 321 386 444
#
# _framework density 24.372928999999999
#
# number of rings (size 3 to 8) (size 9 to 14) (size 15 to 20)
#    0.000    1.143    2.857    1.714    8.000    5.714 
#    0.000    2.857    0.000    0.000    0.000    0.000 
#    0.000    0.000    0.000    0.000    0.000    0.000 
#
# Total GULP energy -78573.481023 kJ/mol
# GULP energy per Si atom -5612.391502 kJ/mol
# Density = 2.431745 g / cm^3
# Si number density = 24.372929 Si / 1000 Ang^3
#
#
#
# Elastic Constant Matrix: (Units=GPa)
#
#
# Indices 1 2 3 4 5 6 
#
# 1 92.1425 10.5374 25.1537 0.0000 0.0000 0.0000
# 2 10.5374 111.1267 14.6638 0.0000 0.0000 0.0000
# 3 25.1537 14.6638 139.9191 0.0000 0.0000 0.0000
# 4 0.0000 0.0000 0.0000 32.2277 0.0000 0.0000
# 5 0.0000 0.0000 0.0000 0.0000 49.0710 0.0000
# 6 0.0000 0.0000 0.0000 0.0000 0.0000 47.8736
#
#
#
# Elastic Compliance Matrix: (Units=1/GPa)
#
#
# Indices 1 2 3 4 5 6 
#
# 1 0.011488 -0.000828 -0.001978 0.000000 0.000000 0.000000
# 2 -0.000828 0.009185 -0.000814 0.000000 0.000000 0.000000
# 3 -0.001978 -0.000814 0.007588 0.000000 0.000000 0.000000
# 4 0.000000 0.000000 0.000000 0.031029 0.000000 0.000000
# 5 0.000000 0.000000 0.000000 0.000000 0.020379 0.000000
# 6 0.000000 0.000000 0.000000 0.000000 0.000000 0.020888
#
#
# Mechanical properties :
#
#
# Convention : Reuss Voigt Hill
#
# Bulk Modulus (GPa) = 47.57471 49.32203 48.44837
# Shear Modulus (GPa) = 43.55273 45.35668 44.45471
#
# Velocity S-wave (km/s) = 4.23180 4.31855 4.27539
# Velocity P-wave (km/s) = 6.59085 6.71914 6.65530
#
# Compressibility (1/GPa) = 0.02101957
#
# Stress axis : x y z
#
# Youngs Moduli (GPa) = 87.05088 108.87740 131.78852
#
# Poissons Ratio (x) = 0.09018 0.26072
# Poissons Ratio (y) = 0.07210 0.10723
# Poissons Ratio (z) = 0.17222 0.08859
#
# Static dielectric constant tensor:
#      x y z
#    x 1.999680 0.000000 0.000000 
#    y 0.000000 1.881430 0.000000 
#    z 0.000000 0.000000 1.862750 
# 
# From -- ./inp_files/4069.got.cif
#   From: 2010.05.17/outbox.cif.g08.bks.cpg/sg18_3_cif.got.tgz:4069.got - 2010.06.03 22:40:56.
