data_PCOD9312687
_publ_section_title
;
Structure prediction by ZEFSAII (Michael W. Deem and Ramdas Pophale) SiO2 
 PCOD9312687
Probable space group: P 21 21 2
;
_chemical_formula_sum "Si O2"
_cell_formula_units_Z 18
_cell_length_a 5.224598
_cell_length_b 11.410923
_cell_length_c 12.678062
_cell_angle_alpha 90.000000
_cell_angle_beta 90.000000
_cell_angle_gamma 90.000000
_cell_volume 755.834177
_symmetry_space_group_name_H-M "P 21 21 2"
_symmetry_group_IT_number 18
_symmetry_cell_setting 'orthorhombic'
loop_
_space_group_symop_operation_xyz
x,y,z
-x,-y,z
1/2+x,1/2-y,-z
1/2-x,1/2+y,-z
loop_
_atom_site_type_symbol
_atom_site_label
_atom_site_fract_x
_atom_site_fract_y
_atom_site_fract_z
Si Si1 0.756526 0.683101 0.956974
Si Si2 0.655665 0.318239 0.474659
Si Si3 0.000000 0.000000 0.919099
Si Si4 0.747280 0.428017 0.687039
Si Si5 0.948899 0.783270 0.760585
O O1 0.777753 0.697050 0.831767
O O2 0.514896 0.762516 0.993245
O O3 0.711318 0.552717 0.001143
O O4 0.367607 0.281843 0.504841
O O5 0.733104 0.415255 0.559345
O O6 0.658107 0.332775 0.349199
O O7 0.971590 0.892276 0.839034
O O8 0.500000 0.500000 0.721178
O O9 0.000000 0.500000 0.711869
O O10 0.802184 0.296535 0.731875
#
# Coordination Sequence:
#
# PCOD9312687 Si02
#       5
#     4   4   2   4   4
#     4  10  24  48  73 109 148 188 258 316 374 443
#     4  10  22  43  70 103 149 189 244 299 360 462
#     4  10  24  50  80 104 150 196 256 324 366 454
#     4  11  24  45  71 112 156 194 245 307 374 467
#     4  10  24  48  76 112 147 205 248 308 390 442
#
# _framework density 23.814748999999999
#
# number of rings (size 3 to 8) (size 9 to 14) (size 15 to 20)
#    0.000    1.778    0.000    2.667    1.556   14.222 
#   26.000    0.000    0.000    0.000    0.000    0.000 
#    0.000    0.000    0.000    0.000    0.000    0.000 
#
# Total GULP energy -100417.234505 kJ/mol
# GULP energy per Si atom -5578.735250 kJ/mol
# Density = 2.376055 g / cm^3
# Si number density = 23.814749 Si / 1000 Ang^3
#
#
#
# Elastic Constant Matrix: (Units=GPa)
#
#
# Indices 1 2 3 4 5 6 
#
# 1 107.5943 54.8372 31.6686 0.0000 0.0000 0.0000
# 2 54.8372 136.5944 59.4713 0.0000 0.0000 0.0000
# 3 31.6686 59.4713 118.9905 0.0000 0.0000 0.0000
# 4 0.0000 0.0000 0.0000 63.5840 0.0000 0.0000
# 5 0.0000 0.0000 0.0000 0.0000 31.5712 0.0000
# 6 0.0000 0.0000 0.0000 0.0000 0.0000 32.0889
#
#
#
# Elastic Compliance Matrix: (Units=1/GPa)
#
#
# Indices 1 2 3 4 5 6 
#
# 1 0.011775 -0.004298 -0.000986 0.000000 0.000000 0.000000
# 2 -0.004298 0.010926 -0.004317 0.000000 0.000000 0.000000
# 3 -0.000986 -0.004317 0.010824 0.000000 0.000000 0.000000
# 4 0.000000 0.000000 0.000000 0.015727 0.000000 0.000000
# 5 0.000000 0.000000 0.000000 0.000000 0.031674 0.000000
# 6 0.000000 0.000000 0.000000 0.000000 0.000000 0.031163
#
#
# Mechanical properties :
#
#
# Convention : Reuss Voigt Hill
#
# Bulk Modulus (GPa) = 69.81474 72.79259 71.30366
# Shear Modulus (GPa) = 36.74707 39.92898 38.33803
#
# Velocity S-wave (km/s) = 3.93241 4.09913 4.01664
# Velocity P-wave (km/s) = 7.07092 7.28261 7.17754
#
# Compressibility (1/GPa) = 0.01432362
#
# Stress axis : x y z
#
# Youngs Moduli (GPa) = 84.92696 91.52556 92.38791
#
# Poissons Ratio (x) = 0.39337 0.09106
# Poissons Ratio (y) = 0.36501 0.39883
# Poissons Ratio (z) = 0.08371 0.39510
#
# Static dielectric constant tensor:
#      x y z
#    x 1.908220 0.000000 0.000000 
#    y 0.000000 1.995860 0.000000 
#    z 0.000000 0.000000 1.950340 
# 
# From -- ./inp_files/4992.got.cif
#   From: 2010.05.17/outbox.cif.g08.bks.cpg/sg18_3_cif.got.tgz:4992.got - 2010.06.03 22:40:56.
