data_PCOD9312287
_publ_section_title
;
Structure prediction by ZEFSAII (Michael W. Deem and Ramdas Pophale) SiO2 
 PCOD9312287
Probable space group: P 21 21 2
;
_chemical_formula_sum "Si O2"
_cell_formula_units_Z 26
_cell_length_a 10.399213
_cell_length_b 9.264962
_cell_length_c 15.568831
_cell_angle_alpha 90.000000
_cell_angle_beta 90.000000
_cell_angle_gamma 90.000000
_cell_volume 1500.030607
_symmetry_space_group_name_H-M "P 21 21 2"
_symmetry_group_IT_number 18
_symmetry_cell_setting 'orthorhombic'
loop_
_space_group_symop_operation_xyz
x,y,z
-x,-y,z
1/2+x,1/2-y,-z
1/2-x,1/2+y,-z
loop_
_atom_site_type_symbol
_atom_site_label
_atom_site_fract_x
_atom_site_fract_y
_atom_site_fract_z
Si Si1 0.860676 0.000000 0.288888
Si Si2 0.781966 0.333489 0.586691
Si Si3 0.500000 0.500000 0.981433
Si Si4 0.281966 0.833489 0.413309
Si Si5 0.500000 0.327422 0.307043
Si Si6 0.500000 0.230107 0.108292
Si Si7 0.277778 0.000000 0.114220
O O1 0.840051 0.864544 0.352017
O O2 0.752860 0.000000 0.216130
O O3 0.840050 0.135456 0.352017
O O4 0.000000 0.000000 0.248996
O O5 0.750000 0.250000 0.500000
O O6 0.171656 0.500000 0.570096
O O7 0.880246 0.242346 0.643105
O O8 0.500000 0.360689 0.042370
O O9 0.637448 0.500000 0.930612
O O10 0.380246 0.742346 0.356895
O O11 0.500000 0.500000 0.314213
O O12 0.500000 0.282747 0.207208
O O13 0.370833 0.135236 0.094653
O O14 0.629167 0.135236 0.094653
#
# Coordination Sequence:
#
# PCOD9312287 Si02
#       7
#     4   4   2   4   4   4   4
#     4  10  21  37  59  86 119 162 200 242 317 363
#     4  10  22  36  59  89 121 159 205 251 305 359
#     4  12  24  40  64  98 118 164 196 260 314 376
#     4  10  22  36  59  89 121 159 205 251 305 359
#     4  12  22  38  62  86 121 162 208 256 298 366
#     4  11  22  41  62  96 117 159 209 254 308 373
#     4  11  22  41  66  86 128 158 204 251 311 383
#
# _framework density 17.332979000000002
#
# number of rings (size 3 to 8) (size 9 to 14) (size 15 to 20)
#    0.923    0.308    4.615    2.308    4.308    0.000 
#    0.000    0.000    0.000    0.000    0.000    0.000 
#    0.000    0.000    0.000    0.000    0.000    0.000 
#
# Total GULP energy -144759.707606 kJ/mol
# GULP energy per Si atom -5567.681062 kJ/mol
# Density = 1.729353 g / cm^3
# Si number density = 17.332979 Si / 1000 Ang^3
#
#
#
# Elastic Constant Matrix: (Units=GPa)
#
#
# Indices 1 2 3 4 5 6 
#
# 1 125.3107 59.2517 53.9383 0.0000 0.0000 0.0000
# 2 59.2517 151.1874 65.4216 0.0000 0.0000 0.0000
# 3 53.9383 65.4216 123.0490 0.0000 0.0000 0.0000
# 4 0.0000 0.0000 0.0000 36.0449 0.0000 0.0000
# 5 0.0000 0.0000 0.0000 0.0000 2.2974 0.0000
# 6 0.0000 0.0000 0.0000 0.0000 0.0000 20.1493
#
#
#
# Elastic Compliance Matrix: (Units=1/GPa)
#
#
# Indices 1 2 3 4 5 6 
#
# 1 0.010680 -0.002805 -0.003190 0.000000 0.000000 0.000000
# 2 -0.002805 0.009327 -0.003730 0.000000 0.000000 0.000000
# 3 -0.003190 -0.003730 0.011508 0.000000 0.000000 0.000000
# 4 0.000000 0.000000 0.000000 0.027743 0.000000 0.000000
# 5 0.000000 0.000000 0.000000 0.000000 0.435282 0.000000
# 6 0.000000 0.000000 0.000000 0.000000 0.000000 0.049630
#
#
# Mechanical properties :
#
#
# Convention : Reuss Voigt Hill
#
# Bulk Modulus (GPa) = 82.87819 84.08559 83.48189
# Shear Modulus (GPa) = 8.80838 26.42734 17.61786
#
# Velocity S-wave (km/s) = 2.25674 3.90896 3.19162
# Velocity P-wave (km/s) = 7.39660 8.30605 7.86448
#
# Compressibility (1/GPa) = 0.01206590
#
# Stress axis : x y z
#
# Youngs Moduli (GPa) = 93.63642 107.21010 86.89538
#
# Poissons Ratio (x) = 0.30073 0.27720
# Poissons Ratio (y) = 0.26265 0.32408
# Poissons Ratio (z) = 0.29870 0.39985
#
# Static dielectric constant tensor:
#      x y z
#    x 1.653880 0.000000 0.000000 
#    y 0.000000 1.578210 0.000000 
#    z 0.000000 0.000000 1.564960 
# 
# From -- ./inp_files/7331.got.cif
#   From: 2010.05.17/outbox.cif.g08.bks.cpg/sg18_4_cif.got.tgz:7331.got - 2010.06.03 22:40:56.
