data_PCOD9312144
_publ_section_title
;
Structure prediction by ZEFSAII (Michael W. Deem and Ramdas Pophale) SiO2 
 PCOD9312144
Probable space group: P 21 21 2
;
_chemical_formula_sum "Si O2"
_cell_formula_units_Z 32
_cell_length_a 14.183520
_cell_length_b 7.878338
_cell_length_c 12.215095
_cell_angle_alpha 90.000000
_cell_angle_beta 90.000000
_cell_angle_gamma 90.000000
_cell_volume 1364.946042
_symmetry_space_group_name_H-M "P 21 21 2"
_symmetry_group_IT_number 18
_symmetry_cell_setting 'orthorhombic'
loop_
_space_group_symop_operation_xyz
x,y,z
-x,-y,z
1/2+x,1/2-y,-z
1/2-x,1/2+y,-z
loop_
_atom_site_type_symbol
_atom_site_label
_atom_site_fract_x
_atom_site_fract_y
_atom_site_fract_z
Si Si1 0.195876 0.282965 0.502799
Si Si2 0.446666 0.682745 0.917483
Si Si3 0.456635 0.688854 0.666320
Si Si4 0.281397 0.517424 0.049488
Si Si5 0.896500 0.346836 0.495576
Si Si6 0.452300 0.240328 0.272912
Si Si7 0.109821 0.655898 0.946556
Si Si8 0.646469 0.396609 0.269566
O O1 0.139322 0.190853 0.404804
O O2 0.153663 0.471368 0.496186
O O3 0.308509 0.281498 0.494179
O O4 0.176424 0.189828 0.617992
O O5 0.500000 0.500000 0.913687
O O6 0.437356 0.740670 0.791524
O O7 0.348690 0.635161 0.974898
O O8 0.514350 0.804768 0.987818
O O9 0.500000 0.500000 0.664372
O O10 0.535157 0.804640 0.605269
O O11 0.332176 0.334961 0.051244
O O12 0.278984 0.594219 0.172017
O O13 0.177358 0.519882 0.001273
O O14 0.957174 0.329555 0.605614
O O15 0.407786 0.121109 0.181311
O O16 0.554003 0.296258 0.230073
O O17 0.391066 0.411995 0.283482
#
# Coordination Sequence:
#
# PCOD9312144 Si02
#       8
#     4   4   4   4   4   4   4   4
#     4  12  26  43  64  92 125 164 211 260 314 374
#     4   9  20  40  63  86 122 165 200 239 304 373
#     4  11  23  42  65  92 128 167 206 255 312 373
#     4  10  21  39  62  92 123 161 204 250 304 365
#     4  12  26  43  64  92 125 164 211 260 314 374
#     4  10  20  39  66  90 121 161 205 257 314 369
#     4  10  21  39  62  92 123 161 204 250 304 365
#     4  10  20  39  66  90 121 161 205 257 314 369
#
# _framework density 23.444148999999999
#
# number of rings (size 3 to 8) (size 9 to 14) (size 15 to 20)
#    0.000    1.500    2.500    2.625    3.500    1.000 
#    0.000    1.875    0.000    0.000    0.000    0.000 
#    0.000    0.000    0.000    0.000    0.000    0.000 
#
# Total GULP energy -179111.125523 kJ/mol
# GULP energy per Si atom -5597.222673 kJ/mol
# Density = 2.339079 g / cm^3
# Si number density = 23.444149 Si / 1000 Ang^3
#
#
#
# Elastic Constant Matrix: (Units=GPa)
#
#
# Indices 1 2 3 4 5 6 
#
# 1 80.7625 2.5323 11.3885 0.0000 0.0000 0.0000
# 2 2.5323 81.0927 18.2409 0.0000 0.0000 0.0000
# 3 11.3885 18.2409 115.4277 0.0000 0.0000 0.0000
# 4 0.0000 0.0000 0.0000 2.1242 0.0000 0.0000
# 5 0.0000 0.0000 0.0000 0.0000 12.7267 0.0000
# 6 0.0000 0.0000 0.0000 0.0000 0.0000 45.2208
#
#
#
# Elastic Compliance Matrix: (Units=1/GPa)
#
#
# Indices 1 2 3 4 5 6 
#
# 1 0.012558 -0.000118 -0.001220 0.000000 0.000000 0.000000
# 2 -0.000118 0.012787 -0.002009 0.000000 0.000000 0.000000
# 3 -0.001220 -0.002009 0.009101 0.000000 0.000000 0.000000
# 4 0.000000 0.000000 0.000000 0.470774 0.000000 0.000000
# 5 0.000000 0.000000 0.000000 0.000000 0.078575 0.000000
# 6 0.000000 0.000000 0.000000 0.000000 0.000000 0.022114
#
#
# Mechanical properties :
#
#
# Convention : Reuss Voigt Hill
#
# Bulk Modulus (GPa) = 36.03352 37.95627 36.99490
# Shear Modulus (GPa) = 8.04048 28.35576 18.19812
#
# Velocity S-wave (km/s) = 1.85394 3.48156 2.78912
# Velocity P-wave (km/s) = 4.47058 5.69095 5.11728
#
# Compressibility (1/GPa) = 0.02775193
#
# Stress axis : x y z
#
# Youngs Moduli (GPa) = 79.63200 78.20341 109.87393
#
# Poissons Ratio (x) = 0.00920 0.13409
# Poissons Ratio (y) = 0.00937 0.22075
# Poissons Ratio (z) = 0.09718 0.15712
#
# Static dielectric constant tensor:
#      x y z
#    x 1.866740 0.000000 0.000000 
#    y 0.000000 1.910890 0.000000 
#    z 0.000000 0.000000 1.849750 
# 
# From -- ./inp_files/5629.got.cif
#   From: 2010.05.17/outbox.cif.g08.bks.cpg/sg18_3_cif.got.tgz:5629.got - 2010.06.03 22:40:56.
