data_PCOD9312999
_publ_section_title
;
Structure prediction by ZEFSAII (Michael W. Deem and Ramdas Pophale) SiO2 
 PCOD9312999
Probable space group: P 21 21 2
;
_chemical_formula_sum "Si O2"
_cell_formula_units_Z 20
_cell_length_a 12.781782
_cell_length_b 7.462064
_cell_length_c 9.200070
_cell_angle_alpha 90.000000
_cell_angle_beta 90.000000
_cell_angle_gamma 90.000000
_cell_volume 877.488649
_symmetry_space_group_name_H-M "P 21 21 2"
_symmetry_group_IT_number 18
_symmetry_cell_setting 'orthorhombic'
loop_
_space_group_symop_operation_xyz
x,y,z
-x,-y,z
1/2+x,1/2-y,-z
1/2-x,1/2+y,-z
loop_
_atom_site_type_symbol
_atom_site_label
_atom_site_fract_x
_atom_site_fract_y
_atom_site_fract_z
Si Si1 0.794463 0.845699 0.701936
Si Si2 0.342988 0.858695 0.864439
Si Si3 0.709791 0.982060 0.155414
Si Si4 0.500000 0.500000 0.361054
Si Si5 0.000000 0.500000 0.334030
Si Si6 0.848682 0.302222 0.547740
O O1 0.750437 0.673620 0.786996
O O2 0.763561 0.801557 0.533613
O O3 0.741036 0.023644 0.769639
O O4 0.919782 0.866489 0.720898
O O5 0.297114 0.662058 0.889669
O O6 0.447510 0.854597 0.770510
O O7 0.356410 0.966926 0.013820
O O8 0.654891 0.890123 0.293782
O O9 0.414188 0.381329 0.445138
O O10 0.086738 0.576933 0.438130
#
# Coordination Sequence:
#
# PCOD9312999 Si02
#       6
#     4   4   4   2   2   4
#     4  11  25  45  70 107 149 193 255 315 371 456
#     4  11  25  48  69 109 152 199 250 313 384 460
#     4  12  24  47  74 102 154 200 243 318 382 446
#     4  12  24  42  72 116 140 202 258 308 400 442
#     4  10  26  46  70 110 146 200 256 310 386 456
#     4  11  25  42  73 106 151 195 254 319 373 450
#
# _framework density 22.792317000000001
#
# number of rings (size 3 to 8) (size 9 to 14) (size 15 to 20)
#    0.000    0.800    4.000    2.400    8.400    2.400 
#    0.000    0.000    0.000    0.000    0.000    0.000 
#    0.000    0.000    0.000    0.000    0.000    0.000 
#
# Total GULP energy -111643.907148 kJ/mol
# GULP energy per Si atom -5582.195357 kJ/mol
# Density = 2.274044 g / cm^3
# Si number density = 22.792317 Si / 1000 Ang^3
#
#
#
# Elastic Constant Matrix: (Units=GPa)
#
#
# Indices 1 2 3 4 5 6 
#
# 1 71.8589 15.6834 31.5341 0.0000 0.0000 0.0000
# 2 15.6834 111.4227 13.8740 0.0000 0.0000 0.0000
# 3 31.5341 13.8740 132.9034 0.0000 0.0000 0.0000
# 4 0.0000 0.0000 0.0000 26.0946 0.0000 0.0000
# 5 0.0000 0.0000 0.0000 0.0000 24.0211 0.0000
# 6 0.0000 0.0000 0.0000 0.0000 0.0000 34.7079
#
#
#
# Elastic Compliance Matrix: (Units=1/GPa)
#
#
# Indices 1 2 3 4 5 6 
#
# 1 0.015878 -0.001789 -0.003581 0.000000 0.000000 0.000000
# 2 -0.001789 0.009295 -0.000546 0.000000 0.000000 0.000000
# 3 -0.003581 -0.000546 0.008431 0.000000 0.000000 0.000000
# 4 0.000000 0.000000 0.000000 0.038322 0.000000 0.000000
# 5 0.000000 0.000000 0.000000 0.000000 0.041630 0.000000
# 6 0.000000 0.000000 0.000000 0.000000 0.000000 0.028812
#
#
# Mechanical properties :
#
#
# Convention : Reuss Voigt Hill
#
# Bulk Modulus (GPa) = 45.92964 48.70755 47.31859
# Shear Modulus (GPa) = 30.96824 33.97096 32.46960
#
# Velocity S-wave (km/s) = 3.69007 3.86483 3.77846
# Velocity P-wave (km/s) = 6.19279 6.42903 6.31202
#
# Compressibility (1/GPa) = 0.02177243
#
# Stress axis : x y z
#
# Youngs Moduli (GPa) = 62.98060 107.58920 118.61263
#
# Poissons Ratio (x) = 0.19248 0.42470
# Poissons Ratio (y) = 0.11268 0.06474
# Poissons Ratio (z) = 0.22551 0.05872
#
# Static dielectric constant tensor:
#      x y z
#    x 1.931420 0.000000 0.000000 
#    y 0.000000 1.905650 0.000000 
#    z 0.000000 0.000000 1.884420 
# 
# From -- ./inp_files/3667.got.cif
#   From: 2010.05.17/outbox.cif.g08.bks.cpg/sg18_2_cif.got.tgz:3667.got - 2010.06.03 22:40:56.
