data_PCOD9312494
_publ_section_title
;
Structure prediction by ZEFSAII (Michael W. Deem and Ramdas Pophale) SiO2 
 PCOD9312494
Probable space group: P 21 21 2
;
_chemical_formula_sum "Si O2"
_cell_formula_units_Z 22
_cell_length_a 9.709664
_cell_length_b 13.054770
_cell_length_c 7.016818
_cell_angle_alpha 90.000000
_cell_angle_beta 90.000000
_cell_angle_gamma 90.000000
_cell_volume 889.433819
_symmetry_space_group_name_H-M "P 21 21 2"
_symmetry_group_IT_number 18
_symmetry_cell_setting 'orthorhombic'
loop_
_space_group_symop_operation_xyz
x,y,z
-x,-y,z
1/2+x,1/2-y,-z
1/2-x,1/2+y,-z
loop_
_atom_site_type_symbol
_atom_site_label
_atom_site_fract_x
_atom_site_fract_y
_atom_site_fract_z
Si Si1 0.417595 0.106654 0.060968
Si Si2 0.102674 0.360365 0.289660
Si Si3 0.000000 0.000000 0.540996
Si Si4 0.217105 0.455931 0.641302
Si Si5 0.363856 0.268307 0.799688
Si Si6 0.916820 0.185247 0.799470
O O1 0.646499 0.980462 0.191048
O O2 0.461736 0.196667 0.207620
O O3 0.543029 0.096075 0.909901
O O4 0.311606 0.167535 0.917074
O O5 0.126599 0.444124 0.451500
O O6 0.986908 0.274404 0.331633
O O7 0.254307 0.317267 0.250283
O O8 0.862304 0.993863 0.416478
O O9 0.987746 0.100105 0.673409
O O10 0.257039 0.339737 0.697657
O O11 0.427685 0.335345 0.973029
#
# Coordination Sequence:
#
# PCOD9312494 Si02
#       6
#     4   4   2   4   4   4
#     4   8  21  41  74 108 158 220 248 333 411 476
#     4   8  19  42  71 104 163 198 265 324 401 481
#     4  10  22  36  76 118 150 200 272 322 398 488
#     4  11  20  41  80 117 157 209 275 330 406 489
#     4   8  21  40  72 107 154 209 259 324 404 471
#     4   8  18  43  66 104 151 203 259 321 396 478
#
# _framework density 24.734838
#
# number of rings (size 3 to 8) (size 9 to 14) (size 15 to 20)
#    2.182    0.727    0.000    0.000    2.545    0.727 
#    3.273   11.818   20.000    0.000    0.000    0.000 
#    0.000    0.000    0.000    0.000    0.000    0.000 
#
# Total GULP energy -122685.841456 kJ/mol
# GULP energy per Si atom -5576.629157 kJ/mol
# Density = 2.467854 g / cm^3
# Si number density = 24.734838 Si / 1000 Ang^3
#
#
#
# Elastic Constant Matrix: (Units=GPa)
#
#
# Indices 1 2 3 4 5 6 
#
# 1 157.5359 81.4294 80.4867 0.0000 0.0000 0.0000
# 2 81.4294 117.3437 76.4876 0.0000 0.0000 0.0000
# 3 80.4867 76.4876 160.2830 0.0000 0.0000 0.0000
# 4 0.0000 0.0000 0.0000 51.7616 0.0000 0.0000
# 5 0.0000 0.0000 0.0000 0.0000 97.8681 0.0000
# 6 0.0000 0.0000 0.0000 0.0000 0.0000 38.4422
#
#
#
# Elastic Compliance Matrix: (Units=1/GPa)
#
#
# Indices 1 2 3 4 5 6 
#
# 1 0.010613 -0.005648 -0.002634 0.000000 0.000000 0.000000
# 2 -0.005648 0.015375 -0.004501 0.000000 0.000000 0.000000
# 3 -0.002634 -0.004501 0.009710 0.000000 0.000000 0.000000
# 4 0.000000 0.000000 0.000000 0.019319 0.000000 0.000000
# 5 0.000000 0.000000 0.000000 0.000000 0.010218 0.000000
# 6 0.000000 0.000000 0.000000 0.000000 0.000000 0.026013
#
#
# Mechanical properties :
#
#
# Convention : Reuss Voigt Hill
#
# Bulk Modulus (GPa) = 98.69964 101.33001 100.01483
# Shear Modulus (GPa) = 41.60062 50.73166 46.16614
#
# Velocity S-wave (km/s) = 4.10550 4.53373 4.32492
# Velocity P-wave (km/s) = 7.90337 8.27416 8.09089
#
# Compressibility (1/GPa) = 0.01013175
#
# Stress axis : x y z
#
# Youngs Moduli (GPa) = 94.22562 65.04089 102.99048
#
# Poissons Ratio (x) = 0.36733 0.27130
# Poissons Ratio (y) = 0.53215 0.46356
# Poissons Ratio (z) = 0.24821 0.29275
#
# Static dielectric constant tensor:
#      x y z
#    x 1.990890 0.000000 0.000000 
#    y 0.000000 1.996940 0.000000 
#    z 0.000000 0.000000 1.972640 
# 
# From -- ./inp_files/3817.got.cif
#   From: 2010.05.17/outbox.cif.g08.bks.cpg/sg18_2_cif.got.tgz:3817.got - 2010.06.03 22:40:56.
