data_PCOD9312931
_publ_section_title
;
Structure prediction by ZEFSAII (Michael W. Deem and Ramdas Pophale) SiO2 
 PCOD9312931
Probable space group: P 21 21 2
;
_chemical_formula_sum "Si O2"
_cell_formula_units_Z 20
_cell_length_a 8.181858
_cell_length_b 9.251104
_cell_length_c 11.104167
_cell_angle_alpha 90.000000
_cell_angle_beta 90.000000
_cell_angle_gamma 90.000000
_cell_volume 840.487939
_symmetry_space_group_name_H-M "P 21 21 2"
_symmetry_group_IT_number 18
_symmetry_cell_setting 'orthorhombic'
loop_
_space_group_symop_operation_xyz
x,y,z
-x,-y,z
1/2+x,1/2-y,-z
1/2-x,1/2+y,-z
loop_
_atom_site_type_symbol
_atom_site_label
_atom_site_fract_x
_atom_site_fract_y
_atom_site_fract_z
Si Si1 0.017993 0.835337 0.361836
Si Si2 0.565015 0.839145 0.156366
Si Si3 0.625558 0.373709 0.992688
Si Si4 0.674336 0.667367 0.374789
Si Si5 0.673069 0.919762 0.769735
O O1 0.099883 0.834504 0.493434
O O2 0.130684 0.741655 0.272364
O O3 0.842545 0.758546 0.374809
O O4 0.000000 0.000000 0.322645
O O5 0.467757 0.764227 0.046944
O O6 0.556970 0.742741 0.276294
O O7 0.500000 0.000000 0.176438
O O8 0.753783 0.839035 0.115515
O O9 0.500000 0.500000 0.963107
O O10 0.735781 0.427474 0.104058
O O11 0.721606 0.507984 0.328097
O O12 0.500000 0.000000 0.779408
#
# Coordination Sequence:
#
# PCOD9312931 Si02
#       5
#     4   4   4   4   4
#     4  11  26  43  76 104 146 186 256 304 371 439
#     4  12  29  45  74 113 148 192 259 305 378 449
#     4  12  26  49  77 102 152 196 249 311 378 448
#     4  11  26  46  70 107 146 202 234 310 374 451
#     4  10  24  47  73 102 147 198 243 302 382 448
#
# _framework density 23.795701999999999
#
# number of rings (size 3 to 8) (size 9 to 14) (size 15 to 20)
#    0.000    0.800    2.000    3.000   14.000    3.200 
#    0.000    0.000    0.000    0.000    0.000    0.000 
#    0.000    0.000    0.000    0.000    0.000    0.000 
#
# Total GULP energy -112301.614665 kJ/mol
# GULP energy per Si atom -5615.080733 kJ/mol
# Density = 2.374154 g / cm^3
# Si number density = 23.795702 Si / 1000 Ang^3
#
#
#
# Elastic Constant Matrix: (Units=GPa)
#
#
# Indices 1 2 3 4 5 6 
#
# 1 88.0569 40.4721 33.8853 0.0000 0.0000 0.0000
# 2 40.4721 161.0874 22.0086 0.0000 0.0000 0.0000
# 3 33.8853 22.0086 108.0858 0.0000 0.0000 0.0000
# 4 0.0000 0.0000 0.0000 4.1896 0.0000 0.0000
# 5 0.0000 0.0000 0.0000 0.0000 41.0817 0.0000
# 6 0.0000 0.0000 0.0000 0.0000 0.0000 44.8801
#
#
#
# Elastic Compliance Matrix: (Units=1/GPa)
#
#
# Indices 1 2 3 4 5 6 
#
# 1 0.014238 -0.003052 -0.003842 0.000000 0.000000 0.000000
# 2 -0.003052 0.007040 -0.000477 0.000000 0.000000 0.000000
# 3 -0.003842 -0.000477 0.010553 0.000000 0.000000 0.000000
# 4 0.000000 0.000000 0.000000 0.238686 0.000000 0.000000
# 5 0.000000 0.000000 0.000000 0.000000 0.024342 0.000000
# 6 0.000000 0.000000 0.000000 0.000000 0.000000 0.022282
#
#
# Mechanical properties :
#
#
# Convention : Reuss Voigt Hill
#
# Bulk Modulus (GPa) = 58.51653 61.10689 59.81171
# Shear Modulus (GPa) = 14.81138 35.42122 25.11630
#
# Velocity S-wave (km/s) = 2.49758 3.86237 3.25237
# Velocity P-wave (km/s) = 5.74124 6.75471 6.26849
#
# Compressibility (1/GPa) = 0.01708919
#
# Stress axis : x y z
#
# Youngs Moduli (GPa) = 70.23668 142.05028 94.75579
#
# Poissons Ratio (x) = 0.43356 0.36406
# Poissons Ratio (y) = 0.21437 0.04516
# Poissons Ratio (z) = 0.26985 0.06770
#
# Static dielectric constant tensor:
#      x y z
#    x 1.906870 0.000000 0.000000 
#    y 0.000000 1.874100 0.000000 
#    z 0.000000 0.000000 1.833670 
# 
# From -- ./inp_files/5397.got.cif
#   From: 2010.05.17/outbox.cif.g08.bks.cpg/sg18_3_cif.got.tgz:5397.got - 2010.06.03 22:40:56.
