data_PCOD9312185
_publ_section_title
;
Structure prediction by ZEFSAII (Michael W. Deem and Ramdas Pophale) SiO2 
 PCOD9312185
Probable space group: P 21 21 2
;
_chemical_formula_sum "Si O2"
_cell_formula_units_Z 22
_cell_length_a 14.957552
_cell_length_b 7.038318
_cell_length_c 9.517906
_cell_angle_alpha 90.000000
_cell_angle_beta 90.000000
_cell_angle_gamma 90.000000
_cell_volume 1002.007143
_symmetry_space_group_name_H-M "P 21 21 2"
_symmetry_group_IT_number 18
_symmetry_cell_setting 'orthorhombic'
loop_
_space_group_symop_operation_xyz
x,y,z
-x,-y,z
1/2+x,1/2-y,-z
1/2-x,1/2+y,-z
loop_
_atom_site_type_symbol
_atom_site_label
_atom_site_fract_x
_atom_site_fract_y
_atom_site_fract_z
Si Si1 0.284154 0.098081 0.849842
Si Si2 0.000000 0.000000 0.246546
Si Si3 0.599290 0.351851 0.017419
Si Si4 0.167088 0.875296 0.393616
Si Si5 0.783000 0.268611 0.695568
Si Si6 0.076492 0.699727 0.917991
O O1 0.202594 0.178325 0.945350
O O2 0.288646 0.222636 0.709720
O O3 0.264778 0.887531 0.793908
O O4 0.373638 0.122659 0.942557
O O5 0.064608 0.880603 0.344857
O O6 0.936722 0.877688 0.141684
O O7 0.587501 0.568106 0.074893
O O8 0.531661 0.195645 0.083294
O O9 0.178986 0.829615 0.555948
O O10 0.214338 0.073017 0.356022
O O11 0.864676 0.357386 0.784583
#
# Coordination Sequence:
#
# PCOD9312185 Si02
#       6
#     4   2   4   4   4   4
#     4  11  21  41  70  91 135 170 218 281 317 390
#     4  10  20  40  68  94 130 180 216 266 334 396
#     4   9  18  36  66  95 120 172 219 258 336 372
#     4  12  23  43  67  93 136 178 214 269 338 399
#     4  11  25  40  67 100 128 177 217 264 335 392
#     4   9  19  38  65  93 126 164 221 268 313 390
#
# _framework density 21.955932000000001
#
# number of rings (size 3 to 8) (size 9 to 14) (size 15 to 20)
#    0.000    1.818    5.455    1.091    2.545    2.909 
#    0.000    1.818   12.000    0.000    0.000    0.000 
#    0.000    0.000    0.000    0.000    0.000    0.000 
#
# Total GULP energy -122866.671291 kJ/mol
# GULP energy per Si atom -5584.848695 kJ/mol
# Density = 2.190596 g / cm^3
# Si number density = 21.955932 Si / 1000 Ang^3
#
#
#
# Elastic Constant Matrix: (Units=GPa)
#
#
# Indices 1 2 3 4 5 6 
#
# 1 82.3547 12.1872 29.4512 0.0000 0.0000 0.0000
# 2 12.1872 41.4095 29.8072 0.0000 0.0000 0.0000
# 3 29.4512 29.8072 134.6876 0.0000 0.0000 0.0000
# 4 0.0000 0.0000 0.0000 35.3768 0.0000 0.0000
# 5 0.0000 0.0000 0.0000 0.0000 14.4619 0.0000
# 6 0.0000 0.0000 0.0000 0.0000 0.0000 30.8603
#
#
#
# Elastic Compliance Matrix: (Units=1/GPa)
#
#
# Indices 1 2 3 4 5 6 
#
# 1 0.013335 -0.002172 -0.002435 0.000000 0.000000 0.000000
# 2 -0.002172 0.029079 -0.005960 0.000000 0.000000 0.000000
# 3 -0.002435 -0.005960 0.009276 0.000000 0.000000 0.000000
# 4 0.000000 0.000000 0.000000 0.028267 0.000000 0.000000
# 5 0.000000 0.000000 0.000000 0.000000 0.069147 0.000000
# 6 0.000000 0.000000 0.000000 0.000000 0.000000 0.032404
#
#
# Mechanical properties :
#
#
# Convention : Reuss Voigt Hill
#
# Bulk Modulus (GPa) = 32.72786 44.59366 38.66076
# Shear Modulus (GPa) = 23.49321 28.60688 26.05005
#
# Velocity S-wave (km/s) = 3.27466 3.61352 3.44825
# Velocity P-wave (km/s) = 5.40707 6.14529 5.78796
#
# Compressibility (1/GPa) = 0.03055501
#
# Stress axis : x y z
#
# Youngs Moduli (GPa) = 74.99151 34.38960 107.80329
#
# Poissons Ratio (x) = 0.07468 0.26253
# Poissons Ratio (y) = 0.16285 0.64255
# Poissons Ratio (z) = 0.18262 0.20498
#
# Static dielectric constant tensor:
#      x y z
#    x 1.908720 0.000000 0.000000 
#    y 0.000000 1.917710 0.000000 
#    z 0.000000 0.000000 1.753720 
# 
# From -- ./inp_files/4173.got.cif
#   From: 2010.05.17/outbox.cif.g08.bks.cpg/sg18_3_cif.got.tgz:4173.got - 2010.06.03 22:40:56.
