data_PCOD9312895
_publ_section_title
;
Structure prediction by ZEFSAII (Michael W. Deem and Ramdas Pophale) SiO2 
 PCOD9312895
Probable space group: P 21 21 2
;
_chemical_formula_sum "Si O2"
_cell_formula_units_Z 24
_cell_length_a 8.985682
_cell_length_b 18.932613
_cell_length_c 5.564103
_cell_angle_alpha 90.000000
_cell_angle_beta 90.000000
_cell_angle_gamma 90.000000
_cell_volume 946.578778
_symmetry_space_group_name_H-M "P 21 21 2"
_symmetry_group_IT_number 18
_symmetry_cell_setting 'orthorhombic'
loop_
_space_group_symop_operation_xyz
x,y,z
-x,-y,z
1/2+x,1/2-y,-z
1/2-x,1/2+y,-z
loop_
_atom_site_type_symbol
_atom_site_label
_atom_site_fract_x
_atom_site_fract_y
_atom_site_fract_z
Si Si1 0.941410 0.258320 0.767787
Si Si2 0.751000 0.537433 0.803741
Si Si3 0.750435 0.922438 0.558741
Si Si4 0.257589 0.708819 0.148136
Si Si5 0.000000 0.500000 0.149318
Si Si6 0.215318 0.326618 0.537779
Si Si7 0.500000 0.500000 0.131734
O O1 0.069585 0.217027 0.916094
O O2 0.045244 0.297901 0.566312
O O3 0.815732 0.204881 0.672163
O O4 0.854277 0.312350 0.940130
O O5 0.746070 0.457511 0.701844
O O6 0.891295 0.544589 0.977906
O O7 0.768849 0.590611 0.581313
O O8 0.603386 0.546882 0.958662
O O9 0.755335 0.839931 0.615135
O O10 0.602674 0.951467 0.686517
O O11 0.890871 0.954593 0.702525
O O12 0.214447 0.787755 0.228944
#
# Coordination Sequence:
#
# PCOD9312895 Si02
#       7
#     4   4   4   4   2   4   2
#     4  10  25  42  68 100 136 174 226 280 341 407
#     4  11  24  44  67  98 137 178 222 282 336 406
#     4  11  24  42  69  96 138 177 234 273 346 399
#     4  10  26  44  69  99 135 183 227 284 338 410
#     4  10  24  44  62 100 130 182 224 286 324 412
#     4  10  26  41  71  99 138 174 229 275 350 400
#     4  10  26  38  68  98 134 178 228 278 338 400
#
# _framework density 25.354465999999999
#
# number of rings (size 3 to 8) (size 9 to 14) (size 15 to 20)
#    1.000    0.667    0.000    2.000    9.333    6.667 
#    0.000    0.000    0.000    0.000    0.000    0.000 
#    0.000    0.000    0.000    0.000    0.000    0.000 
#
# Total GULP energy -134126.766603 kJ/mol
# GULP energy per Si atom -5588.615275 kJ/mol
# Density = 2.529676 g / cm^3
# Si number density = 25.354466 Si / 1000 Ang^3
#
#
#
# Elastic Constant Matrix: (Units=GPa)
#
#
# Indices 1 2 3 4 5 6 
#
# 1 155.5230 25.5427 37.3139 0.0000 0.0000 0.0000
# 2 25.5427 79.4725 -5.8400 0.0000 0.0000 0.0000
# 3 37.3139 -5.8400 48.5927 0.0000 0.0000 0.0000
# 4 0.0000 0.0000 0.0000 30.7362 0.0000 0.0000
# 5 0.0000 0.0000 0.0000 0.0000 41.8444 0.0000
# 6 0.0000 0.0000 0.0000 0.0000 0.0000 14.8032
#
#
#
# Elastic Compliance Matrix: (Units=1/GPa)
#
#
# Indices 1 2 3 4 5 6 
#
# 1 0.008664 -0.003303 -0.007050 0.000000 0.000000 0.000000
# 2 -0.003303 0.013954 0.004213 0.000000 0.000000 0.000000
# 3 -0.007050 0.004213 0.026499 0.000000 0.000000 0.000000
# 4 0.000000 0.000000 0.000000 0.032535 0.000000 0.000000
# 5 0.000000 0.000000 0.000000 0.000000 0.023898 0.000000
# 6 0.000000 0.000000 0.000000 0.000000 0.000000 0.067553
#
#
# Mechanical properties :
#
#
# Convention : Reuss Voigt Hill
#
# Bulk Modulus (GPa) = 27.14567 44.18015 35.66291
# Shear Modulus (GPa) = 25.29589 32.58154 28.93872
#
# Velocity S-wave (km/s) = 3.16205 3.58864 3.38208
# Velocity P-wave (km/s) = 4.90521 5.88506 5.41733
#
# Compressibility (1/GPa) = 0.03683828
#
# Stress axis : x y z
#
# Youngs Moduli (GPa) = 115.42364 71.66389 37.73727
#
# Poissons Ratio (x) = 0.23668 0.26604
# Poissons Ratio (y) = 0.38120 -0.15899
# Poissons Ratio (z) = 0.81371 -0.30193
#
# Static dielectric constant tensor:
#      x y z
#    x 1.979340 0.000000 0.000000 
#    y 0.000000 1.986210 0.000000 
#    z 0.000000 0.000000 1.987120 
# 
# From -- ./inp_files/652.got.cif
#   From: 2010.05.17/outbox.cif.g08.bks.cpg/sg18_1_cif.got.tgz:652.got - 2010.06.03 22:40:56.
