data_PCOD9312622
_publ_section_title
;
Structure prediction by ZEFSAII (Michael W. Deem and Ramdas Pophale) SiO2 
 PCOD9312622
Probable space group: P 21 21 2
;
_chemical_formula_sum "Si O2"
_cell_formula_units_Z 20
_cell_length_a 11.263447
_cell_length_b 7.486940
_cell_length_c 10.468154
_cell_angle_alpha 90.000000
_cell_angle_beta 90.000000
_cell_angle_gamma 90.000000
_cell_volume 882.766361
_symmetry_space_group_name_H-M "P 21 21 2"
_symmetry_group_IT_number 18
_symmetry_cell_setting 'orthorhombic'
loop_
_space_group_symop_operation_xyz
x,y,z
-x,-y,z
1/2+x,1/2-y,-z
1/2-x,1/2+y,-z
loop_
_atom_site_type_symbol
_atom_site_label
_atom_site_fract_x
_atom_site_fract_y
_atom_site_fract_z
Si Si1 0.908470 0.289358 0.539611
Si Si2 0.155437 0.356405 0.435218
Si Si3 0.347146 0.025534 0.188030
Si Si4 0.003742 0.204973 0.924242
Si Si5 0.403602 0.623202 0.796828
O O1 0.878996 0.437946 0.434593
O O2 0.795394 0.157054 0.527465
O O3 0.884515 0.395127 0.673545
O O4 0.050578 0.257405 0.520739
O O5 0.140942 0.275343 0.295848
O O6 0.381296 0.187125 0.091828
O O7 0.208404 0.998239 0.178283
O O8 0.411152 0.841776 0.151691
O O9 0.044315 0.192534 0.070478
O O10 0.000000 0.000000 0.875368
O O11 0.500000 0.500000 0.728707
#
# Coordination Sequence:
#
# PCOD9312622 Si02
#       5
#     4   4   4   4   4
#     4  10  23  43  63  98 131 172 223 272 338 392
#     4  10  22  42  64  93 131 170 217 271 328 396
#     4  10  23  46  64  98 141 160 224 289 305 405
#     4  10  22  42  67  95 127 180 216 262 339 384
#     4  10  24  41  64  99 131 171 215 269 337 386
#
# _framework density 22.656051000000001
#
# number of rings (size 3 to 8) (size 9 to 14) (size 15 to 20)
#    0.000    2.000    0.000    2.400   11.200    3.200 
#   14.400    1.000    0.000    0.000    0.000    0.000 
#    0.000    0.000    0.000    0.000    0.000    0.000 
#
# Total GULP energy -111454.428175 kJ/mol
# GULP energy per Si atom -5572.721409 kJ/mol
# Density = 2.260448 g / cm^3
# Si number density = 22.656051 Si / 1000 Ang^3
#
#
#
# Elastic Constant Matrix: (Units=GPa)
#
#
# Indices 1 2 3 4 5 6 
#
# 1 108.3229 5.2632 1.3440 0.0000 0.0000 0.0000
# 2 5.2632 95.1985 11.9317 0.0000 0.0000 0.0000
# 3 1.3440 11.9317 54.3230 0.0000 0.0000 0.0000
# 4 0.0000 0.0000 0.0000 23.1120 0.0000 0.0000
# 5 0.0000 0.0000 0.0000 0.0000 56.9093 0.0000
# 6 0.0000 0.0000 0.0000 0.0000 0.0000 32.9107
#
#
#
# Elastic Compliance Matrix: (Units=1/GPa)
#
#
# Indices 1 2 3 4 5 6 
#
# 1 0.009257 -0.000497 -0.000120 0.000000 0.000000 0.000000
# 2 -0.000497 0.010828 -0.002366 0.000000 0.000000 0.000000
# 3 -0.000120 -0.002366 0.018931 0.000000 0.000000 0.000000
# 4 0.000000 0.000000 0.000000 0.043268 0.000000 0.000000
# 5 0.000000 0.000000 0.000000 0.000000 0.017572 0.000000
# 6 0.000000 0.000000 0.000000 0.000000 0.000000 0.030385
#
#
# Mechanical properties :
#
#
# Convention : Reuss Voigt Hill
#
# Bulk Modulus (GPa) = 30.25612 32.76913 31.51262
# Shear Modulus (GPa) = 33.96184 38.54009 36.25097
#
# Velocity S-wave (km/s) = 3.87592 4.12891 4.00441
# Velocity P-wave (km/s) = 5.78047 6.10128 5.94304
#
# Compressibility (1/GPa) = 0.03305117
#
# Stress axis : x y z
#
# Youngs Moduli (GPa) = 108.02301 92.34986 52.82317
#
# Poissons Ratio (x) = 0.04588 0.00633
# Poissons Ratio (y) = 0.05366 0.12498
# Poissons Ratio (z) = 0.01295 0.21851
#
# Static dielectric constant tensor:
#      x y z
#    x 1.935720 0.000000 0.000000 
#    y 0.000000 1.851150 0.000000 
#    z 0.000000 0.000000 1.894100 
# 
# From -- ./inp_files/5818.got.cif
#   From: 2010.05.17/outbox.cif.g08.bks.cpg/sg18_3_cif.got.tgz:5818.got - 2010.06.03 22:40:56.
