data_PCOD9312465
_publ_section_title
;
Structure prediction by ZEFSAII (Michael W. Deem and Ramdas Pophale) SiO2 
 PCOD9312465
Probable space group: P 21 21 2
;
_chemical_formula_sum "Si O2"
_cell_formula_units_Z 24
_cell_length_a 12.764555
_cell_length_b 9.626373
_cell_length_c 8.347102
_cell_angle_alpha 90.000000
_cell_angle_beta 90.000000
_cell_angle_gamma 90.000000
_cell_volume 1025.661574
_symmetry_space_group_name_H-M "P 21 21 2"
_symmetry_group_IT_number 18
_symmetry_cell_setting 'orthorhombic'
loop_
_space_group_symop_operation_xyz
x,y,z
-x,-y,z
1/2+x,1/2-y,-z
1/2-x,1/2+y,-z
loop_
_atom_site_type_symbol
_atom_site_label
_atom_site_fract_x
_atom_site_fract_y
_atom_site_fract_z
Si Si1 0.395921 0.600433 0.396022
Si Si2 0.279046 0.837106 0.221277
Si Si3 0.745937 0.883019 0.339387
Si Si4 0.000000 0.500000 0.255141
Si Si5 0.500000 0.500000 0.097368
Si Si6 0.406953 0.260663 0.562618
Si Si7 0.892471 0.751145 0.082825
O O1 0.354357 0.750168 0.337300
O O2 0.303508 0.546142 0.508217
O O3 0.408372 0.511179 0.232767
O O4 0.500537 0.640599 0.496879
O O5 0.161755 0.818140 0.288701
O O6 0.306614 0.998267 0.234103
O O7 0.302262 0.776605 0.047835
O O8 0.666511 0.773290 0.411552
O O9 0.838094 0.817267 0.236505
O O10 0.055960 0.610762 0.371833
O O11 0.063128 0.396288 0.138847
O O12 0.476223 0.637167 0.991241
#
# Coordination Sequence:
#
# PCOD9312465 Si02
#       7
#     4   4   4   2   2   4   4
#     4  10  21  46  70 106 134 191 248 297 349 434
#     4  10  25  42  67 106 139 184 237 295 366 424
#     4  11  24  43  72 101 142 186 244 297 358 429
#     4  12  26  48  72 102 148 196 242 290 370 444
#     4  10  24  44  72 102 144 182 236 298 356 430
#     4  11  24  43  74 100 138 190 239 302 349 429
#     4  11  27  46  70 109 148 190 240 299 374 439
#
# _framework density 23.399529999999999
#
# number of rings (size 3 to 8) (size 9 to 14) (size 15 to 20)
#    0.000    1.333    1.667    2.000    7.000    4.667 
#    0.000    0.000    0.000    0.000    0.000    0.000 
#    0.000    0.000    0.000    0.000    0.000    0.000 
#
# Total GULP energy -133964.836510 kJ/mol
# GULP energy per Si atom -5581.868188 kJ/mol
# Density = 2.334627 g / cm^3
# Si number density = 23.399530 Si / 1000 Ang^3
#
#
#
# Elastic Constant Matrix: (Units=GPa)
#
#
# Indices 1 2 3 4 5 6 
#
# 1 60.2535 19.9849 32.7550 0.0000 0.0000 0.0000
# 2 19.9849 124.0181 38.3960 0.0000 0.0000 0.0000
# 3 32.7550 38.3960 95.4124 0.0000 0.0000 0.0000
# 4 0.0000 0.0000 0.0000 32.3156 0.0000 0.0000
# 5 0.0000 0.0000 0.0000 0.0000 33.4728 0.0000
# 6 0.0000 0.0000 0.0000 0.0000 0.0000 34.4730
#
#
#
# Elastic Compliance Matrix: (Units=1/GPa)
#
#
# Indices 1 2 3 4 5 6 
#
# 1 0.020584 -0.001290 -0.006547 0.000000 0.000000 0.000000
# 2 -0.001290 0.009292 -0.003296 0.000000 0.000000 0.000000
# 3 -0.006547 -0.003296 0.014055 0.000000 0.000000 0.000000
# 4 0.000000 0.000000 0.000000 0.030945 0.000000 0.000000
# 5 0.000000 0.000000 0.000000 0.000000 0.029875 0.000000
# 6 0.000000 0.000000 0.000000 0.000000 0.000000 0.029008
#
#
# Mechanical properties :
#
#
# Convention : Reuss Voigt Hill
#
# Bulk Modulus (GPa) = 46.16102 51.32842 48.74472
# Shear Modulus (GPa) = 30.62849 32.62213 31.62531
#
# Velocity S-wave (km/s) = 3.62185 3.73786 3.68031
# Velocity P-wave (km/s) = 6.10414 6.37276 6.23990
#
# Compressibility (1/GPa) = 0.02166330
#
# Stress axis : x y z
#
# Youngs Moduli (GPa) = 48.58232 107.62217 71.14892
#
# Poissons Ratio (x) = 0.13882 0.46583
# Poissons Ratio (y) = 0.06267 0.23453
# Poissons Ratio (z) = 0.31808 0.35476
#
# Static dielectric constant tensor:
#      x y z
#    x 1.938030 0.000000 0.000000 
#    y 0.000000 1.918910 0.000000 
#    z 0.000000 0.000000 1.868580 
# 
# From -- ./inp_files/4190.got.cif
#   From: 2010.05.17/outbox.cif.g08.bks.cpg/sg18_3_cif.got.tgz:4190.got - 2010.06.03 22:40:56.
