data_PCOD9312092
_publ_section_title
;
Structure prediction by ZEFSAII (Michael W. Deem and Ramdas Pophale) SiO2 
 PCOD9312092
Probable space group: P 21 21 2
;
_chemical_formula_sum "Si O2"
_cell_formula_units_Z 32
_cell_length_a 16.019799
_cell_length_b 8.365663
_cell_length_c 11.345431
_cell_angle_alpha 90.000000
_cell_angle_beta 90.000000
_cell_angle_gamma 90.000000
_cell_volume 1520.472001
_symmetry_space_group_name_H-M "P 21 21 2"
_symmetry_group_IT_number 18
_symmetry_cell_setting 'orthorhombic'
loop_
_space_group_symop_operation_xyz
x,y,z
-x,-y,z
1/2+x,1/2-y,-z
1/2-x,1/2+y,-z
loop_
_atom_site_type_symbol
_atom_site_label
_atom_site_fract_x
_atom_site_fract_y
_atom_site_fract_z
Si Si1 0.194484 0.713507 0.108162
Si Si2 0.030633 0.320703 0.413525
Si Si3 0.992102 0.806631 0.673749
Si Si4 0.970580 0.663871 0.046019
Si Si5 0.852291 0.223001 0.844217
Si Si6 0.438055 0.357997 0.777469
Si Si7 0.378056 0.650418 0.125454
Si Si8 0.825173 0.625721 0.230323
O O1 0.156129 0.867889 0.177886
O O2 0.293160 0.735226 0.088591
O O3 0.191717 0.563301 0.201856
O O4 0.158614 0.692307 0.973153
O O5 0.120359 0.322015 0.345261
O O6 0.000000 0.500000 0.393182
O O7 0.023767 0.278205 0.549994
O O8 0.966544 0.196742 0.350646
O O9 0.072438 0.743428 0.750458
O O10 0.907503 0.789720 0.748145
O O11 0.000000 0.000000 0.658112
O O12 0.886939 0.661314 0.122163
O O13 0.000000 0.500000 0.988831
O O14 0.038866 0.704714 0.143014
O O15 0.956343 0.801845 0.954374
O O16 0.762068 0.219045 0.779789
O O17 0.866378 0.037768 0.879303
O O18 0.500000 0.500000 0.810755
#
# Coordination Sequence:
#
# PCOD9312092 Si02
#       8
#     4   4   4   4   4   4   4   4
#     4  11  19  37  62  95 133 166 208 271 331 398
#     4  11  22  44  65  87 125 169 227 270 321 385
#     4  10  23  44  63  90 126 176 218 273 328 393
#     4  11  19  35  57  90 129 165 205 258 328 392
#     4  10  21  39  64  93 132 169 215 269 341 395
#     4  11  21  35  62  90 118 167 217 262 321 381
#     4  10  22  37  61  93 135 166 212 267 332 397
#     4  10  20  38  61  93 128 168 208 275 324 387
#
# _framework density 21.046095000000001
#
# number of rings (size 3 to 8) (size 9 to 14) (size 15 to 20)
#    0.000    1.500    3.750    2.625    0.000    1.500 
#    2.250    0.000    0.000    0.000    0.000    0.000 
#    0.000    0.000    0.000    0.000    0.000    0.000 
#
# Total GULP energy -178159.540498 kJ/mol
# GULP energy per Si atom -5567.485641 kJ/mol
# Density = 2.099819 g / cm^3
# Si number density = 21.046095 Si / 1000 Ang^3
#
#
#
# Elastic Constant Matrix: (Units=GPa)
#
#
# Indices 1 2 3 4 5 6 
#
# 1 101.1891 20.1757 51.8623 0.0000 0.0000 0.0000
# 2 20.1757 22.2866 20.3875 0.0000 0.0000 0.0000
# 3 51.8623 20.3875 122.9371 0.0000 0.0000 0.0000
# 4 0.0000 0.0000 0.0000 32.9221 0.0000 0.0000
# 5 0.0000 0.0000 0.0000 0.0000 31.4916 0.0000
# 6 0.0000 0.0000 0.0000 0.0000 0.0000 27.4467
#
#
#
# Elastic Compliance Matrix: (Units=1/GPa)
#
#
# Indices 1 2 3 4 5 6 
#
# 1 0.013846 -0.008477 -0.004435 0.000000 0.000000 0.000000
# 2 -0.008477 0.058085 -0.006056 0.000000 0.000000 0.000000
# 3 -0.004435 -0.006056 0.011010 0.000000 0.000000 0.000000
# 4 0.000000 0.000000 0.000000 0.030375 0.000000 0.000000
# 5 0.000000 0.000000 0.000000 0.000000 0.031755 0.000000
# 6 0.000000 0.000000 0.000000 0.000000 0.000000 0.036434
#
#
# Mechanical properties :
#
#
# Convention : Reuss Voigt Hill
#
# Bulk Modulus (GPa) = 22.22093 47.91818 35.06956
# Shear Modulus (GPa) = 21.32724 28.63791 24.98258
#
# Velocity S-wave (km/s) = 3.18678 3.69280 3.44908
# Velocity P-wave (km/s) = 4.91141 6.40312 5.70622
#
# Compressibility (1/GPa) = 0.04500261
#
# Stress axis : x y z
#
# Youngs Moduli (GPa) = 72.22356 17.21627 90.82942
#
# Poissons Ratio (x) = 0.14595 0.40285
# Poissons Ratio (y) = 0.61225 0.55010
# Poissons Ratio (z) = 0.32033 0.10427
#
# Static dielectric constant tensor:
#      x y z
#    x 1.957260 0.000000 0.000000 
#    y 0.000000 1.803700 0.000000 
#    z 0.000000 0.000000 1.748050 
# 
# From -- ./inp_files/6128.got.cif
#   From: 2010.05.17/outbox.cif.g08.bks.cpg/sg18_4_cif.got.tgz:6128.got - 2010.06.03 22:40:56.
