data_PCOD9312397
_publ_section_title
;
Structure prediction by ZEFSAII (Michael W. Deem and Ramdas Pophale) SiO2 
 PCOD9312397
Probable space group: P 21 21 2
;
_chemical_formula_sum "Si O2"
_cell_formula_units_Z 24
_cell_length_a 13.006161
_cell_length_b 8.508658
_cell_length_c 9.174719
_cell_angle_alpha 90.000000
_cell_angle_beta 90.000000
_cell_angle_gamma 90.000000
_cell_volume 1015.320056
_symmetry_space_group_name_H-M "P 21 21 2"
_symmetry_group_IT_number 18
_symmetry_cell_setting 'orthorhombic'
loop_
_space_group_symop_operation_xyz
x,y,z
-x,-y,z
1/2+x,1/2-y,-z
1/2-x,1/2+y,-z
loop_
_atom_site_type_symbol
_atom_site_label
_atom_site_fract_x
_atom_site_fract_y
_atom_site_fract_z
Si Si1 0.285936 0.636707 0.986851
Si Si2 0.830930 0.964683 0.682107
Si Si3 0.874057 0.168023 0.129842
Si Si4 0.036643 0.329712 0.989806
Si Si5 0.989883 0.249315 0.660881
Si Si6 0.398307 0.093387 0.614088
O O1 0.320409 0.579995 0.147582
O O2 0.173280 0.702614 0.016244
O O3 0.346752 0.799415 0.960875
O O4 0.312294 0.494523 0.878718
O O5 0.715296 0.984841 0.620660
O O6 0.901686 0.828363 0.607419
O O7 0.904597 0.114101 0.679181
O O8 0.880168 0.249868 0.287264
O O9 0.987587 0.174969 0.065556
O O10 0.018542 0.319328 0.817261
O O11 0.000000 0.500000 0.035863
O O12 0.934384 0.361864 0.547239
O O13 0.500000 0.000000 0.668913
#
# Coordination Sequence:
#
# PCOD9312397 Si02
#       6
#     4   4   4   4   4   4
#     4  10  21  41  66  92 129 175 224 271 329 408
#     4   9  21  43  67  89 132 179 224 280 327 412
#     4  11  22  41  63  95 135 173 214 283 344 389
#     4  11  21  39  67  94 123 174 227 265 323 412
#     4  10  21  43  67  92 129 175 229 270 337 408
#     4  11  25  41  65 101 141 169 224 292 350 397
#
# _framework density 23.637865999999999
#
# number of rings (size 3 to 8) (size 9 to 14) (size 15 to 20)
#    0.000    1.667    1.667    2.500    2.333    1.333 
#   12.000    0.000    0.000    0.000    0.000    0.000 
#    0.000    0.000    0.000    0.000    0.000    0.000 
#
# Total GULP energy -133800.025416 kJ/mol
# GULP energy per Si atom -5575.001059 kJ/mol
# Density = 2.358407 g / cm^3
# Si number density = 23.637866 Si / 1000 Ang^3
#
#
#
# Elastic Constant Matrix: (Units=GPa)
#
#
# Indices 1 2 3 4 5 6 
#
# 1 129.9100 24.4432 -3.5829 0.0000 0.0000 0.0000
# 2 24.4432 76.3481 -9.7326 0.0000 0.0000 0.0000
# 3 -3.5829 -9.7326 44.3186 0.0000 0.0000 0.0000
# 4 0.0000 0.0000 0.0000 36.8774 0.0000 0.0000
# 5 0.0000 0.0000 0.0000 0.0000 17.8489 0.0000
# 6 0.0000 0.0000 0.0000 0.0000 0.0000 38.6109
#
#
#
# Elastic Compliance Matrix: (Units=1/GPa)
#
#
# Indices 1 2 3 4 5 6 
#
# 1 0.008191 -0.002611 0.000089 0.000000 0.000000 0.000000
# 2 -0.002611 0.014308 0.002931 0.000000 0.000000 0.000000
# 3 0.000089 0.002931 0.023215 0.000000 0.000000 0.000000
# 4 0.000000 0.000000 0.000000 0.027117 0.000000 0.000000
# 5 0.000000 0.000000 0.000000 0.000000 0.056026 0.000000
# 6 0.000000 0.000000 0.000000 0.000000 0.000000 0.025899
#
#
# Mechanical properties :
#
#
# Convention : Reuss Voigt Hill
#
# Bulk Modulus (GPa) = 21.49122 30.31470 25.90296
# Shear Modulus (GPa) = 29.50743 34.63072 32.06907
#
# Velocity S-wave (km/s) = 3.53698 3.83175 3.68731
# Velocity P-wave (km/s) = 5.07857 5.69464 5.39541
#
# Compressibility (1/GPa) = 0.04653062
#
# Stress axis : x y z
#
# Youngs Moduli (GPa) = 122.07934 69.89336 43.07613
#
# Poissons Ratio (x) = 0.18251 -0.00382
# Poissons Ratio (y) = 0.31877 -0.12625
# Poissons Ratio (z) = -0.01084 -0.20485
#
# Static dielectric constant tensor:
#      x y z
#    x 1.993950 0.000000 0.000000 
#    y 0.000000 1.962100 0.000000 
#    z 0.000000 0.000000 1.843350 
# 
# From -- ./inp_files/5827.got.cif
#   From: 2010.05.17/outbox.cif.g08.bks.cpg/sg18_3_cif.got.tgz:5827.got - 2010.06.03 22:40:56.
