data_PCOD9312871
_publ_section_title
;
Structure prediction by ZEFSAII (Michael W. Deem and Ramdas Pophale) SiO2 
 PCOD9312871
Probable space group: P 21 21 2
;
_chemical_formula_sum "Si O2"
_cell_formula_units_Z 24
_cell_length_a 12.350971
_cell_length_b 9.525168
_cell_length_c 10.250342
_cell_angle_alpha 90.000000
_cell_angle_beta 90.000000
_cell_angle_gamma 90.000000
_cell_volume 1205.902240
_symmetry_space_group_name_H-M "P 21 21 2"
_symmetry_group_IT_number 18
_symmetry_cell_setting 'orthorhombic'
loop_
_space_group_symop_operation_xyz
x,y,z
-x,-y,z
1/2+x,1/2-y,-z
1/2-x,1/2+y,-z
loop_
_atom_site_type_symbol
_atom_site_label
_atom_site_fract_x
_atom_site_fract_y
_atom_site_fract_z
Si Si1 0.677332 0.374547 0.336059
Si Si2 0.602273 0.360795 0.628184
Si Si3 0.369922 0.263636 0.022312
Si Si4 0.142732 0.844688 0.278228
Si Si5 0.000000 0.500000 0.029489
Si Si6 0.000000 0.000000 0.836584
Si Si7 0.809977 0.627263 0.202750
O O1 0.637580 0.401774 0.482943
O O2 0.752799 0.235250 0.337112
O O3 0.568254 0.389644 0.250576
O O4 0.748286 0.494993 0.265329
O O5 0.645930 0.486387 0.720693
O O6 0.473499 0.330234 0.647224
O O7 0.658795 0.220893 0.675082
O O8 0.429600 0.401876 0.072269
O O9 0.258482 0.277905 0.101131
O O10 0.362088 0.281126 0.866891
O O11 0.435264 0.120221 0.048681
O O12 0.087011 0.424622 0.122031
#
# Coordination Sequence:
#
# PCOD9312871 Si02
#       7
#     4   4   4   4   2   2   4
#     4  11  23  43  65  93 134 175 225 278 330 399
#     4  11  23  40  65  93 130 173 229 266 333 400
#     4  11  25  39  67  95 135 167 226 274 342 396
#     4  11  23  39  65  93 126 180 213 279 332 402
#     4  12  24  44  64  98 138 172 222 276 332 416
#     4  10  24  42  64  96 130 174 218 282 338 386
#     4  11  24  41  65  99 129 180 217 281 338 392
#
# _framework density 19.902111000000001
#
# number of rings (size 3 to 8) (size 9 to 14) (size 15 to 20)
#    0.000    1.000    3.333    3.000    4.667    1.333 
#    0.000    0.000    0.000    4.000    0.000    0.000 
#    0.000    0.000    0.000    0.000    0.000    0.000 
#
# Total GULP energy -133788.750077 kJ/mol
# GULP energy per Si atom -5574.531253 kJ/mol
# Density = 1.985681 g / cm^3
# Si number density = 19.902111 Si / 1000 Ang^3
#
#
#
# Elastic Constant Matrix: (Units=GPa)
#
#
# Indices 1 2 3 4 5 6 
#
# 1 83.1524 15.3541 43.5376 0.0000 0.0000 0.0000
# 2 15.3541 51.2308 21.2616 0.0000 0.0000 0.0000
# 3 43.5376 21.2616 71.9157 0.0000 0.0000 0.0000
# 4 0.0000 0.0000 0.0000 28.8680 0.0000 0.0000
# 5 0.0000 0.0000 0.0000 0.0000 25.6720 0.0000
# 6 0.0000 0.0000 0.0000 0.0000 0.0000 41.6657
#
#
#
# Elastic Compliance Matrix: (Units=1/GPa)
#
#
# Indices 1 2 3 4 5 6 
#
# 1 0.017650 -0.000975 -0.010397 0.000000 0.000000 0.000000
# 2 -0.000975 0.022303 -0.006004 0.000000 0.000000 0.000000
# 3 -0.010397 -0.006004 0.021974 0.000000 0.000000 0.000000
# 4 0.000000 0.000000 0.000000 0.034640 0.000000 0.000000
# 5 0.000000 0.000000 0.000000 0.000000 0.038953 0.000000
# 6 0.000000 0.000000 0.000000 0.000000 0.000000 0.024001
#
#
# Mechanical properties :
#
#
# Convention : Reuss Voigt Hill
#
# Bulk Modulus (GPa) = 36.79643 40.73395 38.76519
# Shear Modulus (GPa) = 24.59038 27.65083 26.12061
#
# Velocity S-wave (km/s) = 3.51888 3.73143 3.62671
# Velocity P-wave (km/s) = 5.91936 6.25111 6.08749
#
# Compressibility (1/GPa) = 0.02717655
#
# Stress axis : x y z
#
# Youngs Moduli (GPa) = 56.65770 44.83637 45.50738
#
# Poissons Ratio (x) = 0.04371 0.47314
# Poissons Ratio (y) = 0.05523 0.27321
# Poissons Ratio (z) = 0.58907 0.26919
#
# Static dielectric constant tensor:
#      x y z
#    x 1.583230 0.000000 0.000000 
#    y 0.000000 1.687420 0.000000 
#    z 0.000000 0.000000 1.693980 
# 
# From -- ./inp_files/5867.got.cif
#   From: 2010.05.17/outbox.cif.g08.bks.cpg/sg18_3_cif.got.tgz:5867.got - 2010.06.03 22:40:56.
