data_PCOD9312657
_publ_section_title
;
Structure prediction by ZEFSAII (Michael W. Deem and Ramdas Pophale) SiO2 
 PCOD9312657
Probable space group: P 21 21 2
;
_chemical_formula_sum "Si O2"
_cell_formula_units_Z 32
_cell_length_a 20.242053
_cell_length_b 12.361802
_cell_length_c 4.943661
_cell_angle_alpha 90.000000
_cell_angle_beta 90.000000
_cell_angle_gamma 90.000000
_cell_volume 1237.043647
_symmetry_space_group_name_H-M "P 21 21 2"
_symmetry_group_IT_number 18
_symmetry_cell_setting 'orthorhombic'
loop_
_space_group_symop_operation_xyz
x,y,z
-x,-y,z
1/2+x,1/2-y,-z
1/2-x,1/2+y,-z
loop_
_atom_site_type_symbol
_atom_site_label
_atom_site_fract_x
_atom_site_fract_y
_atom_site_fract_z
Si Si1 0.548840 0.403517 0.491324
Si Si2 0.675104 0.543541 0.399684
Si Si3 0.970491 0.755004 0.001673
Si Si4 0.321025 0.969799 0.793849
Si Si5 0.716644 0.743550 0.717525
Si Si6 0.550471 0.903061 0.605039
Si Si7 0.347189 0.844200 0.286377
Si Si8 0.359946 0.228434 0.227433
O O1 0.500000 0.500000 0.576017
O O2 0.621424 0.451678 0.437831
O O3 0.555587 0.319994 0.737134
O O4 0.516871 0.348089 0.224184
O O5 0.744586 0.505392 0.272215
O O6 0.695701 0.617430 0.661060
O O7 0.638278 0.640612 0.236058
O O8 0.917914 0.686131 0.828107
O O9 0.020299 0.673166 0.159368
O O10 0.334839 0.863345 0.602955
O O11 0.384562 0.035407 0.701106
O O12 0.328446 0.949877 0.112377
O O13 0.700055 0.797540 0.433294
O O14 0.792088 0.742702 0.799777
O O15 0.668709 0.794065 0.936160
O O16 0.576355 0.827740 0.358395
O O17 0.500000 0.000000 0.530663
#
# Coordination Sequence:
#
# PCOD9312657 Si02
#       8
#     4   4   4   4   4   4   4   4
#     4  12  28  50  79 111 153 201 260 329 399 474
#     4   9  23  45  80 111 146 188 264 323 397 455
#     4  12  29  48  73 107 154 207 260 315 392 473
#     4  11  24  45  77 105 152 197 256 328 385 456
#     4   9  20  41  74 106 145 181 248 319 396 441
#     4  12  28  51  70 112 160 216 262 310 391 485
#     4  11  21  47  72 106 146 197 244 330 378 466
#     4  10  22  42  74 105 148 195 245 319 387 460
#
# _framework density 25.868124000000002
#
# number of rings (size 3 to 8) (size 9 to 14) (size 15 to 20)
#    0.750    0.500    2.500    1.875    1.750    6.000 
#    0.000    0.000    0.000    0.000    0.000    0.000 
#    0.000    0.000    0.000    0.000    0.000    0.000 
#
# Total GULP energy -178753.269589 kJ/mol
# GULP energy per Si atom -5586.039675 kJ/mol
# Density = 2.580925 g / cm^3
# Si number density = 25.868124 Si / 1000 Ang^3
#
#
#
# Elastic Constant Matrix: (Units=GPa)
#
#
# Indices 1 2 3 4 5 6 
#
# 1 148.5979 46.4741 1.0390 0.0000 0.0000 0.0000
# 2 46.4741 78.6241 6.6330 0.0000 0.0000 0.0000
# 3 1.0390 6.6330 102.6757 0.0000 0.0000 0.0000
# 4 0.0000 0.0000 0.0000 19.8052 0.0000 0.0000
# 5 0.0000 0.0000 0.0000 0.0000 35.2415 0.0000
# 6 0.0000 0.0000 0.0000 0.0000 0.0000 54.2890
#
#
#
# Elastic Compliance Matrix: (Units=1/GPa)
#
#
# Indices 1 2 3 4 5 6 
#
# 1 0.008261 -0.004903 0.000233 0.000000 0.000000 0.000000
# 2 -0.004903 0.015698 -0.000965 0.000000 0.000000 0.000000
# 3 0.000233 -0.000965 0.009799 0.000000 0.000000 0.000000
# 4 0.000000 0.000000 0.000000 0.050492 0.000000 0.000000
# 5 0.000000 0.000000 0.000000 0.000000 0.028376 0.000000
# 6 0.000000 0.000000 0.000000 0.000000 0.000000 0.018420
#
#
# Mechanical properties :
#
#
# Convention : Reuss Voigt Hill
#
# Bulk Modulus (GPa) = 44.46355 48.68778 46.57567
# Shear Modulus (GPa) = 33.37530 40.25059 36.81295
#
# Velocity S-wave (km/s) = 3.59585 3.94889 3.77649
# Velocity P-wave (km/s) = 5.87078 6.29714 6.08769
#
# Compressibility (1/GPa) = 0.02249033
#
# Stress axis : x y z
#
# Youngs Moduli (GPa) = 121.04610 63.70169 102.04758
#
# Poissons Ratio (x) = 0.31232 -0.02379
# Poissons Ratio (y) = 0.59347 0.09843
# Poissons Ratio (z) = -0.02822 0.06144
#
# Static dielectric constant tensor:
#      x y z
#    x 2.044210 0.000000 0.000000 
#    y 0.000000 2.236770 0.000000 
#    z 0.000000 0.000000 2.025540 
# 
# From -- ./inp_files/1862.got.cif
#   From: 2010.05.17/outbox.cif.g08.bks.cpg/sg18_1_cif.got.tgz:1862.got - 2010.06.03 22:40:56.
