data_PCOD9312230
_publ_section_title
;
Structure prediction by ZEFSAII (Michael W. Deem and Ramdas Pophale) SiO2 
 PCOD9312230
Probable space group: P 21 21 2
;
_chemical_formula_sum "Si O2"
_cell_formula_units_Z 24
_cell_length_a 8.542640
_cell_length_b 11.676320
_cell_length_c 10.808578
_cell_angle_alpha 90.000000
_cell_angle_beta 90.000000
_cell_angle_gamma 90.000000
_cell_volume 1078.118888
_symmetry_space_group_name_H-M "P 21 21 2"
_symmetry_group_IT_number 18
_symmetry_cell_setting 'orthorhombic'
loop_
_space_group_symop_operation_xyz
x,y,z
-x,-y,z
1/2+x,1/2-y,-z
1/2-x,1/2+y,-z
loop_
_atom_site_type_symbol
_atom_site_label
_atom_site_fract_x
_atom_site_fract_y
_atom_site_fract_z
Si Si1 0.843537 0.932934 0.004684
Si Si2 0.147352 0.293200 0.163926
Si Si3 0.000000 0.000000 0.558115
Si Si4 0.478521 0.864867 0.372038
Si Si5 0.482703 0.342329 0.214741
Si Si6 0.315963 0.709115 0.557917
Si Si7 0.000000 0.500000 0.040345
O O1 0.668443 0.982055 0.027063
O O2 0.878758 0.902857 0.859899
O O3 0.860343 0.814909 0.076619
O O4 0.000000 0.000000 0.045308
O O5 0.322181 0.341984 0.139976
O O6 0.136416 0.252819 0.305987
O O7 0.024360 0.388537 0.125275
O O8 0.063892 0.908122 0.658997
O O9 0.899428 0.911696 0.476731
O O10 0.473259 0.788245 0.247920
O O11 0.344835 0.811490 0.459699
O O12 0.635292 0.823876 0.440438
O O13 0.500000 0.000000 0.353128
#
# Coordination Sequence:
#
# PCOD9312230 Si02
#       7
#     4   4   2   4   4   4   2
#     4  12  25  49  74 101 149 187 241 306 355 427
#     4  11  25  45  67 111 139 185 247 292 361 434
#     4  10  20  42  74  94 142 190 226 300 352 418
#     4  10  24  43  70 101 142 186 237 294 352 428
#     4  10  21  47  69  97 146 190 235 295 364 413
#     4  10  25  41  70 104 141 183 242 291 357 423
#     4  12  26  44  80 102 138 204 234 288 370 440
#
# _framework density 22.260995000000001
#
# number of rings (size 3 to 8) (size 9 to 14) (size 15 to 20)
#    0.000    1.333    2.500    1.000    9.333    2.667 
#   13.500    0.000    0.000    0.000    0.000    0.000 
#    0.000    0.000    0.000    0.000    0.000    0.000 
#
# Total GULP energy -133862.181059 kJ/mol
# GULP energy per Si atom -5577.590877 kJ/mol
# Density = 2.221033 g / cm^3
# Si number density = 22.260995 Si / 1000 Ang^3
#
#
#
# Elastic Constant Matrix: (Units=GPa)
#
#
# Indices 1 2 3 4 5 6 
#
# 1 107.1300 46.1504 9.9416 0.0000 0.0000 0.0000
# 2 46.1504 167.5942 14.5083 0.0000 0.0000 0.0000
# 3 9.9416 14.5083 22.5511 0.0000 0.0000 0.0000
# 4 0.0000 0.0000 0.0000 -60.3279 0.0000 0.0000
# 5 0.0000 0.0000 0.0000 0.0000 485.0013 0.0000
# 6 0.0000 0.0000 0.0000 0.0000 0.0000 37.9665
#
#
#
# Elastic Compliance Matrix: (Units=1/GPa)
#
#
# Indices 1 2 3 4 5 6 
#
# 1 0.010780 -0.002708 -0.003010 0.000000 0.000000 0.000000
# 2 -0.002708 0.006999 -0.003309 0.000000 0.000000 0.000000
# 3 -0.003010 -0.003309 0.047800 0.000000 0.000000 0.000000
# 4 0.000000 0.000000 0.000000 -0.016576 0.000000 0.000000
# 5 0.000000 0.000000 0.000000 0.000000 0.002062 0.000000
# 6 0.000000 0.000000 0.000000 0.000000 0.000000 0.026339
#
#
# Mechanical properties :
#
#
# Convention : Reuss Voigt Hill
#
# Bulk Modulus (GPa) = 21.04179 48.71953 34.88066
# Shear Modulus (GPa) = 44.92368 107.63963 76.28165
#
# Velocity S-wave (km/s) = 4.49714 6.96121 5.86015
# Velocity P-wave (km/s) = 6.03643 9.30292 7.84165
#
# Compressibility (1/GPa) = 0.04752447
#
# Stress axis : x y z
#
# Youngs Moduli (GPa) = 92.76111 142.87865 20.92064
#
# Poissons Ratio (x) = 0.38691 0.06298
# Poissons Ratio (y) = 0.25120 0.06923
# Poissons Ratio (z) = 0.27924 0.47278
#
# Static dielectric constant tensor:
#      x y z
#    x 2.459620 0.000000 0.000000 
#    y 0.000000 1.502170 0.000000 
#    z 0.000000 0.000000 1.837140 
# 
# From -- ./inp_files/5532.got.cif
#   From: 2010.05.17/outbox.cif.g08.bks.cpg/sg18_3_cif.got.tgz:5532.got - 2010.06.03 22:40:56.
