data_PCOD9312521
_publ_section_title
;
Structure prediction by ZEFSAII (Michael W. Deem and Ramdas Pophale) SiO2 
 PCOD9312521
Probable space group: P 21 21 2
;
_chemical_formula_sum "Si O2"
_cell_formula_units_Z 28
_cell_length_a 9.464345
_cell_length_b 22.018642
_cell_length_c 5.445452
_cell_angle_alpha 90.000000
_cell_angle_beta 90.000000
_cell_angle_gamma 90.000000
_cell_volume 1134.788766
_symmetry_space_group_name_H-M "P 21 21 2"
_symmetry_group_IT_number 18
_symmetry_cell_setting 'orthorhombic'
loop_
_space_group_symop_operation_xyz
x,y,z
-x,-y,z
1/2+x,1/2-y,-z
1/2-x,1/2+y,-z
loop_
_atom_site_type_symbol
_atom_site_label
_atom_site_fract_x
_atom_site_fract_y
_atom_site_fract_z
Si Si1 0.903217 0.134882 0.606435
Si Si2 0.000000 0.000000 0.113768
Si Si3 0.993243 0.233240 0.967260
Si Si4 0.255762 0.254220 0.678490
Si Si5 0.827539 0.837933 0.306422
Si Si6 0.749705 0.932631 0.902362
Si Si7 0.248588 0.477252 0.508545
Si Si8 0.500000 0.000000 0.191592
O O1 0.951972 0.168584 0.851135
O O2 0.813681 0.186184 0.458251
O O3 0.806809 0.076611 0.661758
O O4 0.046153 0.125226 0.444833
O O5 0.871787 0.021289 0.287637
O O6 0.088817 0.044452 0.941784
O O7 0.093849 0.263605 0.765829
O O8 0.851174 0.258032 0.081698
O O9 0.091716 0.220556 0.198846
O O10 0.267965 0.193229 0.514094
O O11 0.759419 0.873506 0.079191
O O12 0.615769 0.966140 0.027709
O O13 0.729580 0.956961 0.621219
O O14 0.100503 0.460132 0.632503
#
# Coordination Sequence:
#
# PCOD9312521 Si02
#       8
#     4   2   4   4   4   4   4   2
#     4  10  22  42  70 103 136 177 224 285 336 401
#     4  10  22  38  68  98 128 162 210 294 332 398
#     4  10  22  40  69 100 136 179 222 278 330 414
#     4  10  22  44  66 100 142 174 224 280 338 398
#     4  10  22  42  70 103 136 177 224 285 336 401
#     4  11  23  42  70  97 131 177 225 278 346 405
#     4  11  23  42  70  97 131 177 225 278 346 405
#     4  10  26  46  56  94 140 178 222 290 332 406
#
# _framework density 24.674195999999998
#
# number of rings (size 3 to 8) (size 9 to 14) (size 15 to 20)
#    0.000    1.714    1.429    1.714    4.000    2.286 
#   12.857    0.000    0.000    0.000    0.000    0.000 
#    0.000    0.000    0.000    0.000    0.000    0.000 
#
# Total GULP energy -156134.756269 kJ/mol
# GULP energy per Si atom -5576.241295 kJ/mol
# Density = 2.461804 g / cm^3
# Si number density = 24.674196 Si / 1000 Ang^3
#
#
#
# Elastic Constant Matrix: (Units=GPa)
#
#
# Indices 1 2 3 4 5 6 
#
# 1 143.9961 33.9324 24.8458 0.0000 0.0000 0.0000
# 2 33.9324 67.8017 8.7419 0.0000 0.0000 0.0000
# 3 24.8458 8.7419 65.0420 0.0000 0.0000 0.0000
# 4 0.0000 0.0000 0.0000 19.7512 0.0000 0.0000
# 5 0.0000 0.0000 0.0000 0.0000 58.9720 0.0000
# 6 0.0000 0.0000 0.0000 0.0000 0.0000 36.8778
#
#
#
# Elastic Compliance Matrix: (Units=1/GPa)
#
#
# Indices 1 2 3 4 5 6 
#
# 1 0.008302 -0.003812 -0.002659 0.000000 0.000000 0.000000
# 2 -0.003812 0.016759 -0.000796 0.000000 0.000000 0.000000
# 3 -0.002659 -0.000796 0.016497 0.000000 0.000000 0.000000
# 4 0.000000 0.000000 0.000000 0.050630 0.000000 0.000000
# 5 0.000000 0.000000 0.000000 0.000000 0.016957 0.000000
# 6 0.000000 0.000000 0.000000 0.000000 0.000000 0.027117
#
#
# Mechanical properties :
#
#
# Convention : Reuss Voigt Hill
#
# Bulk Modulus (GPa) = 37.00406 45.76446 41.38426
# Shear Modulus (GPa) = 31.28824 37.07481 34.18153
#
# Velocity S-wave (km/s) = 3.56484 3.88051 3.72602
# Velocity P-wave (km/s) = 5.65453 6.21817 5.94303
#
# Compressibility (1/GPa) = 0.02702406
#
# Stress axis : x y z
#
# Youngs Moduli (GPa) = 120.45759 59.66841 60.61556
#
# Poissons Ratio (x) = 0.22745 0.16117
# Poissons Ratio (y) = 0.45917 0.04827
# Poissons Ratio (z) = 0.32028 0.04752
#
# Static dielectric constant tensor:
#      x y z
#    x 1.924460 0.000000 0.000000 
#    y 0.000000 2.076490 0.000000 
#    z 0.000000 0.000000 2.026720 
# 
# From -- ./inp_files/719.got.cif
#   From: 2010.05.17/outbox.cif.g08.bks.cpg/sg18_1_cif.got.tgz:719.got - 2010.06.03 22:40:56.
