data_PCOD9312249
_publ_section_title
;
Structure prediction by ZEFSAII (Michael W. Deem and Ramdas Pophale) SiO2 
 PCOD9312249
Probable space group: P 21 21 2
;
_chemical_formula_sum "Si O2"
_cell_formula_units_Z 14
_cell_length_a 8.902987
_cell_length_b 7.625879
_cell_length_c 6.055024
_cell_angle_alpha 90.000000
_cell_angle_beta 90.000000
_cell_angle_gamma 90.000000
_cell_volume 411.094360
_symmetry_space_group_name_H-M "P 21 21 2"
_symmetry_group_IT_number 18
_symmetry_cell_setting 'orthorhombic'
loop_
_space_group_symop_operation_xyz
x,y,z
-x,-y,z
1/2+x,1/2-y,-z
1/2-x,1/2+y,-z
loop_
_atom_site_type_symbol
_atom_site_label
_atom_site_fract_x
_atom_site_fract_y
_atom_site_fract_z
Si Si1 0.698264 0.579319 0.628202
Si Si2 0.707264 0.846733 0.003213
Si Si3 0.047002 0.226427 0.652423
Si Si4 0.000000 0.500000 0.342001
O O1 0.679002 0.436584 0.827780
O O2 0.631484 0.448956 0.432213
O O3 0.577168 0.739432 0.569580
O O4 0.879864 0.587159 0.534206
O O5 0.578873 0.754626 0.153841
O O6 0.792584 0.726321 0.823771
O O7 0.627911 0.990582 0.852131
#
# Coordination Sequence:
#
# PCOD9312249 Si02
#       4
#     4   4   4   2
#     4   9  20  46  83 117 159 211 273 334 408 489
#     4   9  21  44  82 118 151 219 269 334 406 495
#     4   9  21  44  86 109 163 213 266 337 415 471
#     4  10  20  46  76 114 158 220 258 344 402 480
#
# _framework density 34.055441999999999
#
# number of rings (size 3 to 8) (size 9 to 14) (size 15 to 20)
#    1.714    1.143    0.000    0.000    0.000    1.143 
#    5.143   10.000   44.000    0.000    0.000    0.000 
#    0.000    0.000    0.000    0.000    0.000    0.000 
#
# Total GULP energy -78248.702479 kJ/mol
# GULP energy per Si atom -5589.193034 kJ/mol
# Density = 3.397793 g / cm^3
# Si number density = 34.055442 Si / 1000 Ang^3
#
#
#
# Elastic Constant Matrix: (Units=GPa)
#
#
# Indices 1 2 3 4 5 6 
#
# 1 363.8813 82.0010 165.0667 0.0000 0.0000 0.0000
# 2 82.0010 113.7884 104.6807 0.0000 0.0000 0.0000
# 3 165.0667 104.6807 372.7185 0.0000 0.0000 0.0000
# 4 0.0000 0.0000 0.0000 158.6742 0.0000 0.0000
# 5 0.0000 0.0000 0.0000 0.0000 145.8913 0.0000
# 6 0.0000 0.0000 0.0000 0.0000 0.0000 98.2513
#
#
#
# Elastic Compliance Matrix: (Units=1/GPa)
#
#
# Indices 1 2 3 4 5 6 
#
# 1 0.003627 -0.001532 -0.001176 0.000000 0.000000 0.000000
# 2 -0.001532 0.012497 -0.002831 0.000000 0.000000 0.000000
# 3 -0.001176 -0.002831 0.003999 0.000000 0.000000 0.000000
# 4 0.000000 0.000000 0.000000 0.006302 0.000000 0.000000
# 5 0.000000 0.000000 0.000000 0.000000 0.006854 0.000000
# 6 0.000000 0.000000 0.000000 0.000000 0.000000 0.010178
#
#
# Mechanical properties :
#
#
# Convention : Reuss Voigt Hill
#
# Bulk Modulus (GPa) = 110.56681 172.65388 141.61034
# Shear Modulus (GPa) = 86.87994 113.80603 100.34299
#
# Velocity S-wave (km/s) = 5.05635 5.78709 5.43402
# Velocity P-wave (km/s) = 8.16248 9.77046 9.00244
#
# Compressibility (1/GPa) = 0.00904431
#
# Stress axis : x y z
#
# Youngs Moduli (GPa) = 275.72516 80.01953 250.05928
#
# Poissons Ratio (x) = 0.12257 0.29407
# Poissons Ratio (y) = 0.42235 0.70804
# Poissons Ratio (z) = 0.32425 0.22657
#
# Static dielectric constant tensor:
#      x y z
#    x 2.525730 0.000000 0.000000 
#    y 0.000000 0.977810 0.000000 
#    z 0.000000 0.000000 2.439500 
# 
# From -- ./inp_files/409.got.cif
#   From: 2010.05.17/outbox.cif.g08.bks.cpg/sg18_1_cif.got.tgz:409.got - 2010.06.03 22:40:56.
