data_PCOD9312737
_publ_section_title
;
Structure prediction by ZEFSAII (Michael W. Deem and Ramdas Pophale) SiO2 
 PCOD9312737
Probable space group: P 21 21 2
;
_chemical_formula_sum "Si O2"
_cell_formula_units_Z 26
_cell_length_a 4.844418
_cell_length_b 11.977340
_cell_length_c 16.939730
_cell_angle_alpha 90.000000
_cell_angle_beta 90.000000
_cell_angle_gamma 90.000000
_cell_volume 982.898045
_symmetry_space_group_name_H-M "P 21 21 2"
_symmetry_group_IT_number 18
_symmetry_cell_setting 'orthorhombic'
loop_
_space_group_symop_operation_xyz
x,y,z
-x,-y,z
1/2+x,1/2-y,-z
1/2-x,1/2+y,-z
loop_
_atom_site_type_symbol
_atom_site_label
_atom_site_fract_x
_atom_site_fract_y
_atom_site_fract_z
Si Si1 0.899812 0.238109 0.552980
Si Si2 0.157199 0.394252 0.205571
Si Si3 0.112392 0.222859 0.950447
Si Si4 0.819134 0.830536 0.693886
Si Si5 0.000000 0.000000 0.018147
Si Si6 0.551849 0.377646 0.679008
Si Si7 0.270545 0.153673 0.151809
O O1 0.653553 0.204693 0.493930
O O2 0.741442 0.313520 0.616829
O O3 0.051229 0.147763 0.608596
O O4 0.532069 0.621709 0.240061
O O5 0.124830 0.276511 0.159811
O O6 0.000000 0.500000 0.164748
O O7 0.969585 0.384350 0.283963
O O8 0.072683 0.303371 0.875720
O O9 0.413550 0.218209 0.985498
O O10 0.975834 0.100582 0.954017
O O11 0.720033 0.699527 0.693754
O O12 0.815619 0.934106 0.084066
O O13 0.500000 0.500000 0.647371
O O14 0.713034 0.393558 0.762205
#
# Coordination Sequence:
#
# PCOD9312737 Si02
#       7
#     4   4   4   4   2   4   4
#     4  12  23  46  74 100 159 200 245 326 389 471
#     4  11  24  45  70 106 143 194 262 324 381 455
#     4  10  24  46  68 106 153 195 253 303 392 472
#     4  11  22  46  71 101 147 191 257 316 383 463
#     4  10  22  48  74 112 150 204 242 318 388 466
#     4  11  24  46  79 118 149 203 270 331 400 476
#     4  10  22  46  74 112 146 202 249 327 379 457
#
# _framework density 26.452387999999999
#
# number of rings (size 3 to 8) (size 9 to 14) (size 15 to 20)
#    0.000    1.231    5.385    0.462    0.000    8.000 
#   16.615    3.077    0.000    0.000    0.000    0.000 
#    0.000    0.000    0.000    0.000    0.000    0.000 
#
# Total GULP energy -144758.602434 kJ/mol
# GULP energy per Si atom -5567.638555 kJ/mol
# Density = 2.639218 g / cm^3
# Si number density = 26.452388 Si / 1000 Ang^3
#
#
#
# Elastic Constant Matrix: (Units=GPa)
#
#
# Indices 1 2 3 4 5 6 
#
# 1 104.7845 0.4465 18.6548 0.0000 0.0000 0.0000
# 2 0.4465 112.1814 -17.1204 0.0000 0.0000 0.0000
# 3 18.6548 -17.1204 90.0896 0.0000 0.0000 0.0000
# 4 0.0000 0.0000 0.0000 12.2247 0.0000 0.0000
# 5 0.0000 0.0000 0.0000 0.0000 -21.1854 0.0000
# 6 0.0000 0.0000 0.0000 0.0000 0.0000 27.0830
#
#
#
# Elastic Compliance Matrix: (Units=1/GPa)
#
#
# Indices 1 2 3 4 5 6 
#
# 1 0.009923 -0.000364 -0.002124 0.000000 0.000000 0.000000
# 2 -0.000364 0.009194 0.001822 0.000000 0.000000 0.000000
# 3 -0.002124 0.001822 0.011886 0.000000 0.000000 0.000000
# 4 0.000000 0.000000 0.000000 0.081802 0.000000 0.000000
# 5 0.000000 0.000000 0.000000 0.000000 -0.047202 0.000000
# 6 0.000000 0.000000 0.000000 0.000000 0.000000 0.036924
#
#
# Mechanical properties :
#
#
# Convention : Reuss Voigt Hill
#
# Bulk Modulus (GPa) = 33.70083 34.55748 34.12916
# Shear Modulus (GPa) = 43.95723 23.96276 33.95999
#
# Velocity S-wave (km/s) = 4.08088 3.01305 3.58692
# Velocity P-wave (km/s) = 5.91376 5.01967 5.48496
#
# Compressibility (1/GPa) = 0.02967286
#
# Stress axis : x y z
#
# Youngs Moduli (GPa) = 100.77537 108.76999 84.13134
#
# Poissons Ratio (x) = 0.03955 0.17868
# Poissons Ratio (y) = 0.03664 -0.15332
# Poissons Ratio (z) = 0.21403 -0.19823
#
# Static dielectric constant tensor:
#      x y z
#    x 2.179360 0.000000 0.000000 
#    y 0.000000 2.243040 0.000000 
#    z 0.000000 0.000000 2.165160 
# 
# From -- ./inp_files/7157.got.cif
#   From: 2010.05.17/outbox.cif.g08.bks.cpg/sg18_4_cif.got.tgz:7157.got - 2010.06.03 22:40:56.
