data_PCOD9312586
_publ_section_title
;
Structure prediction by ZEFSAII (Michael W. Deem and Ramdas Pophale) SiO2 
 PCOD9312586
Probable space group: P 21 21 2
;
_chemical_formula_sum "Si O2"
_cell_formula_units_Z 26
_cell_length_a 8.094538
_cell_length_b 12.102749
_cell_length_c 12.650572
_cell_angle_alpha 90.000000
_cell_angle_beta 90.000000
_cell_angle_gamma 90.000000
_cell_volume 1239.327982
_symmetry_space_group_name_H-M "P 21 21 2"
_symmetry_group_IT_number 18
_symmetry_cell_setting 'orthorhombic'
loop_
_space_group_symop_operation_xyz
x,y,z
-x,-y,z
1/2+x,1/2-y,-z
1/2-x,1/2+y,-z
loop_
_atom_site_type_symbol
_atom_site_label
_atom_site_fract_x
_atom_site_fract_y
_atom_site_fract_z
Si Si1 0.217379 0.364963 0.839331
Si Si2 0.363269 0.275927 0.517754
Si Si3 0.319470 0.059603 0.655305
Si Si4 0.000000 0.000000 0.046793
Si Si5 0.500000 0.000000 0.019279
Si Si6 0.719897 0.385933 0.113073
Si Si7 0.057427 0.374218 0.608604
Si Si8 0.000000 0.000000 0.517924
O O1 0.360142 0.448969 0.876730
O O2 0.058826 0.401986 0.905923
O O3 0.262360 0.242117 0.873860
O O4 0.158080 0.370038 0.717984
O O5 0.359904 0.179977 0.605688
O O6 0.181122 0.327707 0.520235
O O7 0.409848 0.213842 0.408038
O O8 0.478767 0.382433 0.540585
O O9 0.227511 0.069256 0.767867
O O10 0.500000 0.000000 0.662720
O O11 0.170962 0.011154 0.583097
O O12 0.063472 0.093307 0.963569
O O13 0.643346 0.955876 0.946794
O O14 0.000000 0.500000 0.591167
#
# Coordination Sequence:
#
# PCOD9312586 Si02
#       8
#     4   4   4   2   2   4   4   2
#     4  11  22  45  68 102 139 181 236 287 362 432
#     4  12  24  47  70 100 142 187 239 298 361 435
#     4  12  25  45  71 105 143 191 246 299 367 447
#     4  10  25  41  72 106 140 184 235 303 362 436
#     4  10  22  40  70  96 138 178 222 298 352 422
#     4  11  21  43  67 100 139 180 234 294 360 433
#     4  12  26  46  71 104 144 191 243 300 362 446
#     4  12  25  43  70  98 142 192 239 303 364 432
#
# _framework density 20.979112000000001
#
# number of rings (size 3 to 8) (size 9 to 14) (size 15 to 20)
#    0.000    0.615    4.615    3.692    0.000    0.615 
#    0.000    0.000    0.000    0.000    0.000    0.000 
#    0.000    0.000    0.000    0.000    0.000    0.000 
#
# Total GULP energy -144960.980395 kJ/mol
# GULP energy per Si atom -5575.422323 kJ/mol
# Density = 2.093136 g / cm^3
# Si number density = 20.979112 Si / 1000 Ang^3
#
#
#
# Elastic Constant Matrix: (Units=GPa)
#
#
# Indices 1 2 3 4 5 6 
#
# 1 53.8475 21.6044 45.4433 0.0000 0.0000 0.0000
# 2 21.6044 129.5711 42.2961 0.0000 0.0000 0.0000
# 3 45.4433 42.2961 107.6272 0.0000 0.0000 0.0000
# 4 0.0000 0.0000 0.0000 27.8232 0.0000 0.0000
# 5 0.0000 0.0000 0.0000 0.0000 18.8475 0.0000
# 6 0.0000 0.0000 0.0000 0.0000 0.0000 35.1841
#
#
#
# Elastic Compliance Matrix: (Units=1/GPa)
#
#
# Indices 1 2 3 4 5 6 
#
# 1 0.028955 -0.000960 -0.011848 0.000000 0.000000 0.000000
# 2 -0.000960 0.008885 -0.003086 0.000000 0.000000 0.000000
# 3 -0.011848 -0.003086 0.015507 0.000000 0.000000 0.000000
# 4 0.000000 0.000000 0.000000 0.035941 0.000000 0.000000
# 5 0.000000 0.000000 0.000000 0.000000 0.053058 0.000000
# 6 0.000000 0.000000 0.000000 0.000000 0.000000 0.028422
#
#
# Mechanical properties :
#
#
# Convention : Reuss Voigt Hill
#
# Bulk Modulus (GPa) = 46.38731 56.63704 51.51217
# Shear Modulus (GPa) = 23.83853 28.48443 26.16148
#
# Velocity S-wave (km/s) = 3.37456 3.68877 3.53516
# Velocity P-wave (km/s) = 6.11087 6.72296 6.42421
#
# Compressibility (1/GPa) = 0.02155762
#
# Stress axis : x y z
#
# Youngs Moduli (GPa) = 34.53585 112.54449 64.48701
#
# Poissons Ratio (x) = 0.10807 0.76407
# Poissons Ratio (y) = 0.03316 0.19903
# Poissons Ratio (z) = 0.40920 0.34736
#
# Static dielectric constant tensor:
#      x y z
#    x 1.846340 0.000000 0.000000 
#    y 0.000000 1.788820 0.000000 
#    z 0.000000 0.000000 1.766400 
# 
# From -- ./inp_files/5589.got.cif
#   From: 2010.05.17/outbox.cif.g08.bks.cpg/sg18_3_cif.got.tgz:5589.got - 2010.06.03 22:40:56.
