data_PCOD9312712
_publ_section_title
;
Structure prediction by ZEFSAII (Michael W. Deem and Ramdas Pophale) SiO2 
 PCOD9312712
Probable space group: P 21 21 2
;
_chemical_formula_sum "Si O2"
_cell_formula_units_Z 18
_cell_length_a 9.460467
_cell_length_b 11.029872
_cell_length_c 8.465404
_cell_angle_alpha 90.000000
_cell_angle_beta 90.000000
_cell_angle_gamma 90.000000
_cell_volume 883.345776
_symmetry_space_group_name_H-M "P 21 21 2"
_symmetry_group_IT_number 18
_symmetry_cell_setting 'orthorhombic'
loop_
_space_group_symop_operation_xyz
x,y,z
-x,-y,z
1/2+x,1/2-y,-z
1/2-x,1/2+y,-z
loop_
_atom_site_type_symbol
_atom_site_label
_atom_site_fract_x
_atom_site_fract_y
_atom_site_fract_z
Si Si1 0.618082 0.292568 0.692928
Si Si2 0.601653 0.885881 0.825004
Si Si3 0.000000 0.000000 0.091951
Si Si4 0.115425 0.789651 0.880948
Si Si5 0.394742 0.615098 0.342352
O O1 0.479223 0.210408 0.713204
O O2 0.592003 0.412469 0.797908
O O3 0.747939 0.220925 0.771207
O O4 0.638907 0.329902 0.512813
O O5 0.750516 0.917508 0.746326
O O6 0.500000 0.000000 0.843386
O O7 0.619729 0.818201 0.992160
O O8 0.095437 0.912517 0.983042
O O9 0.978469 0.789754 0.768249
O O10 0.500000 0.500000 0.360668
#
# Coordination Sequence:
#
# PCOD9312712 Si02
#       5
#     4   4   2   4   4
#     4  11  24  44  72 103 140 184 235 290 358 413
#     4  11  25  43  69 103 138 186 240 283 349 427
#     4  10  22  44  72 104 136 190 232 294 340 428
#     4  11  24  44  73 100 140 187 237 286 351 414
#     4  12  24  45  70 100 145 181 231 298 356 414
#
# _framework density 20.377071999999998
#
# number of rings (size 3 to 8) (size 9 to 14) (size 15 to 20)
#    0.000    0.889    2.222    5.333    3.111    0.000 
#    0.000    2.222    0.000    0.000    0.000    0.000 
#    0.000    0.000    0.000    0.000    0.000    0.000 
#
# Total GULP energy -100692.605676 kJ/mol
# GULP energy per Si atom -5594.033649 kJ/mol
# Density = 2.033069 g / cm^3
# Si number density = 20.377072 Si / 1000 Ang^3
#
#
#
# Elastic Constant Matrix: (Units=GPa)
#
#
# Indices 1 2 3 4 5 6 
#
# 1 151.4314 54.4591 67.2014 0.0000 0.0000 0.0000
# 2 54.4591 105.5335 67.5105 0.0000 0.0000 0.0000
# 3 67.2014 67.5105 161.8293 0.0000 0.0000 0.0000
# 4 0.0000 0.0000 0.0000 17.3372 0.0000 0.0000
# 5 0.0000 0.0000 0.0000 0.0000 31.4497 0.0000
# 6 0.0000 0.0000 0.0000 0.0000 0.0000 30.3264
#
#
#
# Elastic Compliance Matrix: (Units=1/GPa)
#
#
# Indices 1 2 3 4 5 6 
#
# 1 0.008734 -0.002983 -0.002382 0.000000 0.000000 0.000000
# 2 -0.002983 0.013944 -0.004578 0.000000 0.000000 0.000000
# 3 -0.002382 -0.004578 0.009079 0.000000 0.000000 0.000000
# 4 0.000000 0.000000 0.000000 0.057679 0.000000 0.000000
# 5 0.000000 0.000000 0.000000 0.000000 0.031797 0.000000
# 6 0.000000 0.000000 0.000000 0.000000 0.000000 0.032975
#
#
# Mechanical properties :
#
#
# Convention : Reuss Voigt Hill
#
# Bulk Modulus (GPa) = 84.25358 88.57069 86.41213
# Shear Modulus (GPa) = 28.08205 31.13088 29.60646
#
# Velocity S-wave (km/s) = 3.71633 3.91287 3.81587
# Velocity P-wave (km/s) = 7.73640 7.99839 7.86849
#
# Compressibility (1/GPa) = 0.01186893
#
# Stress axis : x y z
#
# Youngs Moduli (GPa) = 114.50032 71.71734 110.14964
#
# Poissons Ratio (x) = 0.21392 0.26242
# Poissons Ratio (y) = 0.34154 0.50429
# Poissons Ratio (z) = 0.27278 0.32834
#
# Static dielectric constant tensor:
#      x y z
#    x 1.721820 0.000000 0.000000 
#    y 0.000000 1.728130 0.000000 
#    z 0.000000 0.000000 1.707210 
# 
# From -- ./inp_files/2884.got.cif
#   From: 2010.05.17/outbox.cif.g08.bks.cpg/sg18_2_cif.got.tgz:2884.got - 2010.06.03 22:40:56.
