data_PCOD9312507
_publ_section_title
;
Structure prediction by ZEFSAII (Michael W. Deem and Ramdas Pophale) SiO2 
 PCOD9312507
Probable space group: P 21 21 2
;
_chemical_formula_sum "Si O2"
_cell_formula_units_Z 20
_cell_length_a 11.917983
_cell_length_b 7.886702
_cell_length_c 8.820527
_cell_angle_alpha 90.000000
_cell_angle_beta 90.000000
_cell_angle_gamma 90.000000
_cell_volume 829.072913
_symmetry_space_group_name_H-M "P 21 21 2"
_symmetry_group_IT_number 18
_symmetry_cell_setting 'orthorhombic'
loop_
_space_group_symop_operation_xyz
x,y,z
-x,-y,z
1/2+x,1/2-y,-z
1/2-x,1/2+y,-z
loop_
_atom_site_type_symbol
_atom_site_label
_atom_site_fract_x
_atom_site_fract_y
_atom_site_fract_z
Si Si1 0.878541 0.414942 0.472183
Si Si2 0.821290 0.495525 0.139965
Si Si3 0.707758 0.589432 0.685022
Si Si4 0.072843 0.332091 0.870089
Si Si5 0.110152 0.872318 0.007335
O O1 0.851681 0.505612 0.313280
O O2 0.775681 0.450420 0.587815
O O3 0.865011 0.216774 0.420959
O O4 0.000000 0.500000 0.514237
O O5 0.853709 0.316441 0.064167
O O6 0.886195 0.630008 0.039655
O O7 0.695367 0.541132 0.105586
O O8 0.818765 0.680797 0.761588
O O9 0.630377 0.533726 0.828828
O O10 0.000000 0.500000 0.826911
O O11 0.996155 0.172042 0.903634
#
# Coordination Sequence:
#
# PCOD9312507 Si02
#       5
#     4   4   4   4   4
#     4  11  23  41  60  86 126 162 196 248 302 358
#     4   9  18  33  56  82 114 154 197 243 298 355
#     4  10  22  38  62  92 119 162 206 238 302 370
#     4   9  17  35  62  86 114 156 203 251 299 344
#     4   9  18  35  57  84 112 148 202 252 291 343
#
# _framework density 24.123331
#
# number of rings (size 3 to 8) (size 9 to 14) (size 15 to 20)
#    0.000    2.400    0.000    3.600    0.000    6.400 
#    0.000   14.000    0.000   28.800    0.000    0.000 
#    0.000    0.000    0.000    0.000    0.000    0.000 
#
# Total GULP energy -111395.976891 kJ/mol
# GULP energy per Si atom -5569.798845 kJ/mol
# Density = 2.406843 g / cm^3
# Si number density = 24.123331 Si / 1000 Ang^3
#
#
#
# Elastic Constant Matrix: (Units=GPa)
#
#
# Indices 1 2 3 4 5 6 
#
# 1 131.8102 26.2906 8.5277 0.0000 0.0000 0.0000
# 2 26.2906 57.5591 6.0420 0.0000 0.0000 0.0000
# 3 8.5277 6.0420 90.4552 0.0000 0.0000 0.0000
# 4 0.0000 0.0000 0.0000 26.3388 0.0000 0.0000
# 5 0.0000 0.0000 0.0000 0.0000 62.0477 0.0000
# 6 0.0000 0.0000 0.0000 0.0000 0.0000 51.9846
#
#
#
# Elastic Compliance Matrix: (Units=1/GPa)
#
#
# Indices 1 2 3 4 5 6 
#
# 1 0.008373 -0.003768 -0.000538 0.000000 0.000000 0.000000
# 2 -0.003768 0.019192 -0.000927 0.000000 0.000000 0.000000
# 3 -0.000538 -0.000927 0.011168 0.000000 0.000000 0.000000
# 4 0.000000 0.000000 0.000000 0.037967 0.000000 0.000000
# 5 0.000000 0.000000 0.000000 0.000000 0.016117 0.000000
# 6 0.000000 0.000000 0.000000 0.000000 0.000000 0.019236
#
#
# Mechanical properties :
#
#
# Convention : Reuss Voigt Hill
#
# Bulk Modulus (GPa) = 35.37591 40.17168 37.77379
# Shear Modulus (GPa) = 37.89607 44.00517 40.95062
#
# Velocity S-wave (km/s) = 3.96780 4.27567 4.12461
# Velocity P-wave (km/s) = 5.97391 6.40811 6.19482
#
# Compressibility (1/GPa) = 0.02826782
#
# Stress axis : x y z
#
# Youngs Moduli (GPa) = 119.43137 52.10559 89.54325
#
# Poissons Ratio (x) = 0.19633 0.04815
# Poissons Ratio (y) = 0.45002 0.08298
# Poissons Ratio (z) = 0.06422 0.04829
#
# Static dielectric constant tensor:
#      x y z
#    x 1.772190 0.000000 0.000000 
#    y 0.000000 1.621130 0.000000 
#    z 0.000000 0.000000 1.907470 
# 
# From -- ./inp_files/2948.got.cif
#   From: 2010.05.17/outbox.cif.g08.bks.cpg/sg18_2_cif.got.tgz:2948.got - 2010.06.03 22:40:56.
