data_PCOD9312212
_publ_section_title
;
Structure prediction by ZEFSAII (Michael W. Deem and Ramdas Pophale) SiO2 
 PCOD9312212
Probable space group: P 21 21 2
;
_chemical_formula_sum "Si O2"
_cell_formula_units_Z 22
_cell_length_a 10.111161
_cell_length_b 13.063493
_cell_length_c 8.894230
_cell_angle_alpha 90.000000
_cell_angle_beta 90.000000
_cell_angle_gamma 90.000000
_cell_volume 1174.812878
_symmetry_space_group_name_H-M "P 21 21 2"
_symmetry_group_IT_number 18
_symmetry_cell_setting 'orthorhombic'
loop_
_space_group_symop_operation_xyz
x,y,z
-x,-y,z
1/2+x,1/2-y,-z
1/2-x,1/2+y,-z
loop_
_atom_site_type_symbol
_atom_site_label
_atom_site_fract_x
_atom_site_fract_y
_atom_site_fract_z
Si Si1 0.703321 0.704881 0.817516
Si Si2 0.024538 0.380720 0.715403
Si Si3 0.500000 0.000000 0.817484
Si Si4 0.807966 0.386115 0.961578
Si Si5 0.998370 0.299541 0.384924
Si Si6 0.944404 0.897615 0.230737
O O1 0.736295 0.789118 0.940598
O O2 0.647907 0.764482 0.669812
O O3 0.571033 0.643229 0.864086
O O4 0.828581 0.637888 0.776865
O O5 0.006450 0.322046 0.559512
O O6 0.000000 0.500000 0.684933
O O7 0.919971 0.351710 0.843517
O O8 0.620825 0.966762 0.926668
O O9 0.469007 0.900973 0.713554
O O10 0.681595 0.422767 0.868987
O O11 0.084232 0.200084 0.336761
O O12 0.000000 0.000000 0.309687
#
# Coordination Sequence:
#
# PCOD9312212 Si02
#       6
#     4   4   2   4   4   4
#     4   9  23  41  59  93 131 160 216 274 326 377
#     4  12  22  39  70  97 122 177 231 258 337 401
#     4  10  20  42  60 100 124 164 218 272 312 384
#     4  11  22  38  69  92 123 173 217 267 325 399
#     4   9  23  39  63  91 139 164 212 277 321 380
#     4  10  22  38  59  88 132 168 209 267 332 376
#
# _framework density 18.726386999999999
#
# number of rings (size 3 to 8) (size 9 to 14) (size 15 to 20)
#    1.091    0.727    1.818    2.182    2.545    0.000 
#    0.000    0.000    0.000    1.091    0.000    0.000 
#    0.000    0.000    0.000    0.000    0.000    0.000 
#
# Total GULP energy -122534.177681 kJ/mol
# GULP energy per Si atom -5569.735349 kJ/mol
# Density = 1.868376 g / cm^3
# Si number density = 18.726387 Si / 1000 Ang^3
#
#
#
# Elastic Constant Matrix: (Units=GPa)
#
#
# Indices 1 2 3 4 5 6 
#
# 1 107.4894 20.2016 24.7954 0.0000 0.0000 0.0000
# 2 20.2016 99.7431 11.6681 0.0000 0.0000 0.0000
# 3 24.7954 11.6681 55.1130 0.0000 0.0000 0.0000
# 4 0.0000 0.0000 0.0000 0.1354 0.0000 0.0000
# 5 0.0000 0.0000 0.0000 0.0000 4.2968 0.0000
# 6 0.0000 0.0000 0.0000 0.0000 0.0000 29.4656
#
#
#
# Elastic Compliance Matrix: (Units=1/GPa)
#
#
# Indices 1 2 3 4 5 6 
#
# 1 0.010634 -0.001635 -0.004438 0.000000 0.000000 0.000000
# 2 -0.001635 0.010532 -0.001494 0.000000 0.000000 0.000000
# 3 -0.004438 -0.001494 0.020458 0.000000 0.000000 0.000000
# 4 0.000000 0.000000 0.000000 7.384923 0.000000 0.000000
# 5 0.000000 0.000000 0.000000 0.000000 0.232733 0.000000
# 6 0.000000 0.000000 0.000000 0.000000 0.000000 0.033938
#
#
# Mechanical properties :
#
#
# Convention : Reuss Voigt Hill
#
# Bulk Modulus (GPa) = 37.75120 41.74175 39.74647
# Shear Modulus (GPa) = 0.64790 20.49158 10.56974
#
# Velocity S-wave (km/s) = 0.58884 3.31155 2.37835
# Velocity P-wave (km/s) = 4.54593 6.07952 5.36777
#
# Compressibility (1/GPa) = 0.02648922
#
# Stress axis : x y z
#
# Youngs Moduli (GPa) = 94.03562 94.95207 48.88135
#
# Poissons Ratio (x) = 0.15521 0.21695
# Poissons Ratio (y) = 0.15371 0.07304
# Poissons Ratio (z) = 0.41736 0.14188
#
# Static dielectric constant tensor:
#      x y z
#    x 1.633040 0.000000 0.000000 
#    y 0.000000 1.696460 0.000000 
#    z 0.000000 0.000000 1.613710 
# 
# From -- ./inp_files/3164.got.cif
#   From: 2010.05.17/outbox.cif.g08.bks.cpg/sg18_2_cif.got.tgz:3164.got - 2010.06.03 22:40:56.
