data_PCOD9312333
_publ_section_title
;
Structure prediction by ZEFSAII (Michael W. Deem and Ramdas Pophale) SiO2 
 PCOD9312333
Probable space group: P 21 21 2
;
_chemical_formula_sum "Si O2"
_cell_formula_units_Z 24
_cell_length_a 13.802769
_cell_length_b 9.634330
_cell_length_c 7.992771
_cell_angle_alpha 90.000000
_cell_angle_beta 90.000000
_cell_angle_gamma 90.000000
_cell_volume 1062.882136
_symmetry_space_group_name_H-M "P 21 21 2"
_symmetry_group_IT_number 18
_symmetry_cell_setting 'orthorhombic'
loop_
_space_group_symop_operation_xyz
x,y,z
-x,-y,z
1/2+x,1/2-y,-z
1/2-x,1/2+y,-z
loop_
_atom_site_type_symbol
_atom_site_label
_atom_site_fract_x
_atom_site_fract_y
_atom_site_fract_z
Si Si1 0.574815 0.258880 0.970851
Si Si2 0.604259 0.480019 0.236632
Si Si3 0.669195 0.024305 0.132292
Si Si4 0.749350 0.754361 0.636705
Si Si5 0.414136 0.110079 0.807180
Si Si6 0.234145 0.760656 0.739139
O O1 0.474158 0.238589 0.879965
O O2 0.668715 0.242534 0.851551
O O3 0.585245 0.402249 0.063106
O O4 0.579208 0.131321 0.106386
O O5 0.500000 0.500000 0.320666
O O6 0.669523 0.371366 0.336867
O O7 0.659252 0.622446 0.204421
O O8 0.742382 0.136893 0.217783
O O9 0.682850 0.889413 0.246793
O O10 0.661038 0.951130 0.946896
O O11 0.648539 0.835271 0.655693
O O12 0.760129 0.698690 0.450429
O O13 0.500000 0.000000 0.770471
#
# Coordination Sequence:
#
# PCOD9312333 Si02
#       6
#     4   4   4   4   4   4
#     4  10  22  40  65  93 124 170 221 263 311 376
#     4  11  24  42  65  94 127 168 219 266 311 378
#     4  10  21  39  63  89 121 166 214 255 309 380
#     4  11  25  43  65  96 132 170 209 264 332 384
#     4  10  21  41  67  95 126 170 223 269 313 377
#     4  12  23  41  66  95 134 168 205 267 329 381
#
# _framework density 22.580116
#
# number of rings (size 3 to 8) (size 9 to 14) (size 15 to 20)
#    0.000    1.333    0.000    7.000    0.000    5.333 
#    0.000    5.000    0.000    0.000    0.000    0.000 
#    0.000    0.000    0.000    0.000    0.000    0.000 
#
# Total GULP energy -133846.199927 kJ/mol
# GULP energy per Si atom -5576.924997 kJ/mol
# Density = 2.252872 g / cm^3
# Si number density = 22.580116 Si / 1000 Ang^3
#
#
#
# Elastic Constant Matrix: (Units=GPa)
#
#
# Indices 1 2 3 4 5 6 
#
# 1 114.5821 53.3571 32.1154 0.0000 0.0000 0.0000
# 2 53.3571 135.5408 34.5482 0.0000 0.0000 0.0000
# 3 32.1154 34.5482 50.8341 0.0000 0.0000 0.0000
# 4 0.0000 0.0000 0.0000 18.2205 0.0000 0.0000
# 5 0.0000 0.0000 0.0000 0.0000 1.0903 0.0000
# 6 0.0000 0.0000 0.0000 0.0000 0.0000 31.6175
#
#
#
# Elastic Compliance Matrix: (Units=1/GPa)
#
#
# Indices 1 2 3 4 5 6 
#
# 1 0.011707 -0.003294 -0.005157 0.000000 0.000000 0.000000
# 2 -0.003294 0.009851 -0.004614 0.000000 0.000000 0.000000
# 3 -0.005157 -0.004614 0.026066 0.000000 0.000000 0.000000
# 4 0.000000 0.000000 0.000000 0.054883 0.000000 0.000000
# 5 0.000000 0.000000 0.000000 0.000000 0.917163 0.000000
# 6 0.000000 0.000000 0.000000 0.000000 0.000000 0.031628
#
#
# Mechanical properties :
#
#
# Convention : Reuss Voigt Hill
#
# Bulk Modulus (GPa) = 46.52661 60.11093 53.31877
# Shear Modulus (GPa) = 4.61003 22.24807 13.42905
#
# Velocity S-wave (km/s) = 1.43041 3.14235 2.44135
# Velocity P-wave (km/s) = 4.83507 6.31227 5.62240
#
# Compressibility (1/GPa) = 0.02149308
#
# Stress axis : x y z
#
# Youngs Moduli (GPa) = 85.42081 101.51737 38.36465
#
# Poissons Ratio (x) = 0.33439 0.19786
# Poissons Ratio (y) = 0.28137 0.17700
# Poissons Ratio (z) = 0.44054 0.46837
#
# Static dielectric constant tensor:
#      x y z
#    x 1.843970 0.000000 0.000000 
#    y 0.000000 1.850210 0.000000 
#    z 0.000000 0.000000 1.835680 
# 
# From -- ./inp_files/4166.got.cif
#   From: 2010.05.17/outbox.cif.g08.bks.cpg/sg18_3_cif.got.tgz:4166.got - 2010.06.03 22:40:56.
