data_PCOD9312121
_publ_section_title
;
Structure prediction by ZEFSAII (Michael W. Deem and Ramdas Pophale) SiO2 
 PCOD9312121
Probable space group: P 21 21 2
;
_chemical_formula_sum "Si O2"
_cell_formula_units_Z 18
_cell_length_a 9.355813
_cell_length_b 7.171015
_cell_length_c 11.483078
_cell_angle_alpha 90.000000
_cell_angle_beta 90.000000
_cell_angle_gamma 90.000000
_cell_volume 770.407458
_symmetry_space_group_name_H-M "P 21 21 2"
_symmetry_group_IT_number 18
_symmetry_cell_setting 'orthorhombic'
loop_
_space_group_symop_operation_xyz
x,y,z
-x,-y,z
1/2+x,1/2-y,-z
1/2-x,1/2+y,-z
loop_
_atom_site_type_symbol
_atom_site_label
_atom_site_fract_x
_atom_site_fract_y
_atom_site_fract_z
Si Si1 0.511400 0.774260 0.916613
Si Si2 0.006134 0.776754 0.634648
Si Si3 0.713923 0.160712 0.743617
Si Si4 0.329844 0.689699 0.140649
Si Si5 0.500000 0.000000 0.571863
O O1 0.407077 0.722863 0.809449
O O2 0.676214 0.725075 0.894904
O O3 0.500000 0.000000 0.918751
O O4 0.439839 0.709630 0.035492
O O5 0.898331 0.730930 0.740352
O O6 0.166075 0.726395 0.676438
O O7 0.983140 0.674362 0.513749
O O8 0.000000 0.000000 0.619380
O O9 0.798209 0.028165 0.833556
O O10 0.635375 0.015249 0.657037
#
# Coordination Sequence:
#
# PCOD9312121 Si02
#       5
#     4   4   4   4   2
#     4  10  20  38  69  91 139 178 226 283 359 407
#     4  10  25  42  70  99 140 181 239 278 347 409
#     4  10  22  43  66  99 135 183 230 288 342 412
#     4  10  20  40  63 101 133 176 225 286 344 415
#     4  12  24  44  74  96 144 186 230 296 332 412
#
# _framework density 23.364260000000002
#
# number of rings (size 3 to 8) (size 9 to 14) (size 15 to 20)
#    0.000    1.778    3.333    1.333    7.778    1.778 
#    0.000    0.000    0.000    0.000    0.000    0.000 
#    0.000    0.000    0.000    0.000    0.000    0.000 
#
# Total GULP energy -100665.748160 kJ/mol
# GULP energy per Si atom -5592.541564 kJ/mol
# Density = 2.331108 g / cm^3
# Si number density = 23.364260 Si / 1000 Ang^3
#
#
#
# Elastic Constant Matrix: (Units=GPa)
#
#
# Indices 1 2 3 4 5 6 
#
# 1 160.0401 21.0214 69.8388 0.0000 0.0000 0.0000
# 2 21.0214 55.9005 33.4298 0.0000 0.0000 0.0000
# 3 69.8388 33.4298 144.8322 0.0000 0.0000 0.0000
# 4 0.0000 0.0000 0.0000 22.2437 0.0000 0.0000
# 5 0.0000 0.0000 0.0000 0.0000 43.5028 0.0000
# 6 0.0000 0.0000 0.0000 0.0000 0.0000 16.2239
#
#
#
# Elastic Compliance Matrix: (Units=1/GPa)
#
#
# Indices 1 2 3 4 5 6 
#
# 1 0.007945 -0.000808 -0.003645 0.000000 0.000000 0.000000
# 2 -0.000808 0.020836 -0.004420 0.000000 0.000000 0.000000
# 3 -0.003645 -0.004420 0.009682 0.000000 0.000000 0.000000
# 4 0.000000 0.000000 0.000000 0.044957 0.000000 0.000000
# 5 0.000000 0.000000 0.000000 0.000000 0.022987 0.000000
# 6 0.000000 0.000000 0.000000 0.000000 0.000000 0.061637
#
#
# Mechanical properties :
#
#
# Convention : Reuss Voigt Hill
#
# Bulk Modulus (GPa) = 48.26654 67.70585 57.98620
# Shear Modulus (GPa) = 25.94780 32.15963 29.05372
#
# Velocity S-wave (km/s) = 3.33615 3.71407 3.53017
# Velocity P-wave (km/s) = 5.96179 6.88722 6.44115
#
# Compressibility (1/GPa) = 0.02071829
#
# Stress axis : x y z
#
# Youngs Moduli (GPa) = 125.86495 47.99425 103.28346
#
# Poissons Ratio (x) = 0.03879 0.37643
# Poissons Ratio (y) = 0.10172 0.45647
# Poissons Ratio (z) = 0.45873 0.21211
#
# Static dielectric constant tensor:
#      x y z
#    x 1.904320 0.000000 0.000000 
#    y 0.000000 1.912290 0.000000 
#    z 0.000000 0.000000 1.840760 
# 
# From -- ./inp_files/5370.got.cif
#   From: 2010.05.17/outbox.cif.g08.bks.cpg/sg18_3_cif.got.tgz:5370.got - 2010.06.03 22:40:56.
