data_PCOD9312149
_publ_section_title
;
Structure prediction by ZEFSAII (Michael W. Deem and Ramdas Pophale) SiO2 
 PCOD9312149
Probable space group: P 21 21 2
;
_chemical_formula_sum "Si O2"
_cell_formula_units_Z 32
_cell_length_a 14.837148
_cell_length_b 8.938010
_cell_length_c 10.814692
_cell_angle_alpha 90.000000
_cell_angle_beta 90.000000
_cell_angle_gamma 90.000000
_cell_volume 1434.185807
_symmetry_space_group_name_H-M "P 21 21 2"
_symmetry_group_IT_number 18
_symmetry_cell_setting 'orthorhombic'
loop_
_space_group_symop_operation_xyz
x,y,z
-x,-y,z
1/2+x,1/2-y,-z
1/2-x,1/2+y,-z
loop_
_atom_site_type_symbol
_atom_site_label
_atom_site_fract_x
_atom_site_fract_y
_atom_site_fract_z
Si Si1 0.868767 0.153129 0.372316
Si Si2 0.990128 0.326962 0.208395
Si Si3 0.865907 0.388780 0.745706
Si Si4 0.827744 0.725915 0.669759
Si Si5 0.139177 0.099966 0.914064
Si Si6 0.561365 0.718168 0.050860
Si Si7 0.010869 0.846077 0.603564
Si Si8 0.333311 0.635592 0.796335
O O1 0.925091 0.293524 0.321817
O O2 0.767063 0.204118 0.398207
O O3 0.927291 0.104856 0.489106
O O4 0.862618 0.019917 0.270637
O O5 0.000000 0.500000 0.181040
O O6 0.087364 0.252396 0.228686
O O7 0.943506 0.242479 0.094192
O O8 0.860318 0.561394 0.711229
O O9 0.902758 0.365792 0.883715
O O10 0.933211 0.286642 0.666925
O O11 0.764059 0.327395 0.740919
O O12 0.813246 0.827410 0.794143
O O13 0.908790 0.790410 0.587673
O O14 0.041031 0.178888 0.913495
O O15 0.123177 0.921674 0.909468
O O16 0.176791 0.125320 0.053640
O O17 0.000000 0.000000 0.680700
#
# Coordination Sequence:
#
# PCOD9312149 Si02
#       8
#     4   4   4   4   4   4   4   4
#     4  11  26  49  71 100 144 192 243 296 363 432
#     4  11  24  39  65 104 141 188 238 294 353 422
#     4  11  25  41  68 104 141 183 241 299 356 419
#     4  11  26  44  70 113 136 184 245 298 360 426
#     4  10  20  39  70  99 145 187 231 285 351 440
#     4  10  21  38  63  99 143 183 229 281 354 425
#     4  12  26  47  74  97 141 196 239 297 357 435
#     4  10  23  44  68 103 145 193 232 292 364 429
#
# _framework density 22.312314000000001
#
# number of rings (size 3 to 8) (size 9 to 14) (size 15 to 20)
#    0.000    1.250    2.500    2.250    5.250    6.000 
#    0.000    0.000    0.000    0.000    0.000    0.000 
#    0.000    0.000    0.000    0.000    0.000    0.000 
#
# Total GULP energy -178801.816861 kJ/mol
# GULP energy per Si atom -5587.556777 kJ/mol
# Density = 2.226153 g / cm^3
# Si number density = 22.312314 Si / 1000 Ang^3
#
#
#
# Elastic Constant Matrix: (Units=GPa)
#
#
# Indices 1 2 3 4 5 6 
#
# 1 133.3813 58.9908 50.0710 0.0000 0.0000 0.0000
# 2 58.9908 88.7515 18.5828 0.0000 0.0000 0.0000
# 3 50.0710 18.5828 65.2843 0.0000 0.0000 0.0000
# 4 0.0000 0.0000 0.0000 15.0963 0.0000 0.0000
# 5 0.0000 0.0000 0.0000 0.0000 12.1319 0.0000
# 6 0.0000 0.0000 0.0000 0.0000 0.0000 16.9870
#
#
#
# Elastic Compliance Matrix: (Units=1/GPa)
#
#
# Indices 1 2 3 4 5 6 
#
# 1 0.014085 -0.007550 -0.008654 0.000000 0.000000 0.000000
# 2 -0.007550 0.016029 0.001228 0.000000 0.000000 0.000000
# 3 -0.008654 0.001228 0.021605 0.000000 0.000000 0.000000
# 4 0.000000 0.000000 0.000000 0.066241 0.000000 0.000000
# 5 0.000000 0.000000 0.000000 0.000000 0.082428 0.000000
# 6 0.000000 0.000000 0.000000 0.000000 0.000000 0.058868
#
#
# Mechanical properties :
#
#
# Convention : Reuss Voigt Hill
#
# Bulk Modulus (GPa) = 45.93974 60.30069 53.12022
# Shear Modulus (GPa) = 16.86550 19.49454 18.18002
#
# Velocity S-wave (km/s) = 2.75232 2.95907 2.85756
# Velocity P-wave (km/s) = 5.54386 6.22569 5.89464
#
# Compressibility (1/GPa) = 0.02176764
#
# Stress axis : x y z
#
# Youngs Moduli (GPa) = 70.99729 62.38864 46.28529
#
# Poissons Ratio (x) = 0.47104 0.40054
# Poissons Ratio (y) = 0.53603 -0.05685
# Poissons Ratio (z) = 0.61439 -0.07662
#
# Static dielectric constant tensor:
#      x y z
#    x 1.817160 0.000000 0.000000 
#    y 0.000000 1.808640 0.000000 
#    z 0.000000 0.000000 1.901820 
# 
# From -- ./inp_files/6156.got.cif
#   From: 2010.05.17/outbox.cif.g08.bks.cpg/sg18_4_cif.got.tgz:6156.got - 2010.06.03 22:40:56.
