data_PCOD9312750
_publ_section_title
;
Structure prediction by ZEFSAII (Michael W. Deem and Ramdas Pophale) SiO2 
 PCOD9312750
Probable space group: P 21 21 2
;
_chemical_formula_sum "Si O2"
_cell_formula_units_Z 32
_cell_length_a 4.846473
_cell_length_b 30.328755
_cell_length_c 9.900669
_cell_angle_alpha 90.000000
_cell_angle_beta 90.000000
_cell_angle_gamma 90.000000
_cell_volume 1455.274508
_symmetry_space_group_name_H-M "P 21 21 2"
_symmetry_group_IT_number 18
_symmetry_cell_setting 'orthorhombic'
loop_
_space_group_symop_operation_xyz
x,y,z
-x,-y,z
1/2+x,1/2-y,-z
1/2-x,1/2+y,-z
loop_
_atom_site_type_symbol
_atom_site_label
_atom_site_fract_x
_atom_site_fract_y
_atom_site_fract_z
Si Si1 0.647928 0.640926 0.634124
Si Si2 0.042197 0.279220 0.480091
Si Si3 0.064659 0.259187 0.913636
Si Si4 0.959772 0.896703 0.642815
Si Si5 0.370448 0.145067 0.180713
Si Si6 0.556433 0.890351 0.902575
Si Si7 0.267878 0.815233 0.772293
Si Si8 0.744370 0.530880 0.194846
O O1 0.805989 0.682717 0.565337
O O2 0.489725 0.611564 0.518578
O O3 0.404972 0.653871 0.735229
O O4 0.897033 0.621185 0.726001
O O5 0.252895 0.238429 0.469569
O O6 0.005234 0.297300 0.329823
O O7 0.999185 0.307122 0.856279
O O8 0.939564 0.222299 0.816405
O O9 0.880799 0.250197 0.048946
O O10 0.108099 0.852693 0.691870
O O11 0.123721 0.941080 0.680355
O O12 0.710523 0.897482 0.756345
O O13 0.293199 0.117436 0.044845
O O14 0.396219 0.844132 0.890053
O O15 0.351731 0.931821 0.907949
O O16 0.500000 0.500000 0.141279
O O17 0.000000 0.500000 0.231979
#
# Coordination Sequence:
#
# PCOD9312750 Si02
#       8
#     4   4   4   4   4   4   4   4
#     4  11  26  42  64  95 138 178 231 277 347 411
#     4  11  23  39  58  84 125 177 233 288 331 379
#     4  12  23  38  58  87 135 182 242 293 333 385
#     4  10  24  43  73 101 137 172 225 281 349 414
#     4  12  26  43  64  98 139 191 234 285 345 411
#     4  11  24  44  72 100 138 177 228 278 348 408
#     4  10  23  36  61  88 129 176 232 279 333 383
#     4  11  23  43  76 113 131 162 219 283 340 419
#
# _framework density 21.988979
#
# number of rings (size 3 to 8) (size 9 to 14) (size 15 to 20)
#    0.000    1.000    2.500    3.750   12.250    0.000 
#    0.000    0.000    0.000    3.000    0.000    0.000 
#    0.000    0.000    0.000    0.000    0.000    0.000 
#
# Total GULP energy -178548.898492 kJ/mol
# GULP energy per Si atom -5579.653078 kJ/mol
# Density = 2.193893 g / cm^3
# Si number density = 21.988979 Si / 1000 Ang^3
#
#
#
# Elastic Constant Matrix: (Units=GPa)
#
#
# Indices 1 2 3 4 5 6 
#
# 1 94.1053 22.0891 20.6801 0.0000 0.0000 0.0000
# 2 22.0891 94.5329 31.7326 0.0000 0.0000 0.0000
# 3 20.6801 31.7326 72.8885 0.0000 0.0000 0.0000
# 4 0.0000 0.0000 0.0000 7.2280 0.0000 0.0000
# 5 0.0000 0.0000 0.0000 0.0000 36.5814 0.0000
# 6 0.0000 0.0000 0.0000 0.0000 0.0000 32.4504
#
#
#
# Elastic Compliance Matrix: (Units=1/GPa)
#
#
# Indices 1 2 3 4 5 6 
#
# 1 0.011612 -0.001883 -0.002475 0.000000 0.000000 0.000000
# 2 -0.001883 0.012694 -0.004992 0.000000 0.000000 0.000000
# 3 -0.002475 -0.004992 0.016595 0.000000 0.000000 0.000000
# 4 0.000000 0.000000 0.000000 0.138352 0.000000 0.000000
# 5 0.000000 0.000000 0.000000 0.000000 0.027336 0.000000
# 6 0.000000 0.000000 0.000000 0.000000 0.000000 0.030816
#
#
# Mechanical properties :
#
#
# Convention : Reuss Voigt Hill
#
# Bulk Modulus (GPa) = 45.04174 45.61446 45.32810
# Shear Modulus (GPa) = 18.97489 27.72029 23.34759
#
# Velocity S-wave (km/s) = 2.94075 3.55441 3.26204
# Velocity P-wave (km/s) = 5.66206 6.13468 5.90310
#
# Compressibility (1/GPa) = 0.02220163
#
# Stress axis : x y z
#
# Youngs Moduli (GPa) = 86.11647 78.77719 60.25813
#
# Poissons Ratio (x) = 0.14830 0.14914
# Poissons Ratio (y) = 0.16212 0.30083
# Poissons Ratio (z) = 0.21314 0.39328
#
# Static dielectric constant tensor:
#      x y z
#    x 1.853360 0.000000 0.000000 
#    y 0.000000 1.784220 0.000000 
#    z 0.000000 0.000000 1.988670 
# 
# From -- ./inp_files/2692.got.cif
#   From: 2010.05.17/outbox.cif.g08.bks.cpg/sg18_2_cif.got.tgz:2692.got - 2010.06.03 22:40:56.
