data_PCOD9312361
_publ_section_title
;
Structure prediction by ZEFSAII (Michael W. Deem and Ramdas Pophale) SiO2 
 PCOD9312361
Probable space group: P 21 21 2
;
_chemical_formula_sum "Si O2"
_cell_formula_units_Z 24
_cell_length_a 5.189570
_cell_length_b 12.623407
_cell_length_c 17.273399
_cell_angle_alpha 90.000000
_cell_angle_beta 90.000000
_cell_angle_gamma 90.000000
_cell_volume 1131.581306
_symmetry_space_group_name_H-M "P 21 21 2"
_symmetry_group_IT_number 18
_symmetry_cell_setting 'orthorhombic'
loop_
_space_group_symop_operation_xyz
x,y,z
-x,-y,z
1/2+x,1/2-y,-z
1/2-x,1/2+y,-z
loop_
_atom_site_type_symbol
_atom_site_label
_atom_site_fract_x
_atom_site_fract_y
_atom_site_fract_z
Si Si1 0.157865 0.794515 0.146969
Si Si2 0.000000 0.000000 0.801881
Si Si3 0.500000 0.500000 0.926836
Si Si4 0.312374 0.094654 0.942524
Si Si5 0.441963 0.616070 0.524367
Si Si6 0.845923 0.227402 0.762555
Si Si7 0.445870 0.804470 0.401438
O O1 0.094936 0.712003 0.076855
O O2 0.446511 0.765675 0.173744
O O3 0.156342 0.918808 0.126854
O O4 0.937563 0.765662 0.210850
O O5 0.131415 0.901292 0.758222
O O6 0.798371 0.947078 0.860827
O O7 0.619118 0.414496 0.986471
O O8 0.500000 0.000000 0.965770
O O9 0.500000 0.500000 0.494654
O O10 0.454136 0.699572 0.454809
O O11 0.160468 0.619747 0.561508
O O12 0.660016 0.649034 0.587268
O O13 0.954232 0.275718 0.683293
#
# Coordination Sequence:
#
# PCOD9312361 Si02
#       7
#     4   2   2   4   4   4   4
#     4  11  26  44  63  96 131 161 217 263 312 393
#     4   9  20  38  62  94 119 156 208 266 321 366
#     4  11  28  40  66  92 123 174 212 262 319 380
#     4  10  21  40  65  87 119 161 206 270 316 358
#     4  10  21  41  64  96 128 162 218 259 305 374
#     4  11  23  43  64  93 131 168 205 262 322 379
#     4  10  22  40  65  95 127 168 211 258 312 381
#
# _framework density 21.209257000000001
#
# number of rings (size 3 to 8) (size 9 to 14) (size 15 to 20)
#    0.000    1.667    1.667    1.500    5.833    0.000 
#    9.000    0.000    0.000    0.000    0.000    0.000 
#    0.000    0.000    0.000    0.000    0.000    0.000 
#
# Total GULP energy -133806.878432 kJ/mol
# GULP energy per Si atom -5575.286601 kJ/mol
# Density = 2.116098 g / cm^3
# Si number density = 21.209257 Si / 1000 Ang^3
#
#
#
# Elastic Constant Matrix: (Units=GPa)
#
#
# Indices 1 2 3 4 5 6 
#
# 1 52.4771 2.9447 -5.5830 0.0000 0.0000 0.0000
# 2 2.9447 102.3862 0.7178 0.0000 0.0000 0.0000
# 3 -5.5830 0.7178 29.5332 0.0000 0.0000 0.0000
# 4 0.0000 0.0000 0.0000 -6.5750 0.0000 0.0000
# 5 0.0000 0.0000 0.0000 0.0000 33.8707 0.0000
# 6 0.0000 0.0000 0.0000 0.0000 0.0000 28.3720
#
#
#
# Elastic Compliance Matrix: (Units=1/GPa)
#
#
# Indices 1 2 3 4 5 6 
#
# 1 0.019482 -0.000586 0.003697 0.000000 0.000000 0.000000
# 2 -0.000586 0.009786 -0.000349 0.000000 0.000000 0.000000
# 3 0.003697 -0.000349 0.034568 0.000000 0.000000 0.000000
# 4 0.000000 0.000000 0.000000 -0.152091 0.000000 0.000000
# 5 0.000000 0.000000 0.000000 0.000000 0.029524 0.000000
# 6 0.000000 0.000000 0.000000 0.000000 0.000000 0.035246
#
#
# Mechanical properties :
#
#
# Convention : Reuss Voigt Hill
#
# Bulk Modulus (GPa) = 14.41741 20.06171 17.23956
# Shear Modulus (GPa) = -848.97275 23.55468 -412.70904
#
# Velocity S-wave (km/s) = -20.02881 3.33616 -13.96465
# Velocity P-wave (km/s) = 22.97952 4.93147 15.87039
#
# Compressibility (1/GPa) = 0.06936059
#
# Stress axis : x y z
#
# Youngs Moduli (GPa) = 51.32900 102.18420 28.92884
#
# Poissons Ratio (x) = 0.05991 -0.10696
# Poissons Ratio (y) = 0.03009 0.01009
# Poissons Ratio (z) = -0.18977 0.03563
#
# Static dielectric constant tensor:
#      x y z
#    x 2.191980 0.000000 0.000000 
#    y 0.000000 1.768590 0.000000 
#    z 0.000000 0.000000 1.738510 
# 
# From -- ./inp_files/7156.got.cif
#   From: 2010.05.17/outbox.cif.g08.bks.cpg/sg18_4_cif.got.tgz:7156.got - 2010.06.03 22:40:56.
