data_PCOD9312785
_publ_section_title
;
Structure prediction by ZEFSAII (Michael W. Deem and Ramdas Pophale) SiO2 
 PCOD9312785
Probable space group: P 21 21 2
;
_chemical_formula_sum "Si O2"
_cell_formula_units_Z 26
_cell_length_a 15.649270
_cell_length_b 12.660183
_cell_length_c 5.123779
_cell_angle_alpha 90.000000
_cell_angle_beta 90.000000
_cell_angle_gamma 90.000000
_cell_volume 1015.136530
_symmetry_space_group_name_H-M "P 21 21 2"
_symmetry_group_IT_number 18
_symmetry_cell_setting 'orthorhombic'
loop_
_space_group_symop_operation_xyz
x,y,z
-x,-y,z
1/2+x,1/2-y,-z
1/2-x,1/2+y,-z
loop_
_atom_site_type_symbol
_atom_site_label
_atom_site_fract_x
_atom_site_fract_y
_atom_site_fract_z
Si Si1 0.227845 0.039025 0.257189
Si Si2 0.592553 0.102568 0.603206
Si Si3 0.538885 0.716643 0.749868
Si Si4 0.901394 0.861679 0.909545
Si Si5 0.834471 0.396614 0.243324
Si Si6 0.187510 0.346664 0.887233
Si Si7 0.000000 0.000000 0.535678
O O1 0.138484 0.090131 0.174295
O O2 0.266466 0.072389 0.532728
O O3 0.230369 0.913409 0.199351
O O4 0.293628 0.081815 0.036975
O O5 0.524545 0.196048 0.623478
O O6 0.617703 0.096689 0.300053
O O7 0.589118 0.981665 0.702933
O O8 0.667746 0.142503 0.805139
O O9 0.491276 0.695412 0.026079
O O10 0.627010 0.779982 0.751994
O O11 0.535050 0.602821 0.614622
O O12 0.832703 0.774439 0.820216
O O13 0.923910 0.955756 0.718201
#
# Coordination Sequence:
#
# PCOD9312785 Si02
#       7
#     4   4   4   4   4   4   2
#     4  10  24  43  70 104 140 184 238 294 358 423
#     4   9  18  38  67  98 128 171 218 293 348 413
#     4  11  24  43  69 101 141 183 239 291 355 422
#     4  11  25  45  69  98 147 190 240 290 361 426
#     4  10  23  42  71 106 135 175 240 297 359 413
#     4   9  19  39  64  95 133 176 226 283 352 407
#     4  12  26  44  68  98 138 196 240 284 350 444
#
# _framework density 25.612317000000001
#
# number of rings (size 3 to 8) (size 9 to 14) (size 15 to 20)
#    0.000    1.846    1.538    0.923    4.308    1.231 
#    2.769    4.615    0.000    0.000    0.000    0.000 
#    0.000    0.000    0.000    0.000    0.000    0.000 
#
# Total GULP energy -145207.551688 kJ/mol
# GULP energy per Si atom -5584.905834 kJ/mol
# Density = 2.555402 g / cm^3
# Si number density = 25.612317 Si / 1000 Ang^3
#
#
#
# Elastic Constant Matrix: (Units=GPa)
#
#
# Indices 1 2 3 4 5 6 
#
# 1 79.0685 63.1267 28.7847 0.0000 0.0000 0.0000
# 2 63.1267 218.8726 34.7138 0.0000 0.0000 0.0000
# 3 28.7847 34.7138 107.4814 0.0000 0.0000 0.0000
# 4 0.0000 0.0000 0.0000 33.3922 0.0000 0.0000
# 5 0.0000 0.0000 0.0000 0.0000 19.0184 0.0000
# 6 0.0000 0.0000 0.0000 0.0000 0.0000 56.2616
#
#
#
# Elastic Compliance Matrix: (Units=1/GPa)
#
#
# Indices 1 2 3 4 5 6 
#
# 1 0.017420 -0.004516 -0.003207 0.000000 0.000000 0.000000
# 2 -0.004516 0.005986 -0.000724 0.000000 0.000000 0.000000
# 3 -0.003207 -0.000724 0.010397 0.000000 0.000000 0.000000
# 4 0.000000 0.000000 0.000000 0.029947 0.000000 0.000000
# 5 0.000000 0.000000 0.000000 0.000000 0.052581 0.000000
# 6 0.000000 0.000000 0.000000 0.000000 0.000000 0.017774
#
#
# Mechanical properties :
#
#
# Convention : Reuss Voigt Hill
#
# Bulk Modulus (GPa) = 59.13769 73.18587 66.16178
# Shear Modulus (GPa) = 31.92157 40.32092 36.12124
#
# Velocity S-wave (km/s) = 3.53418 3.97202 3.75948
# Velocity P-wave (km/s) = 6.30821 7.04787 6.68827
#
# Compressibility (1/GPa) = 0.01690969
#
# Stress axis : x y z
#
# Youngs Moduli (GPa) = 57.40579 167.05443 96.18528
#
# Poissons Ratio (x) = 0.75435 0.30845
# Poissons Ratio (y) = 0.25922 0.06964
# Poissons Ratio (z) = 0.18409 0.12095
#
# Static dielectric constant tensor:
#      x y z
#    x 2.111510 0.000000 0.000000 
#    y 0.000000 2.074870 0.000000 
#    z 0.000000 0.000000 1.968230 
# 
# From -- ./inp_files/1795.got.cif
#   From: 2010.05.17/outbox.cif.g08.bks.cpg/sg18_1_cif.got.tgz:1795.got - 2010.06.03 22:40:56.
