data_PCOD9312701
_publ_section_title
;
Structure prediction by ZEFSAII (Michael W. Deem and Ramdas Pophale) SiO2 
 PCOD9312701
Probable space group: P 21 21 2
;
_chemical_formula_sum "Si O2"
_cell_formula_units_Z 20
_cell_length_a 7.981461
_cell_length_b 17.297430
_cell_length_c 6.030708
_cell_angle_alpha 90.000000
_cell_angle_beta 90.000000
_cell_angle_gamma 90.000000
_cell_volume 832.592086
_symmetry_space_group_name_H-M "P 21 21 2"
_symmetry_group_IT_number 18
_symmetry_cell_setting 'orthorhombic'
loop_
_space_group_symop_operation_xyz
x,y,z
-x,-y,z
1/2+x,1/2-y,-z
1/2-x,1/2+y,-z
loop_
_atom_site_type_symbol
_atom_site_label
_atom_site_fract_x
_atom_site_fract_y
_atom_site_fract_z
Si Si1 0.534170 0.370171 0.348289
Si Si2 0.284985 0.318835 0.980139
Si Si3 0.168421 0.964792 0.281973
Si Si4 0.491556 0.772111 0.668871
Si Si5 0.622962 0.933601 0.572304
O O1 0.407244 0.423920 0.493911
O O2 0.564962 0.297163 0.510408
O O3 0.706846 0.413865 0.295204
O O4 0.443873 0.339469 0.132329
O O5 0.243768 0.398973 0.859608
O O6 0.343750 0.258121 0.796401
O O7 0.144888 0.288683 0.143808
O O8 0.297847 0.030897 0.348865
O O9 0.000000 0.000000 0.173460
O O10 0.527091 0.852851 0.547225
O O11 0.500000 0.000000 0.663602
#
# Coordination Sequence:
#
# PCOD9312701 Si02
#       5
#     4   4   4   4   4
#     4  10  22  44  67  90 130 175 219 272 333 393
#     4  11  23  42  69  97 129 176 228 275 330 402
#     4   9  22  42  64  92 128 172 217 270 331 392
#     4  11  24  41  67  99 130 173 223 275 334 399
#     4  11  23  41  64  94 133 172 214 272 337 398
#
# _framework density 24.021369
#
# number of rings (size 3 to 8) (size 9 to 14) (size 15 to 20)
#    0.000    1.600    0.000    3.600    0.000   10.400 
#    0.000   13.000    0.000    0.000    0.000    0.000 
#    0.000    0.000    0.000    0.000    0.000    0.000 
#
# Total GULP energy -111967.529435 kJ/mol
# GULP energy per Si atom -5598.376472 kJ/mol
# Density = 2.396669 g / cm^3
# Si number density = 24.021369 Si / 1000 Ang^3
#
#
#
# Elastic Constant Matrix: (Units=GPa)
#
#
# Indices 1 2 3 4 5 6 
#
# 1 101.9982 46.9850 28.0938 0.0000 0.0000 0.0000
# 2 46.9850 171.8343 45.1364 0.0000 0.0000 0.0000
# 3 28.0938 45.1364 59.5609 0.0000 0.0000 0.0000
# 4 0.0000 0.0000 0.0000 32.6519 0.0000 0.0000
# 5 0.0000 0.0000 0.0000 0.0000 42.5722 0.0000
# 6 0.0000 0.0000 0.0000 0.0000 0.0000 44.6909
#
#
#
# Elastic Compliance Matrix: (Units=1/GPa)
#
#
# Indices 1 2 3 4 5 6 
#
# 1 0.011912 -0.002224 -0.003933 0.000000 0.000000 0.000000
# 2 -0.002224 0.007681 -0.004772 0.000000 0.000000 0.000000
# 3 -0.003933 -0.004772 0.022261 0.000000 0.000000 0.000000
# 4 0.000000 0.000000 0.000000 0.030626 0.000000 0.000000
# 5 0.000000 0.000000 0.000000 0.000000 0.023489 0.000000
# 6 0.000000 0.000000 0.000000 0.000000 0.000000 0.022376
#
#
# Mechanical properties :
#
#
# Convention : Reuss Voigt Hill
#
# Bulk Modulus (GPa) = 50.01050 63.75820 56.88435
# Shear Modulus (GPa) = 34.04396 38.19491 36.11943
#
# Velocity S-wave (km/s) = 3.76870 3.99185 3.88188
# Velocity P-wave (km/s) = 6.30887 6.91711 6.61998
#
# Compressibility (1/GPa) = 0.01999580
#
# Stress axis : x y z
#
# Youngs Moduli (GPa) = 83.94968 130.18963 44.92157
#
# Poissons Ratio (x) = 0.28953 0.17669
# Poissons Ratio (y) = 0.18670 0.21436
# Poissons Ratio (z) = 0.33020 0.62125
#
# Static dielectric constant tensor:
#      x y z
#    x 1.943580 0.000000 0.000000 
#    y 0.000000 1.943090 0.000000 
#    z 0.000000 0.000000 1.871720 
# 
# From -- ./inp_files/541.got.cif
#   From: 2010.05.17/outbox.cif.g08.bks.cpg/sg18_1_cif.got.tgz:541.got - 2010.06.03 22:40:56.
