data_PCOD9312158
_publ_section_title
;
Structure prediction by ZEFSAII (Michael W. Deem and Ramdas Pophale) SiO2 
 PCOD9312158
Probable space group: P 21 21 2
;
_chemical_formula_sum "Si O2"
_cell_formula_units_Z 28
_cell_length_a 23.727060
_cell_length_b 8.286464
_cell_length_c 6.355641
_cell_angle_alpha 90.000000
_cell_angle_beta 90.000000
_cell_angle_gamma 90.000000
_cell_volume 1249.604367
_symmetry_space_group_name_H-M "P 21 21 2"
_symmetry_group_IT_number 18
_symmetry_cell_setting 'orthorhombic'
loop_
_space_group_symop_operation_xyz
x,y,z
-x,-y,z
1/2+x,1/2-y,-z
1/2-x,1/2+y,-z
loop_
_atom_site_type_symbol
_atom_site_label
_atom_site_fract_x
_atom_site_fract_y
_atom_site_fract_z
Si Si1 0.821999 0.673802 0.816532
Si Si2 0.000000 0.000000 0.144895
Si Si3 0.092300 0.917907 0.469088
Si Si4 0.710078 0.431269 0.518859
Si Si5 0.436655 0.692590 0.196057
Si Si6 0.000000 0.500000 0.821403
Si Si7 0.271008 0.297770 0.171261
Si Si8 0.886511 0.344758 0.808907
O O1 0.805176 0.769742 0.608956
O O2 0.875349 0.774190 0.902093
O O3 0.851621 0.506065 0.765008
O O4 0.771030 0.669636 0.979532
O O5 0.048261 0.919096 0.283350
O O6 0.973892 0.867572 0.993795
O O7 0.096297 0.752036 0.598733
O O8 0.154146 0.978172 0.400377
O O9 0.070421 0.053654 0.632909
O O10 0.731977 0.554191 0.337905
O O11 0.748582 0.361796 0.704717
O O12 0.466881 0.852103 0.289693
O O13 0.944517 0.407017 0.920002
O O14 0.336225 0.269654 0.098577
#
# Coordination Sequence:
#
# PCOD9312158 Si02
#       8
#     4   2   4   4   4   2   4   4
#     4  10  21  40  62  86 118 158 202 254 311 369
#     4  12  20  36  62  86 114 158 200 244 300 368
#     4  10  22  40  60  87 121 159 202 257 318 368
#     4  10  22  38  58  86 122 154 196 255 311 371
#     4  10  22  39  61  87 120 157 205 252 300 367
#     4  10  20  40  60  86 126 164 202 256 312 368
#     4  11  21  38  61  89 118 157 205 252 312 381
#     4  10  21  38  62  88 121 162 204 256 315 374
#
# _framework density 22.407091999999999
#
# number of rings (size 3 to 8) (size 9 to 14) (size 15 to 20)
#    0.000    1.714    0.000    4.714    0.000    0.000 
#    0.000   30.000    0.000    0.000    0.000    0.000 
#    0.000    0.000    0.000    0.000    0.000    0.000 
#
# Total GULP energy -156119.576403 kJ/mol
# GULP energy per Si atom -5575.699157 kJ/mol
# Density = 2.235609 g / cm^3
# Si number density = 22.407092 Si / 1000 Ang^3
#
#
#
# Elastic Constant Matrix: (Units=GPa)
#
#
# Indices 1 2 3 4 5 6 
#
# 1 144.5095 38.5747 37.0530 0.0000 0.0000 0.0000
# 2 38.5747 89.7061 34.3418 0.0000 0.0000 0.0000
# 3 37.0530 34.3418 35.7905 0.0000 0.0000 0.0000
# 4 0.0000 0.0000 0.0000 17.8743 0.0000 0.0000
# 5 0.0000 0.0000 0.0000 0.0000 68.2997 0.0000
# 6 0.0000 0.0000 0.0000 0.0000 0.0000 45.5890
#
#
#
# Elastic Compliance Matrix: (Units=1/GPa)
#
#
# Indices 1 2 3 4 5 6 
#
# 1 0.009435 -0.000502 -0.009286 0.000000 0.000000 0.000000
# 2 -0.000502 0.017646 -0.016412 0.000000 0.000000 0.000000
# 3 -0.009286 -0.016412 0.053302 0.000000 0.000000 0.000000
# 4 0.000000 0.000000 0.000000 0.055946 0.000000 0.000000
# 5 0.000000 0.000000 0.000000 0.000000 0.014641 0.000000
# 6 0.000000 0.000000 0.000000 0.000000 0.000000 0.021935
#
#
# Mechanical properties :
#
#
# Convention : Reuss Voigt Hill
#
# Bulk Modulus (GPa) = 35.73669 54.43835 45.08752
# Shear Modulus (GPa) = 21.30980 37.02170 29.16575
#
# Velocity S-wave (km/s) = 3.08722 4.06917 3.61173
# Velocity P-wave (km/s) = 5.35643 6.81362 6.12849
#
# Compressibility (1/GPa) = 0.02798244
#
# Stress axis : x y z
#
# Youngs Moduli (GPa) = 105.98861 56.66847 18.76120
#
# Poissons Ratio (x) = 0.02847 0.17421
# Poissons Ratio (y) = 0.05324 0.30791
# Poissons Ratio (z) = 0.98419 0.93005
#
# Static dielectric constant tensor:
#      x y z
#    x 1.896600 0.000000 0.000000 
#    y 0.000000 1.878640 0.000000 
#    z 0.000000 0.000000 1.763830 
# 
# From -- ./inp_files/2224.got.cif
#   From: 2010.05.17/outbox.cif.g08.bks.cpg/sg18_2_cif.got.tgz:2224.got - 2010.06.03 22:40:56.
