data_PCOD9312857
_publ_section_title
;
Structure prediction by ZEFSAII (Michael W. Deem and Ramdas Pophale) SiO2 
 PCOD9312857
Probable space group: P 21 21 2
;
_chemical_formula_sum "Si O2"
_cell_formula_units_Z 22
_cell_length_a 6.564613
_cell_length_b 10.548275
_cell_length_c 15.096686
_cell_angle_alpha 90.000000
_cell_angle_beta 90.000000
_cell_angle_gamma 90.000000
_cell_volume 1045.375203
_symmetry_space_group_name_H-M "P 21 21 2"
_symmetry_group_IT_number 18
_symmetry_cell_setting 'orthorhombic'
loop_
_space_group_symop_operation_xyz
x,y,z
-x,-y,z
1/2+x,1/2-y,-z
1/2-x,1/2+y,-z
loop_
_atom_site_type_symbol
_atom_site_label
_atom_site_fract_x
_atom_site_fract_y
_atom_site_fract_z
Si Si1 0.000000 0.000000 0.190981
Si Si2 0.306843 0.437653 0.502953
Si Si3 0.494231 0.857216 0.916087
Si Si4 0.663028 0.318958 0.408795
Si Si5 0.269388 0.779057 0.222911
Si Si6 0.150019 0.665934 0.886418
O O1 0.177863 0.060437 0.130817
O O2 0.886831 0.108314 0.245534
O O3 0.500000 0.500000 0.556271
O O4 0.430427 0.362768 0.425447
O O5 0.195576 0.324021 0.553750
O O6 0.784958 0.432605 0.460455
O O7 0.670114 0.783682 0.863669
O O8 0.278753 0.794613 0.893765
O O9 0.500000 0.000000 0.885338
O O10 0.537646 0.852751 0.020634
O O11 0.714981 0.313110 0.305992
O O12 0.489383 0.829984 0.193210
#
# Coordination Sequence:
#
# PCOD9312857 Si02
#       6
#     2   4   4   4   4   4
#     4  10  24  40  64 100 130 178 232 266 330 396
#     4   8  21  42  63  94 128 169 211 276 349 407
#     4  11  24  39  65  96 129 183 221 274 332 384
#     4   9  21  43  67  97 129 173 221 276 353 406
#     4  11  23  43  65  99 135 178 226 280 323 412
#     4  11  23  43  63  95 137 181 223 274 333 393
#
# _framework density 21.045074
#
# number of rings (size 3 to 8) (size 9 to 14) (size 15 to 20)
#    1.091    0.727    1.818    1.636    3.818    4.364 
#   16.364    0.000    0.000    0.000    0.000    0.000 
#    0.000    0.000    0.000    0.000    0.000    0.000 
#
# Total GULP energy -122528.209581 kJ/mol
# GULP energy per Si atom -5569.464072 kJ/mol
# Density = 2.099717 g / cm^3
# Si number density = 21.045074 Si / 1000 Ang^3
#
#
#
# Elastic Constant Matrix: (Units=GPa)
#
#
# Indices 1 2 3 4 5 6 
#
# 1 75.4739 33.3639 16.2080 0.0000 0.0000 0.0000
# 2 33.3639 120.3202 22.6238 0.0000 0.0000 0.0000
# 3 16.2080 22.6238 73.7801 0.0000 0.0000 0.0000
# 4 0.0000 0.0000 0.0000 -24.4890 0.0000 0.0000
# 5 0.0000 0.0000 0.0000 0.0000 5.5607 0.0000
# 6 0.0000 0.0000 0.0000 0.0000 0.0000 39.5381
#
#
#
# Elastic Compliance Matrix: (Units=1/GPa)
#
#
# Indices 1 2 3 4 5 6 
#
# 1 0.015431 -0.003864 -0.002205 0.000000 0.000000 0.000000
# 2 -0.003864 0.009787 -0.002152 0.000000 0.000000 0.000000
# 3 -0.002205 -0.002152 0.014698 0.000000 0.000000 0.000000
# 4 0.000000 0.000000 0.000000 -0.040835 0.000000 0.000000
# 5 0.000000 0.000000 0.000000 0.000000 0.179832 0.000000
# 6 0.000000 0.000000 0.000000 0.000000 0.000000 0.025292
#
#
# Mechanical properties :
#
#
# Convention : Reuss Voigt Hill
#
# Bulk Modulus (GPa) = 42.60097 45.99619 44.29858
# Shear Modulus (GPa) = 21.88425 17.28051 19.58238
#
# Velocity S-wave (km/s) = 3.22821 2.86863 3.05371
# Velocity P-wave (km/s) = 5.84652 5.73372 5.79039
#
# Compressibility (1/GPa) = 0.02347365
#
# Stress axis : x y z
#
# Youngs Moduli (GPa) = 64.80273 102.17191 68.03578
#
# Poissons Ratio (x) = 0.39484 0.15002
# Poissons Ratio (y) = 0.25043 0.14643
# Poissons Ratio (z) = 0.14289 0.21990
#
# Static dielectric constant tensor:
#      x y z
#    x 1.830730 0.000000 0.000000 
#    y 0.000000 1.802480 0.000000 
#    z 0.000000 0.000000 1.706980 
# 
# From -- ./inp_files/6438.got.cif
#   From: 2010.05.17/outbox.cif.g08.bks.cpg/sg18_4_cif.got.tgz:6438.got - 2010.06.03 22:40:56.
