data_PCOD9312266
_publ_section_title
;
Structure prediction by ZEFSAII (Michael W. Deem and Ramdas Pophale) SiO2 
 PCOD9312266
Probable space group: P 21 21 2
;
_chemical_formula_sum "Si O2"
_cell_formula_units_Z 32
_cell_length_a 5.928377
_cell_length_b 18.661254
_cell_length_c 12.321611
_cell_angle_alpha 90.000000
_cell_angle_beta 90.000000
_cell_angle_gamma 90.000000
_cell_volume 1363.151518
_symmetry_space_group_name_H-M "P 21 21 2"
_symmetry_group_IT_number 18
_symmetry_cell_setting 'orthorhombic'
loop_
_space_group_symop_operation_xyz
x,y,z
-x,-y,z
1/2+x,1/2-y,-z
1/2-x,1/2+y,-z
loop_
_atom_site_type_symbol
_atom_site_label
_atom_site_fract_x
_atom_site_fract_y
_atom_site_fract_z
Si Si1 0.716620 0.927013 0.482127
Si Si2 0.142092 0.222995 0.956069
Si Si3 0.537457 0.697953 0.598122
Si Si4 0.316696 0.055519 0.247700
Si Si5 0.670533 0.163119 0.203880
Si Si6 0.985644 0.078882 0.051831
Si Si7 0.163704 0.339593 0.410074
Si Si8 0.259002 0.480917 0.299168
O O1 0.733014 0.969886 0.369552
O O2 0.476939 0.892741 0.512114
O O3 0.867313 0.858865 0.454124
O O4 0.772097 0.973486 0.587696
O O5 0.145133 0.255790 0.836052
O O6 0.399294 0.242941 0.998868
O O7 0.105272 0.139338 0.979334
O O8 0.656033 0.658665 0.698099
O O9 0.694061 0.708227 0.493442
O O10 0.475163 0.775934 0.644337
O O11 0.439232 0.132081 0.249699
O O12 0.122269 0.064902 0.162639
O O13 0.500000 0.000000 0.203841
O O14 0.757680 0.116568 0.099522
O O15 0.000000 0.000000 0.000090
O O16 0.266182 0.395820 0.325627
O O17 0.500000 0.500000 0.243912
O O18 0.000000 0.500000 0.257143
#
# Coordination Sequence:
#
# PCOD9312266 Si02
#       8
#     4   4   4   4   4   4   4   4
#     4  11  22  34  54  82 118 166 205 253 316 380
#     4  10  22  41  64  89 130 172 210 248 314 395
#     4  12  22  35  57  83 124 163 215 263 314 380
#     4  12  21  33  54  90 128 159 198 253 322 389
#     4  11  23  37  57  89 127 171 205 259 322 385
#     4  11  22  37  60  94 129 160 203 258 318 393
#     4  11  22  36  52  81 118 165 216 256 309 371
#     4  10  21  36  56  78 111 158 206 252 309 362
#
# _framework density 23.475014000000002
#
# number of rings (size 3 to 8) (size 9 to 14) (size 15 to 20)
#    0.000    1.000    7.500    1.125    0.000    0.500 
#    0.000    0.000    0.000    0.000    0.000   37.625 
#    0.000    0.000    0.000    0.000    0.000    0.000 
#
# Total GULP energy -178206.422591 kJ/mol
# GULP energy per Si atom -5568.950706 kJ/mol
# Density = 2.342158 g / cm^3
# Si number density = 23.475014 Si / 1000 Ang^3
#
#
#
# Elastic Constant Matrix: (Units=GPa)
#
#
# Indices 1 2 3 4 5 6 
#
# 1 86.5252 25.9690 9.2132 0.0000 0.0000 0.0000
# 2 25.9690 125.4168 3.5348 0.0000 0.0000 0.0000
# 3 9.2132 3.5348 37.1567 0.0000 0.0000 0.0000
# 4 0.0000 0.0000 0.0000 22.7910 0.0000 0.0000
# 5 0.0000 0.0000 0.0000 0.0000 6.7764 0.0000
# 6 0.0000 0.0000 0.0000 0.0000 0.0000 40.4357
#
#
#
# Elastic Compliance Matrix: (Units=1/GPa)
#
#
# Indices 1 2 3 4 5 6 
#
# 1 0.012625 -0.002533 -0.002890 0.000000 0.000000 0.000000
# 2 -0.002533 0.008503 -0.000181 0.000000 0.000000 0.000000
# 3 -0.002890 -0.000181 0.027647 0.000000 0.000000 0.000000
# 4 0.000000 0.000000 0.000000 0.043877 0.000000 0.000000
# 5 0.000000 0.000000 0.000000 0.000000 0.147572 0.000000
# 6 0.000000 0.000000 0.000000 0.000000 0.000000 0.024731
#
#
# Mechanical properties :
#
#
# Convention : Reuss Voigt Hill
#
# Bulk Modulus (GPa) = 26.61806 36.28142 31.44974
# Shear Modulus (GPa) = 17.32000 28.02605 22.67303
#
# Velocity S-wave (km/s) = 2.71921 3.45899 3.11116
# Velocity P-wave (km/s) = 4.60676 5.60729 5.13147
#
# Compressibility (1/GPa) = 0.03756848
#
# Stress axis : x y z
#
# Youngs Moduli (GPa) = 79.20690 117.60632 36.17066
#
# Poissons Ratio (x) = 0.29787 0.10452
# Poissons Ratio (y) = 0.20061 0.00654
# Poissons Ratio (z) = 0.22887 0.02127
#
# Static dielectric constant tensor:
#      x y z
#    x 2.100870 0.000000 0.000000 
#    y 0.000000 1.993490 0.000000 
#    z 0.000000 0.000000 1.859510 
# 
# From -- ./inp_files/6550.got.cif
#   From: 2010.05.17/outbox.cif.g08.bks.cpg/sg18_4_cif.got.tgz:6550.got - 2010.06.03 22:40:56.
