data_PCOD9312453
_publ_section_title
;
Structure prediction by ZEFSAII (Michael W. Deem and Ramdas Pophale) SiO2 
 PCOD9312453
Probable space group: P 21 21 2
;
_chemical_formula_sum "Si O2"
_cell_formula_units_Z 20
_cell_length_a 14.262586
_cell_length_b 8.974916
_cell_length_c 7.538564
_cell_angle_alpha 90.000000
_cell_angle_beta 90.000000
_cell_angle_gamma 90.000000
_cell_volume 964.977739
_symmetry_space_group_name_H-M "P 21 21 2"
_symmetry_group_IT_number 18
_symmetry_cell_setting 'orthorhombic'
loop_
_space_group_symop_operation_xyz
x,y,z
-x,-y,z
1/2+x,1/2-y,-z
1/2-x,1/2+y,-z
loop_
_atom_site_type_symbol
_atom_site_label
_atom_site_fract_x
_atom_site_fract_y
_atom_site_fract_z
Si Si1 0.392827 0.333385 0.741390
Si Si2 0.991461 0.832688 0.620770
Si Si3 0.928705 0.364765 0.930436
Si Si4 0.246680 0.081151 0.258923
Si Si5 0.788458 0.705391 0.548581
O O1 0.460775 0.335545 0.572895
O O2 0.351064 0.497932 0.784995
O O3 0.298699 0.249419 0.673351
O O4 0.434108 0.250108 0.908422
O O5 0.042934 0.718165 0.749339
O O6 0.884325 0.782317 0.604510
O O7 0.000000 0.000000 0.692650
O O8 0.821480 0.416424 0.898273
O O9 0.000000 0.500000 0.959213
O O10 0.231668 0.240819 0.349222
O O11 0.289728 0.971169 0.411878
#
# Coordination Sequence:
#
# PCOD9312453 Si02
#       5
#     4   4   4   4   4
#     4  10  25  42  66 102 131 174 225 274 342 400
#     4  12  23  44  70  98 136 176 227 281 341 400
#     4  12  24  44  69 101 136 180 228 282 339 413
#     4  10  21  45  66  96 132 177 227 269 340 400
#     4  10  21  43  70  93 133 177 216 279 333 399
#
# _framework density 20.725864000000001
#
# number of rings (size 3 to 8) (size 9 to 14) (size 15 to 20)
#    1.200    0.000    6.000    0.000    0.000    4.800 
#    7.200    0.000    0.000    0.000    0.000    0.000 
#    0.000    0.000    0.000    0.000    0.000    0.000 
#
# Total GULP energy -111558.457752 kJ/mol
# GULP energy per Si atom -5577.922888 kJ/mol
# Density = 2.067869 g / cm^3
# Si number density = 20.725864 Si / 1000 Ang^3
#
#
#
# Elastic Constant Matrix: (Units=GPa)
#
#
# Indices 1 2 3 4 5 6 
#
# 1 69.9891 10.5378 8.2485 0.0000 0.0000 0.0000
# 2 10.5378 49.3775 14.9873 0.0000 0.0000 0.0000
# 3 8.2485 14.9873 61.8914 0.0000 0.0000 0.0000
# 4 0.0000 0.0000 0.0000 29.3680 0.0000 0.0000
# 5 0.0000 0.0000 0.0000 0.0000 -9.7538 0.0000
# 6 0.0000 0.0000 0.0000 0.0000 0.0000 20.1552
#
#
#
# Elastic Compliance Matrix: (Units=1/GPa)
#
#
# Indices 1 2 3 4 5 6 
#
# 1 0.014860 -0.002774 -0.001309 0.000000 0.000000 0.000000
# 2 -0.002774 0.022377 -0.005049 0.000000 0.000000 0.000000
# 3 -0.001309 -0.005049 0.017554 0.000000 0.000000 0.000000
# 4 0.000000 0.000000 0.000000 0.034051 0.000000 0.000000
# 5 0.000000 0.000000 0.000000 0.000000 -0.102525 0.000000
# 6 0.000000 0.000000 0.000000 0.000000 0.000000 0.049615
#
#
# Mechanical properties :
#
#
# Convention : Reuss Voigt Hill
#
# Bulk Modulus (GPa) = 27.37661 27.64504 27.51082
# Shear Modulus (GPa) = 75.33376 17.78616 46.55996
#
# Velocity S-wave (km/s) = 6.03545 2.93262 4.74483
# Velocity P-wave (km/s) = 7.86171 4.98341 6.58182
#
# Compressibility (1/GPa) = 0.03652753
#
# Stress axis : x y z
#
# Youngs Moduli (GPa) = 67.29547 44.68942 56.96585
#
# Poissons Ratio (x) = 0.12397 0.07455
# Poissons Ratio (y) = 0.18668 0.28762
# Poissons Ratio (z) = 0.08807 0.22563
#
# Static dielectric constant tensor:
#      x y z
#    x 1.775820 0.000000 0.000000 
#    y 0.000000 1.749570 0.000000 
#    z 0.000000 0.000000 1.701740 
# 
# From -- ./inp_files/4096.got.cif
#   From: 2010.05.17/outbox.cif.g08.bks.cpg/sg18_3_cif.got.tgz:4096.got - 2010.06.03 22:40:56.
