data_PCOD9312558
_publ_section_title
;
Structure prediction by ZEFSAII (Michael W. Deem and Ramdas Pophale) SiO2 
 PCOD9312558
Probable space group: P 21 21 2
;
_chemical_formula_sum "Si O2"
_cell_formula_units_Z 20
_cell_length_a 17.601481
_cell_length_b 10.572685
_cell_length_c 5.140508
_cell_angle_alpha 90.000000
_cell_angle_beta 90.000000
_cell_angle_gamma 90.000000
_cell_volume 956.622395
_symmetry_space_group_name_H-M "P 21 21 2"
_symmetry_group_IT_number 18
_symmetry_cell_setting 'orthorhombic'
loop_
_space_group_symop_operation_xyz
x,y,z
-x,-y,z
1/2+x,1/2-y,-z
1/2-x,1/2+y,-z
loop_
_atom_site_type_symbol
_atom_site_label
_atom_site_fract_x
_atom_site_fract_y
_atom_site_fract_z
Si Si1 0.069322 0.095342 0.259020
Si Si2 0.509971 0.853526 0.623016
Si Si3 0.842078 0.448301 0.242218
Si Si4 0.883964 0.602775 0.742606
Si Si5 0.333188 0.621522 0.224828
O O1 0.126735 0.093749 0.501122
O O2 0.034077 0.237948 0.244499
O O3 0.116287 0.060830 0.002423
O O4 0.000000 0.000000 0.300792
O O5 0.600214 0.838856 0.656490
O O6 0.471256 0.861936 0.335891
O O7 0.500000 0.000000 0.718533
O O8 0.851202 0.553662 0.467600
O O9 0.754476 0.413767 0.221444
O O10 0.869936 0.499941 0.963464
O O11 0.840802 0.728687 0.821879
#
# Coordination Sequence:
#
# PCOD9312558 Si02
#       5
#     4   4   4   4   4
#     4  11  24  43  64  91 130 170 205 251 314 380
#     4   9  21  39  63  89 120 162 209 251 303 367
#     4  11  23  38  64  93 119 161 214 260 307 369
#     4  10  22  40  61  90 126 161 205 264 315 362
#     4  11  23  42  63  91 128 164 204 264 316 360
#
# _framework density 20.906891999999999
#
# number of rings (size 3 to 8) (size 9 to 14) (size 15 to 20)
#    0.000    1.600    0.000    5.400    0.000   18.400 
#    0.000    2.000    0.000    0.000    0.000    0.000 
#    0.000    0.000    0.000    0.000    0.000    0.000 
#
# Total GULP energy -111574.719326 kJ/mol
# GULP energy per Si atom -5578.735966 kJ/mol
# Density = 2.085931 g / cm^3
# Si number density = 20.906892 Si / 1000 Ang^3
#
#
#
# Elastic Constant Matrix: (Units=GPa)
#
#
# Indices 1 2 3 4 5 6 
#
# 1 165.7263 40.4578 37.0086 0.0000 0.0000 0.0000
# 2 40.4578 49.9069 22.6186 0.0000 0.0000 0.0000
# 3 37.0086 22.6186 74.8243 0.0000 0.0000 0.0000
# 4 0.0000 0.0000 0.0000 9.6360 0.0000 0.0000
# 5 0.0000 0.0000 0.0000 0.0000 27.7175 0.0000
# 6 0.0000 0.0000 0.0000 0.0000 0.0000 23.3364
#
#
#
# Elastic Compliance Matrix: (Units=1/GPa)
#
#
# Indices 1 2 3 4 5 6 
#
# 1 0.007841 -0.005329 -0.002267 0.000000 0.000000 0.000000
# 2 -0.005329 0.026840 -0.005478 0.000000 0.000000 0.000000
# 3 -0.002267 -0.005478 0.016142 0.000000 0.000000 0.000000
# 4 0.000000 0.000000 0.000000 0.103777 0.000000 0.000000
# 5 0.000000 0.000000 0.000000 0.000000 0.036078 0.000000
# 6 0.000000 0.000000 0.000000 0.000000 0.000000 0.042851
#
#
# Mechanical properties :
#
#
# Convention : Reuss Voigt Hill
#
# Bulk Modulus (GPa) = 40.52692 54.51417 47.52055
# Shear Modulus (GPa) = 18.66343 24.82948 21.74646
#
# Velocity S-wave (km/s) = 2.99104 3.44993 3.22865
# Velocity P-wave (km/s) = 5.59955 6.48079 6.05622
#
# Compressibility (1/GPa) = 0.02467495
#
# Stress axis : x y z
#
# Youngs Moduli (GPa) = 127.52904 37.25786 61.95024
#
# Poissons Ratio (x) = 0.19855 0.14047
# Poissons Ratio (y) = 0.67961 0.33934
# Poissons Ratio (z) = 0.28917 0.20409
#
# Static dielectric constant tensor:
#      x y z
#    x 1.813070 0.000000 0.000000 
#    y 0.000000 1.763920 0.000000 
#    z 0.000000 0.000000 1.767000 
# 
# From -- ./inp_files/1441.got.cif
#   From: 2010.05.17/outbox.cif.g08.bks.cpg/sg18_1_cif.got.tgz:1441.got - 2010.06.03 22:40:56.
