data_PCOD9312568
_publ_section_title
;
Structure prediction by ZEFSAII (Michael W. Deem and Ramdas Pophale) SiO2 
 PCOD9312568
Probable space group: P 21 21 2
;
_chemical_formula_sum "Si O2"
_cell_formula_units_Z 26
_cell_length_a 8.790169
_cell_length_b 11.153132
_cell_length_c 11.512223
_cell_angle_alpha 90.000000
_cell_angle_beta 90.000000
_cell_angle_gamma 90.000000
_cell_volume 1128.634342
_symmetry_space_group_name_H-M "P 21 21 2"
_symmetry_group_IT_number 18
_symmetry_cell_setting 'orthorhombic'
loop_
_space_group_symop_operation_xyz
x,y,z
-x,-y,z
1/2+x,1/2-y,-z
1/2-x,1/2+y,-z
loop_
_atom_site_type_symbol
_atom_site_label
_atom_site_fract_x
_atom_site_fract_y
_atom_site_fract_z
Si Si1 0.500000 0.000000 0.014786
Si Si2 0.836670 0.392370 0.187155
Si Si3 0.374832 0.392489 0.168608
Si Si4 0.809777 0.311656 0.646110
Si Si5 0.464299 0.225557 0.587937
Si Si6 0.770555 0.157598 0.088827
Si Si7 0.655273 0.553090 0.683763
O O1 0.631860 0.064739 0.084068
O O2 0.441284 0.101756 0.926629
O O3 0.769323 0.523911 0.198977
O O4 0.919674 0.359651 0.305263
O O5 0.723164 0.286052 0.143661
O O6 0.500000 0.500000 0.172718
O O7 0.374838 0.281583 0.258152
O O8 0.346728 0.344512 0.037763
O O9 0.639427 0.265706 0.607773
O O10 0.926946 0.320494 0.539572
O O11 0.776841 0.447785 0.687186
O O12 0.334294 0.330343 0.604168
O O13 0.879782 0.104827 0.188073
O O14 0.500000 0.500000 0.635466
#
# Coordination Sequence:
#
# PCOD9312568 Si02
#       7
#     2   4   4   4   4   4   4
#     4  10  22  40  64  96 134 166 218 266 332 406
#     4  10  23  42  64  92 133 173 219 269 344 395
#     4  11  26  39  68 102 133 173 224 283 339 410
#     4  11  25  42  70  96 135 176 229 279 339 401
#     4  10  23  44  66  94 130 179 224 283 332 399
#     4  10  22  40  66  96 129 173 207 276 329 409
#     4   9  21  43  67  92 127 173 219 265 338 404
#
# _framework density 23.036688999999999
#
# number of rings (size 3 to 8) (size 9 to 14) (size 15 to 20)
#    0.000    1.846    0.000    2.308   10.769    0.615 
#    2.769    0.000    0.000    0.000    0.000    0.000 
#    0.000    0.000    0.000    0.000    0.000    0.000 
#
# Total GULP energy -144876.567034 kJ/mol
# GULP energy per Si atom -5572.175655 kJ/mol
# Density = 2.298426 g / cm^3
# Si number density = 23.036689 Si / 1000 Ang^3
#
#
#
# Elastic Constant Matrix: (Units=GPa)
#
#
# Indices 1 2 3 4 5 6 
#
# 1 41.9632 5.9860 16.7135 0.0000 0.0000 0.0000
# 2 5.9860 94.6533 35.0644 0.0000 0.0000 0.0000
# 3 16.7135 35.0644 95.9858 0.0000 0.0000 0.0000
# 4 0.0000 0.0000 0.0000 19.1593 0.0000 0.0000
# 5 0.0000 0.0000 0.0000 0.0000 19.8214 0.0000
# 6 0.0000 0.0000 0.0000 0.0000 0.0000 27.8503
#
#
#
# Elastic Compliance Matrix: (Units=1/GPa)
#
#
# Indices 1 2 3 4 5 6 
#
# 1 0.025606 0.000037 -0.004472 0.000000 0.000000 0.000000
# 2 0.000037 0.012218 -0.004470 0.000000 0.000000 0.000000
# 3 -0.004472 -0.004470 0.012830 0.000000 0.000000 0.000000
# 4 0.000000 0.000000 0.000000 0.052194 0.000000 0.000000
# 5 0.000000 0.000000 0.000000 0.000000 0.050451 0.000000
# 6 0.000000 0.000000 0.000000 0.000000 0.000000 0.035906
#
#
# Mechanical properties :
#
#
# Convention : Reuss Voigt Hill
#
# Bulk Modulus (GPa) = 30.44626 38.68114 34.56370
# Shear Modulus (GPa) = 22.93957 25.02206 23.98082
#
# Velocity S-wave (km/s) = 3.15903 3.29930 3.22993
# Velocity P-wave (km/s) = 5.15277 5.59834 5.38017
#
# Compressibility (1/GPa) = 0.03284476
#
# Stress axis : x y z
#
# Youngs Moduli (GPa) = 39.05274 81.84360 77.94301
#
# Poissons Ratio (x) = -0.00306 0.34859
# Poissons Ratio (y) = -0.00146 0.34841
# Poissons Ratio (z) = 0.17466 0.36584
#
# Static dielectric constant tensor:
#      x y z
#    x 1.979480 0.000000 0.000000 
#    y 0.000000 1.957650 0.000000 
#    z 0.000000 0.000000 1.805850 
# 
# From -- ./inp_files/5545.got.cif
#   From: 2010.05.17/outbox.cif.g08.bks.cpg/sg18_3_cif.got.tgz:5545.got - 2010.06.03 22:40:56.
