data_PCOD9312923
_publ_section_title
;
Structure prediction by ZEFSAII (Michael W. Deem and Ramdas Pophale) SiO2 
 PCOD9312923
Probable space group: P 21 21 2
;
_chemical_formula_sum "Si O2"
_cell_formula_units_Z 28
_cell_length_a 12.617357
_cell_length_b 7.937366
_cell_length_c 12.312115
_cell_angle_alpha 90.000000
_cell_angle_beta 90.000000
_cell_angle_gamma 90.000000
_cell_volume 1233.040840
_symmetry_space_group_name_H-M "P 21 21 2"
_symmetry_group_IT_number 18
_symmetry_cell_setting 'orthorhombic'
loop_
_space_group_symop_operation_xyz
x,y,z
-x,-y,z
1/2+x,1/2-y,-z
1/2-x,1/2+y,-z
loop_
_atom_site_type_symbol
_atom_site_label
_atom_site_fract_x
_atom_site_fract_y
_atom_site_fract_z
Si Si1 0.500000 0.500000 0.694130
Si Si2 0.285891 0.360671 0.607238
Si Si3 0.214306 0.825036 0.858145
Si Si4 0.876802 0.520858 0.784055
Si Si5 0.000000 0.500000 0.269381
Si Si6 0.049724 0.234203 0.122724
Si Si7 0.778893 0.535492 0.367601
Si Si8 0.919708 0.876315 0.895203
O O1 0.410514 0.403998 0.625583
O O2 0.569455 0.400033 0.782812
O O3 0.207724 0.465419 0.686190
O O4 0.255094 0.394806 0.483182
O O5 0.266282 0.165250 0.632609
O O6 0.155841 0.642824 0.856944
O O7 0.335279 0.811671 0.894906
O O8 0.216609 0.881443 0.731601
O O9 0.170664 0.988301 0.921022
O O10 0.878580 0.704475 0.842496
O O11 0.000000 0.500000 0.748605
O O12 0.032782 0.644989 0.184023
O O13 0.903425 0.563603 0.341084
O O14 0.018149 0.174800 0.004812
O O15 0.000000 0.000000 0.828589
#
# Coordination Sequence:
#
# PCOD9312923 Si02
#       8
#     2   4   4   4   2   4   4   4
#     4  12  24  48  72 110 146 188 254 312 360 466
#     4  12  26  46  75 107 143 199 247 312 382 447
#     4  11  25  48  68 106 149 187 248 311 369 450
#     4  12  26  46  72 103 149 194 244 305 371 447
#     4  10  24  46  74 104 146 190 238 314 370 470
#     4  11  25  44  74 103 144 193 248 304 372 444
#     4  11  25  47  73 107 148 189 251 306 391 447
#     4  12  26  46  71 106 148 196 246 309 374 441
#
# _framework density 22.708088
#
# number of rings (size 3 to 8) (size 9 to 14) (size 15 to 20)
#    0.000    0.571    6.429    0.857    6.000    0.000 
#    6.429    0.000    0.000    0.000    0.000    0.000 
#    0.000    0.000    0.000    0.000    0.000    0.000 
#
# Total GULP energy -156215.983749 kJ/mol
# GULP energy per Si atom -5579.142277 kJ/mol
# Density = 2.265640 g / cm^3
# Si number density = 22.708088 Si / 1000 Ang^3
#
#
#
# Elastic Constant Matrix: (Units=GPa)
#
#
# Indices 1 2 3 4 5 6 
#
# 1 107.6450 24.9210 25.0453 0.0000 0.0000 0.0000
# 2 24.9210 125.5644 32.5623 0.0000 0.0000 0.0000
# 3 25.0453 32.5623 109.4010 0.0000 0.0000 0.0000
# 4 0.0000 0.0000 0.0000 26.1963 0.0000 0.0000
# 5 0.0000 0.0000 0.0000 0.0000 27.2834 0.0000
# 6 0.0000 0.0000 0.0000 0.0000 0.0000 43.5421
#
#
#
# Elastic Compliance Matrix: (Units=1/GPa)
#
#
# Indices 1 2 3 4 5 6 
#
# 1 0.010073 -0.001518 -0.001854 0.000000 0.000000 0.000000
# 2 -0.001518 0.008859 -0.002289 0.000000 0.000000 0.000000
# 3 -0.001854 -0.002289 0.010246 0.000000 0.000000 0.000000
# 4 0.000000 0.000000 0.000000 0.038173 0.000000 0.000000
# 5 0.000000 0.000000 0.000000 0.000000 0.036652 0.000000
# 6 0.000000 0.000000 0.000000 0.000000 0.000000 0.022966
#
#
# Mechanical properties :
#
#
# Convention : Reuss Voigt Hill
#
# Bulk Modulus (GPa) = 56.00662 56.40751 56.20707
# Shear Modulus (GPa) = 34.66322 36.74314 35.70318
#
# Velocity S-wave (km/s) = 3.91125 4.02688 3.96948
# Velocity P-wave (km/s) = 6.71673 6.82021 6.76866
#
# Compressibility (1/GPa) = 0.01785503
#
# Stress axis : x y z
#
# Youngs Moduli (GPa) = 99.27851 112.87892 97.59435
#
# Poissons Ratio (x) = 0.17139 0.18094
# Poissons Ratio (y) = 0.15074 0.22342
# Poissons Ratio (z) = 0.18406 0.25841
#
# Static dielectric constant tensor:
#      x y z
#    x 2.009400 0.000000 0.000000 
#    y 0.000000 2.041060 0.000000 
#    z 0.000000 0.000000 1.803970 
# 
# From -- ./inp_files/6062.got.cif
#   From: 2010.05.17/outbox.cif.g08.bks.cpg/sg18_4_cif.got.tgz:6062.got - 2010.06.03 22:40:56.
