data_PCOD9312598
_publ_section_title
;
Structure prediction by ZEFSAII (Michael W. Deem and Ramdas Pophale) SiO2 
 PCOD9312598
Probable space group: P 21 21 2
;
_chemical_formula_sum "Si O2"
_cell_formula_units_Z 24
_cell_length_a 14.616544
_cell_length_b 8.382445
_cell_length_c 8.449130
_cell_angle_alpha 90.000000
_cell_angle_beta 90.000000
_cell_angle_gamma 90.000000
_cell_volume 1035.207484
_symmetry_space_group_name_H-M "P 21 21 2"
_symmetry_group_IT_number 18
_symmetry_cell_setting 'orthorhombic'
loop_
_space_group_symop_operation_xyz
x,y,z
-x,-y,z
1/2+x,1/2-y,-z
1/2-x,1/2+y,-z
loop_
_atom_site_type_symbol
_atom_site_label
_atom_site_fract_x
_atom_site_fract_y
_atom_site_fract_z
Si Si1 0.126738 0.358340 0.183836
Si Si2 0.451418 0.334077 0.809787
Si Si3 0.719670 0.831422 0.318262
Si Si4 0.548582 0.665923 0.190214
Si Si5 0.280330 0.168578 0.681738
Si Si6 0.373262 0.858340 0.183836
O O1 0.193465 0.207049 0.209315
O O2 0.171150 0.501467 0.280841
O O3 0.024957 0.304382 0.227733
O O4 0.126158 0.405124 1.000000
O O5 0.500000 0.500000 0.769368
O O6 0.357671 0.300026 0.721077
O O7 0.435398 0.332189 0.000000
O O8 0.642329 0.699974 0.278923
O O9 0.747950 0.823466 0.500000
O O10 0.671150 0.998532 0.280842
O O11 0.500000 0.500000 0.230633
O O12 0.475043 0.804382 0.227734
O O13 0.193465 0.207049 0.790685
#
# Coordination Sequence:
#
# PCOD9312598 Si02
#       6
#     4   4   4   4   4   4
#     4  11  23  41  65  90 122 165 211 253 299 366
#     4  10  22  41  65  91 120 161 211 256 301 361
#     4  12  25  40  62  93 128 161 200 256 316 366
#     4  10  22  41  65  91 120 161 211 256 301 361
#     4  12  25  40  62  93 128 161 200 256 316 366
#     4  11  23  41  65  90 122 165 211 253 299 366
#
# _framework density 23.183757
#
# number of rings (size 3 to 8) (size 9 to 14) (size 15 to 20)
#    0.000    1.000    0.000    7.000    0.000   10.000 
#    0.000    0.000    0.000    0.000    0.000    0.000 
#    0.000    0.000    0.000    0.000    0.000    0.000 
#
# Total GULP energy -134493.243792 kJ/mol
# GULP energy per Si atom -5603.885158 kJ/mol
# Density = 2.313099 g / cm^3
# Si number density = 23.183757 Si / 1000 Ang^3
#
#
#
# Elastic Constant Matrix: (Units=GPa)
#
#
# Indices 1 2 3 4 5 6 
#
# 1 78.6185 -17.9001 6.6699 0.0000 0.0000 0.0000
# 2 -17.9001 70.7340 -0.7210 0.0000 0.0000 0.0000
# 3 6.6699 -0.7210 24.0822 0.0000 0.0000 0.0000
# 4 0.0000 0.0000 0.0000 60.2364 0.0000 0.0000
# 5 0.0000 0.0000 0.0000 0.0000 54.4578 0.0000
# 6 0.0000 0.0000 0.0000 0.0000 0.0000 35.1673
#
#
#
# Elastic Compliance Matrix: (Units=1/GPa)
#
#
# Indices 1 2 3 4 5 6 
#
# 1 0.013824 0.003460 -0.003725 0.000000 0.000000 0.000000
# 2 0.003460 0.015008 -0.000509 0.000000 0.000000 0.000000
# 3 -0.003725 -0.000509 0.042541 0.000000 0.000000 0.000000
# 4 0.000000 0.000000 0.000000 0.016601 0.000000 0.000000
# 5 0.000000 0.000000 0.000000 0.000000 0.018363 0.000000
# 6 0.000000 0.000000 0.000000 0.000000 0.000000 0.028436
#
#
# Mechanical properties :
#
#
# Convention : Reuss Voigt Hill
#
# Bulk Modulus (GPa) = 14.32158 16.61471 15.46815
# Shear Modulus (GPa) = 31.32938 42.33135 36.83037
#
# Velocity S-wave (km/s) = 3.68006 4.27770 3.99008
# Velocity P-wave (km/s) = 4.92422 5.61964 5.28338
#
# Compressibility (1/GPa) = 0.06982469
#
# Stress axis : x y z
#
# Youngs Moduli (GPa) = 72.34048 66.63143 23.50677
#
# Poissons Ratio (x) = -0.23056 0.08756
# Poissons Ratio (y) = -0.25032 0.01197
# Poissons Ratio (z) = 0.26947 0.03392
#
# Static dielectric constant tensor:
#      x y z
#    x 1.823860 0.000000 0.000000 
#    y 0.000000 1.942150 0.000000 
#    z 0.000000 0.000000 1.776500 
# 
# From -- ./inp_files/4168.got.cif
#   From: 2010.05.17/outbox.cif.g08.bks.cpg/sg18_3_cif.got.tgz:4168.got - 2010.06.03 22:40:56.
