data_PCOD9312373
_publ_section_title
;
Structure prediction by ZEFSAII (Michael W. Deem and Ramdas Pophale) SiO2 
 PCOD9312373
Probable space group: P 21 21 2
;
_chemical_formula_sum "Si O2"
_cell_formula_units_Z 20
_cell_length_a 9.065682
_cell_length_b 12.155003
_cell_length_c 7.582848
_cell_angle_alpha 90.000000
_cell_angle_beta 90.000000
_cell_angle_gamma 90.000000
_cell_volume 835.579741
_symmetry_space_group_name_H-M "P 21 21 2"
_symmetry_group_IT_number 18
_symmetry_cell_setting 'orthorhombic'
loop_
_space_group_symop_operation_xyz
x,y,z
-x,-y,z
1/2+x,1/2-y,-z
1/2-x,1/2+y,-z
loop_
_atom_site_type_symbol
_atom_site_label
_atom_site_fract_x
_atom_site_fract_y
_atom_site_fract_z
Si Si1 0.165203 0.249435 0.875221
Si Si2 0.132128 0.570050 0.280410
Si Si3 0.662966 0.615554 0.387545
Si Si4 0.067181 0.886031 0.016024
Si Si5 0.936184 0.744645 0.480251
O O1 0.261945 0.138354 0.847182
O O2 0.089642 0.274233 0.688392
O O3 0.048095 0.215922 0.024947
O O4 0.276522 0.347791 0.911861
O O5 0.233093 0.490872 0.401847
O O6 0.000000 0.500000 0.192116
O O7 0.046435 0.656674 0.399200
O O8 0.595155 0.602384 0.193736
O O9 0.776931 0.719169 0.395761
O O10 0.529267 0.641442 0.521455
O O11 0.000000 0.000000 0.082459
#
# Coordination Sequence:
#
# PCOD9312373 Si02
#       5
#     4   4   4   4   4
#     4  11  24  43  68  99 139 172 230 280 332 404
#     4  10  21  40  71  93 128 178 223 273 339 398
#     4  10  21  41  69  95 133 171 228 265 348 407
#     4  11  25  44  68 102 135 188 221 276 346 409
#     4  10  21  40  67  97 128 170 223 282 327 395
#
# _framework density 23.935476000000001
#
# number of rings (size 3 to 8) (size 9 to 14) (size 15 to 20)
#    0.000    1.600    4.000    0.000    5.600    0.000 
#    0.000   17.000    0.000    0.000    0.000    0.000 
#    0.000    0.000    0.000    0.000    0.000    0.000 
#
# Total GULP energy -111694.714485 kJ/mol
# GULP energy per Si atom -5584.735724 kJ/mol
# Density = 2.388100 g / cm^3
# Si number density = 23.935476 Si / 1000 Ang^3
#
#
#
# Elastic Constant Matrix: (Units=GPa)
#
#
# Indices 1 2 3 4 5 6 
#
# 1 111.5143 29.3826 10.3558 0.0000 0.0000 0.0000
# 2 29.3826 59.7895 13.3559 0.0000 0.0000 0.0000
# 3 10.3558 13.3559 22.4843 0.0000 0.0000 0.0000
# 4 0.0000 0.0000 0.0000 17.4275 0.0000 0.0000
# 5 0.0000 0.0000 0.0000 0.0000 29.6419 0.0000
# 6 0.0000 0.0000 0.0000 0.0000 0.0000 64.7183
#
#
#
# Elastic Compliance Matrix: (Units=1/GPa)
#
#
# Indices 1 2 3 4 5 6 
#
# 1 0.010380 -0.004650 -0.002019 0.000000 0.000000 0.000000
# 2 -0.004650 0.021367 -0.010551 0.000000 0.000000 0.000000
# 3 -0.002019 -0.010551 0.051672 0.000000 0.000000 0.000000
# 4 0.000000 0.000000 0.000000 0.057381 0.000000 0.000000
# 5 0.000000 0.000000 0.000000 0.000000 0.033736 0.000000
# 6 0.000000 0.000000 0.000000 0.000000 0.000000 0.015452
#
#
# Mechanical properties :
#
#
# Convention : Reuss Voigt Hill
#
# Bulk Modulus (GPa) = 20.41607 33.33075 26.87341
# Shear Modulus (GPa) = 20.76803 31.73711 26.25257
#
# Velocity S-wave (km/s) = 2.94881 3.64530 3.31540
# Velocity P-wave (km/s) = 4.48800 5.62789 5.08995
#
# Compressibility (1/GPa) = 0.04898102
#
# Stress axis : x y z
#
# Youngs Moduli (GPa) = 96.33721 46.80009 19.35265
#
# Poissons Ratio (x) = 0.21763 0.03907
# Poissons Ratio (y) = 0.44799 0.20418
# Poissons Ratio (z) = 0.19447 0.49377
#
# Static dielectric constant tensor:
#      x y z
#    x 1.999600 0.000000 0.000000 
#    y 0.000000 1.988700 0.000000 
#    z 0.000000 0.000000 1.894040 
# 
# From -- ./inp_files/2974.got.cif
#   From: 2010.05.17/outbox.cif.g08.bks.cpg/sg18_2_cif.got.tgz:2974.got - 2010.06.03 22:40:56.
