data_PCOD9312225
_publ_section_title
;
Structure prediction by ZEFSAII (Michael W. Deem and Ramdas Pophale) SiO2 
 PCOD9312225
Probable space group: P 21 21 2
;
_chemical_formula_sum "Si O2"
_cell_formula_units_Z 28
_cell_length_a 5.934111
_cell_length_b 11.655823
_cell_length_c 19.118208
_cell_angle_alpha 90.000000
_cell_angle_beta 90.000000
_cell_angle_gamma 90.000000
_cell_volume 1322.348089
_symmetry_space_group_name_H-M "P 21 21 2"
_symmetry_group_IT_number 18
_symmetry_cell_setting 'orthorhombic'
loop_
_space_group_symop_operation_xyz
x,y,z
-x,-y,z
1/2+x,1/2-y,-z
1/2-x,1/2+y,-z
loop_
_atom_site_type_symbol
_atom_site_label
_atom_site_fract_x
_atom_site_fract_y
_atom_site_fract_z
Si Si1 0.683470 0.810377 0.505836
Si Si2 0.812017 0.805810 0.890910
Si Si3 0.000000 0.500000 0.070482
Si Si4 0.811977 0.337306 0.645052
Si Si5 0.000000 0.000000 0.263249
Si Si6 0.516124 0.867231 0.656614
Si Si7 0.875335 0.116344 0.016831
Si Si8 0.799177 0.700826 0.752078
O O1 0.443505 0.738690 0.496817
O O2 0.672152 0.882040 0.434075
O O3 0.651371 0.862368 0.582821
O O4 0.667633 0.922121 0.884260
O O5 0.914099 0.760010 0.818793
O O6 0.987056 0.830509 0.952292
O O7 0.652920 0.706436 0.921730
O O8 0.859581 0.580266 0.018132
O O9 0.642039 0.416526 0.687285
O O10 0.712468 0.206789 0.643317
O O11 0.038558 0.336361 0.689381
O O12 0.165357 0.913002 0.223854
O O13 0.638587 0.795962 0.717417
O O14 0.500000 0.000000 0.675701
O O15 0.000000 0.000000 0.039319
#
# Coordination Sequence:
#
# PCOD9312225 Si02
#       8
#     4   4   2   4   2   4   4   4
#     4  10  20  42  70  95 138 183 234 290 344 412
#     4  11  23  42  69  94 132 170 216 274 334 400
#     4  10  22  44  64  94 132 166 222 262 328 400
#     4  10  22  45  65  94 135 171 230 277 345 406
#     4  10  24  44  66  96 130 174 220 282 344 404
#     4  10  23  42  63  98 132 179 223 275 336 408
#     4  10  22  42  66  98 125 171 216 264 328 400
#     4  11  24  43  64  97 133 171 222 277 337 407
#
# _framework density 21.174454999999998
#
# number of rings (size 3 to 8) (size 9 to 14) (size 15 to 20)
#    0.000    1.714    2.857    0.429    2.000    4.000 
#   12.857    0.000    0.000    0.000    0.000    0.000 
#    0.000    0.000    0.000    0.000    0.000    0.000 
#
# Total GULP energy -156084.823671 kJ/mol
# GULP energy per Si atom -5574.457988 kJ/mol
# Density = 2.112626 g / cm^3
# Si number density = 21.174455 Si / 1000 Ang^3
#
#
#
# Elastic Constant Matrix: (Units=GPa)
#
#
# Indices 1 2 3 4 5 6 
#
# 1 48.6958 10.3831 -12.9932 0.0000 0.0000 0.0000
# 2 10.3831 102.1922 5.9673 0.0000 0.0000 0.0000
# 3 -12.9932 5.9673 57.5486 0.0000 0.0000 0.0000
# 4 0.0000 0.0000 0.0000 47.4094 0.0000 0.0000
# 5 0.0000 0.0000 0.0000 0.0000 12.1828 0.0000
# 6 0.0000 0.0000 0.0000 0.0000 0.0000 15.5332
#
#
#
# Elastic Compliance Matrix: (Units=1/GPa)
#
#
# Indices 1 2 3 4 5 6 
#
# 1 0.022519 -0.002601 0.005354 0.000000 0.000000 0.000000
# 2 -0.002601 0.010145 -0.001639 0.000000 0.000000 0.000000
# 3 0.005354 -0.001639 0.018755 0.000000 0.000000 0.000000
# 4 0.000000 0.000000 0.000000 0.021093 0.000000 0.000000
# 5 0.000000 0.000000 0.000000 0.000000 0.082083 0.000000
# 6 0.000000 0.000000 0.000000 0.000000 0.000000 0.064378
#
#
# Mechanical properties :
#
#
# Convention : Reuss Voigt Hill
#
# Bulk Modulus (GPa) = 18.64009 23.90565 21.27287
# Shear Modulus (GPa) = 21.31031 28.69703 25.00367
#
# Velocity S-wave (km/s) = 3.17585 3.68539 3.44007
# Velocity P-wave (km/s) = 4.71913 5.42437 5.08400
#
# Compressibility (1/GPa) = 0.05364780
#
# Stress axis : x y z
#
# Youngs Moduli (GPa) = 44.40746 98.56652 53.31807
#
# Poissons Ratio (x) = 0.25633 -0.28546
# Poissons Ratio (y) = 0.11549 0.08740
# Poissons Ratio (z) = -0.23775 0.16157
#
# Static dielectric constant tensor:
#      x y z
#    x 1.833800 0.000000 0.000000 
#    y 0.000000 1.781540 0.000000 
#    z 0.000000 0.000000 1.728490 
# 
# From -- ./inp_files/7498.got.cif
#   From: 2010.05.17/outbox.cif.g08.bks.cpg/sg18_4_cif.got.tgz:7498.got - 2010.06.03 22:40:56.
