data_PCOD9312995
_publ_section_title
;
Structure prediction by ZEFSAII (Michael W. Deem and Ramdas Pophale) SiO2 
 PCOD9312995
Probable space group: P 21 21 2
;
_chemical_formula_sum "Si O2"
_cell_formula_units_Z 30
_cell_length_a 19.853847
_cell_length_b 11.619014
_cell_length_c 5.588796
_cell_angle_alpha 90.000000
_cell_angle_beta 90.000000
_cell_angle_gamma 90.000000
_cell_volume 1289.235344
_symmetry_space_group_name_H-M "P 21 21 2"
_symmetry_group_IT_number 18
_symmetry_cell_setting 'orthorhombic'
loop_
_space_group_symop_operation_xyz
x,y,z
-x,-y,z
1/2+x,1/2-y,-z
1/2-x,1/2+y,-z
loop_
_atom_site_type_symbol
_atom_site_label
_atom_site_fract_x
_atom_site_fract_y
_atom_site_fract_z
Si Si1 0.462570 0.808496 0.583053
Si Si2 0.667914 0.853243 0.124487
Si Si3 0.350975 0.932848 0.806800
Si Si4 0.528729 0.753813 0.074436
Si Si5 0.620772 0.411591 0.475138
Si Si6 0.752701 0.521706 0.568095
Si Si7 0.500000 0.500000 0.187825
Si Si8 0.704399 0.244857 0.135612
O O1 0.407666 0.910310 0.608973
O O2 0.494208 0.806270 0.316115
O O3 0.422401 0.687557 0.599157
O O4 0.509963 0.812063 0.818992
O O5 0.607816 0.763181 0.136582
O O6 0.698345 0.916081 0.357262
O O7 0.732569 0.799279 0.997785
O O8 0.637087 0.958159 0.970691
O O9 0.276049 0.949209 0.699700
O O10 0.348136 0.816586 0.959783
O O11 0.505938 0.620772 0.052790
O O12 0.676580 0.483682 0.616165
O O13 0.566694 0.492429 0.349520
O O14 0.666496 0.340872 0.286954
O O15 0.769492 0.638098 0.707366
#
# Coordination Sequence:
#
# PCOD9312995 Si02
#       8
#     4   4   4   4   4   4   2   4
#     4  11  25  48  72 100 149 195 235 301 363 438
#     4  11  27  43  70 111 141 186 246 308 359 433
#     4  11  23  45  68 103 136 189 240 289 373 425
#     4  11  28  48  73 106 146 194 244 301 364 443
#     4  11  23  46  72 107 143 192 244 301 368 441
#     4  11  25  42  74 105 139 191 245 299 369 431
#     4  10  26  44  76 104 146 192 246 294 374 448
#     4  11  24  43  70 104 146 185 238 314 362 432
#
# _framework density 23.269606
#
# number of rings (size 3 to 8) (size 9 to 14) (size 15 to 20)
#    0.000    1.067    2.667    2.400    5.600    5.867 
#    0.000    0.000    0.000    0.000    0.000    0.000 
#    0.000    0.000    0.000    0.000    0.000    0.000 
#
# Total GULP energy -167705.278360 kJ/mol
# GULP energy per Si atom -5590.175945 kJ/mol
# Density = 2.321664 g / cm^3
# Si number density = 23.269606 Si / 1000 Ang^3
#
#
#
# Elastic Constant Matrix: (Units=GPa)
#
#
# Indices 1 2 3 4 5 6 
#
# 1 98.8236 14.5819 18.7568 0.0000 0.0000 0.0000
# 2 14.5819 29.6214 17.6486 0.0000 0.0000 0.0000
# 3 18.7568 17.6486 69.5688 0.0000 0.0000 0.0000
# 4 0.0000 0.0000 0.0000 22.8463 0.0000 0.0000
# 5 0.0000 0.0000 0.0000 0.0000 -49.3345 0.0000
# 6 0.0000 0.0000 0.0000 0.0000 0.0000 40.6650
#
#
#
# Elastic Compliance Matrix: (Units=1/GPa)
#
#
# Indices 1 2 3 4 5 6 
#
# 1 0.011120 -0.004344 -0.001896 0.000000 0.000000 0.000000
# 2 -0.004344 0.041468 -0.009348 0.000000 0.000000 0.000000
# 3 -0.001896 -0.009348 0.017257 0.000000 0.000000 0.000000
# 4 0.000000 0.000000 0.000000 0.043771 0.000000 0.000000
# 5 0.000000 0.000000 0.000000 0.000000 -0.020270 0.000000
# 6 0.000000 0.000000 0.000000 0.000000 0.000000 0.024591
#
#
# Mechanical properties :
#
#
# Convention : Reuss Voigt Hill
#
# Bulk Modulus (GPa) = 25.86181 33.33204 29.59693
# Shear Modulus (GPa) = 30.86348 12.63712 21.75030
#
# Velocity S-wave (km/s) = 3.64585 2.33292 3.06062
# Velocity P-wave (km/s) = 5.37225 4.64888 5.02360
#
# Compressibility (1/GPa) = 0.03866705
#
# Stress axis : x y z
#
# Youngs Moduli (GPa) = 89.92847 24.11507 57.94745
#
# Poissons Ratio (x) = 0.10477 0.10987
# Poissons Ratio (y) = 0.39069 0.54172
# Poissons Ratio (z) = 0.17050 0.22544
#
# Static dielectric constant tensor:
#      x y z
#    x 1.884610 0.000000 0.000000 
#    y 0.000000 2.035380 0.000000 
#    z 0.000000 0.000000 1.957630 
# 
# From -- ./inp_files/2000.got.cif
#   From: 2010.05.17/outbox.cif.g08.bks.cpg/sg18_1_cif.got.tgz:2000.got - 2010.06.03 22:40:56.
