data_PCOD9312211
_publ_section_title
;
Structure prediction by ZEFSAII (Michael W. Deem and Ramdas Pophale) SiO2 
 PCOD9312211
Probable space group: P 21 21 2
;
_chemical_formula_sum "Si O2"
_cell_formula_units_Z 16
_cell_length_a 17.599928
_cell_length_b 5.277284
_cell_length_c 7.551488
_cell_angle_alpha 90.000000
_cell_angle_beta 90.000000
_cell_angle_gamma 90.000000
_cell_volume 701.380834
_symmetry_space_group_name_H-M "P 21 21 2"
_symmetry_group_IT_number 18
_symmetry_cell_setting 'orthorhombic'
loop_
_space_group_symop_operation_xyz
x,y,z
-x,-y,z
1/2+x,1/2-y,-z
1/2-x,1/2+y,-z
loop_
_atom_site_type_symbol
_atom_site_label
_atom_site_fract_x
_atom_site_fract_y
_atom_site_fract_z
Si Si1 0.953562 0.741772 0.362146
Si Si2 0.223214 0.672198 0.809210
Si Si3 0.832541 0.821014 0.651707
Si Si4 0.375811 0.838444 0.998387
O O1 0.875619 0.779233 0.469785
O O2 0.000000 0.500000 0.433370
O O3 0.934601 0.684994 0.157662
O O4 0.000000 0.000000 0.378655
O O5 0.153132 0.618806 0.945467
O O6 0.293666 0.411280 0.313402
O O7 0.298481 0.710930 0.922797
O O8 0.776763 0.586448 0.695835
O O9 0.893801 0.789486 0.813476
#
# Coordination Sequence:
#
# PCOD9312211 Si02
#       4
#     4   4   4   4
#     4  12  29  43  63  96 135 184 229 256 318 405
#     4  10  20  41  71  99 125 161 214 275 355 370
#     4  10  22  42  64  96 131 167 210 279 322 397
#     4  10  23  42  72  97 131 164 219 278 333 388
#
# _framework density 22.812144
#
# number of rings (size 3 to 8) (size 9 to 14) (size 15 to 20)
#    1.500    0.000    2.500    1.500    3.500    4.000 
#    0.000    0.000    0.000    0.000    0.000    0.000 
#    0.000    0.000    0.000    0.000    0.000    0.000 
#
# Total GULP energy -89321.958011 kJ/mol
# GULP energy per Si atom -5582.622376 kJ/mol
# Density = 2.276022 g / cm^3
# Si number density = 22.812144 Si / 1000 Ang^3
#
#
#
# Elastic Constant Matrix: (Units=GPa)
#
#
# Indices 1 2 3 4 5 6 
#
# 1 27.9447 27.0297 2.7468 0.0000 0.0000 0.0000
# 2 27.0297 175.9705 14.7692 0.0000 0.0000 0.0000
# 3 2.7468 14.7692 106.3106 0.0000 0.0000 0.0000
# 4 0.0000 0.0000 0.0000 -14.5697 0.0000 0.0000
# 5 0.0000 0.0000 0.0000 0.0000 15.3545 0.0000
# 6 0.0000 0.0000 0.0000 0.0000 0.0000 34.0106
#
#
#
# Elastic Compliance Matrix: (Units=1/GPa)
#
#
# Indices 1 2 3 4 5 6 
#
# 1 0.042033 -0.006440 -0.000191 0.000000 0.000000 0.000000
# 2 -0.006440 0.006737 -0.000769 0.000000 0.000000 0.000000
# 3 -0.000191 -0.000769 0.009518 0.000000 0.000000 0.000000
# 4 0.000000 0.000000 0.000000 -0.068636 0.000000 0.000000
# 5 0.000000 0.000000 0.000000 0.000000 0.065127 0.000000
# 6 0.000000 0.000000 0.000000 0.000000 0.000000 0.029403
#
#
# Mechanical properties :
#
#
# Convention : Reuss Voigt Hill
#
# Bulk Modulus (GPa) = 22.99601 44.36860 33.68230
# Shear Modulus (GPa) = 44.06055 24.67109 34.36582
#
# Velocity S-wave (km/s) = 4.39960 3.29217 3.88554
# Velocity P-wave (km/s) = 5.99259 5.82606 5.90991
#
# Compressibility (1/GPa) = 0.04348580
#
# Stress axis : x y z
#
# Youngs Moduli (GPa) = 23.79065 148.44224 105.06144
#
# Poissons Ratio (x) = 0.95603 0.02010
# Poissons Ratio (y) = 0.15322 0.08084
# Poissons Ratio (z) = 0.00455 0.11422
#
# Static dielectric constant tensor:
#      x y z
#    x 1.895570 0.000000 0.000000 
#    y 0.000000 1.846740 0.000000 
#    z 0.000000 0.000000 1.894370 
# 
# From -- ./inp_files/4389.got.cif
#   From: 2010.05.17/outbox.cif.g08.bks.cpg/sg18_3_cif.got.tgz:4389.got - 2010.06.03 22:40:56.
