data_PCOD9312307
_publ_section_title
;
Structure prediction by ZEFSAII (Michael W. Deem and Ramdas Pophale) SiO2 
 PCOD9312307
Probable space group: P 21 21 2
;
_chemical_formula_sum "Si O2"
_cell_formula_units_Z 28
_cell_length_a 8.945709
_cell_length_b 9.012535
_cell_length_c 18.918745
_cell_angle_alpha 90.000000
_cell_angle_beta 90.000000
_cell_angle_gamma 90.000000
_cell_volume 1525.295730
_symmetry_space_group_name_H-M "P 21 21 2"
_symmetry_group_IT_number 18
_symmetry_cell_setting 'orthorhombic'
loop_
_space_group_symop_operation_xyz
x,y,z
-x,-y,z
1/2+x,1/2-y,-z
1/2-x,1/2+y,-z
loop_
_atom_site_type_symbol
_atom_site_label
_atom_site_fract_x
_atom_site_fract_y
_atom_site_fract_z
Si Si1 0.934099 0.662440 0.929342
Si Si2 0.754900 0.510977 0.402374
Si Si3 0.504403 0.723718 0.378281
Si Si4 0.000000 0.500000 0.522134
Si Si5 0.080011 0.846679 0.052464
Si Si6 0.564586 0.668677 0.781939
Si Si7 0.500000 0.000000 0.717339
Si Si8 0.575904 0.163141 0.227502
O O1 0.759182 0.651357 0.947473
O O2 0.952927 0.731620 0.850654
O O3 0.000000 0.500000 0.921726
O O4 0.020655 0.736056 0.993570
O O5 0.667316 0.665703 0.400193
O O6 0.624161 0.391681 0.397954
O O7 0.858701 0.486131 0.469995
O O8 0.856221 0.501448 0.333097
O O9 0.473999 0.865484 0.425293
O O10 0.491205 0.751398 0.294469
O O11 0.037533 0.816534 0.133867
O O12 0.000000 0.000000 0.033837
O O13 0.500000 0.500000 0.761943
O O14 0.508241 0.832175 0.753044
O O15 0.743085 0.656716 0.766404
O O16 0.500000 0.000000 0.229838
#
# Coordination Sequence:
#
# PCOD9312307 Si02
#       8
#     4   4   4   2   4   4   2   4
#     4  10  21  38  61  86 122 162 211 267 316 380
#     4  10  24  40  60  95 127 156 207 266 304 384
#     4  11  21  41  63  89 127 161 205 256 318 373
#     4  11  22  40  68  87 122 166 204 249 322 386
#     4  10  21  40  58  89 124 164 214 262 316 385
#     4  10  23  40  64  93 130 174 217 265 329 386
#     4  11  22  42  62  93 136 162 216 271 320 382
#     4  10  21  40  63  92 123 167 217 264 319 391
#
# _framework density 18.357095999999999
#
# number of rings (size 3 to 8) (size 9 to 14) (size 15 to 20)
#    0.000    1.714    2.143    1.714    3.000    1.143 
#    2.571    0.000    0.000    0.000    0.000    0.000 
#    0.000    0.000    0.000    0.000    0.000    0.000 
#
# Total GULP energy -155885.987962 kJ/mol
# GULP energy per Si atom -5567.356713 kJ/mol
# Density = 1.831531 g / cm^3
# Si number density = 18.357096 Si / 1000 Ang^3
#
#
#
# Elastic Constant Matrix: (Units=GPa)
#
#
# Indices 1 2 3 4 5 6 
#
# 1 75.1017 24.4762 35.2116 0.0000 0.0000 0.0000
# 2 24.4762 86.4575 41.6434 0.0000 0.0000 0.0000
# 3 35.2116 41.6434 92.6727 0.0000 0.0000 0.0000
# 4 0.0000 0.0000 0.0000 50.9745 0.0000 0.0000
# 5 0.0000 0.0000 0.0000 0.0000 10.4936 0.0000
# 6 0.0000 0.0000 0.0000 0.0000 0.0000 25.8947
#
#
#
# Elastic Compliance Matrix: (Units=1/GPa)
#
#
# Indices 1 2 3 4 5 6 
#
# 1 0.016497 -0.002107 -0.005321 0.000000 0.000000 0.000000
# 2 -0.002107 0.015030 -0.005953 0.000000 0.000000 0.000000
# 3 -0.005321 -0.005953 0.015488 0.000000 0.000000 0.000000
# 4 0.000000 0.000000 0.000000 0.019618 0.000000 0.000000
# 5 0.000000 0.000000 0.000000 0.000000 0.095296 0.000000
# 6 0.000000 0.000000 0.000000 0.000000 0.000000 0.038618
#
#
# Mechanical properties :
#
#
# Convention : Reuss Voigt Hill
#
# Bulk Modulus (GPa) = 49.37944 50.76603 50.07273
# Shear Modulus (GPa) = 21.36196 27.66595 24.51395
#
# Velocity S-wave (km/s) = 3.41499 3.88635 3.65827
# Velocity P-wave (km/s) = 6.51976 6.91759 6.72162
#
# Compressibility (1/GPa) = 0.02025134
#
# Stress axis : x y z
#
# Youngs Moduli (GPa) = 60.61749 66.53143 64.56727
#
# Poissons Ratio (x) = 0.14020 0.34357
# Poissons Ratio (y) = 0.12774 0.38440
# Poissons Ratio (z) = 0.32256 0.39609
#
# Static dielectric constant tensor:
#      x y z
#    x 1.621420 0.000000 0.000000 
#    y 0.000000 1.539280 0.000000 
#    z 0.000000 0.000000 1.626280 
# 
# From -- ./inp_files/7539.got.cif
#   From: 2010.05.17/outbox.cif.g08.bks.cpg/sg18_4_cif.got.tgz:7539.got - 2010.06.03 22:40:56.
