data_PCOD9312380
_publ_section_title
;
Structure prediction by ZEFSAII (Michael W. Deem and Ramdas Pophale) SiO2 
 PCOD9312380
Probable space group: P 21 21 2
;
_chemical_formula_sum "Si O2"
_cell_formula_units_Z 32
_cell_length_a 26.269119
_cell_length_b 10.294020
_cell_length_c 5.765290
_cell_angle_alpha 90.000000
_cell_angle_beta 90.000000
_cell_angle_gamma 90.000000
_cell_volume 1559.019952
_symmetry_space_group_name_H-M "P 21 21 2"
_symmetry_group_IT_number 18
_symmetry_cell_setting 'orthorhombic'
loop_
_space_group_symop_operation_xyz
x,y,z
-x,-y,z
1/2+x,1/2-y,-z
1/2-x,1/2+y,-z
loop_
_atom_site_type_symbol
_atom_site_label
_atom_site_fract_x
_atom_site_fract_y
_atom_site_fract_z
Si Si1 0.137030 0.696136 0.714471
Si Si2 0.134715 0.921581 0.083244
Si Si3 0.891974 0.788999 0.058310
Si Si4 0.941010 0.845658 0.565756
Si Si5 0.940064 0.137904 0.461046
Si Si6 0.832738 0.525530 0.999924
Si Si7 0.758565 0.116304 0.313250
Si Si8 0.275973 0.110209 0.605470
O O1 0.092937 0.739702 0.541901
O O2 0.191854 0.673017 0.602300
O O3 0.141068 0.819152 0.880900
O O4 0.128969 0.559153 0.842210
O O5 0.079813 0.893003 0.201830
O O6 0.182178 0.891204 0.251159
O O7 0.137339 0.074023 0.030901
O O8 0.916216 0.797639 0.320300
O O9 0.857323 0.661751 0.063104
O O10 0.925494 0.784396 0.816573
O O11 0.001145 0.836838 0.511969
O O12 0.928112 0.999990 0.586125
O O13 0.818030 0.431612 0.209418
O O14 0.778960 0.554048 0.875515
O O15 0.742077 0.267269 0.324209
O O16 0.750812 0.023028 0.533711
#
# Coordination Sequence:
#
# PCOD9312380 Si02
#       8
#     4   4   4   4   4   4   4   4
#     4  11  21  43  68  91 131 175 224 279 347 408
#     4  11  23  41  70 102 132 177 228 286 343 414
#     4  11  26  44  69 104 141 181 228 289 353 404
#     4  10  24  42  72 108 135 177 231 294 347 415
#     4  10  21  40  73 102 135 170 229 290 348 410
#     4  11  27  42  66  94 141 180 227 287 344 419
#     4  11  26  40  66  97 132 179 234 279 347 414
#     4  11  26  43  63  96 132 178 228 285 342 416
#
# _framework density 20.525715000000002
#
# number of rings (size 3 to 8) (size 9 to 14) (size 15 to 20)
#    0.000    1.250    3.750    0.000   10.500    2.000 
#    0.000    0.625    0.000    0.000    0.000    0.000 
#    0.000    0.000    0.000    0.000    0.000    0.000 
#
# Total GULP energy -178312.215500 kJ/mol
# GULP energy per Si atom -5572.256734 kJ/mol
# Density = 2.047900 g / cm^3
# Si number density = 20.525715 Si / 1000 Ang^3
#
#
#
# Elastic Constant Matrix: (Units=GPa)
#
#
# Indices 1 2 3 4 5 6 
#
# 1 43.7516 25.3394 14.5657 0.0000 0.0000 0.0000
# 2 25.3394 128.7844 32.7763 0.0000 0.0000 0.0000
# 3 14.5657 32.7763 64.2658 0.0000 0.0000 0.0000
# 4 0.0000 0.0000 0.0000 35.8474 0.0000 0.0000
# 5 0.0000 0.0000 0.0000 0.0000 15.1596 0.0000
# 6 0.0000 0.0000 0.0000 0.0000 0.0000 27.7342
#
#
#
# Elastic Compliance Matrix: (Units=1/GPa)
#
#
# Indices 1 2 3 4 5 6 
#
# 1 0.026604 -0.004252 -0.003861 0.000000 0.000000 0.000000
# 2 -0.004252 0.009603 -0.003934 0.000000 0.000000 0.000000
# 3 -0.003861 -0.003934 0.018442 0.000000 0.000000 0.000000
# 4 0.000000 0.000000 0.000000 0.027896 0.000000 0.000000
# 5 0.000000 0.000000 0.000000 0.000000 0.065965 0.000000
# 6 0.000000 0.000000 0.000000 0.000000 0.000000 0.036057
#
#
# Mechanical properties :
#
#
# Convention : Reuss Voigt Hill
#
# Bulk Modulus (GPa) = 32.72803 42.46275 37.59539
# Shear Modulus (GPa) = 22.84721 26.68960 24.76840
#
# Velocity S-wave (km/s) = 3.33994 3.60988 3.47753
# Velocity P-wave (km/s) = 5.55456 6.17313 5.87199
#
# Compressibility (1/GPa) = 0.03055485
#
# Stress axis : x y z
#
# Youngs Moduli (GPa) = 37.58778 104.13755 54.22464
#
# Poissons Ratio (x) = 0.44278 0.20938
# Poissons Ratio (y) = 0.15982 0.21331
# Poissons Ratio (z) = 0.14514 0.40966
#
# Static dielectric constant tensor:
#      x y z
#    x 1.718930 0.000000 0.000000 
#    y 0.000000 1.743210 0.000000 
#    z 0.000000 0.000000 1.845810 
# 
# From -- ./inp_files/2305.got.cif
#   From: 2010.05.17/outbox.cif.g08.bks.cpg/sg18_2_cif.got.tgz:2305.got - 2010.06.03 22:40:56.
