data_PCOD9312209
_publ_section_title
;
Structure prediction by ZEFSAII (Michael W. Deem and Ramdas Pophale) SiO2 
 PCOD9312209
Probable space group: P 21 21 2
;
_chemical_formula_sum "Si O2"
_cell_formula_units_Z 30
_cell_length_a 20.154008
_cell_length_b 10.694068
_cell_length_c 5.238883
_cell_angle_alpha 90.000000
_cell_angle_beta 90.000000
_cell_angle_gamma 90.000000
_cell_volume 1129.127715
_symmetry_space_group_name_H-M "P 21 21 2"
_symmetry_group_IT_number 18
_symmetry_cell_setting 'orthorhombic'
loop_
_space_group_symop_operation_xyz
x,y,z
-x,-y,z
1/2+x,1/2-y,-z
1/2-x,1/2+y,-z
loop_
_atom_site_type_symbol
_atom_site_label
_atom_site_fract_x
_atom_site_fract_y
_atom_site_fract_z
Si Si1 0.000000 0.500000 0.040706
Si Si2 0.688946 0.248369 0.145802
Si Si3 0.242353 0.027846 0.487383
Si Si4 0.359277 0.960301 0.825937
Si Si5 0.456331 0.245706 0.239137
Si Si6 0.926456 0.916765 0.955123
Si Si7 0.098132 0.925605 0.441446
Si Si8 0.683163 0.802836 0.071917
O O1 0.970867 0.394716 0.849153
O O2 0.938434 0.549658 0.214376
O O3 0.709848 0.351110 0.361570
O O4 0.651306 0.117210 0.090600
O O5 0.639258 0.336234 0.986799
O O6 0.759461 0.216321 0.026707
O O7 0.178866 0.938769 0.427752
O O8 0.281266 0.101609 0.265734
O O9 0.299290 0.938188 0.622359
O O10 0.344963 0.106994 0.855395
O O11 0.444706 0.296750 0.526721
O O12 0.380003 0.271163 0.161665
O O13 0.514120 0.322747 0.104750
O O14 0.929409 0.007223 0.192565
O O15 0.919647 0.991876 0.690516
#
# Coordination Sequence:
#
# PCOD9312209 Si02
#       8
#     2   4   4   4   4   4   4   4
#     4  10  22  46  70 106 162 216 258 328 420 510
#     4  10  20  41  70  98 145 199 257 332 394 481
#     4  10  22  42  68 109 139 202 272 331 411 472
#     4  10  21  40  69  98 146 201 259 326 400 498
#     4  11  24  45  76 113 161 209 270 340 411 507
#     4  11  24  48  75 111 151 211 262 329 407 471
#     4  11  25  47  79 111 155 200 275 336 399 478
#     4  10  22  43  65 107 148 192 269 329 408 485
#
# _framework density 26.569184
#
# number of rings (size 3 to 8) (size 9 to 14) (size 15 to 20)
#    0.000    1.600    2.667    1.200    0.000    4.267 
#   14.400    2.667    0.000    0.000    0.000    0.000 
#    0.000    0.000    0.000    0.000    0.000    0.000 
#
# Total GULP energy -167148.250427 kJ/mol
# GULP energy per Si atom -5571.608348 kJ/mol
# Density = 2.650871 g / cm^3
# Si number density = 26.569184 Si / 1000 Ang^3
#
#
#
# Elastic Constant Matrix: (Units=GPa)
#
#
# Indices 1 2 3 4 5 6 
#
# 1 207.8457 39.3564 33.7457 0.0000 0.0000 0.0000
# 2 39.3564 63.3507 15.6195 0.0000 0.0000 0.0000
# 3 33.7457 15.6195 76.7798 0.0000 0.0000 0.0000
# 4 0.0000 0.0000 0.0000 33.5142 0.0000 0.0000
# 5 0.0000 0.0000 0.0000 0.0000 26.7702 0.0000
# 6 0.0000 0.0000 0.0000 0.0000 0.0000 61.1162
#
#
#
# Elastic Compliance Matrix: (Units=1/GPa)
#
#
# Indices 1 2 3 4 5 6 
#
# 1 0.005699 -0.003077 -0.001879 0.000000 0.000000 0.000000
# 2 -0.003077 0.018280 -0.002366 0.000000 0.000000 0.000000
# 3 -0.001879 -0.002366 0.014331 0.000000 0.000000 0.000000
# 4 0.000000 0.000000 0.000000 0.029838 0.000000 0.000000
# 5 0.000000 0.000000 0.000000 0.000000 0.037355 0.000000
# 6 0.000000 0.000000 0.000000 0.000000 0.000000 0.016362
#
#
# Mechanical properties :
#
#
# Convention : Reuss Voigt Hill
#
# Bulk Modulus (GPa) = 42.25469 58.37993 50.31731
# Shear Modulus (GPa) = 34.62618 41.56375 38.09497
#
# Velocity S-wave (km/s) = 3.61397 3.95949 3.79067
# Velocity P-wave (km/s) = 5.77516 6.55163 6.17561
#
# Compressibility (1/GPa) = 0.02366601
#
# Stress axis : x y z
#
# Youngs Moduli (GPa) = 175.46974 54.70364 69.77691
#
# Poissons Ratio (x) = 0.16834 0.13109
# Poissons Ratio (y) = 0.53997 0.16511
# Poissons Ratio (z) = 0.32967 0.12945
#
# Static dielectric constant tensor:
#      x y z
#    x 2.146620 0.000000 0.000000 
#    y 0.000000 2.120940 0.000000 
#    z 0.000000 0.000000 2.250360 
# 
# From -- ./inp_files/1998.got.cif
#   From: 2010.05.17/outbox.cif.g08.bks.cpg/sg18_1_cif.got.tgz:1998.got - 2010.06.03 22:40:56.
