data_PCOD9312264
_publ_section_title
;
Structure prediction by ZEFSAII (Michael W. Deem and Ramdas Pophale) SiO2 
 PCOD9312264
Probable space group: P 21 21 2
;
_chemical_formula_sum "Si O2"
_cell_formula_units_Z 30
_cell_length_a 22.946165
_cell_length_b 4.882473
_cell_length_c 10.869017
_cell_angle_alpha 90.000000
_cell_angle_beta 90.000000
_cell_angle_gamma 90.000000
_cell_volume 1217.699788
_symmetry_space_group_name_H-M "P 21 21 2"
_symmetry_group_IT_number 18
_symmetry_cell_setting 'orthorhombic'
loop_
_space_group_symop_operation_xyz
x,y,z
-x,-y,z
1/2+x,1/2-y,-z
1/2-x,1/2+y,-z
loop_
_atom_site_type_symbol
_atom_site_label
_atom_site_fract_x
_atom_site_fract_y
_atom_site_fract_z
Si Si1 0.706276 0.176038 0.518730
Si Si2 0.124525 0.113587 0.695771
Si Si3 0.217683 0.818641 0.858605
Si Si4 0.118952 0.230951 0.263749
Si Si5 0.436971 0.139448 0.206717
Si Si6 0.294059 0.323234 0.857150
Si Si7 0.000000 0.000000 0.267135
Si Si8 0.438158 0.125811 0.930963
O O1 0.758005 0.405714 0.523506
O O2 0.657783 0.287317 0.424628
O O3 0.664773 0.138487 0.638850
O O4 0.105342 0.385272 0.766336
O O5 0.171987 0.934559 0.765968
O O6 0.071946 0.892356 0.699422
O O7 0.237801 0.512506 0.831778
O O8 0.273925 0.013376 0.844455
O O9 0.196259 0.858147 0.997576
O O10 0.153994 0.957927 0.219414
O O11 0.054006 0.174445 0.325496
O O12 0.422454 0.237695 0.066261
O O13 0.500000 0.000000 0.219946
O O14 0.397035 0.907823 0.860020
O O15 0.040265 0.825619 0.175647
O O16 0.500000 0.000000 0.965294
#
# Coordination Sequence:
#
# PCOD9312264 Si02
#       8
#     4   4   4   4   4   4   2   4
#     4  12  28  50  78 105 143 202 260 317 376 438
#     4  12  24  44  68 102 140 195 241 302 359 443
#     4  10  21  36  57  95 130 173 226 281 356 433
#     4  11  24  43  69 103 143 190 248 309 363 442
#     4  11  25  43  71 105 149 189 243 293 376 452
#     4  10  21  35  60  92 132 173 219 290 361 417
#     4  10  24  42  70 106 144 188 248 296 380 438
#     4   9  22  40  68 106 142 190 233 300 370 448
#
# _framework density 24.636614000000002
#
# number of rings (size 3 to 8) (size 9 to 14) (size 15 to 20)
#    0.000    1.333    0.000    4.400   11.200    1.067 
#    2.400    0.667    0.000    0.000    0.000    0.000 
#    0.000    0.000    0.000    0.000    0.000    0.000 
#
# Total GULP energy -167441.704713 kJ/mol
# GULP energy per Si atom -5581.390157 kJ/mol
# Density = 2.458054 g / cm^3
# Si number density = 24.636614 Si / 1000 Ang^3
#
#
#
# Elastic Constant Matrix: (Units=GPa)
#
#
# Indices 1 2 3 4 5 6 
#
# 1 141.6594 17.1884 36.3574 0.0000 0.0000 0.0000
# 2 17.1884 75.5671 -10.5196 0.0000 0.0000 0.0000
# 3 36.3574 -10.5196 72.9083 0.0000 0.0000 0.0000
# 4 0.0000 0.0000 0.0000 105.6032 0.0000 0.0000
# 5 0.0000 0.0000 0.0000 0.0000 9.7256 0.0000
# 6 0.0000 0.0000 0.0000 0.0000 0.0000 56.2870
#
#
#
# Elastic Compliance Matrix: (Units=1/GPa)
#
#
# Indices 1 2 3 4 5 6 
#
# 1 0.008567 -0.002595 -0.004646 0.000000 0.000000 0.000000
# 2 -0.002595 0.014291 0.003356 0.000000 0.000000 0.000000
# 3 -0.004646 0.003356 0.016517 0.000000 0.000000 0.000000
# 4 0.000000 0.000000 0.000000 0.009469 0.000000 0.000000
# 5 0.000000 0.000000 0.000000 0.000000 0.102822 0.000000
# 6 0.000000 0.000000 0.000000 0.000000 0.000000 0.017766
#
#
# Mechanical properties :
#
#
# Convention : Reuss Voigt Hill
#
# Bulk Modulus (GPa) = 31.64215 41.79858 36.72037
# Shear Modulus (GPa) = 26.63293 50.79705 38.71499
#
# Velocity S-wave (km/s) = 3.29147 4.54569 3.96844
# Velocity P-wave (km/s) = 5.22652 6.67487 5.99460
#
# Compressibility (1/GPa) = 0.03160341
#
# Stress axis : x y z
#
# Youngs Moduli (GPa) = 116.73211 69.97494 60.54309
#
# Poissons Ratio (x) = 0.18161 0.28131
# Poissons Ratio (y) = 0.30296 -0.20319
# Poissons Ratio (z) = 0.54239 -0.23485
#
# Static dielectric constant tensor:
#      x y z
#    x 0.791760 0.000000 0.000000 
#    y 0.000000 2.399480 0.000000 
#    z 0.000000 0.000000 2.081420 
# 
# From -- ./inp_files/6277.got.cif
#   From: 2010.05.17/outbox.cif.g08.bks.cpg/sg18_4_cif.got.tgz:6277.got - 2010.06.03 22:40:56.
