data_PCOD9312826
_publ_section_title
;
Structure prediction by ZEFSAII (Michael W. Deem and Ramdas Pophale) SiO2 
 PCOD9312826
Probable space group: P 21 21 2
;
_chemical_formula_sum "Si O2"
_cell_formula_units_Z 24
_cell_length_a 8.463369
_cell_length_b 11.048549
_cell_length_c 10.917502
_cell_angle_alpha 90.000000
_cell_angle_beta 90.000000
_cell_angle_gamma 90.000000
_cell_volume 1020.873199
_symmetry_space_group_name_H-M "P 21 21 2"
_symmetry_group_IT_number 18
_symmetry_cell_setting 'orthorhombic'
loop_
_space_group_symop_operation_xyz
x,y,z
-x,-y,z
1/2+x,1/2-y,-z
1/2-x,1/2+y,-z
loop_
_atom_site_type_symbol
_atom_site_label
_atom_site_fract_x
_atom_site_fract_y
_atom_site_fract_z
Si Si1 0.809153 0.771268 0.770987
Si Si2 0.821807 0.039278 0.116635
Si Si3 0.101864 0.620664 0.729212
Si Si4 0.875620 0.609818 0.389687
Si Si5 0.688572 0.524174 0.155643
Si Si6 0.834482 0.257274 0.471920
O O1 0.704935 0.654251 0.797637
O O2 0.754653 0.884549 0.848806
O O3 0.784232 0.809179 0.630131
O O4 0.986845 0.722745 0.786172
O O5 0.725207 0.927392 0.172422
O O6 0.000000 0.000000 0.111089
O O7 0.777974 0.076344 0.978104
O O8 0.162608 0.672558 0.600963
O O9 0.000000 0.500000 0.701319
O O10 0.784254 0.592693 0.261712
O O11 0.738895 0.627084 0.491721
O O12 0.000000 0.500000 0.403430
O O13 0.993034 0.724339 0.411717
O O14 0.500000 0.500000 0.180959
#
# Coordination Sequence:
#
# PCOD9312826 Si02
#       6
#     4   4   4   4   4   4
#     4  11  24  43  69 103 144 195 243 310 379 436
#     4  10  26  46  71 108 150 197 258 311 366 447
#     4  10  23  45  69 102 151 194 239 313 380 443
#     4  12  27  46  75 108 150 195 250 308 378 444
#     4  11  26  49  73 107 149 197 259 313 370 451
#     4  12  25  44  73 108 144 193 245 304 381 445
#
# _framework density 23.509287
#
# number of rings (size 3 to 8) (size 9 to 14) (size 15 to 20)
#    0.000    1.000    3.333    1.500    4.667    6.000 
#    3.000    1.667    0.000    0.000    0.000    0.000 
#    0.000    0.000    0.000    0.000    0.000    0.000 
#
# Total GULP energy -134059.943089 kJ/mol
# GULP energy per Si atom -5585.830962 kJ/mol
# Density = 2.345578 g / cm^3
# Si number density = 23.509287 Si / 1000 Ang^3
#
#
#
# Elastic Constant Matrix: (Units=GPa)
#
#
# Indices 1 2 3 4 5 6 
#
# 1 96.6574 28.5772 60.0690 0.0000 0.0000 0.0000
# 2 28.5772 59.1690 25.7020 0.0000 0.0000 0.0000
# 3 60.0690 25.7020 115.7825 0.0000 0.0000 0.0000
# 4 0.0000 0.0000 0.0000 33.3643 0.0000 0.0000
# 5 0.0000 0.0000 0.0000 0.0000 35.8616 0.0000
# 6 0.0000 0.0000 0.0000 0.0000 0.0000 37.7194
#
#
#
# Elastic Compliance Matrix: (Units=1/GPa)
#
#
# Indices 1 2 3 4 5 6 
#
# 1 0.016354 -0.004663 -0.007450 0.000000 0.000000 0.000000
# 2 -0.004663 0.020034 -0.002028 0.000000 0.000000 0.000000
# 3 -0.007450 -0.002028 0.012952 0.000000 0.000000 0.000000
# 4 0.000000 0.000000 0.000000 0.029972 0.000000 0.000000
# 5 0.000000 0.000000 0.000000 0.000000 0.027885 0.000000
# 6 0.000000 0.000000 0.000000 0.000000 0.000000 0.026512
#
#
# Mechanical properties :
#
#
# Convention : Reuss Voigt Hill
#
# Bulk Modulus (GPa) = 47.48574 55.58949 51.53762
# Shear Modulus (GPa) = 29.58428 31.87310 30.72869
#
# Velocity S-wave (km/s) = 3.55125 3.68607 3.61929
# Velocity P-wave (km/s) = 6.08751 6.46631 6.27977
#
# Compressibility (1/GPa) = 0.02105895
#
# Stress axis : x y z
#
# Youngs Moduli (GPa) = 61.14728 49.91595 77.20817
#
# Poissons Ratio (x) = 0.23274 0.57517
# Poissons Ratio (y) = 0.28511 0.15659
# Poissons Ratio (z) = 0.45552 0.10124
#
# Static dielectric constant tensor:
#      x y z
#    x 1.941290 0.000000 0.000000 
#    y 0.000000 1.929970 0.000000 
#    z 0.000000 0.000000 1.853080 
# 
# From -- ./inp_files/5485.got.cif
#   From: 2010.05.17/outbox.cif.g08.bks.cpg/sg18_3_cif.got.tgz:5485.got - 2010.06.03 22:40:56.
