data_PCOD9312182
_publ_section_title
;
Structure prediction by ZEFSAII (Michael W. Deem and Ramdas Pophale) SiO2 
 PCOD9312182
Probable space group: P 21 21 2
;
_chemical_formula_sum "Si O2"
_cell_formula_units_Z 30
_cell_length_a 22.723060
_cell_length_b 10.101897
_cell_length_c 5.019502
_cell_angle_alpha 90.000000
_cell_angle_beta 90.000000
_cell_angle_gamma 90.000000
_cell_volume 1152.206665
_symmetry_space_group_name_H-M "P 21 21 2"
_symmetry_group_IT_number 18
_symmetry_cell_setting 'orthorhombic'
loop_
_space_group_symop_operation_xyz
x,y,z
-x,-y,z
1/2+x,1/2-y,-z
1/2-x,1/2+y,-z
loop_
_atom_site_type_symbol
_atom_site_label
_atom_site_fract_x
_atom_site_fract_y
_atom_site_fract_z
Si Si1 0.030305 0.290211 0.694411
Si Si2 0.622591 0.566575 0.068789
Si Si3 0.500000 0.500000 0.267774
Si Si4 0.763377 0.885976 0.525085
Si Si5 0.156363 0.781574 0.423058
Si Si6 0.705398 0.021719 0.040230
Si Si7 0.085327 0.556642 0.674762
Si Si8 0.149225 0.213887 0.907147
O O1 0.061275 0.418034 0.550591
O O2 0.082171 0.262541 0.905365
O O3 0.969666 0.358702 0.790557
O O4 0.017754 0.139978 0.585859
O O5 0.553010 0.548122 0.080931
O O6 0.648607 0.676164 0.878607
O O7 0.613391 0.842902 0.534561
O O8 0.647039 0.428406 0.962759
O O9 0.720266 0.762150 0.485493
O O10 0.826204 0.824956 0.610859
O O11 0.862156 0.103402 0.627349
O O12 0.734920 0.953429 0.788965
O O13 0.253167 0.013670 0.290201
O O14 0.694081 0.176891 0.991517
O O15 0.639846 0.972930 0.127627
#
# Coordination Sequence:
#
# PCOD9312182 Si02
#       8
#     4   4   2   4   4   4   4   4
#     4   9  18  39  72 101 143 182 230 294 350 422
#     4  11  25  42  70 101 141 179 228 285 358 414
#     4  10  20  40  66 104 142 182 222 292 350 424
#     4  11  25  41  72  95 137 181 232 293 342 418
#     4  11  23  43  70 101 133 184 236 284 343 419
#     4  10  24  45  68 100 134 184 238 291 344 426
#     4   9  18  40  73  96 140 180 242 282 355 412
#     4  10  25  43  69 103 144 181 236 289 363 414
#
# _framework density 26.036995999999998
#
# number of rings (size 3 to 8) (size 9 to 14) (size 15 to 20)
#    0.000    1.867    1.333    1.600    3.733    2.667 
#    0.000    0.000   35.200    0.000    0.000    0.000 
#    0.000    0.000    0.000    0.000    0.000    0.000 
#
# Total GULP energy -167527.747767 kJ/mol
# GULP energy per Si atom -5584.258259 kJ/mol
# Density = 2.597773 g / cm^3
# Si number density = 26.036996 Si / 1000 Ang^3
#
#
#
# Elastic Constant Matrix: (Units=GPa)
#
#
# Indices 1 2 3 4 5 6 
#
# 1 122.4644 30.5739 21.1782 0.0000 0.0000 0.0000
# 2 30.5739 154.0959 3.6962 0.0000 0.0000 0.0000
# 3 21.1782 3.6962 75.0562 0.0000 0.0000 0.0000
# 4 0.0000 0.0000 0.0000 12.2363 0.0000 0.0000
# 5 0.0000 0.0000 0.0000 0.0000 -1.0570 0.0000
# 6 0.0000 0.0000 0.0000 0.0000 0.0000 39.7035
#
#
#
# Elastic Compliance Matrix: (Units=1/GPa)
#
#
# Indices 1 2 3 4 5 6 
#
# 1 0.009023 -0.001731 -0.002461 0.000000 0.000000 0.000000
# 2 -0.001731 0.006829 0.000152 0.000000 0.000000 0.000000
# 3 -0.002461 0.000152 0.014010 0.000000 0.000000 0.000000
# 4 0.000000 0.000000 0.000000 0.081724 0.000000 0.000000
# 5 0.000000 0.000000 0.000000 0.000000 -0.946040 0.000000
# 6 0.000000 0.000000 0.000000 0.000000 0.000000 0.025187
#
#
# Mechanical properties :
#
#
# Convention : Reuss Voigt Hill
#
# Bulk Modulus (GPa) = 45.90717 51.39035 48.64876
# Shear Modulus (GPa) = -6.29782 29.92111 11.81164
#
# Velocity S-wave (km/s) = -1.55693 3.39363 2.13221
# Velocity P-wave (km/s) = 3.79970 5.92755 4.97864
#
# Compressibility (1/GPa) = 0.02178309
#
# Stress axis : x y z
#
# Youngs Moduli (GPa) = 110.82262 146.42752 71.37654
#
# Poissons Ratio (x) = 0.25351 0.17565
# Poissons Ratio (y) = 0.19187 -0.01086
# Poissons Ratio (z) = 0.27272 -0.02229
#
# Static dielectric constant tensor:
#      x y z
#    x 2.163480 0.000000 0.000000 
#    y 0.000000 2.094890 0.000000 
#    z 0.000000 0.000000 2.017880 
# 
# From -- ./inp_files/4759.got.cif
#   From: 2010.05.17/outbox.cif.g08.bks.cpg/sg18_3_cif.got.tgz:4759.got - 2010.06.03 22:40:56.
