data_PCOD9312406
_publ_section_title
;
Structure prediction by ZEFSAII (Michael W. Deem and Ramdas Pophale) SiO2 
 PCOD9312406
Probable space group: P 21 21 2
;
_chemical_formula_sum "Si O2"
_cell_formula_units_Z 18
_cell_length_a 16.076006
_cell_length_b 8.602840
_cell_length_c 4.997660
_cell_angle_alpha 90.000000
_cell_angle_beta 90.000000
_cell_angle_gamma 90.000000
_cell_volume 691.172917
_symmetry_space_group_name_H-M "P 21 21 2"
_symmetry_group_IT_number 18
_symmetry_cell_setting 'orthorhombic'
loop_
_space_group_symop_operation_xyz
x,y,z
-x,-y,z
1/2+x,1/2-y,-z
1/2-x,1/2+y,-z
loop_
_atom_site_type_symbol
_atom_site_label
_atom_site_fract_x
_atom_site_fract_y
_atom_site_fract_z
Si Si1 0.000000 0.500000 0.960890
Si Si2 0.165394 0.625749 0.913697
Si Si3 0.217756 0.437812 0.439264
Si Si4 0.614109 0.614083 0.672564
Si Si5 0.434674 0.729021 0.655617
O O1 0.075514 0.571210 0.804555
O O2 0.037911 0.361205 0.136160
O O3 0.219705 0.571439 0.664926
O O4 0.146537 0.781421 0.081140
O O5 0.197459 0.513101 0.154395
O O6 0.312078 0.377486 0.456413
O O7 0.143925 0.310574 0.495430
O O8 0.526617 0.677316 0.551067
O O9 0.597925 0.436571 0.762404
#
# Coordination Sequence:
#
# PCOD9312406 Si02
#       5
#     2   4   4   4   4
#     4   8  18  38  62  92 132 178 224 278 352 420
#     4  10  23  40  64  94 133 180 233 291 355 426
#     4  11  23  43  68  98 139 186 234 294 365 431
#     4  10  21  41  70 104 142 188 248 305 363 439
#     4   9  20  41  69 101 140 186 237 297 361 432
#
# _framework density 26.042684999999999
#
# number of rings (size 3 to 8) (size 9 to 14) (size 15 to 20)
#    0.000    2.222    0.000    1.333    0.000   10.667 
#    0.000    8.889    0.000   37.333    0.000    0.000 
#    0.000    0.000    0.000    0.000    0.000    0.000 
#
# Total GULP energy -100389.487840 kJ/mol
# GULP energy per Si atom -5577.193769 kJ/mol
# Density = 2.598341 g / cm^3
# Si number density = 26.042685 Si / 1000 Ang^3
#
#
#
# Elastic Constant Matrix: (Units=GPa)
#
#
# Indices 1 2 3 4 5 6 
#
# 1 201.6967 51.2843 17.2218 0.0000 0.0000 0.0000
# 2 51.2843 155.0783 3.5979 0.0000 0.0000 0.0000
# 3 17.2218 3.5979 59.5813 0.0000 0.0000 0.0000
# 4 0.0000 0.0000 0.0000 29.3838 0.0000 0.0000
# 5 0.0000 0.0000 0.0000 0.0000 8.7424 0.0000
# 6 0.0000 0.0000 0.0000 0.0000 0.0000 42.6766
#
#
#
# Elastic Compliance Matrix: (Units=1/GPa)
#
#
# Indices 1 2 3 4 5 6 
#
# 1 0.005543 -0.001798 -0.001494 0.000000 0.000000 0.000000
# 2 -0.001798 0.007041 0.000095 0.000000 0.000000 0.000000
# 3 -0.001494 0.000095 0.017210 0.000000 0.000000 0.000000
# 4 0.000000 0.000000 0.000000 0.034032 0.000000 0.000000
# 5 0.000000 0.000000 0.000000 0.000000 0.114385 0.000000
# 6 0.000000 0.000000 0.000000 0.000000 0.000000 0.023432
#
#
# Mechanical properties :
#
#
# Convention : Reuss Voigt Hill
#
# Bulk Modulus (GPa) = 42.73701 62.28493 52.51097
# Shear Modulus (GPa) = 23.16562 39.11071 31.13817
#
# Velocity S-wave (km/s) = 2.98573 3.87950 3.46158
# Velocity P-wave (km/s) = 5.32279 6.63595 6.01531
#
# Compressibility (1/GPa) = 0.02339892
#
# Stress axis : x y z
#
# Youngs Moduli (GPa) = 180.41708 142.02797 58.10658
#
# Poissons Ratio (x) = 0.25541 0.08678
# Poissons Ratio (y) = 0.32445 -0.00550
# Poissons Ratio (z) = 0.26945 -0.01344
#
# Static dielectric constant tensor:
#      x y z
#    x 2.202590 0.000000 0.000000 
#    y 0.000000 2.205400 0.000000 
#    z 0.000000 0.000000 1.990380 
# 
# From -- ./inp_files/1716.got.cif
#   From: 2010.05.17/outbox.cif.g08.bks.cpg/sg18_1_cif.got.tgz:1716.got - 2010.06.03 22:40:56.
