data_PCOD9312742
_publ_section_title
;
Structure prediction by ZEFSAII (Michael W. Deem and Ramdas Pophale) SiO2 
 PCOD9312742
Probable space group: P 21 21 2
;
_chemical_formula_sum "Si O2"
_cell_formula_units_Z 32
_cell_length_a 8.362620
_cell_length_b 16.098785
_cell_length_c 11.391538
_cell_angle_alpha 90.000000
_cell_angle_beta 90.000000
_cell_angle_gamma 90.000000
_cell_volume 1533.620222
_symmetry_space_group_name_H-M "P 21 21 2"
_symmetry_group_IT_number 18
_symmetry_cell_setting 'orthorhombic'
loop_
_space_group_symop_operation_xyz
x,y,z
-x,-y,z
1/2+x,1/2-y,-z
1/2-x,1/2+y,-z
loop_
_atom_site_type_symbol
_atom_site_label
_atom_site_fract_x
_atom_site_fract_y
_atom_site_fract_z
Si Si1 0.917033 0.257730 0.568428
Si Si2 0.311442 0.483143 0.073792
Si Si3 0.166862 0.633370 0.219946
Si Si4 0.316577 0.468049 0.805188
Si Si5 0.766124 0.206358 0.329493
Si Si6 0.156782 0.554818 0.620124
Si Si7 0.704569 0.134264 0.722388
Si Si8 0.180456 0.015806 0.593455
O O1 0.893152 0.221300 0.436594
O O2 0.861624 0.352020 0.579230
O O3 0.811252 0.205333 0.662082
O O4 0.100989 0.268298 0.606248
O O5 0.500000 0.500000 0.077855
O O6 0.215716 0.565712 0.120451
O O7 0.282021 0.408117 0.163654
O O8 0.272339 0.457337 0.941408
O O9 0.224771 0.728178 0.221485
O O10 0.248081 0.592217 0.334912
O O11 0.978660 0.645143 0.241965
O O12 0.500000 0.500000 0.799015
O O13 0.283108 0.385165 0.727172
O O14 0.203663 0.540207 0.753454
O O15 0.306898 0.524441 0.544217
O O16 0.000000 0.500000 0.594076
O O17 0.709657 0.061602 0.626131
O O18 0.000000 0.000000 0.631583
#
# Coordination Sequence:
#
# PCOD9312742 Si02
#       8
#     4   4   4   4   4   4   4   4
#     4  12  26  42  69 101 145 176 233 288 353 424
#     4  10  22  47  71  98 130 180 234 286 350 417
#     4  11  22  41  69  98 135 173 233 286 339 412
#     4  11  27  46  71  98 142 184 232 288 355 422
#     4  12  25  46  66 109 140 186 230 293 353 425
#     4  12  24  43  63  97 136 181 223 281 351 426
#     4  11  23  40  69  99 129 177 228 292 339 413
#     4  11  21  38  64  96 131 175 220 279 348 406
#
# _framework density 20.865662
#
# number of rings (size 3 to 8) (size 9 to 14) (size 15 to 20)
#    0.000    0.750    2.500    7.125    3.500    1.000 
#    2.250    0.625    0.000    0.000    0.000    0.000 
#    0.000    0.000    0.000    0.000    0.000    0.000 
#
# Total GULP energy -178558.969382 kJ/mol
# GULP energy per Si atom -5579.967793 kJ/mol
# Density = 2.081817 g / cm^3
# Si number density = 20.865662 Si / 1000 Ang^3
#
#
#
# Elastic Constant Matrix: (Units=GPa)
#
#
# Indices 1 2 3 4 5 6 
#
# 1 73.4201 4.7496 26.5791 0.0000 0.0000 0.0000
# 2 4.7496 93.3854 38.8778 0.0000 0.0000 0.0000
# 3 26.5791 38.8778 121.2954 0.0000 0.0000 0.0000
# 4 0.0000 0.0000 0.0000 25.6381 0.0000 0.0000
# 5 0.0000 0.0000 0.0000 0.0000 36.5706 0.0000
# 6 0.0000 0.0000 0.0000 0.0000 0.0000 23.5319
#
#
#
# Elastic Compliance Matrix: (Units=1/GPa)
#
#
# Indices 1 2 3 4 5 6 
#
# 1 0.014832 0.000691 -0.003472 0.000000 0.000000 0.000000
# 2 0.000691 0.012389 -0.004122 0.000000 0.000000 0.000000
# 3 -0.003472 -0.004122 0.010326 0.000000 0.000000 0.000000
# 4 0.000000 0.000000 0.000000 0.039004 0.000000 0.000000
# 5 0.000000 0.000000 0.000000 0.000000 0.027344 0.000000
# 6 0.000000 0.000000 0.000000 0.000000 0.000000 0.042495
#
#
# Mechanical properties :
#
#
# Convention : Reuss Voigt Hill
#
# Bulk Modulus (GPa) = 42.11982 47.61266 44.86624
# Shear Modulus (GPa) = 29.74195 31.67442 30.70818
#
# Velocity S-wave (km/s) = 3.77955 3.90040 3.84045
# Velocity P-wave (km/s) = 6.26711 6.56905 6.41985
#
# Compressibility (1/GPa) = 0.02374179
#
# Stress axis : x y z
#
# Youngs Moduli (GPa) = 67.42033 80.71401 96.83917
#
# Poissons Ratio (x) = -0.05577 0.33619
# Poissons Ratio (y) = -0.04658 0.39922
# Poissons Ratio (z) = 0.23406 0.33274
#
# Static dielectric constant tensor:
#      x y z
#    x 1.832130 0.000000 0.000000 
#    y 0.000000 1.790430 0.000000 
#    z 0.000000 0.000000 1.738970 
# 
# From -- ./inp_files/5701.got.cif
#   From: 2010.05.17/outbox.cif.g08.bks.cpg/sg18_3_cif.got.tgz:5701.got - 2010.06.03 22:40:56.
