data_PCOD9312337
_publ_section_title
;
Structure prediction by ZEFSAII (Michael W. Deem and Ramdas Pophale) SiO2 
 PCOD9312337
Probable space group: P 21 21 2
;
_chemical_formula_sum "Si O2"
_cell_formula_units_Z 24
_cell_length_a 11.992380
_cell_length_b 9.786233
_cell_length_c 8.145702
_cell_angle_alpha 90.000000
_cell_angle_beta 90.000000
_cell_angle_gamma 90.000000
_cell_volume 955.981419
_symmetry_space_group_name_H-M "P 21 21 2"
_symmetry_group_IT_number 18
_symmetry_cell_setting 'orthorhombic'
loop_
_space_group_symop_operation_xyz
x,y,z
-x,-y,z
1/2+x,1/2-y,-z
1/2-x,1/2+y,-z
loop_
_atom_site_type_symbol
_atom_site_label
_atom_site_fract_x
_atom_site_fract_y
_atom_site_fract_z
Si Si1 0.037484 0.301608 0.736639
Si Si2 0.847010 0.427885 0.614523
Si Si3 0.436167 0.134979 0.751679
Si Si4 0.124035 0.218344 0.084670
Si Si5 0.769041 0.002120 0.889558
Si Si6 0.617121 0.441893 0.452305
O O1 0.101780 0.442595 0.705915
O O2 0.063232 0.244640 0.912543
O O3 0.092004 0.212182 0.595450
O O4 0.904175 0.309145 0.718383
O O5 0.901925 0.396375 0.435967
O O6 0.718184 0.445958 0.578860
O O7 0.320406 0.120629 0.848360
O O8 0.500000 0.000000 0.812379
O O9 0.524207 0.255973 0.783435
O O10 0.173208 0.065412 0.051248
O O11 0.209472 0.349068 0.098642
O O12 0.844507 0.005668 0.723854
O O13 0.500000 0.500000 0.508239
#
# Coordination Sequence:
#
# PCOD9312337 Si02
#       6
#     4   4   4   4   4   4
#     4  10  22  39  62  95 130 163 222 265 315 394
#     4  10  21  40  61  95 122 170 215 256 315 397
#     4   9  17  36  60  81 119 163 208 248 311 381
#     4  10  21  39  63  94 122 165 212 267 321 377
#     4   9  21  38  61  91 123 158 212 263 316 385
#     4  10  23  42  64  91 131 171 212 270 328 378
#
# _framework density 25.105091000000002
#
# number of rings (size 3 to 8) (size 9 to 14) (size 15 to 20)
#    0.000    2.333    1.667    0.000    9.333    2.667 
#    3.000    0.000    0.000    1.000    0.000    0.000 
#    0.000    0.000    0.000    0.000    0.000    0.000 
#
# Total GULP energy -133903.898626 kJ/mol
# GULP energy per Si atom -5579.329109 kJ/mol
# Density = 2.504795 g / cm^3
# Si number density = 25.105091 Si / 1000 Ang^3
#
#
#
# Elastic Constant Matrix: (Units=GPa)
#
#
# Indices 1 2 3 4 5 6 
#
# 1 154.3448 35.8688 30.9715 0.0000 0.0000 0.0000
# 2 35.8688 46.2066 -4.4102 0.0000 0.0000 0.0000
# 3 30.9715 -4.4102 84.3404 0.0000 0.0000 0.0000
# 4 0.0000 0.0000 0.0000 421.0030 0.0000 0.0000
# 5 0.0000 0.0000 0.0000 0.0000 21.1895 0.0000
# 6 0.0000 0.0000 0.0000 0.0000 0.0000 39.1823
#
#
#
# Elastic Compliance Matrix: (Units=1/GPa)
#
#
# Indices 1 2 3 4 5 6 
#
# 1 0.008896 -0.007254 -0.003646 0.000000 0.000000 0.000000
# 2 -0.007254 0.027665 0.004110 0.000000 0.000000 0.000000
# 3 -0.003646 0.004110 0.013411 0.000000 0.000000 0.000000
# 4 0.000000 0.000000 0.000000 0.002375 0.000000 0.000000
# 5 0.000000 0.000000 0.000000 0.000000 0.047193 0.000000
# 6 0.000000 0.000000 0.000000 0.000000 0.000000 0.025522
#
#
# Mechanical properties :
#
#
# Convention : Reuss Voigt Hill
#
# Bulk Modulus (GPa) = 27.47802 45.52801 36.50301
# Shear Modulus (GPa) = 33.16233 111.10573 72.13403
#
# Velocity S-wave (km/s) = 3.63842 6.65975 5.36612
# Velocity P-wave (km/s) = 5.34974 8.79265 7.27772
#
# Compressibility (1/GPa) = 0.03639273
#
# Stress axis : x y z
#
# Youngs Moduli (GPa) = 112.40391 36.14625 74.56761
#
# Poissons Ratio (x) = 0.26221 0.27190
# Poissons Ratio (y) = 0.81539 -0.30651
# Poissons Ratio (z) = 0.40986 -0.14858
#
# Static dielectric constant tensor:
#      x y z
#    x 1.425570 0.000000 0.000000 
#    y 0.000000 2.251300 0.000000 
#    z 0.000000 0.000000 1.992460 
# 
# From -- ./inp_files/3761.got.cif
#   From: 2010.05.17/outbox.cif.g08.bks.cpg/sg18_2_cif.got.tgz:3761.got - 2010.06.03 22:40:56.
