data_PCOD9312349
_publ_section_title
;
Structure prediction by ZEFSAII (Michael W. Deem and Ramdas Pophale) SiO2 
 PCOD9312349
Probable space group: P 21 21 2
;
_chemical_formula_sum "Si O2"
_cell_formula_units_Z 24
_cell_length_a 4.948228
_cell_length_b 25.535570
_cell_length_c 7.689894
_cell_angle_alpha 90.000000
_cell_angle_beta 90.000000
_cell_angle_gamma 90.000000
_cell_volume 971.662881
_symmetry_space_group_name_H-M "P 21 21 2"
_symmetry_group_IT_number 18
_symmetry_cell_setting 'orthorhombic'
loop_
_space_group_symop_operation_xyz
x,y,z
-x,-y,z
1/2+x,1/2-y,-z
1/2-x,1/2+y,-z
loop_
_atom_site_type_symbol
_atom_site_label
_atom_site_fract_x
_atom_site_fract_y
_atom_site_fract_z
Si Si1 0.894962 0.941801 0.355272
Si Si2 0.695653 0.257849 0.386672
Si Si3 0.265167 0.897103 0.868348
Si Si4 0.233301 0.044465 0.973762
Si Si5 0.600610 0.867307 0.566830
Si Si6 0.703052 0.151745 0.226111
O O1 0.102991 0.896085 0.292081
O O2 0.757904 0.920702 0.529777
O O3 0.716767 0.950720 0.181397
O O4 0.000000 0.000000 0.392949
O O5 0.385130 0.254930 0.446015
O O6 0.757157 0.317937 0.344966
O O7 0.784313 0.212453 0.252954
O O8 0.952142 0.908022 0.902613
O O9 0.333636 0.877170 0.677867
O O10 0.470734 0.946762 0.893056
O O11 0.354986 0.859326 0.025820
O O12 0.000000 0.000000 0.955889
O O13 0.536360 0.852231 0.366856
#
# Coordination Sequence:
#
# PCOD9312349 Si02
#       6
#     4   4   4   4   4   4
#     4  10  21  40  68  93 134 177 221 267 329 397
#     4  10  21  39  70  91 126 176 214 268 330 396
#     4  11  24  39  67  93 132 166 219 277 326 386
#     4  10  22  43  63  92 130 183 216 264 327 397
#     4  11  23  41  64 100 128 172 222 275 326 400
#     4  10  22  44  62  95 132 174 216 275 326 396
#
# _framework density 24.699925
#
# number of rings (size 3 to 8) (size 9 to 14) (size 15 to 20)
#    0.000    1.667    3.333    0.500    2.333    1.333 
#    3.000   10.000    0.000    0.000    0.000    0.000 
#    0.000    0.000    0.000    0.000    0.000    0.000 
#
# Total GULP energy -133835.148464 kJ/mol
# GULP energy per Si atom -5576.464519 kJ/mol
# Density = 2.464371 g / cm^3
# Si number density = 24.699925 Si / 1000 Ang^3
#
#
#
# Elastic Constant Matrix: (Units=GPa)
#
#
# Indices 1 2 3 4 5 6 
#
# 1 96.4273 21.1796 20.9728 0.0000 0.0000 0.0000
# 2 21.1796 91.7006 15.1061 0.0000 0.0000 0.0000
# 3 20.9728 15.1061 84.8217 0.0000 0.0000 0.0000
# 4 0.0000 0.0000 0.0000 16.7544 0.0000 0.0000
# 5 0.0000 0.0000 0.0000 0.0000 26.7765 0.0000
# 6 0.0000 0.0000 0.0000 0.0000 0.0000 27.8763
#
#
#
# Elastic Compliance Matrix: (Units=1/GPa)
#
#
# Indices 1 2 3 4 5 6 
#
# 1 0.011387 -0.002232 -0.002418 0.000000 0.000000 0.000000
# 2 -0.002232 0.011672 -0.001527 0.000000 0.000000 0.000000
# 3 -0.002418 -0.001527 0.012659 0.000000 0.000000 0.000000
# 4 0.000000 0.000000 0.000000 0.059686 0.000000 0.000000
# 5 0.000000 0.000000 0.000000 0.000000 0.037346 0.000000
# 6 0.000000 0.000000 0.000000 0.000000 0.000000 0.035873
#
#
# Mechanical properties :
#
#
# Convention : Reuss Voigt Hill
#
# Bulk Modulus (GPa) = 42.79937 43.05186 42.92561
# Shear Modulus (GPa) = 26.48815 28.66087 27.57451
#
# Velocity S-wave (km/s) = 3.27830 3.41010 3.34485
# Velocity P-wave (km/s) = 5.62983 5.74220 5.68630
#
# Compressibility (1/GPa) = 0.02336483
#
# Stress axis : x y z
#
# Youngs Moduli (GPa) = 87.82282 85.67513 78.99367
#
# Poissons Ratio (x) = 0.19119 0.19101
# Poissons Ratio (y) = 0.19598 0.12062
# Poissons Ratio (z) = 0.21235 0.13082
#
# Static dielectric constant tensor:
#      x y z
#    x 1.998220 0.000000 0.000000 
#    y 0.000000 2.201860 0.000000 
#    z 0.000000 0.000000 1.926210 
# 
# From -- ./inp_files/2558.got.cif
#   From: 2010.05.17/outbox.cif.g08.bks.cpg/sg18_2_cif.got.tgz:2558.got - 2010.06.03 22:40:56.
