data_PCOD9312909
_publ_section_title
;
Structure prediction by ZEFSAII (Michael W. Deem and Ramdas Pophale) SiO2 
 PCOD9312909
Probable space group: P 21 21 2
;
_chemical_formula_sum "Si O2"
_cell_formula_units_Z 24
_cell_length_a 8.980838
_cell_length_b 14.847439
_cell_length_c 8.388987
_cell_angle_alpha 90.000000
_cell_angle_beta 90.000000
_cell_angle_gamma 90.000000
_cell_volume 1118.608032
_symmetry_space_group_name_H-M "P 21 21 2"
_symmetry_group_IT_number 18
_symmetry_cell_setting 'orthorhombic'
loop_
_space_group_symop_operation_xyz
x,y,z
-x,-y,z
1/2+x,1/2-y,-z
1/2-x,1/2+y,-z
loop_
_atom_site_type_symbol
_atom_site_label
_atom_site_fract_x
_atom_site_fract_y
_atom_site_fract_z
Si Si1 0.500000 0.500000 0.400206
Si Si2 0.694417 0.836302 0.689092
Si Si3 0.255877 0.982866 0.369579
Si Si4 0.784792 0.327105 0.688415
Si Si5 0.551470 0.661253 0.815630
Si Si6 0.469034 0.341520 0.186171
Si Si7 0.500000 0.000000 0.603146
O O1 0.631608 0.469438 0.517134
O O2 0.418155 0.425542 0.293651
O O3 0.695779 0.809611 0.501280
O O4 0.619051 0.759009 0.791109
O O5 0.860102 0.839232 0.757602
O O6 0.598781 0.928200 0.697874
O O7 0.161269 0.910101 0.272240
O O8 0.384284 0.947020 0.486652
O O9 0.328067 0.068047 0.278365
O O10 0.613870 0.327268 0.744899
O O11 0.881573 0.250238 0.774241
O O12 0.542171 0.636807 0.000687
#
# Coordination Sequence:
#
# PCOD9312909 Si02
#       7
#     2   4   4   4   4   4   2
#     4  12  22  46  74 102 132 198 256 294 364 442
#     4  11  24  46  73 103 143 197 251 301 363 453
#     4  11  23  46  74 107 136 197 258 299 363 444
#     4  11  23  45  70 103 139 193 248 298 355 454
#     4  12  26  43  73 106 151 191 240 317 382 430
#     4  12  27  44  69 110 150 190 242 315 381 434
#     4  10  24  44  76 110 138 188 262 306 344 446
#
# _framework density 21.455237
#
# number of rings (size 3 to 8) (size 9 to 14) (size 15 to 20)
#    0.000    0.667    5.000    3.000   11.667    0.000 
#    0.000    0.000    0.000    2.000    0.000    0.000 
#    0.000    0.000    0.000    0.000    0.000    0.000 
#
# Total GULP energy -133947.595522 kJ/mol
# GULP energy per Si atom -5581.149813 kJ/mol
# Density = 2.140640 g / cm^3
# Si number density = 21.455237 Si / 1000 Ang^3
#
#
#
# Elastic Constant Matrix: (Units=GPa)
#
#
# Indices 1 2 3 4 5 6 
#
# 1 112.9648 54.1234 34.6625 0.0000 0.0000 0.0000
# 2 54.1234 124.4311 37.4510 0.0000 0.0000 0.0000
# 3 34.6625 37.4510 89.3428 0.0000 0.0000 0.0000
# 4 0.0000 0.0000 0.0000 72.6151 0.0000 0.0000
# 5 0.0000 0.0000 0.0000 0.0000 16.2242 0.0000
# 6 0.0000 0.0000 0.0000 0.0000 0.0000 45.8116
#
#
#
# Elastic Compliance Matrix: (Units=1/GPa)
#
#
# Indices 1 2 3 4 5 6 
#
# 1 0.011751 -0.004279 -0.002765 0.000000 0.000000 0.000000
# 2 -0.004279 0.010755 -0.002848 0.000000 0.000000 0.000000
# 3 -0.002765 -0.002848 0.013460 0.000000 0.000000 0.000000
# 4 0.000000 0.000000 0.000000 0.013771 0.000000 0.000000
# 5 0.000000 0.000000 0.000000 0.000000 0.061636 0.000000
# 6 0.000000 0.000000 0.000000 0.000000 0.000000 0.021829
#
#
# Mechanical properties :
#
#
# Convention : Reuss Voigt Hill
#
# Bulk Modulus (GPa) = 61.80259 64.35695 63.07977
# Shear Modulus (GPa) = 31.56957 40.29697 35.93327
#
# Velocity S-wave (km/s) = 3.84007 4.33851 4.09687
# Velocity P-wave (km/s) = 6.96630 7.42684 7.20025
#
# Compressibility (1/GPa) = 0.01618055
#
# Stress axis : x y z
#
# Youngs Moduli (GPa) = 85.09929 92.97972 74.29610
#
# Poissons Ratio (x) = 0.39786 0.20546
# Poissons Ratio (y) = 0.36414 0.21161
# Poissons Ratio (z) = 0.23533 0.26483
#
# Static dielectric constant tensor:
#      x y z
#    x 1.870220 0.000000 0.000000 
#    y 0.000000 1.897840 0.000000 
#    z 0.000000 0.000000 1.768300 
# 
# From -- ./inp_files/3205.got.cif
#   From: 2010.05.17/outbox.cif.g08.bks.cpg/sg18_2_cif.got.tgz:3205.got - 2010.06.03 22:40:56.
