data_PCOD9312612
_publ_section_title
;
Structure prediction by ZEFSAII (Michael W. Deem and Ramdas Pophale) SiO2 
 PCOD9312612
Probable space group: P 21 21 2
;
_chemical_formula_sum "Si O2"
_cell_formula_units_Z 18
_cell_length_a 14.678238
_cell_length_b 8.483519
_cell_length_c 5.224201
_cell_angle_alpha 90.000000
_cell_angle_beta 90.000000
_cell_angle_gamma 90.000000
_cell_volume 650.533761
_symmetry_space_group_name_H-M "P 21 21 2"
_symmetry_group_IT_number 18
_symmetry_cell_setting 'orthorhombic'
loop_
_space_group_symop_operation_xyz
x,y,z
-x,-y,z
1/2+x,1/2-y,-z
1/2-x,1/2+y,-z
loop_
_atom_site_type_symbol
_atom_site_label
_atom_site_fract_x
_atom_site_fract_y
_atom_site_fract_z
Si Si1 0.862727 0.443233 0.900792
Si Si2 0.163905 0.738854 0.393508
Si Si3 0.500000 0.500000 0.265776
Si Si4 0.654610 0.447446 0.862491
Si Si5 0.120016 0.261903 0.550192
O O1 0.858955 0.313823 0.677496
O O2 0.756622 0.478666 0.948841
O O3 0.901865 0.589618 0.734180
O O4 0.888480 0.365959 0.175554
O O5 0.145238 0.923700 0.362496
O O6 0.275084 0.719837 0.366150
O O7 0.531518 0.347297 0.419911
O O8 0.584858 0.501845 0.072704
O O9 0.636274 0.269957 0.756799
#
# Coordination Sequence:
#
# PCOD9312612 Si02
#       5
#     4   4   2   4   4
#     4  10  22  41  69  97 126 164 222 273 313 371
#     4  10  22  41  69  97 126 164 222 273 313 371
#     4  12  22  40  66  90 136 166 212 252 330 400
#     4  10  23  39  66  96 128 170 217 263 322 387
#     4  10  23  39  66  96 128 170 217 263 322 387
#
# _framework density 27.669585000000001
#
# number of rings (size 3 to 8) (size 9 to 14) (size 15 to 20)
#    0.000    1.778    2.222    0.667    6.222    3.556 
#    0.000    1.111    0.000    0.000    0.000    0.000 
#    0.000    0.000    0.000    0.000    0.000    0.000 
#
# Total GULP energy -100351.528051 kJ/mol
# GULP energy per Si atom -5575.084892 kJ/mol
# Density = 2.760661 g / cm^3
# Si number density = 27.669585 Si / 1000 Ang^3
#
#
#
# Elastic Constant Matrix: (Units=GPa)
#
#
# Indices 1 2 3 4 5 6 
#
# 1 92.3514 21.7086 7.8091 0.0000 0.0000 0.0000
# 2 21.7086 62.9913 16.8173 0.0000 0.0000 0.0000
# 3 7.8091 16.8173 109.1679 0.0000 0.0000 0.0000
# 4 0.0000 0.0000 0.0000 35.8218 0.0000 0.0000
# 5 0.0000 0.0000 0.0000 0.0000 35.4340 0.0000
# 6 0.0000 0.0000 0.0000 0.0000 0.0000 23.2017
#
#
#
# Elastic Compliance Matrix: (Units=1/GPa)
#
#
# Indices 1 2 3 4 5 6 
#
# 1 0.011788 -0.004002 -0.000227 0.000000 0.000000 0.000000
# 2 -0.004002 0.017915 -0.002473 0.000000 0.000000 0.000000
# 3 -0.000227 -0.002473 0.009557 0.000000 0.000000 0.000000
# 4 0.000000 0.000000 0.000000 0.027916 0.000000 0.000000
# 5 0.000000 0.000000 0.000000 0.000000 0.028222 0.000000
# 6 0.000000 0.000000 0.000000 0.000000 0.000000 0.043100
#
#
# Mechanical properties :
#
#
# Convention : Reuss Voigt Hill
#
# Bulk Modulus (GPa) = 38.67587 39.68673 39.18130
# Shear Modulus (GPa) = 31.14855 33.43654 32.29254
#
# Velocity S-wave (km/s) = 3.35883 3.48001 3.41996
# Velocity P-wave (km/s) = 5.38985 5.52463 5.45765
#
# Compressibility (1/GPa) = 0.02585592
#
# Stress axis : x y z
#
# Youngs Moduli (GPa) = 84.83128 55.81987 104.63026
#
# Poissons Ratio (x) = 0.22339 0.02372
# Poissons Ratio (y) = 0.33949 0.25880
# Poissons Ratio (z) = 0.01923 0.13807
#
# Static dielectric constant tensor:
#      x y z
#    x 2.310020 0.000000 0.000000 
#    y 0.000000 2.401080 0.000000 
#    z 0.000000 0.000000 2.271770 
# 
# From -- ./inp_files/450.got.cif
#   From: 2010.05.17/outbox.cif.g08.bks.cpg/sg18_1_cif.got.tgz:450.got - 2010.06.03 22:40:56.
