data_PCOD9312119
_publ_section_title
;
Structure prediction by ZEFSAII (Michael W. Deem and Ramdas Pophale) SiO2 
 PCOD9312119
Probable space group: P 21 21 2
;
_chemical_formula_sum "Si O2"
_cell_formula_units_Z 20
_cell_length_a 7.893411
_cell_length_b 8.656753
_cell_length_c 12.534310
_cell_angle_alpha 90.000000
_cell_angle_beta 90.000000
_cell_angle_gamma 90.000000
_cell_volume 856.485814
_symmetry_space_group_name_H-M "P 21 21 2"
_symmetry_group_IT_number 18
_symmetry_cell_setting 'orthorhombic'
loop_
_space_group_symop_operation_xyz
x,y,z
-x,-y,z
1/2+x,1/2-y,-z
1/2-x,1/2+y,-z
loop_
_atom_site_type_symbol
_atom_site_label
_atom_site_fract_x
_atom_site_fract_y
_atom_site_fract_z
Si Si1 0.248305 0.645718 0.619823
Si Si2 0.827730 0.903322 0.798704
Si Si3 0.523020 0.816480 0.042736
Si Si4 0.357179 0.787014 0.836989
Si Si5 0.347190 0.794798 0.397513
O O1 0.350257 0.706436 0.722464
O O2 0.322058 0.722952 0.513715
O O3 0.241566 0.461136 0.609332
O O4 0.048232 0.690384 0.628311
O O5 0.886985 0.781269 0.888131
O O6 0.772225 0.815503 0.692758
O O7 0.690545 0.032568 0.826892
O O8 0.000000 0.000000 0.774882
O O9 0.699040 0.780777 0.097762
O O10 0.500000 0.000000 0.049813
O O11 0.509528 0.763836 0.919540
#
# Coordination Sequence:
#
# PCOD9312119 Si02
#       5
#     4   4   4   4   4
#     4  11  24  43  70  99 132 170 221 269 331 391
#     4  10  20  38  68  89 128 174 209 263 332 377
#     4  11  22  41  67  92 134 170 220 264 322 385
#     4  11  23  42  66  98 131 174 216 271 324 388
#     4  11  23  43  71  96 131 174 214 274 331 391
#
# _framework density 23.351232
#
# number of rings (size 3 to 8) (size 9 to 14) (size 15 to 20)
#    0.000    1.200    4.000    3.600    0.000    0.000 
#   10.800    2.000    4.400    0.000    0.000    0.000 
#    0.000    0.000    0.000    0.000    0.000    0.000 
#
# Total GULP energy -112014.123994 kJ/mol
# GULP energy per Si atom -5600.706200 kJ/mol
# Density = 2.329808 g / cm^3
# Si number density = 23.351232 Si / 1000 Ang^3
#
#
#
# Elastic Constant Matrix: (Units=GPa)
#
#
# Indices 1 2 3 4 5 6 
#
# 1 55.6972 24.3890 7.5667 0.0000 0.0000 0.0000
# 2 24.3890 147.5055 89.0560 0.0000 0.0000 0.0000
# 3 7.5667 89.0560 195.9632 0.0000 0.0000 0.0000
# 4 0.0000 0.0000 0.0000 178.4799 0.0000 0.0000
# 5 0.0000 0.0000 0.0000 0.0000 34.7419 0.0000
# 6 0.0000 0.0000 0.0000 0.0000 0.0000 15.6428
#
#
#
# Elastic Compliance Matrix: (Units=1/GPa)
#
#
# Indices 1 2 3 4 5 6 
#
# 1 0.019492 -0.003815 0.000981 0.000000 0.000000 0.000000
# 2 -0.003815 0.010090 -0.004438 0.000000 0.000000 0.000000
# 3 0.000981 -0.004438 0.007082 0.000000 0.000000 0.000000
# 4 0.000000 0.000000 0.000000 0.005603 0.000000 0.000000
# 5 0.000000 0.000000 0.000000 0.000000 0.028784 0.000000
# 6 0.000000 0.000000 0.000000 0.000000 0.000000 0.063927
#
#
# Mechanical properties :
#
#
# Convention : Reuss Voigt Hill
#
# Bulk Modulus (GPa) = 45.20947 71.24323 58.22635
# Shear Modulus (GPa) = 31.86870 64.31654 48.09262
#
# Velocity S-wave (km/s) = 3.69827 5.25385 4.54313
# Velocity P-wave (km/s) = 6.13505 8.20850 7.24632
#
# Compressibility (1/GPa) = 0.02211926
#
# Stress axis : x y z
#
# Youngs Moduli (GPa) = 51.30430 99.11189 141.20423
#
# Poissons Ratio (x) = 0.37813 -0.13855
# Poissons Ratio (y) = 0.19573 0.62665
# Poissons Ratio (z) = -0.05034 0.43985
#
# Static dielectric constant tensor:
#      x y z
#    x 1.936700 0.000000 0.000000 
#    y 0.000000 1.794430 0.000000 
#    z 0.000000 0.000000 1.835280 
# 
# From -- ./inp_files/5404.got.cif
#   From: 2010.05.17/outbox.cif.g08.bks.cpg/sg18_3_cif.got.tgz:5404.got - 2010.06.03 22:40:56.
