data_PCOD9312872
_publ_section_title
;
Structure prediction by ZEFSAII (Michael W. Deem and Ramdas Pophale) SiO2 
 PCOD9312872
Probable space group: P 21 21 2
;
_chemical_formula_sum "Si O2"
_cell_formula_units_Z 20
_cell_length_a 17.032199
_cell_length_b 7.852368
_cell_length_c 6.007355
_cell_angle_alpha 90.000000
_cell_angle_beta 90.000000
_cell_angle_gamma 90.000000
_cell_volume 803.442247
_symmetry_space_group_name_H-M "P 21 21 2"
_symmetry_group_IT_number 18
_symmetry_cell_setting 'orthorhombic'
loop_
_space_group_symop_operation_xyz
x,y,z
-x,-y,z
1/2+x,1/2-y,-z
1/2-x,1/2+y,-z
loop_
_atom_site_type_symbol
_atom_site_label
_atom_site_fract_x
_atom_site_fract_y
_atom_site_fract_z
Si Si1 0.424718 0.924831 0.305984
Si Si2 0.648918 0.306149 0.940061
Si Si3 0.785487 0.506098 0.374109
Si Si4 0.821134 0.145277 0.255393
Si Si5 0.997601 0.177643 0.354302
O O1 0.355896 0.023702 0.441321
O O2 0.474929 0.827086 0.490463
O O3 0.500000 0.000000 0.167597
O O4 0.374314 0.793968 0.161016
O O5 0.690624 0.168299 0.776353
O O6 0.687402 0.494473 0.924750
O O7 0.563368 0.340943 0.831578
O O8 0.778494 0.327545 0.243057
O O9 0.709075 0.556399 0.517051
O O10 0.911650 0.198478 0.259414
O O11 0.000000 0.000000 0.488302
#
# Coordination Sequence:
#
# PCOD9312872 Si02
#       5
#     4   4   4   4   4
#     4  11  23  42  67 101 132 175 231 283 341 401
#     4  10  24  42  65 102 129 171 233 278 338 401
#     4  11  23  44  68  93 138 185 220 279 345 413
#     4  11  21  44  70  93 133 182 221 274 342 402
#     4   9  21  41  67  91 130 175 222 277 335 405
#
# _framework density 24.892892
#
# number of rings (size 3 to 8) (size 9 to 14) (size 15 to 20)
#    0.000    1.600    4.000    0.000    2.800    2.400 
#    3.600    2.000    0.000    0.000    0.000    0.000 
#    0.000    0.000    0.000    0.000    0.000    0.000 
#
# Total GULP energy -111680.689932 kJ/mol
# GULP energy per Si atom -5584.034497 kJ/mol
# Density = 2.483623 g / cm^3
# Si number density = 24.892892 Si / 1000 Ang^3
#
#
#
# Elastic Constant Matrix: (Units=GPa)
#
#
# Indices 1 2 3 4 5 6 
#
# 1 130.2569 28.5348 25.5340 0.0000 0.0000 0.0000
# 2 28.5348 165.4883 38.8858 0.0000 0.0000 0.0000
# 3 25.5340 38.8858 48.9562 0.0000 0.0000 0.0000
# 4 0.0000 0.0000 0.0000 10.6152 0.0000 0.0000
# 5 0.0000 0.0000 0.0000 0.0000 -17.4633 0.0000
# 6 0.0000 0.0000 0.0000 0.0000 0.0000 39.8508
#
#
#
# Elastic Compliance Matrix: (Units=1/GPa)
#
#
# Indices 1 2 3 4 5 6 
#
# 1 0.008589 -0.000527 -0.004061 0.000000 0.000000 0.000000
# 2 -0.000527 0.007462 -0.005652 0.000000 0.000000 0.000000
# 3 -0.004061 -0.005652 0.027034 0.000000 0.000000 0.000000
# 4 0.000000 0.000000 0.000000 0.094205 0.000000 0.000000
# 5 0.000000 0.000000 0.000000 0.000000 -0.057263 0.000000
# 6 0.000000 0.000000 0.000000 0.000000 0.000000 0.025094
#
#
# Mechanical properties :
#
#
# Convention : Reuss Voigt Hill
#
# Bulk Modulus (GPa) = 44.23915 58.95674 51.59795
# Shear Modulus (GPa) = 37.55599 23.38366 30.46982
#
# Velocity S-wave (km/s) = 3.88842 3.06824 3.50242
# Velocity P-wave (km/s) = 6.16199 6.02393 6.09335
#
# Compressibility (1/GPa) = 0.02260441
#
# Stress axis : x y z
#
# Youngs Moduli (GPa) = 116.43316 134.01898 36.99033
#
# Poissons Ratio (x) = 0.07058 0.15023
# Poissons Ratio (y) = 0.06132 0.20907
# Poissons Ratio (z) = 0.47287 0.75749
#
# Static dielectric constant tensor:
#      x y z
#    x 2.134410 0.000000 0.000000 
#    y 0.000000 2.080280 0.000000 
#    z 0.000000 0.000000 1.951380 
# 
# From -- ./inp_files/511.got.cif
#   From: 2010.05.17/outbox.cif.g08.bks.cpg/sg18_1_cif.got.tgz:511.got - 2010.06.03 22:40:56.
