data_PCOD9312177
_publ_section_title
;
Structure prediction by ZEFSAII (Michael W. Deem and Ramdas Pophale) SiO2 
 PCOD9312177
Probable space group: P 21 21 2
;
_chemical_formula_sum "Si O2"
_cell_formula_units_Z 32
_cell_length_a 18.720586
_cell_length_b 12.975890
_cell_length_c 5.424070
_cell_angle_alpha 90.000000
_cell_angle_beta 90.000000
_cell_angle_gamma 90.000000
_cell_volume 1317.594824
_symmetry_space_group_name_H-M "P 21 21 2"
_symmetry_group_IT_number 18
_symmetry_cell_setting 'orthorhombic'
loop_
_space_group_symop_operation_xyz
x,y,z
-x,-y,z
1/2+x,1/2-y,-z
1/2-x,1/2+y,-z
loop_
_atom_site_type_symbol
_atom_site_label
_atom_site_fract_x
_atom_site_fract_y
_atom_site_fract_z
Si Si1 0.439854 0.414745 0.513184
Si Si2 0.688090 0.676309 0.605332
Si Si3 0.017522 0.827377 0.987130
Si Si4 0.340510 0.797170 0.605376
Si Si5 0.704521 0.878021 0.916024
Si Si6 0.574573 0.000476 0.669690
Si Si7 0.354831 0.669881 0.107211
Si Si8 0.401750 0.161843 0.292312
O O1 0.500000 0.500000 0.551332
O O2 0.358727 0.427973 0.616481
O O3 0.441240 0.396404 0.217321
O O4 0.467847 0.334603 0.723875
O O5 0.762457 0.660155 0.469347
O O6 0.700105 0.756078 0.832754
O O7 0.633085 0.745377 0.446316
O O8 0.935966 0.858681 0.943912
O O9 0.044211 0.714237 0.901041
O O10 0.356530 0.720022 0.379659
O O11 0.399796 0.885407 0.609752
O O12 0.337945 0.745498 0.874714
O O13 0.646151 0.945550 0.773540
O O14 0.787052 0.906711 0.891035
O O15 0.671067 0.886329 0.184546
O O16 0.558435 0.924875 0.442726
O O17 0.500000 0.000000 0.819249
#
# Coordination Sequence:
#
# PCOD9312177 Si02
#       8
#     4   4   4   4   4   4   4   4
#     4  11  23  40  64  98 127 161 216 281 333 384
#     4   9  20  41  64  88 125 176 218 260 334 401
#     4  11  23  41  68  93 128 175 220 271 332 404
#     4  11  24  42  63  97 132 172 216 280 329 393
#     4  10  21  41  65  89 128 176 223 265 326 416
#     4  11  26  40  63 101 139 176 223 288 347 398
#     4  11  24  43  67  95 129 173 228 264 327 406
#     4  10  20  40  65  89 125 180 221 268 329 416
#
# _framework density 24.286677999999998
#
# number of rings (size 3 to 8) (size 9 to 14) (size 15 to 20)
#    0.000    1.500    2.500    1.875    3.500    1.500 
#    2.250    0.000    0.000    0.000    0.000    0.000 
#    0.000    0.000    0.000    0.000    0.000    0.000 
#
# Total GULP energy -178264.268704 kJ/mol
# GULP energy per Si atom -5570.758397 kJ/mol
# Density = 2.423140 g / cm^3
# Si number density = 24.286678 Si / 1000 Ang^3
#
#
#
# Elastic Constant Matrix: (Units=GPa)
#
#
# Indices 1 2 3 4 5 6 
#
# 1 139.4048 5.7272 21.8913 0.0000 0.0000 0.0000
# 2 5.7272 18.8498 15.9042 0.0000 0.0000 0.0000
# 3 21.8913 15.9042 69.3732 0.0000 0.0000 0.0000
# 4 0.0000 0.0000 0.0000 14.2471 0.0000 0.0000
# 5 0.0000 0.0000 0.0000 0.0000 27.3945 0.0000
# 6 0.0000 0.0000 0.0000 0.0000 0.0000 32.9539
#
#
#
# Elastic Compliance Matrix: (Units=1/GPa)
#
#
# Indices 1 2 3 4 5 6 
#
# 1 0.007549 -0.000352 -0.002302 0.000000 0.000000 0.000000
# 2 -0.000352 0.065790 -0.014972 0.000000 0.000000 0.000000
# 3 -0.002302 -0.014972 0.018573 0.000000 0.000000 0.000000
# 4 0.000000 0.000000 0.000000 0.070190 0.000000 0.000000
# 5 0.000000 0.000000 0.000000 0.000000 0.036504 0.000000
# 6 0.000000 0.000000 0.000000 0.000000 0.000000 0.030345
#
#
# Mechanical properties :
#
#
# Convention : Reuss Voigt Hill
#
# Bulk Modulus (GPa) = 17.64841 34.96371 26.30606
# Shear Modulus (GPa) = 17.66232 27.19278 22.42755
#
# Velocity S-wave (km/s) = 2.69967 3.34976 3.04213
# Velocity P-wave (km/s) = 4.12312 5.42113 4.81606
#
# Compressibility (1/GPa) = 0.05666234
#
# Stress axis : x y z
#
# Youngs Moduli (GPa) = 132.46377 15.19994 53.84047
#
# Poissons Ratio (x) = 0.00535 0.12392
# Poissons Ratio (y) = 0.04660 0.80608
# Poissons Ratio (z) = 0.30488 0.22757
#
# Static dielectric constant tensor:
#      x y z
#    x 2.028610 0.000000 0.000000 
#    y 0.000000 2.231320 0.000000 
#    z 0.000000 0.000000 1.980990 
# 
# From -- ./inp_files/1863.got.cif
#   From: 2010.05.17/outbox.cif.g08.bks.cpg/sg18_1_cif.got.tgz:1863.got - 2010.06.03 22:40:56.
