data_PCOD9312738
_publ_section_title
;
Structure prediction by ZEFSAII (Michael W. Deem and Ramdas Pophale) SiO2 
 PCOD9312738
Probable space group: P 21 21 2
;
_chemical_formula_sum "Si O2"
_cell_formula_units_Z 20
_cell_length_a 5.205057
_cell_length_b 8.851138
_cell_length_c 19.353559
_cell_angle_alpha 90.000000
_cell_angle_beta 90.000000
_cell_angle_gamma 90.000000
_cell_volume 891.631581
_symmetry_space_group_name_H-M "P 21 21 2"
_symmetry_group_IT_number 18
_symmetry_cell_setting 'orthorhombic'
loop_
_space_group_symop_operation_xyz
x,y,z
-x,-y,z
1/2+x,1/2-y,-z
1/2-x,1/2+y,-z
loop_
_atom_site_type_symbol
_atom_site_label
_atom_site_fract_x
_atom_site_fract_y
_atom_site_fract_z
Si Si1 0.343642 0.711527 0.041148
Si Si2 0.384593 0.828516 0.308850
Si Si3 0.512694 0.182962 0.464864
Si Si4 0.500000 0.000000 0.882960
Si Si5 0.660230 0.764464 0.175100
Si Si6 0.000000 0.000000 0.235172
O O1 0.467234 0.776556 0.111080
O O2 0.580023 0.712348 0.987381
O O3 0.727523 0.945585 0.932553
O O4 0.422169 0.771668 0.385787
O O5 0.512749 0.734650 0.247123
O O6 0.500000 0.000000 0.308886
O O7 0.096415 0.865088 0.284499
O O8 0.242149 0.252925 0.488080
O O9 0.500000 0.000000 0.468829
O O10 0.625465 0.136951 0.840208
O O11 0.791475 0.925484 0.186469
#
# Coordination Sequence:
#
# PCOD9312738 Si02
#       6
#     4   4   4   2   4   2
#     4  12  27  51  71 103 143 188 233 294 370 431
#     4   9  22  42  73 102 143 195 242 294 355 440
#     4  11  25  46  75 111 154 198 250 307 373 444
#     4  12  26  52  74 106 146 186 234 316 364 426
#     4  11  24  48  73 112 138 193 240 300 361 433
#     4  10  22  46  76 104 142 190 250 290 356 438
#
# _framework density 22.430786999999999
#
# number of rings (size 3 to 8) (size 9 to 14) (size 15 to 20)
#    0.000    1.200    2.000    2.400    8.400    0.000 
#   14.400    4.000    0.000    0.000    0.000    0.000 
#    0.000    0.000    0.000    0.000    0.000    0.000 
#
# Total GULP energy -111719.578464 kJ/mol
# GULP energy per Si atom -5585.978923 kJ/mol
# Density = 2.237973 g / cm^3
# Si number density = 22.430787 Si / 1000 Ang^3
#
#
#
# Elastic Constant Matrix: (Units=GPa)
#
#
# Indices 1 2 3 4 5 6 
#
# 1 119.3277 15.2844 39.8025 0.0000 0.0000 0.0000
# 2 15.2844 39.8913 33.2656 0.0000 0.0000 0.0000
# 3 39.8025 33.2656 127.4901 0.0000 0.0000 0.0000
# 4 0.0000 0.0000 0.0000 -71.0954 0.0000 0.0000
# 5 0.0000 0.0000 0.0000 0.0000 33.3429 0.0000
# 6 0.0000 0.0000 0.0000 0.0000 0.0000 36.3199
#
#
#
# Elastic Compliance Matrix: (Units=1/GPa)
#
#
# Indices 1 2 3 4 5 6 
#
# 1 0.009422 -0.001479 -0.002556 0.000000 0.000000 0.000000
# 2 -0.001479 0.032272 -0.007959 0.000000 0.000000 0.000000
# 3 -0.002556 -0.007959 0.010718 0.000000 0.000000 0.000000
# 4 0.000000 0.000000 0.000000 -0.014066 0.000000 0.000000
# 5 0.000000 0.000000 0.000000 0.000000 0.029991 0.000000
# 6 0.000000 0.000000 0.000000 0.000000 0.000000 0.027533
#
#
# Mechanical properties :
#
#
# Convention : Reuss Voigt Hill
#
# Bulk Modulus (GPa) = 35.17997 51.49045 43.33521
# Shear Modulus (GPa) = 38.65988 12.93725 25.79856
#
# Velocity S-wave (km/s) = 4.15603 2.40419 3.39505
# Velocity P-wave (km/s) = 6.22479 5.54184 5.89321
#
# Compressibility (1/GPa) = 0.02842527
#
# Stress axis : x y z
#
# Youngs Moduli (GPa) = 106.13242 30.98695 93.29818
#
# Poissons Ratio (x) = 0.04583 0.23845
# Poissons Ratio (y) = 0.15696 0.74254
# Poissons Ratio (z) = 0.27125 0.24662
#
# Static dielectric constant tensor:
#      x y z
#    x 3.722150 0.000000 0.000000 
#    y 0.000000 1.858490 0.000000 
#    z 0.000000 0.000000 1.819480 
# 
# From -- ./inp_files/7103.got.cif
#   From: 2010.05.17/outbox.cif.g08.bks.cpg/sg18_4_cif.got.tgz:7103.got - 2010.06.03 22:40:56.
