data_PCOD9312771
_publ_section_title
;
Structure prediction by ZEFSAII (Michael W. Deem and Ramdas Pophale) SiO2 
 PCOD9312771
Probable space group: P 21 21 2
;
_chemical_formula_sum "Si O2"
_cell_formula_units_Z 20
_cell_length_a 7.625212
_cell_length_b 22.038841
_cell_length_c 5.290824
_cell_angle_alpha 90.000000
_cell_angle_beta 90.000000
_cell_angle_gamma 90.000000
_cell_volume 889.127390
_symmetry_space_group_name_H-M "P 21 21 2"
_symmetry_group_IT_number 18
_symmetry_cell_setting 'orthorhombic'
loop_
_space_group_symop_operation_xyz
x,y,z
-x,-y,z
1/2+x,1/2-y,-z
1/2-x,1/2+y,-z
loop_
_atom_site_type_symbol
_atom_site_label
_atom_site_fract_x
_atom_site_fract_y
_atom_site_fract_z
Si Si1 0.914890 0.065354 0.714551
Si Si2 0.435610 0.934068 0.429894
Si Si3 0.587238 0.309501 0.261164
Si Si4 0.523147 0.757896 0.769284
Si Si5 0.092014 0.381621 0.069476
O O1 0.772954 0.065835 0.486290
O O2 0.779338 0.084668 0.935536
O O3 0.052933 0.119556 0.692990
O O4 0.000000 0.000000 0.744448
O O5 0.510488 0.916817 0.706585
O O6 0.500000 0.000000 0.351242
O O7 0.483973 0.886938 0.210163
O O8 0.512448 0.273413 0.502616
O O9 0.788420 0.289879 0.234168
O O10 0.497079 0.288467 0.000202
O O11 0.391619 0.813576 0.829936
#
# Coordination Sequence:
#
# PCOD9312771 Si02
#       5
#     4   4   4   4   4
#     4  10  26  44  68 102 143 184 234 286 349 421
#     4  10  23  41  68  94 140 179 231 283 342 418
#     4  12  27  46  74 105 145 184 240 289 362 410
#     4  12  26  48  74 107 140 189 234 300 348 429
#     4  10  23  43  70  99 135 180 236 279 352 404
#
# _framework density 22.493964999999999
#
# number of rings (size 3 to 8) (size 9 to 14) (size 15 to 20)
#    1.200    0.000    0.000    5.400    8.400    0.800 
#    0.000    0.000    0.000    0.000    0.000    0.000 
#    0.000    0.000    0.000    0.000    0.000    0.000 
#
# Total GULP energy -111651.912139 kJ/mol
# GULP energy per Si atom -5582.595607 kJ/mol
# Density = 2.244277 g / cm^3
# Si number density = 22.493965 Si / 1000 Ang^3
#
#
#
# Elastic Constant Matrix: (Units=GPa)
#
#
# Indices 1 2 3 4 5 6 
#
# 1 55.7571 -4.1542 30.4552 0.0000 0.0000 0.0000
# 2 -4.1542 105.9579 25.0481 0.0000 0.0000 0.0000
# 3 30.4552 25.0481 117.9841 0.0000 0.0000 0.0000
# 4 0.0000 0.0000 0.0000 2.5848 0.0000 0.0000
# 5 0.0000 0.0000 0.0000 0.0000 3.6091 0.0000
# 6 0.0000 0.0000 0.0000 0.0000 0.0000 40.4845
#
#
#
# Elastic Compliance Matrix: (Units=1/GPa)
#
#
# Indices 1 2 3 4 5 6 
#
# 1 0.021379 0.002256 -0.005997 0.000000 0.000000 0.000000
# 2 0.002256 0.010174 -0.002742 0.000000 0.000000 0.000000
# 3 -0.005997 -0.002742 0.010606 0.000000 0.000000 0.000000
# 4 0.000000 0.000000 0.000000 0.386881 0.000000 0.000000
# 5 0.000000 0.000000 0.000000 0.000000 0.277078 0.000000
# 6 0.000000 0.000000 0.000000 0.000000 0.000000 0.024701
#
#
# Mechanical properties :
#
#
# Convention : Reuss Voigt Hill
#
# Bulk Modulus (GPa) = 34.25640 42.48859 38.37250
# Shear Modulus (GPa) = 6.63554 24.55901 15.59728
#
# Velocity S-wave (km/s) = 1.71940 3.30783 2.63610
# Velocity P-wave (km/s) = 4.38223 5.78955 5.13434
#
# Compressibility (1/GPa) = 0.02919163
#
# Stress axis : x y z
#
# Youngs Moduli (GPa) = 46.77513 98.28547 94.28587
#
# Poissons Ratio (x) = -0.22173 0.56548
# Poissons Ratio (y) = -0.10552 0.25857
# Poissons Ratio (z) = 0.28053 0.26953
#
# Static dielectric constant tensor:
#      x y z
#    x 1.870650 0.000000 0.000000 
#    y 0.000000 1.847040 0.000000 
#    z 0.000000 0.000000 1.846640 
# 
# From -- ./inp_files/538.got.cif
#   From: 2010.05.17/outbox.cif.g08.bks.cpg/sg18_1_cif.got.tgz:538.got - 2010.06.03 22:40:56.
