data_PCOD9313510
_publ_section_title
;
Structure prediction by ZEFSAII (Michael W. Deem and Ramdas Pophale) SiO2 
 PCOD9313510
Probable space group: P 21 21 21
;
_chemical_formula_sum "Si O2"
_cell_formula_units_Z 24
_cell_length_a 11.656087
_cell_length_b 11.146157
_cell_length_c 7.459877
_cell_angle_alpha 90.000000
_cell_angle_beta 90.000000
_cell_angle_gamma 90.000000
_cell_volume 969.191515
_symmetry_space_group_name_H-M "P 21 21 21"
_symmetry_group_IT_number 19
_symmetry_cell_setting 'orthorhombic'
loop_
_space_group_symop_operation_xyz
x,y,z
1/2-x,-y,1/2+z
1/2+x,1/2-y,-z
-x,1/2+y,1/2-z
loop_
_atom_site_type_symbol
_atom_site_label
_atom_site_fract_x
_atom_site_fract_y
_atom_site_fract_z
Si Si1 0.210317 0.334425 0.274689
Si Si2 0.960245 0.703956 0.997129
Si Si3 0.421671 0.541030 0.465102
Si Si4 0.660263 0.642814 0.367696
Si Si5 0.429038 0.537823 0.050171
Si Si6 0.137678 0.095938 0.860812
O O1 0.179801 0.434431 0.424671
O O2 0.134081 0.221687 0.346805
O O3 0.329795 0.270418 0.232429
O O4 0.162625 0.391100 0.094591
O O5 0.043866 0.592798 0.029748
O O6 0.895182 0.678255 0.808963
O O7 0.003758 0.840493 0.983896
O O8 0.539646 0.617742 0.462731
O O9 0.389597 0.533802 0.255874
O O10 0.673002 0.529399 0.234758
O O11 0.760640 0.640063 0.515138
O O12 0.520368 0.431733 0.028797
#
# Coordination Sequence:
#
# PCOD9313510 Si02
#       6
#     4   4   4   4   4   4
#     4  10  20  34  54  81 116 153 180 225 297 327
#     4   8  18  33  52  81 110 147 184 223 277 344
#     4  10  20  37  53  86 117 140 192 235 274 335
#     4  10  20  32  56  87 117 143 192 239 277 338
#     4   8  19  32  50  78 113 149 175 228 276 339
#     4  10  19  32  55  87 117 144 187 240 281 325
#
# _framework density 24.762909000000001
#
# number of rings (size 3 to 8) (size 9 to 14) (size 15 to 20)
#    1.000    2.000    0.000    3.000    4.667    0.000 
#    0.000    0.000    0.000    4.000    0.000    0.000 
#    0.000    0.000    0.000    0.000    0.000    0.000 
#
# Total GULP energy -134043.725306 kJ/mol
# GULP energy per Si atom -5585.155221 kJ/mol
# Density = 2.470655 g / cm^3
# Si number density = 24.762909 Si / 1000 Ang^3
#
#
#
# Elastic Constant Matrix: (Units=GPa)
#
#
# Indices 1 2 3 4 5 6 
#
# 1 56.0498 31.6293 20.4331 0.0000 0.0000 0.0000
# 2 31.6293 98.0662 11.6744 0.0000 0.0000 0.0000
# 3 20.4331 11.6744 47.6731 0.0000 0.0000 0.0000
# 4 0.0000 0.0000 0.0000 27.5228 0.0000 0.0000
# 5 0.0000 0.0000 0.0000 0.0000 30.5641 0.0000
# 6 0.0000 0.0000 0.0000 0.0000 0.0000 48.6198
#
#
#
# Elastic Compliance Matrix: (Units=1/GPa)
#
#
# Indices 1 2 3 4 5 6 
#
# 1 0.025097 -0.007018 -0.009038 0.000000 0.000000 0.000000
# 2 -0.007018 0.012466 -0.000045 0.000000 0.000000 0.000000
# 3 -0.009038 -0.000045 0.024861 0.000000 0.000000 0.000000
# 4 0.000000 0.000000 0.000000 0.036334 0.000000 0.000000
# 5 0.000000 0.000000 0.000000 0.000000 0.032718 0.000000
# 6 0.000000 0.000000 0.000000 0.000000 0.000000 0.020568
#
#
# Mechanical properties :
#
#
# Convention : Reuss Voigt Hill
#
# Bulk Modulus (GPa) = 33.08883 36.58473 34.83678
# Shear Modulus (GPa) = 25.73087 30.54482 28.13785
#
# Velocity S-wave (km/s) = 3.22699 3.51592 3.37455
# Velocity P-wave (km/s) = 5.22263 5.59360 5.41129
#
# Compressibility (1/GPa) = 0.03022168
#
# Stress axis : x y z
#
# Youngs Moduli (GPa) = 39.84593 80.21706 40.22385
#
# Poissons Ratio (x) = 0.56300 0.36354
# Poissons Ratio (y) = 0.27966 0.00179
# Poissons Ratio (z) = 0.36013 0.00358
#
# Static dielectric constant tensor:
#      x y z
#    x 1.993210 0.000000 0.000000 
#    y 0.000000 2.021620 0.000000 
#    z 0.000000 0.000000 1.947000 
# 
# From -- ./inp_files/3866.got.cif
#   From: 2010.05.17/outbox.cif.g08.bks.cpg/sg19_2_cif.got.tgz:3866.got - 2010.06.03 22:46:19.
