data_PCOD9313389
_publ_section_title
;
Structure prediction by ZEFSAII (Michael W. Deem and Ramdas Pophale) SiO2 
 PCOD9313389
Probable space group: P 21 21 21
;
_chemical_formula_sum "Si O2"
_cell_formula_units_Z 32
_cell_length_a 18.461621
_cell_length_b 13.877875
_cell_length_c 7.705220
_cell_angle_alpha 90.000000
_cell_angle_beta 90.000000
_cell_angle_gamma 90.000000
_cell_volume 1974.139534
_symmetry_space_group_name_H-M "P 21 21 21"
_symmetry_group_IT_number 19
_symmetry_cell_setting 'orthorhombic'
loop_
_space_group_symop_operation_xyz
x,y,z
1/2-x,-y,1/2+z
1/2+x,1/2-y,-z
-x,1/2+y,1/2-z
loop_
_atom_site_type_symbol
_atom_site_label
_atom_site_fract_x
_atom_site_fract_y
_atom_site_fract_z
Si Si1 0.762552 0.890352 0.679914
Si Si2 0.505701 0.388252 0.129569
Si Si3 0.907593 0.204137 0.575960
Si Si4 0.097996 0.615818 0.301354
Si Si5 0.402264 0.611810 0.779382
Si Si6 0.000832 0.886687 0.880421
Si Si7 0.592701 0.205581 0.076331
Si Si8 0.256370 0.388263 0.409692
O O1 0.679791 0.867834 0.629221
O O2 0.823735 0.822185 0.603201
O O3 0.778206 0.001127 0.629433
O O4 0.763016 0.883397 0.887561
O O5 0.459944 0.358840 0.300121
O O6 0.521901 0.501528 0.130587
O O7 0.573304 0.316207 0.113945
O O8 0.456568 0.368506 0.959202
O O9 0.915772 0.175948 0.373170
O O10 0.825010 0.179002 0.625096
O O11 0.932185 0.313714 0.604509
O O12 0.094636 0.503134 0.246370
O O13 0.428865 0.672592 0.616349
O O14 0.317515 0.634467 0.810055
O O15 0.449330 0.628580 0.951701
O O16 0.953678 0.856456 0.713803
#
# Coordination Sequence:
#
# PCOD9313389 Si02
#       8
#     4   4   4   4   4   4   4   4
#     4  10  18  30  49  78 104 126 160 209 259 296
#     4  10  21  33  52  73 100 134 168 201 247 297
#     4  10  20  32  51  75 102 130 164 203 248 302
#     4   9  19  32  49  79 100 127 158 206 256 294
#     4  10  19  31  53  76 106 126 159 211 254 297
#     4  10  20  36  50  72 104 134 166 206 248 294
#     4  11  20  32  51  78 100 132 166 201 250 302
#     4  10  19  30  51  79 102 129 159 209 260 296
#
# _framework density 16.209593000000002
#
# number of rings (size 3 to 8) (size 9 to 14) (size 15 to 20)
#    0.000    2.000    1.250    4.500    5.250    0.000 
#    0.000    0.000    0.000    3.000    0.000    0.000 
#    0.000    0.000    0.000    0.000    0.000    0.000 
#
# Total GULP energy -178535.564199 kJ/mol
# GULP energy per Si atom -5579.236381 kJ/mol
# Density = 1.617270 g / cm^3
# Si number density = 16.209593 Si / 1000 Ang^3
#
#
#
# Elastic Constant Matrix: (Units=GPa)
#
#
# Indices 1 2 3 4 5 6 
#
# 1 64.1541 56.7775 27.5140 0.0000 0.0000 0.0000
# 2 56.7775 107.9756 40.3607 0.0000 0.0000 0.0000
# 3 27.5140 40.3607 63.5501 0.0000 0.0000 0.0000
# 4 0.0000 0.0000 0.0000 3.8054 0.0000 0.0000
# 5 0.0000 0.0000 0.0000 0.0000 13.4107 0.0000
# 6 0.0000 0.0000 0.0000 0.0000 0.0000 22.6515
#
#
#
# Elastic Compliance Matrix: (Units=1/GPa)
#
#
# Indices 1 2 3 4 5 6 
#
# 1 0.029867 -0.014256 -0.003877 0.000000 0.000000 0.000000
# 2 -0.014256 0.018949 -0.005862 0.000000 0.000000 0.000000
# 3 -0.003877 -0.005862 0.021137 0.000000 0.000000 0.000000
# 4 0.000000 0.000000 0.000000 0.262784 0.000000 0.000000
# 5 0.000000 0.000000 0.000000 0.000000 0.074567 0.000000
# 6 0.000000 0.000000 0.000000 0.000000 0.000000 0.044147
#
#
# Mechanical properties :
#
#
# Convention : Reuss Voigt Hill
#
# Bulk Modulus (GPa) = 45.53168 53.88714 49.70941
# Shear Modulus (GPa) = 9.86655 15.37538 12.62096
#
# Velocity S-wave (km/s) = 2.46983 3.08317 2.79339
# Velocity P-wave (km/s) = 6.02360 6.78165 6.41383
#
# Compressibility (1/GPa) = 0.02196273
#
# Stress axis : x y z
#
# Youngs Moduli (GPa) = 33.48188 52.77325 47.30965
#
# Poissons Ratio (x) = 0.75233 0.18341
# Poissons Ratio (y) = 0.47732 0.27735
# Poissons Ratio (z) = 0.12981 0.30938
#
# Static dielectric constant tensor:
#      x y z
#    x 1.545570 0.000000 0.000000 
#    y 0.000000 1.521960 0.000000 
#    z 0.000000 0.000000 1.559980 
# 
# From -- ./inp_files/3701.got.cif
#   From: 2010.05.17/outbox.cif.g08.bks.cpg/sg19_2_cif.got.tgz:3701.got - 2010.06.03 22:46:19.
