data_PCOD9313455
_publ_section_title
;
Structure prediction by ZEFSAII (Michael W. Deem and Ramdas Pophale) SiO2 
 PCOD9313455
Probable space group: P 21 21 21
;
_chemical_formula_sum "Si O2"
_cell_formula_units_Z 32
_cell_length_a 9.407408
_cell_length_b 10.492992
_cell_length_c 14.181831
_cell_angle_alpha 90.000000
_cell_angle_beta 90.000000
_cell_angle_gamma 90.000000
_cell_volume 1399.914872
_symmetry_space_group_name_H-M "P 21 21 21"
_symmetry_group_IT_number 19
_symmetry_cell_setting 'orthorhombic'
loop_
_space_group_symop_operation_xyz
x,y,z
1/2-x,-y,1/2+z
1/2+x,1/2-y,-z
-x,1/2+y,1/2-z
loop_
_atom_site_type_symbol
_atom_site_label
_atom_site_fract_x
_atom_site_fract_y
_atom_site_fract_z
Si Si1 0.302731 0.703316 0.146746
Si Si2 0.317720 0.313294 0.213887
Si Si3 0.585586 0.669676 0.557530
Si Si4 0.091877 0.123017 0.126974
Si Si5 0.415628 0.484343 0.697241
Si Si6 0.357200 0.826609 0.350261
Si Si7 0.084542 0.915673 0.809327
Si Si8 0.354035 0.975776 0.101134
O O1 0.155807 0.627091 0.132770
O O2 0.300176 0.763277 0.253069
O O3 0.430561 0.602584 0.147425
O O4 0.356705 0.824439 0.087053
O O5 0.213994 0.223655 0.154333
O O6 0.223285 0.436995 0.233787
O O7 0.472098 0.320853 0.163164
O O8 0.349016 0.224187 0.303973
O O9 0.499818 0.801645 0.551187
O O10 0.516557 0.587487 0.644569
O O11 0.746331 0.720718 0.572759
O O12 0.575217 0.570142 0.473055
O O13 0.184745 0.002711 0.098702
O O14 0.998936 0.082731 0.217363
O O15 0.326336 0.977908 0.360949
O O16 0.082612 0.978107 0.703031
#
# Coordination Sequence:
#
# PCOD9313455 Si02
#       8
#     4   4   4   4   4   4   4   4
#     4  10  19  36  63  87 120 158 212 254 304 375
#     4   9  19  32  59  90 113 145 210 255 291 356
#     4  11  23  39  62  88 131 162 203 266 328 358
#     4  10  22  39  61  90 120 164 212 258 304 377
#     4  11  20  38  62  90 121 166 207 257 310 378
#     4  10  18  36  60  87 113 163 206 251 302 377
#     4   9  18  36  61  85 115 158 209 255 291 376
#     4  10  23  40  58  93 127 162 209 264 318 371
#
# _framework density 22.858533999999999
#
# number of rings (size 3 to 8) (size 9 to 14) (size 15 to 20)
#    0.000    2.000    2.500    2.250    1.750    3.000 
#    2.250    0.000    0.000    0.000    0.000    0.000 
#    0.000    0.000    0.000    0.000    0.000    0.000 
#
# Total GULP energy -178196.967120 kJ/mol
# GULP energy per Si atom -5568.655223 kJ/mol
# Density = 2.280651 g / cm^3
# Si number density = 22.858534 Si / 1000 Ang^3
#
#
#
# Elastic Constant Matrix: (Units=GPa)
#
#
# Indices 1 2 3 4 5 6 
#
# 1 133.2092 27.9313 11.6651 0.0000 0.0000 0.0000
# 2 27.9313 72.1653 -19.6963 0.0000 0.0000 0.0000
# 3 11.6651 -19.6963 15.9597 0.0000 0.0000 0.0000
# 4 0.0000 0.0000 0.0000 18.7525 0.0000 0.0000
# 5 0.0000 0.0000 0.0000 0.0000 17.0265 0.0000
# 6 0.0000 0.0000 0.0000 0.0000 0.0000 41.5649
#
#
#
# Elastic Compliance Matrix: (Units=1/GPa)
#
#
# Indices 1 2 3 4 5 6 
#
# 1 0.011462 -0.010137 -0.020888 0.000000 0.000000 0.000000
# 2 -0.010137 0.029861 0.044262 0.000000 0.000000 0.000000
# 3 -0.020888 0.044262 0.132551 0.000000 0.000000 0.000000
# 4 0.000000 0.000000 0.000000 0.053326 0.000000 0.000000
# 5 0.000000 0.000000 0.000000 0.000000 0.058732 0.000000
# 6 0.000000 0.000000 0.000000 0.000000 0.000000 0.024059
#
#
# Mechanical properties :
#
#
# Convention : Reuss Voigt Hill
#
# Bulk Modulus (GPa) = 4.99133 29.01494 17.00314
# Shear Modulus (GPa) = 14.27347 28.89773 21.58560
#
# Velocity S-wave (km/s) = 2.50156 3.55941 3.07630
# Velocity P-wave (km/s) = 3.24532 5.44182 4.48026
#
# Compressibility (1/GPa) = 0.20034727
#
# Stress axis : x y z
#
# Youngs Moduli (GPa) = 87.24637 33.48806 7.54427
#
# Poissons Ratio (x) = 0.33948 0.15759
# Poissons Ratio (y) = 0.88445 -0.33393
# Poissons Ratio (z) = 1.82244 -1.48226
#
# Static dielectric constant tensor:
#      x y z
#    x 1.901320 0.000000 0.000000 
#    y 0.000000 1.897680 0.000000 
#    z 0.000000 0.000000 1.934190 
# 
# From -- ./inp_files/6676.got.cif
#   From: 2010.05.17/outbox.cif.g08.bks.cpg/sg19_4_cif.got.tgz:6676.got - 2010.06.03 22:46:19.
