data_PCOD9313176
_publ_section_title
;
Structure prediction by ZEFSAII (Michael W. Deem and Ramdas Pophale) SiO2 
 PCOD9313176
Probable space group: P 21 21 2
;
_chemical_formula_sum "Si O2"
_cell_formula_units_Z 24
_cell_length_a 8.564857
_cell_length_b 9.255764
_cell_length_c 12.434357
_cell_angle_alpha 90.000000
_cell_angle_beta 90.000000
_cell_angle_gamma 90.000000
_cell_volume 985.724886
_symmetry_space_group_name_H-M "P 21 21 2"
_symmetry_group_IT_number 18
_symmetry_cell_setting 'orthorhombic'
loop_
_space_group_symop_operation_xyz
x,y,z
-x,-y,z
1/2+x,1/2-y,-z
1/2-x,1/2+y,-z
loop_
_atom_site_type_symbol
_atom_site_label
_atom_site_fract_x
_atom_site_fract_y
_atom_site_fract_z
Si Si1 0.635507 0.791344 0.780033
Si Si2 0.363133 0.112214 0.208661
Si Si3 0.831876 0.057885 0.044854
Si Si4 0.365984 0.106247 0.465906
Si Si5 0.212454 0.395529 0.179464
Si Si6 0.630458 0.600305 0.583223
O O1 0.658097 0.710053 0.892805
O O2 0.448286 0.824959 0.774128
O O3 0.699549 0.685803 0.686389
O O4 0.720350 0.944865 0.771284
O O5 0.351515 0.101170 0.337086
O O6 0.356682 0.284886 0.191639
O O7 0.500000 0.000000 0.177974
O O8 0.222378 0.056189 0.134828
O O9 0.709345 0.073546 0.948347
O O10 0.000000 0.000000 0.005206
O O11 0.402258 0.263154 0.508118
O O12 0.500000 0.000000 0.503211
O O13 0.211691 0.017533 0.494131
O O14 0.500000 0.500000 0.635346
#
# Coordination Sequence:
#
# PCOD9313176 Si02
#       6
#     4   4   4   4   4   4
#     4  11  25  44  72 107 144 194 256 312 379 458
#     4  11  25  45  68 101 154 194 244 315 386 445
#     4  12  24  46  71 103 148 200 253 309 385 451
#     4  11  26  46  71 108 145 190 244 317 379 447
#     4  11  26  42  72 107 144 199 261 311 368 462
#     4  12  25  48  80 105 145 199 250 312 384 462
#
# _framework density 24.347564999999999
#
# number of rings (size 3 to 8) (size 9 to 14) (size 15 to 20)
#    0.000    0.667    3.333    3.500    9.333    0.000 
#    0.000    0.000    0.000    0.000    0.000    0.000 
#    0.000    0.000    0.000    0.000    0.000    0.000 
#
# Total GULP energy -133919.107345 kJ/mol
# GULP energy per Si atom -5579.962806 kJ/mol
# Density = 2.429215 g / cm^3
# Si number density = 24.347565 Si / 1000 Ang^3
#
#
#
# Elastic Constant Matrix: (Units=GPa)
#
#
# Indices 1 2 3 4 5 6 
#
# 1 33.2983 34.5795 6.7152 0.0000 0.0000 0.0000
# 2 34.5795 211.3826 29.3120 0.0000 0.0000 0.0000
# 3 6.7152 29.3120 66.8100 0.0000 0.0000 0.0000
# 4 0.0000 0.0000 0.0000 77.3533 0.0000 0.0000
# 5 0.0000 0.0000 0.0000 0.0000 66.8288 0.0000
# 6 0.0000 0.0000 0.0000 0.0000 0.0000 41.4722
#
#
#
# Elastic Compliance Matrix: (Units=1/GPa)
#
#
# Indices 1 2 3 4 5 6 
#
# 1 0.036254 -0.005777 -0.001109 0.000000 0.000000 0.000000
# 2 -0.005777 0.005958 -0.002033 0.000000 0.000000 0.000000
# 3 -0.001109 -0.002033 0.015971 0.000000 0.000000 0.000000
# 4 0.000000 0.000000 0.000000 0.012928 0.000000 0.000000
# 5 0.000000 0.000000 0.000000 0.000000 0.014964 0.000000
# 6 0.000000 0.000000 0.000000 0.000000 0.000000 0.024113
#
#
# Mechanical properties :
#
#
# Convention : Reuss Voigt Hill
#
# Bulk Modulus (GPa) = 24.78657 50.30048 37.54352
# Shear Modulus (GPa) = 35.34197 53.18979 44.26588
#
# Velocity S-wave (km/s) = 3.81407 4.67905 4.26852
# Velocity P-wave (km/s) = 5.44046 7.06367 6.30452
#
# Compressibility (1/GPa) = 0.04034443
#
# Stress axis : x y z
#
# Youngs Moduli (GPa) = 27.58278 167.84898 62.61194
#
# Poissons Ratio (x) = 0.96965 0.06946
# Poissons Ratio (y) = 0.15934 0.12730
# Poissons Ratio (z) = 0.03060 0.34128
#
# Static dielectric constant tensor:
#      x y z
#    x 1.446790 0.000000 0.000000 
#    y 0.000000 1.962040 0.000000 
#    z 0.000000 0.000000 1.913400 
# 
# From -- ./inp_files/6652.got.cif
#   From: 2010.05.17/outbox.cif.g08.bks.cpg/sg18_4_cif.got.tgz:6652.got - 2010.06.03 22:40:56.
