data_PCOD9313645
_publ_section_title
;
Structure prediction by ZEFSAII (Michael W. Deem and Ramdas Pophale) SiO2 
 PCOD9313645
Probable space group: P 21 21 21
;
_chemical_formula_sum "Si O2"
_cell_formula_units_Z 32
_cell_length_a 13.782342
_cell_length_b 15.848980
_cell_length_c 5.491518
_cell_angle_alpha 90.000000
_cell_angle_beta 90.000000
_cell_angle_gamma 90.000000
_cell_volume 1199.545570
_symmetry_space_group_name_H-M "P 21 21 21"
_symmetry_group_IT_number 19
_symmetry_cell_setting 'orthorhombic'
loop_
_space_group_symop_operation_xyz
x,y,z
1/2-x,-y,1/2+z
1/2+x,1/2-y,-z
-x,1/2+y,1/2-z
loop_
_atom_site_type_symbol
_atom_site_label
_atom_site_fract_x
_atom_site_fract_y
_atom_site_fract_z
Si Si1 0.173378 0.726972 0.390868
Si Si2 0.373614 0.376565 0.299309
Si Si3 0.595295 0.066047 0.025594
Si Si4 0.668817 0.146403 0.527517
Si Si5 0.498529 0.250556 0.538138
Si Si6 0.398254 0.125696 0.215424
Si Si7 0.203847 0.117030 0.777242
Si Si8 0.308571 0.952309 0.778098
O O1 0.172844 0.637275 0.531739
O O2 0.070579 0.726833 0.256871
O O3 0.153384 0.790699 0.617268
O O4 0.259013 0.786243 0.277647
O O5 0.392860 0.470380 0.387242
O O6 0.284827 0.345151 0.470631
O O7 0.470516 0.321084 0.339383
O O8 0.642219 0.118017 0.252818
O O9 0.481377 0.089767 0.039739
O O10 0.637893 0.084962 0.755401
O O11 0.608824 0.230385 0.595154
O O12 0.458057 0.160097 0.445393
O O13 0.307250 0.068842 0.280758
O O14 0.153212 0.088501 0.526458
O O15 0.299312 0.053902 0.783494
O O16 0.152058 0.091047 0.031978
#
# Coordination Sequence:
#
# PCOD9313645 Si02
#       8
#     4   4   4   4   4   4   4   4
#     4  10  19  37  61  91 129 178 218 275 342 410
#     4  11  26  41  70 105 136 181 234 293 341 417
#     4  11  24  43  69 101 133 180 235 287 341 406
#     4  11  25  47  71 100 139 185 227 286 351 411
#     4  10  21  41  69  94 138 177 226 277 358 412
#     4   9  18  36  61  90 123 174 221 273 337 406
#     4   9  17  29  50  79 116 160 207 261 316 392
#     4   9  16  28  51  80 112 155 214 260 314 386
#
# _framework density 26.676769
#
# number of rings (size 3 to 8) (size 9 to 14) (size 15 to 20)
#    0.000    2.000    2.500    0.750    3.500    0.000 
#    0.000    2.500    8.250    0.000    0.000    0.000 
#    0.000    0.000    0.000    0.000    0.000    0.000 
#
# Total GULP energy -178566.980004 kJ/mol
# GULP energy per Si atom -5580.218125 kJ/mol
# Density = 2.661605 g / cm^3
# Si number density = 26.676769 Si / 1000 Ang^3
#
#
#
# Elastic Constant Matrix: (Units=GPa)
#
#
# Indices 1 2 3 4 5 6 
#
# 1 78.8839 15.1357 -14.1815 0.0000 0.0000 0.0000
# 2 15.1357 113.9702 15.3422 0.0000 0.0000 0.0000
# 3 -14.1815 15.3422 130.7935 0.0000 0.0000 0.0000
# 4 0.0000 0.0000 0.0000 41.2349 0.0000 0.0000
# 5 0.0000 0.0000 0.0000 0.0000 35.2355 0.0000
# 6 0.0000 0.0000 0.0000 0.0000 0.0000 25.6393
#
#
#
# Elastic Compliance Matrix: (Units=1/GPa)
#
#
# Indices 1 2 3 4 5 6 
#
# 1 0.013364 -0.002001 0.001684 0.000000 0.000000 0.000000
# 2 -0.002001 0.009215 -0.001298 0.000000 0.000000 0.000000
# 3 0.001684 -0.001298 0.007980 0.000000 0.000000 0.000000
# 4 0.000000 0.000000 0.000000 0.024251 0.000000 0.000000
# 5 0.000000 0.000000 0.000000 0.000000 0.028381 0.000000
# 6 0.000000 0.000000 0.000000 0.000000 0.000000 0.039003
#
#
# Mechanical properties :
#
#
# Convention : Reuss Voigt Hill
#
# Bulk Modulus (GPa) = 36.59303 39.58228 38.08766
# Shear Modulus (GPa) = 37.16545 40.91201 39.03873
#
# Velocity S-wave (km/s) = 3.73658 3.92039 3.82959
# Velocity P-wave (km/s) = 5.68885 5.94665 5.81917
#
# Compressibility (1/GPa) = 0.02732761
#
# Stress axis : x y z
#
# Youngs Moduli (GPa) = 74.83036 108.52187 125.30631
#
# Poissons Ratio (x) = 0.21719 -0.21098
# Poissons Ratio (y) = 0.14976 0.16263
# Poissons Ratio (z) = -0.12599 0.14085
#
# Static dielectric constant tensor:
#      x y z
#    x 2.114020 0.000000 0.000000 
#    y 0.000000 2.193900 0.000000 
#    z 0.000000 0.000000 2.323860 
# 
# From -- ./inp_files/1820.got.cif
#   From: 2010.05.17/outbox.cif.g08.bks.cpg/sg19_1_cif.got.tgz:1820.got - 2010.06.03 22:46:19.
