data_PCOD9313247
_publ_section_title
;
Structure prediction by ZEFSAII (Michael W. Deem and Ramdas Pophale) SiO2 
 PCOD9313247
Probable space group: P 21 21 2
;
_chemical_formula_sum "Si O2"
_cell_formula_units_Z 12
_cell_length_a 16.300335
_cell_length_b 5.276529
_cell_length_c 5.204985
_cell_angle_alpha 90.000000
_cell_angle_beta 90.000000
_cell_angle_gamma 90.000000
_cell_volume 447.676546
_symmetry_space_group_name_H-M "P 21 21 2"
_symmetry_group_IT_number 18
_symmetry_cell_setting 'orthorhombic'
loop_
_space_group_symop_operation_xyz
x,y,z
-x,-y,z
1/2+x,1/2-y,-z
1/2-x,1/2+y,-z
loop_
_atom_site_type_symbol
_atom_site_label
_atom_site_fract_x
_atom_site_fract_y
_atom_site_fract_z
Si Si1 0.873100 0.431228 0.519644
Si Si2 0.476937 0.755286 0.173443
Si Si3 0.736492 0.197363 0.852485
O O1 0.956079 0.275770 0.588958
O O2 0.799584 0.258264 0.622037
O O3 0.843738 0.557266 0.257979
O O4 0.890119 0.676989 0.704299
O O5 0.500000 0.500000 0.038221
O O6 0.500000 0.000000 0.007987
O O7 0.723864 0.478240 0.969312
#
# Coordination Sequence:
#
# PCOD9313247 Si02
#       3
#     4   4   4
#     4   9  24  44  66  91 144 162 218 283 312 386
#     4   8  20  38  72  84 124 192 202 258 350 358
#     4  12  26  38  72 104 128 174 220 264 340 388
#
# _framework density 26.805069
#
# number of rings (size 3 to 8) (size 9 to 14) (size 15 to 20)
#    2.000    0.000    0.000    2.000   14.000    0.000 
#    0.000    6.667    0.000    0.000    0.000    0.000 
#    0.000    0.000    0.000    0.000    0.000    0.000 
#
# Total GULP energy -66843.270311 kJ/mol
# GULP energy per Si atom -5570.272526 kJ/mol
# Density = 2.674406 g / cm^3
# Si number density = 26.805069 Si / 1000 Ang^3
#
#
#
# Elastic Constant Matrix: (Units=GPa)
#
#
# Indices 1 2 3 4 5 6 
#
# 1 113.8441 12.5856 25.4940 0.0000 0.0000 0.0000
# 2 12.5856 198.7796 29.5986 0.0000 0.0000 0.0000
# 3 25.4940 29.5986 68.3837 0.0000 0.0000 0.0000
# 4 0.0000 0.0000 0.0000 40.3072 0.0000 0.0000
# 5 0.0000 0.0000 0.0000 0.0000 24.6208 0.0000
# 6 0.0000 0.0000 0.0000 0.0000 0.0000 43.3688
#
#
#
# Elastic Compliance Matrix: (Units=1/GPa)
#
#
# Indices 1 2 3 4 5 6 
#
# 1 0.009585 -0.000080 -0.003539 0.000000 0.000000 0.000000
# 2 -0.000080 0.005378 -0.002298 0.000000 0.000000 0.000000
# 3 -0.003539 -0.002298 0.016937 0.000000 0.000000 0.000000
# 4 0.000000 0.000000 0.000000 0.024809 0.000000 0.000000
# 5 0.000000 0.000000 0.000000 0.000000 0.040616 0.000000
# 6 0.000000 0.000000 0.000000 0.000000 0.000000 0.023058
#
#
# Mechanical properties :
#
#
# Convention : Reuss Voigt Hill
#
# Bulk Modulus (GPa) = 49.83302 57.37375 53.60338
# Shear Modulus (GPa) = 35.99541 42.54796 39.27169
#
# Velocity S-wave (km/s) = 3.66848 3.98843 3.83179
# Velocity P-wave (km/s) = 6.04772 6.53151 6.29426
#
# Compressibility (1/GPa) = 0.02006702
#
# Stress axis : x y z
#
# Youngs Moduli (GPa) = 104.32684 185.94535 59.04131
#
# Poissons Ratio (x) = 0.01487 0.20894
# Poissons Ratio (y) = 0.00834 0.13567
# Poissons Ratio (z) = 0.36920 0.42729
#
# Static dielectric constant tensor:
#      x y z
#    x 2.160920 0.000000 0.000000 
#    y 0.000000 2.203960 0.000000 
#    z 0.000000 0.000000 2.111550 
# 
# From -- ./inp_files/120.got.cif
#   From: 2010.05.17/outbox.cif.g08.bks.cpg/sg18_1_cif.got.tgz:120.got - 2010.06.03 22:40:56.
