data_PCOD9313166
_publ_section_title
;
Structure prediction by ZEFSAII (Michael W. Deem and Ramdas Pophale) SiO2 
 PCOD9313166
Probable space group: P 21 21 2
;
_chemical_formula_sum "Si O2"
_cell_formula_units_Z 20
_cell_length_a 9.984368
_cell_length_b 15.272297
_cell_length_c 5.172621
_cell_angle_alpha 90.000000
_cell_angle_beta 90.000000
_cell_angle_gamma 90.000000
_cell_volume 788.743148
_symmetry_space_group_name_H-M "P 21 21 2"
_symmetry_group_IT_number 18
_symmetry_cell_setting 'orthorhombic'
loop_
_space_group_symop_operation_xyz
x,y,z
-x,-y,z
1/2+x,1/2-y,-z
1/2-x,1/2+y,-z
loop_
_atom_site_type_symbol
_atom_site_label
_atom_site_fract_x
_atom_site_fract_y
_atom_site_fract_z
Si Si1 0.517207 0.768774 0.503810
Si Si2 0.171661 0.671721 0.003992
Si Si3 0.853607 0.515076 0.779419
Si Si4 0.398259 0.421446 0.440892
Si Si5 0.309835 0.834106 0.858637
O O1 0.575703 0.791594 0.225106
O O2 0.529200 0.664842 0.554699
O O3 0.373134 0.806798 0.583240
O O4 0.609790 0.817189 0.714763
O O5 0.195594 0.571998 0.927550
O O6 0.293785 0.740928 0.997740
O O7 0.730035 0.544150 0.601602
O O8 0.000000 0.500000 0.646727
O O9 0.886436 0.591505 0.985368
O O10 0.500000 0.500000 0.401788
O O11 0.331687 0.382346 0.182274
#
# Coordination Sequence:
#
# PCOD9313166 Si02
#       5
#     4   4   4   4   4
#     4  11  24  48  71 105 153 198 253 309 386 450
#     4  11  25  44  70 104 146 198 243 319 368 456
#     4  12  24  43  75 110 146 197 257 313 385 462
#     4  11  26  48  73 113 153 204 253 325 383 467
#     4  11  25  46  72 107 150 198 258 308 391 456
#
# _framework density 25.356795000000002
#
# number of rings (size 3 to 8) (size 9 to 14) (size 15 to 20)
#    0.000    0.800    4.000    2.400    2.800    1.600 
#    7.200    0.000    0.000    0.000    0.000    0.000 
#    0.000    0.000    0.000    0.000    0.000    0.000 
#
# Total GULP energy -111904.378624 kJ/mol
# GULP energy per Si atom -5595.218931 kJ/mol
# Density = 2.529908 g / cm^3
# Si number density = 25.356795 Si / 1000 Ang^3
#
#
#
# Elastic Constant Matrix: (Units=GPa)
#
#
# Indices 1 2 3 4 5 6 
#
# 1 79.9966 48.6997 27.7969 0.0000 0.0000 0.0000
# 2 48.6997 210.5723 19.1142 0.0000 0.0000 0.0000
# 3 27.7969 19.1142 47.6296 0.0000 0.0000 0.0000
# 4 0.0000 0.0000 0.0000 31.4292 0.0000 0.0000
# 5 0.0000 0.0000 0.0000 0.0000 38.3201 0.0000
# 6 0.0000 0.0000 0.0000 0.0000 0.0000 58.9513
#
#
#
# Elastic Compliance Matrix: (Units=1/GPa)
#
#
# Indices 1 2 3 4 5 6 
#
# 1 0.017597 -0.003256 -0.008963 0.000000 0.000000 0.000000
# 2 -0.003256 0.005531 -0.000319 0.000000 0.000000 0.000000
# 3 -0.008963 -0.000319 0.026354 0.000000 0.000000 0.000000
# 4 0.000000 0.000000 0.000000 0.031818 0.000000 0.000000
# 5 0.000000 0.000000 0.000000 0.000000 0.026096 0.000000
# 6 0.000000 0.000000 0.000000 0.000000 0.000000 0.016963
#
#
# Mechanical properties :
#
#
# Convention : Reuss Voigt Hill
#
# Bulk Modulus (GPa) = 40.97443 58.82444 49.89944
# Shear Modulus (GPa) = 31.73158 41.91263 36.82211
#
# Velocity S-wave (km/s) = 3.54136 4.07002 3.81485
# Velocity P-wave (km/s) = 5.73723 6.73318 6.25506
#
# Compressibility (1/GPa) = 0.02440546
#
# Stress axis : x y z
#
# Youngs Moduli (GPa) = 56.82708 180.79875 37.94431
#
# Poissons Ratio (x) = 0.58871 0.34010
# Poissons Ratio (y) = 0.18504 0.01212
# Poissons Ratio (z) = 0.50935 0.05773
#
# Static dielectric constant tensor:
#      x y z
#    x 2.149510 0.000000 0.000000 
#    y 0.000000 1.978630 0.000000 
#    z 0.000000 0.000000 1.986400 
# 
# From -- ./inp_files/1027.got.cif
#   From: 2010.05.17/outbox.cif.g08.bks.cpg/sg18_1_cif.got.tgz:1027.got - 2010.06.03 22:40:56.
