data_PCOD9313534
_publ_section_title
;
Structure prediction by ZEFSAII (Michael W. Deem and Ramdas Pophale) SiO2 
 PCOD9313534
Probable space group: P 21 21 21
;
_chemical_formula_sum "Si O2"
_cell_formula_units_Z 28
_cell_length_a 10.018062
_cell_length_b 9.691573
_cell_length_c 11.925101
_cell_angle_alpha 90.000000
_cell_angle_beta 90.000000
_cell_angle_gamma 90.000000
_cell_volume 1157.817348
_symmetry_space_group_name_H-M "P 21 21 21"
_symmetry_group_IT_number 19
_symmetry_cell_setting 'orthorhombic'
loop_
_space_group_symop_operation_xyz
x,y,z
1/2-x,-y,1/2+z
1/2+x,1/2-y,-z
-x,1/2+y,1/2-z
loop_
_atom_site_type_symbol
_atom_site_label
_atom_site_fract_x
_atom_site_fract_y
_atom_site_fract_z
Si Si1 0.628536 0.084370 0.836238
Si Si2 0.927996 0.044461 0.021931
Si Si3 0.045486 0.774909 0.953225
Si Si4 0.837702 0.020650 0.675694
Si Si5 0.528962 0.651419 0.444791
Si Si6 0.810782 0.591617 0.039570
Si Si7 0.417369 0.886477 0.739707
O O1 0.583587 0.120251 0.960518
O O2 0.589232 0.221947 0.768154
O O3 0.774075 0.043818 0.796823
O O4 0.541965 0.954038 0.801846
O O5 0.923630 0.193631 0.962732
O O6 0.049006 0.061767 0.114230
O O7 0.792660 0.007900 0.093229
O O8 0.973427 0.921860 0.940527
O O9 0.938150 0.690075 0.023973
O O10 0.090757 0.663403 0.860471
O O11 0.186425 0.822384 0.005269
O O12 0.947882 0.899962 0.663536
O O13 0.650802 0.548697 0.475598
O O14 0.798223 0.567862 0.175150
#
# Coordination Sequence:
#
# PCOD9313534 Si02
#       7
#     4   4   4   4   4   4   4
#     4   9  16  31  52  79 108 140 184 237 278 324
#     4  10  20  33  55  82 108 146 194 243 277 329
#     4  11  19  34  56  85 111 150 189 230 286 347
#     4  10  19  35  55  79 114 149 186 242 283 334
#     4   9  21  32  54  83 113 148 187 237 288 334
#     4  10  19  33  56  86 111 144 188 231 285 344
#     4   9  16  32  52  82 105 137 186 244 269 316
#
# _framework density 24.183437000000001
#
# number of rings (size 3 to 8) (size 9 to 14) (size 15 to 20)
#    0.000    2.286    2.857    0.857    2.000    0.000 
#    0.000    0.000    0.000    5.143    0.000    0.000 
#    0.000    0.000    0.000    0.000    0.000    0.000 
#
# Total GULP energy -156035.423121 kJ/mol
# GULP energy per Si atom -5572.693683 kJ/mol
# Density = 2.412839 g / cm^3
# Si number density = 24.183437 Si / 1000 Ang^3
#
#
#
# Elastic Constant Matrix: (Units=GPa)
#
#
# Indices 1 2 3 4 5 6 
#
# 1 73.2850 44.9017 35.6468 0.0000 0.0000 0.0000
# 2 44.9017 143.4332 24.3888 0.0000 0.0000 0.0000
# 3 35.6468 24.3888 24.4471 0.0000 0.0000 0.0000
# 4 0.0000 0.0000 0.0000 18.2839 0.0000 0.0000
# 5 0.0000 0.0000 0.0000 0.0000 29.2190 0.0000
# 6 0.0000 0.0000 0.0000 0.0000 0.0000 17.0547
#
#
#
# Elastic Compliance Matrix: (Units=1/GPa)
#
#
# Indices 1 2 3 4 5 6 
#
# 1 0.048602 -0.003811 -0.067065 0.000000 0.000000 0.000000
# 2 -0.003811 0.008695 -0.003117 0.000000 0.000000 0.000000
# 3 -0.067065 -0.003117 0.141804 0.000000 0.000000 0.000000
# 4 0.000000 0.000000 0.000000 0.054693 0.000000 0.000000
# 5 0.000000 0.000000 0.000000 0.000000 0.034224 0.000000
# 6 0.000000 0.000000 0.000000 0.000000 0.000000 0.058635
#
#
# Mechanical properties :
#
#
# Convention : Reuss Voigt Hill
#
# Bulk Modulus (GPa) = 19.56433 50.11554 34.83993
# Shear Modulus (GPa) = 9.77177 21.99337 15.88257
#
# Velocity S-wave (km/s) = 2.01233 3.01896 2.56550
# Velocity P-wave (km/s) = 3.67516 5.73762 4.81804
#
# Compressibility (1/GPa) = 0.05111344
#
# Stress axis : x y z
#
# Youngs Moduli (GPa) = 20.57527 115.00851 7.05200
#
# Poissons Ratio (x) = 0.43833 0.47295
# Poissons Ratio (y) = 0.07842 0.02198
# Poissons Ratio (z) = 1.37989 0.35847
#
# Static dielectric constant tensor:
#      x y z
#    x 1.961380 0.000000 0.000000 
#    y 0.000000 1.877420 0.000000 
#    z 0.000000 0.000000 2.083290 
# 
# From -- ./inp_files/3892.got.cif
#   From: 2010.05.17/outbox.cif.g08.bks.cpg/sg19_2_cif.got.tgz:3892.got - 2010.06.03 22:46:19.
