data_PCOD9313226
_publ_section_title
;
Structure prediction by ZEFSAII (Michael W. Deem and Ramdas Pophale) SiO2 
 PCOD9313226
Probable space group: P 21 21 2
;
_chemical_formula_sum "Si O2"
_cell_formula_units_Z 24
_cell_length_a 8.107748
_cell_length_b 11.656847
_cell_length_c 11.170139
_cell_angle_alpha 90.000000
_cell_angle_beta 90.000000
_cell_angle_gamma 90.000000
_cell_volume 1055.698527
_symmetry_space_group_name_H-M "P 21 21 2"
_symmetry_group_IT_number 18
_symmetry_cell_setting 'orthorhombic'
loop_
_space_group_symop_operation_xyz
x,y,z
-x,-y,z
1/2+x,1/2-y,-z
1/2-x,1/2+y,-z
loop_
_atom_site_type_symbol
_atom_site_label
_atom_site_fract_x
_atom_site_fract_y
_atom_site_fract_z
Si Si1 0.500000 0.000000 0.936386
Si Si2 0.791843 0.324596 0.208334
Si Si3 0.429165 0.376749 0.214156
Si Si4 0.693599 0.291851 0.639375
Si Si5 0.454268 0.131185 0.538566
Si Si6 0.790676 0.111463 0.049615
Si Si7 0.500000 0.500000 0.761133
O O1 0.362132 0.060236 0.853683
O O2 0.600389 0.090367 0.016495
O O3 0.597449 0.306509 0.220282
O O4 0.842055 0.227675 0.114860
O O5 0.866401 0.326588 0.339841
O O6 0.500000 0.500000 0.265361
O O7 0.277601 0.304734 0.272837
O O8 0.385827 0.394988 0.075532
O O9 0.609306 0.215715 0.535541
O O10 0.563539 0.387735 0.688029
O O11 0.842229 0.358535 0.577282
O O12 0.500000 0.000000 0.556679
O O13 0.848390 0.019934 0.147681
#
# Coordination Sequence:
#
# PCOD9313226 Si02
#       7
#     2   4   4   4   4   4   2
#     4  12  24  44  72 110 154 202 250 312 378 464
#     4  12  24  45  74 111 150 202 257 309 382 460
#     4  12  25  46  76 114 154 206 258 312 391 469
#     4  12  30  50  80 112 155 205 262 327 389 465
#     4  12  27  52  78 107 151 200 262 322 383 453
#     4  12  26  43  74 110 159 199 249 316 385 466
#     4  12  28  52  70 114 162 200 260 322 400 468
#
# _framework density 22.733764999999998
#
# number of rings (size 3 to 8) (size 9 to 14) (size 15 to 20)
#    0.000    0.000    5.000    4.000    9.333    1.333 
#    1.500    0.000    0.000    0.000    0.000    0.000 
#    0.000    0.000    0.000    0.000    0.000    0.000 
#
# Total GULP energy -133927.295478 kJ/mol
# GULP energy per Si atom -5580.303978 kJ/mol
# Density = 2.268202 g / cm^3
# Si number density = 22.733765 Si / 1000 Ang^3
#
#
#
# Elastic Constant Matrix: (Units=GPa)
#
#
# Indices 1 2 3 4 5 6 
#
# 1 70.2374 25.8279 22.0521 0.0000 0.0000 0.0000
# 2 25.8279 100.9732 49.1391 0.0000 0.0000 0.0000
# 3 22.0521 49.1391 82.3673 0.0000 0.0000 0.0000
# 4 0.0000 0.0000 0.0000 17.4568 0.0000 0.0000
# 5 0.0000 0.0000 0.0000 0.0000 16.0362 0.0000
# 6 0.0000 0.0000 0.0000 0.0000 0.0000 36.7480
#
#
#
# Elastic Compliance Matrix: (Units=1/GPa)
#
#
# Indices 1 2 3 4 5 6 
#
# 1 0.016105 -0.002848 -0.002613 0.000000 0.000000 0.000000
# 2 -0.002848 0.014459 -0.007863 0.000000 0.000000 0.000000
# 3 -0.002613 -0.007863 0.017531 0.000000 0.000000 0.000000
# 4 0.000000 0.000000 0.000000 0.057284 0.000000 0.000000
# 5 0.000000 0.000000 0.000000 0.000000 0.062359 0.000000
# 6 0.000000 0.000000 0.000000 0.000000 0.000000 0.027212
#
#
# Mechanical properties :
#
#
# Convention : Reuss Voigt Hill
#
# Bulk Modulus (GPa) = 46.62650 49.73510 48.18080
# Shear Modulus (GPa) = 21.85809 24.48546 23.17178
#
# Velocity S-wave (km/s) = 3.10414 3.28541 3.19606
# Velocity P-wave (km/s) = 5.77944 6.02632 5.90417
#
# Compressibility (1/GPa) = 0.02144703
#
# Stress axis : x y z
#
# Youngs Moduli (GPa) = 62.09249 69.16150 57.04033
#
# Poissons Ratio (x) = 0.19697 0.14903
# Poissons Ratio (y) = 0.17684 0.44854
# Poissons Ratio (z) = 0.16223 0.54385
#
# Static dielectric constant tensor:
#      x y z
#    x 1.920610 0.000000 0.000000 
#    y 0.000000 1.966010 0.000000 
#    z 0.000000 0.000000 1.788630 
# 
# From -- ./inp_files/5546.got.cif
#   From: 2010.05.17/outbox.cif.g08.bks.cpg/sg18_3_cif.got.tgz:5546.got - 2010.06.03 22:40:56.
