data_PCOD9313061
_publ_section_title
;
Structure prediction by ZEFSAII (Michael W. Deem and Ramdas Pophale) SiO2 
 PCOD9313061
Probable space group: P 21 21 2
;
_chemical_formula_sum "Si O2"
_cell_formula_units_Z 32
_cell_length_a 9.182627
_cell_length_b 15.068993
_cell_length_c 10.998422
_cell_angle_alpha 90.000000
_cell_angle_beta 90.000000
_cell_angle_gamma 90.000000
_cell_volume 1521.884009
_symmetry_space_group_name_H-M "P 21 21 2"
_symmetry_group_IT_number 18
_symmetry_cell_setting 'orthorhombic'
loop_
_space_group_symop_operation_xyz
x,y,z
-x,-y,z
1/2+x,1/2-y,-z
1/2-x,1/2+y,-z
loop_
_atom_site_type_symbol
_atom_site_label
_atom_site_fract_x
_atom_site_fract_y
_atom_site_fract_z
Si Si1 0.383886 0.074885 0.239681
Si Si2 0.259187 0.829212 0.867573
Si Si3 0.729159 0.368694 0.990169
Si Si4 0.909688 0.112529 0.080607
Si Si5 0.080964 0.691445 0.198167
Si Si6 0.439470 0.262756 0.335612
Si Si7 0.240309 0.767403 0.425142
Si Si8 0.650831 0.535476 0.654576
O O1 0.326914 0.076654 0.102914
O O2 0.451662 0.169278 0.267249
O O3 0.500000 0.000000 0.255783
O O4 0.256293 0.048786 0.333128
O O5 0.269949 0.730310 0.928320
O O6 0.417878 0.846574 0.811067
O O7 0.130308 0.827042 0.766806
O O8 0.214304 0.892000 0.978763
O O9 0.565574 0.404183 0.981136
O O10 0.800439 0.364443 0.122468
O O11 0.918791 0.214432 0.127319
O O12 0.880930 0.061323 0.204837
O O13 0.133405 0.715564 0.332619
O O14 0.598438 0.271125 0.397107
O O15 0.317346 0.254694 0.439331
O O16 0.220001 0.874231 0.400119
O O17 0.500000 0.500000 0.597895
#
# Coordination Sequence:
#
# PCOD9313061 Si02
#       8
#     4   4   4   4   4   4   4   4
#     4  11  22  37  57  86 117 149 190 242 301 351
#     4   9  18  31  52  79 108 140 180 226 274 329
#     4   9  17  30  51  78 111 141 173 220 277 336
#     4   9  17  30  51  79 110 141 174 218 278 336
#     4   9  18  31  52  79 108 140 180 226 275 329
#     4  11  23  38  59  83 115 154 203 249 287 348
#     4  11  23  38  59  84 114 155 203 244 292 345
#     4  11  22  37  59  86 117 151 189 242 300 357
#
# _framework density 21.02657
#
# number of rings (size 3 to 8) (size 9 to 14) (size 15 to 20)
#    0.000    2.000    2.500    1.500    5.250    3.000 
#    0.000    0.000    0.000    3.000    0.000    0.000 
#    0.000    0.000    0.000    0.000    0.000    0.000 
#
# Total GULP energy -178499.120844 kJ/mol
# GULP energy per Si atom -5578.097526 kJ/mol
# Density = 2.097871 g / cm^3
# Si number density = 21.026570 Si / 1000 Ang^3
#
#
#
# Elastic Constant Matrix: (Units=GPa)
#
#
# Indices 1 2 3 4 5 6 
#
# 1 63.0934 -0.0701 -7.5617 0.0000 0.0000 0.0000
# 2 -0.0701 13.0743 4.5625 0.0000 0.0000 0.0000
# 3 -7.5617 4.5625 53.4786 0.0000 0.0000 0.0000
# 4 0.0000 0.0000 0.0000 15.1803 0.0000 0.0000
# 5 0.0000 0.0000 0.0000 0.0000 33.2355 0.0000
# 6 0.0000 0.0000 0.0000 0.0000 0.0000 17.2588
#
#
#
# Elastic Compliance Matrix: (Units=1/GPa)
#
#
# Indices 1 2 3 4 5 6 
#
# 1 0.016130 -0.000731 0.002343 0.000000 0.000000 0.000000
# 2 -0.000731 0.078866 -0.006832 0.000000 0.000000 0.000000
# 3 0.002343 -0.006832 0.019613 0.000000 0.000000 0.000000
# 4 0.000000 0.000000 0.000000 0.065875 0.000000 0.000000
# 5 0.000000 0.000000 0.000000 0.000000 0.030088 0.000000
# 6 0.000000 0.000000 0.000000 0.000000 0.000000 0.057941
#
#
# Mechanical properties :
#
#
# Convention : Reuss Voigt Hill
#
# Bulk Modulus (GPa) = 9.59977 13.72308 11.66143
# Shear Modulus (GPa) = 15.93998 21.98262 18.96130
#
# Velocity S-wave (km/s) = 2.75633 3.23688 3.00622
# Velocity P-wave (km/s) = 3.83474 4.52886 4.19618
#
# Compressibility (1/GPa) = 0.10416913
#
# Stress axis : x y z
#
# Youngs Moduli (GPa) = 61.99811 12.67968 50.98599
#
# Poissons Ratio (x) = 0.00927 -0.11946
# Poissons Ratio (y) = 0.04533 0.34833
# Poissons Ratio (z) = -0.14526 0.08663
#
# Static dielectric constant tensor:
#      x y z
#    x 1.805910 0.000000 0.000000 
#    y 0.000000 1.801010 0.000000 
#    z 0.000000 0.000000 1.713740 
# 
# From -- ./inp_files/5655.got.cif
#   From: 2010.05.17/outbox.cif.g08.bks.cpg/sg18_3_cif.got.tgz:5655.got - 2010.06.03 22:40:56.
