data_PCOD9313807
_publ_section_title
;
Structure prediction by ZEFSAII (Michael W. Deem and Ramdas Pophale) SiO2 
 PCOD9313807
Probable space group: P 21 21 21
;
_chemical_formula_sum "Si O2"
_cell_formula_units_Z 28
_cell_length_a 9.301548
_cell_length_b 7.076060
_cell_length_c 19.345663
_cell_angle_alpha 90.000000
_cell_angle_beta 90.000000
_cell_angle_gamma 90.000000
_cell_volume 1273.298878
_symmetry_space_group_name_H-M "P 21 21 21"
_symmetry_group_IT_number 19
_symmetry_cell_setting 'orthorhombic'
loop_
_space_group_symop_operation_xyz
x,y,z
1/2-x,-y,1/2+z
1/2+x,1/2-y,-z
-x,1/2+y,1/2-z
loop_
_atom_site_type_symbol
_atom_site_label
_atom_site_fract_x
_atom_site_fract_y
_atom_site_fract_z
Si Si1 0.446577 0.554543 0.967759
Si Si2 0.816172 0.072283 0.846100
Si Si3 0.074456 0.854196 0.398527
Si Si4 0.392779 0.899528 0.408938
Si Si5 0.112350 0.782018 0.162093
Si Si6 0.610747 0.318428 0.773763
Si Si7 0.830172 0.941535 0.487413
O O1 0.418560 0.337236 0.944016
O O2 0.539677 0.642618 0.907501
O O3 0.542854 0.547762 0.036137
O O4 0.280276 0.602711 0.986161
O O5 0.986402 0.097257 0.850102
O O6 0.748744 0.185132 0.781964
O O7 0.757515 0.151409 0.921328
O O8 0.744870 0.863230 0.844196
O O9 0.231227 0.935961 0.385100
O O10 0.977153 0.989178 0.446689
O O11 0.995928 0.776973 0.330530
O O12 0.377006 0.701456 0.451650
O O13 0.981617 0.685874 0.204491
O O14 0.151992 0.972005 0.203401
#
# Coordination Sequence:
#
# PCOD9313807 Si02
#       7
#     4   4   4   4   4   4   4
#     4   8  16  29  52  86 117 148 193 247 298 362
#     4  10  20  35  60  88 117 160 200 252 307 363
#     4   8  15  29  57  83 114 161 194 238 303 366
#     4   9  16  33  58  86 123 154 192 245 312 369
#     4  11  20  35  59  88 117 160 214 255 308 363
#     4  10  20  36  59  82 114 160 213 255 296 366
#     4   8  15  31  55  87 118 149 190 236 306 365
#
# _framework density 21.990122
#
# number of rings (size 3 to 8) (size 9 to 14) (size 15 to 20)
#    0.000    2.857    1.429    1.714    0.000    0.000 
#    0.000    8.571    3.143    8.571    0.000    0.000 
#    0.000    0.000    0.000    0.000    0.000    0.000 
#
# Total GULP energy -155931.902373 kJ/mol
# GULP energy per Si atom -5568.996513 kJ/mol
# Density = 2.194007 g / cm^3
# Si number density = 21.990122 Si / 1000 Ang^3
#
#
#
# Elastic Constant Matrix: (Units=GPa)
#
#
# Indices 1 2 3 4 5 6 
#
# 1 142.2504 20.1455 -9.1482 0.0000 0.0000 0.0000
# 2 20.1455 79.4042 -10.4207 0.0000 0.0000 0.0000
# 3 -9.1482 -10.4207 13.5861 0.0000 0.0000 0.0000
# 4 0.0000 0.0000 0.0000 22.1410 0.0000 0.0000
# 5 0.0000 0.0000 0.0000 0.0000 18.0970 0.0000
# 6 0.0000 0.0000 0.0000 0.0000 0.0000 19.7669
#
#
#
# Elastic Compliance Matrix: (Units=1/GPa)
#
#
# Indices 1 2 3 4 5 6 
#
# 1 0.007481 -0.001375 0.003982 0.000000 0.000000 0.000000
# 2 -0.001375 0.014256 0.010009 0.000000 0.000000 0.000000
# 3 0.003982 0.010009 0.083963 0.000000 0.000000 0.000000
# 4 0.000000 0.000000 0.000000 0.045165 0.000000 0.000000
# 5 0.000000 0.000000 0.000000 0.000000 0.055258 0.000000
# 6 0.000000 0.000000 0.000000 0.000000 0.000000 0.050590
#
#
# Mechanical properties :
#
#
# Convention : Reuss Voigt Hill
#
# Bulk Modulus (GPa) = 7.63760 26.26599 16.95180
# Shear Modulus (GPa) = 18.17356 27.64524 22.90940
#
# Velocity S-wave (km/s) = 2.87791 3.54950 3.23120
# Velocity P-wave (km/s) = 3.81102 5.36367 4.65257
#
# Compressibility (1/GPa) = 0.13093113
#
# Stress axis : x y z
#
# Youngs Moduli (GPa) = 133.67676 70.14487 11.91001
#
# Poissons Ratio (x) = 0.09647 -0.04743
# Poissons Ratio (y) = 0.18385 -0.11920
# Poissons Ratio (z) = -0.53234 -0.70205
#
# Static dielectric constant tensor:
#      x y z
#    x 1.882580 0.000000 0.000000 
#    y 0.000000 1.879130 0.000000 
#    z 0.000000 0.000000 1.850430 
# 
# From -- ./inp_files/7017.got.cif
#   From: 2010.05.17/outbox.cif.g08.bks.cpg/sg19_4_cif.got.tgz:7017.got - 2010.06.03 22:46:19.
