data_PCOD9313710
_publ_section_title
;
Structure prediction by ZEFSAII (Michael W. Deem and Ramdas Pophale) SiO2 
 PCOD9313710
Probable space group: P 21 21 21
;
_chemical_formula_sum "Si O2"
_cell_formula_units_Z 20
_cell_length_a 12.202189
_cell_length_b 9.620490
_cell_length_c 6.747516
_cell_angle_alpha 90.000000
_cell_angle_beta 90.000000
_cell_angle_gamma 90.000000
_cell_volume 792.097902
_symmetry_space_group_name_H-M "P 21 21 21"
_symmetry_group_IT_number 19
_symmetry_cell_setting 'orthorhombic'
loop_
_space_group_symop_operation_xyz
x,y,z
1/2-x,-y,1/2+z
1/2+x,1/2-y,-z
-x,1/2+y,1/2-z
loop_
_atom_site_type_symbol
_atom_site_label
_atom_site_fract_x
_atom_site_fract_y
_atom_site_fract_z
Si Si1 0.795383 0.627043 0.058451
Si Si2 0.801848 0.855066 0.360329
Si Si3 0.821752 0.323208 0.179037
Si Si4 0.402785 0.497807 0.297291
Si Si5 0.550949 0.696664 0.055846
O O1 0.842959 0.747777 0.194616
O O2 0.844292 0.477923 0.101010
O O3 0.666599 0.625235 0.119721
O O4 0.782693 0.666242 0.829415
O O5 0.716862 0.773661 0.503430
O O6 0.724749 0.969544 0.257730
O O7 0.895468 0.918450 0.497011
O O8 0.919506 0.277741 0.324268
O O9 0.461268 0.587936 0.129289
O O10 0.456036 0.347138 0.340230
#
# Coordination Sequence:
#
# PCOD9313710 Si02
#       5
#     4   4   4   4   4
#     4   9  20  37  69  97 125 175 208 278 325 389
#     4  11  22  42  67  94 135 174 222 260 348 392
#     4  10  19  40  67 101 126 168 226 263 330 400
#     4  11  24  43  67  97 132 181 212 284 324 393
#     4   9  23  40  62  99 128 166 224 269 331 372
#
# _framework density 25.249404999999999
#
# number of rings (size 3 to 8) (size 9 to 14) (size 15 to 20)
#    1.200    0.800    2.000    1.200    5.600    0.000 
#    0.000   10.000    0.000    0.000    0.000    0.000 
#    0.000    0.000    0.000    0.000    0.000    0.000 
#
# Total GULP energy -111847.814025 kJ/mol
# GULP energy per Si atom -5592.390701 kJ/mol
# Density = 2.519194 g / cm^3
# Si number density = 25.249405 Si / 1000 Ang^3
#
#
#
# Elastic Constant Matrix: (Units=GPa)
#
#
# Indices 1 2 3 4 5 6 
#
# 1 76.8284 13.2106 -11.9310 0.0000 0.0000 0.0000
# 2 13.2106 80.4015 12.7229 0.0000 0.0000 0.0000
# 3 -11.9310 12.7229 93.0208 0.0000 0.0000 0.0000
# 4 0.0000 0.0000 0.0000 46.9922 0.0000 0.0000
# 5 0.0000 0.0000 0.0000 0.0000 19.3456 0.0000
# 6 0.0000 0.0000 0.0000 0.0000 0.0000 21.8917
#
#
#
# Elastic Compliance Matrix: (Units=1/GPa)
#
#
# Indices 1 2 3 4 5 6 
#
# 1 0.013794 -0.002603 0.002125 0.000000 0.000000 0.000000
# 2 -0.002603 0.013204 -0.002140 0.000000 0.000000 0.000000
# 3 0.002125 -0.002140 0.011316 0.000000 0.000000 0.000000
# 4 0.000000 0.000000 0.000000 0.021280 0.000000 0.000000
# 5 0.000000 0.000000 0.000000 0.000000 0.051691 0.000000
# 6 0.000000 0.000000 0.000000 0.000000 0.000000 0.045679
#
#
# Mechanical properties :
#
#
# Convention : Reuss Voigt Hill
#
# Bulk Modulus (GPa) = 30.23124 30.91728 30.57426
# Shear Modulus (GPa) = 28.86429 33.39580 31.13004
#
# Velocity S-wave (km/s) = 3.38474 3.64075 3.51508
# Velocity P-wave (km/s) = 5.22249 5.47218 5.34879
#
# Compressibility (1/GPa) = 0.03307836
#
# Stress axis : x y z
#
# Youngs Moduli (GPa) = 72.49757 75.73565 88.37409
#
# Poissons Ratio (x) = 0.19712 -0.18781
# Poissons Ratio (y) = 0.18869 0.18910
# Poissons Ratio (z) = -0.15407 0.16206
#
# Static dielectric constant tensor:
#      x y z
#    x 2.044800 0.000000 0.000000 
#    y 0.000000 1.932230 0.000000 
#    z 0.000000 0.000000 1.960550 
# 
# From -- ./inp_files/874.got.cif
#   From: 2010.05.17/outbox.cif.g08.bks.cpg/sg19_1_cif.got.tgz:874.got - 2010.06.03 22:46:19.
