data_PCOD9313269
_publ_section_title
;
Structure prediction by ZEFSAII (Michael W. Deem and Ramdas Pophale) SiO2 
 PCOD9313269
Probable space group: P 21 21 2
;
_chemical_formula_sum "Si O2"
_cell_formula_units_Z 26
_cell_length_a 18.242745
_cell_length_b 6.794119
_cell_length_c 8.330126
_cell_angle_alpha 90.000000
_cell_angle_beta 90.000000
_cell_angle_gamma 90.000000
_cell_volume 1032.463976
_symmetry_space_group_name_H-M "P 21 21 2"
_symmetry_group_IT_number 18
_symmetry_cell_setting 'orthorhombic'
loop_
_space_group_symop_operation_xyz
x,y,z
-x,-y,z
1/2+x,1/2-y,-z
1/2-x,1/2+y,-z
loop_
_atom_site_type_symbol
_atom_site_label
_atom_site_fract_x
_atom_site_fract_y
_atom_site_fract_z
Si Si1 0.500000 0.000000 0.521975
Si Si2 0.860663 0.514926 0.665494
Si Si3 0.366809 0.466662 0.980438
Si Si4 0.714208 0.944856 0.652480
Si Si5 0.911498 0.139533 0.345641
Si Si6 0.119411 0.960522 0.675383
Si Si7 0.697889 0.971372 0.000766
O O1 0.438661 0.914489 0.400687
O O2 0.536359 0.829964 0.631036
O O3 0.807930 0.546347 0.513363
O O4 0.869484 0.276704 0.677170
O O5 0.833515 0.575848 0.841013
O O6 0.407443 0.517284 0.147150
O O7 0.344414 0.235851 0.992847
O O8 0.413128 0.482908 0.818077
O O9 0.285058 0.560211 0.972594
O O10 0.670077 0.739237 0.654082
O O11 0.801048 0.941186 0.661007
O O12 0.689979 0.051392 0.818766
O O13 0.919458 0.010536 0.505541
#
# Coordination Sequence:
#
# PCOD9313269 Si02
#       7
#     2   4   4   4   4   4   4
#     4   8  16  28  38  56  88 112 144 174 198 242
#     4   9  16  26  39  57  84 112 134 170 209 242
#     4   9  16  26  41  62  88 109 133 169 211 255
#     4   8  14  24  37  55  79 103 132 166 203 247
#     4   9  16  26  39  57  84 112 134 170 209 242
#     4   8  14  24  37  55  79 103 132 166 203 247
#     4   9  16  26  41  62  88 109 133 169 211 255
#
# _framework density 25.182478
#
# number of rings (size 3 to 8) (size 9 to 14) (size 15 to 20)
#    0.000    3.692    0.000    0.923    0.000    0.000 
#    0.000   19.231    0.000    0.000    0.000    0.000 
#    0.000  706.462    0.000    0.000    0.000    0.000 
#
# Total GULP energy -145037.030050 kJ/mol
# GULP energy per Si atom -5578.347310 kJ/mol
# Density = 2.512516 g / cm^3
# Si number density = 25.182478 Si / 1000 Ang^3
#
#
#
# Elastic Constant Matrix: (Units=GPa)
#
#
# Indices 1 2 3 4 5 6 
#
# 1 93.6552 -0.8009 41.4360 0.0000 0.0000 0.0000
# 2 -0.8009 83.7574 15.3225 0.0000 0.0000 0.0000
# 3 41.4360 15.3225 276.6810 0.0000 0.0000 0.0000
# 4 0.0000 0.0000 0.0000 -0.9202 0.0000 0.0000
# 5 0.0000 0.0000 0.0000 0.0000 5.8678 0.0000
# 6 0.0000 0.0000 0.0000 0.0000 0.0000 -11.5588
#
#
#
# Elastic Compliance Matrix: (Units=1/GPa)
#
#
# Indices 1 2 3 4 5 6 
#
# 1 0.011450 0.000428 -0.001738 0.000000 0.000000 0.000000
# 2 0.000428 0.012077 -0.000733 0.000000 0.000000 0.000000
# 3 -0.001738 -0.000733 0.003915 0.000000 0.000000 0.000000
# 4 0.000000 0.000000 0.000000 -1.086667 0.000000 0.000000
# 5 0.000000 0.000000 0.000000 0.000000 0.170420 0.000000
# 6 0.000000 0.000000 0.000000 0.000000 0.000000 -0.086514
#
#
# Mechanical properties :
#
#
# Convention : Reuss Voigt Hill
#
# Bulk Modulus (GPa) = 42.81692 62.88988 52.85340
# Shear Modulus (GPa) = -5.18971 25.22015 10.01522
#
# Velocity S-wave (km/s) = -1.43712 3.16808 1.99642
# Velocity P-wave (km/s) = 3.77966 6.19759 5.13303
#
# Compressibility (1/GPa) = 0.02335525
#
# Stress axis : x y z
#
# Youngs Moduli (GPa) = 87.33409 82.79922 255.41389
#
# Poissons Ratio (x) = -0.03540 0.44403
# Poissons Ratio (y) = -0.03734 0.18719
# Poissons Ratio (z) = 0.15183 0.06068
#
# Static dielectric constant tensor:
#      x y z
#    x 1.919500 0.000000 0.000000 
#    y 0.000000 2.044090 0.000000 
#    z 0.000000 0.000000 2.065270 
# 
# From -- ./inp_files/4493.got.cif
#   From: 2010.05.17/outbox.cif.g08.bks.cpg/sg18_3_cif.got.tgz:4493.got - 2010.06.03 22:40:56.
