data_PCOD9313838
_publ_section_title
;
Structure prediction by ZEFSAII (Michael W. Deem and Ramdas Pophale) SiO2 
 PCOD9313838
Probable space group: P 21 21 21
;
_chemical_formula_sum "Si O2"
_cell_formula_units_Z 24
_cell_length_a 7.868986
_cell_length_b 5.057382
_cell_length_c 30.741132
_cell_angle_alpha 90.000000
_cell_angle_beta 90.000000
_cell_angle_gamma 90.000000
_cell_volume 1223.388481
_symmetry_space_group_name_H-M "P 21 21 21"
_symmetry_group_IT_number 19
_symmetry_cell_setting 'orthorhombic'
loop_
_space_group_symop_operation_xyz
x,y,z
1/2-x,-y,1/2+z
1/2+x,1/2-y,-z
-x,1/2+y,1/2-z
loop_
_atom_site_type_symbol
_atom_site_label
_atom_site_fract_x
_atom_site_fract_y
_atom_site_fract_z
Si Si1 0.876856 0.939750 0.961676
Si Si2 0.859207 0.557175 0.462708
Si Si3 0.375665 0.528972 0.134777
Si Si4 0.058464 0.133071 0.225431
Si Si5 0.440081 0.363954 0.225772
Si Si6 0.369551 0.973022 0.633628
O O1 0.795091 0.651206 0.966973
O O2 0.956651 0.950513 0.913015
O O3 0.723154 0.152049 0.963959
O O4 0.009755 0.009246 0.998807
O O5 0.941253 0.498478 0.415073
O O6 0.485882 0.464050 0.177214
O O7 0.242661 0.290217 0.131147
O O8 0.262333 0.789307 0.142610
O O9 0.248762 0.250824 0.224783
O O10 0.012247 0.057053 0.175735
O O11 0.949160 0.368420 0.246028
O O12 0.451532 0.618388 0.256776
#
# Coordination Sequence:
#
# PCOD9313838 Si02
#       6
#     4   4   4   4   4   4
#     4  10  20  36  58  81 107 140 178 219 264 316
#     4  10  20  36  58  81 107 140 178 219 264 316
#     4   9  18  34  55  76 104 145 179 205 259 333
#     4  11  21  36  56  79 107 141 181 222 262 313
#     4  11  21  36  56  79 107 141 181 222 262 313
#     4   9  18  34  55  76 104 145 179 205 259 333
#
# _framework density 19.617646000000001
#
# number of rings (size 3 to 8) (size 9 to 14) (size 15 to 20)
#    0.000    2.000    0.000    6.000    0.000    0.000 
#    0.000    5.000    0.000    0.000    0.000    0.000 
#    0.000    0.000    0.000    0.000    0.000    0.000 
#
# Total GULP energy -133850.998903 kJ/mol
# GULP energy per Si atom -5577.124954 kJ/mol
# Density = 1.957300 g / cm^3
# Si number density = 19.617646 Si / 1000 Ang^3
#
#
#
# Elastic Constant Matrix: (Units=GPa)
#
#
# Indices 1 2 3 4 5 6 
#
# 1 20.6220 -5.8868 33.2053 0.0000 0.0000 0.0000
# 2 -5.8868 108.7613 20.4487 0.0000 0.0000 0.0000
# 3 33.2053 20.4487 184.3560 0.0000 0.0000 0.0000
# 4 0.0000 0.0000 0.0000 32.1611 0.0000 0.0000
# 5 0.0000 0.0000 0.0000 0.0000 35.8475 0.0000
# 6 0.0000 0.0000 0.0000 0.0000 0.0000 25.0956
#
#
#
# Elastic Compliance Matrix: (Units=1/GPa)
#
#
# Indices 1 2 3 4 5 6 
#
# 1 0.072563 0.006521 -0.013793 0.000000 0.000000 0.000000
# 2 0.006521 0.009976 -0.002281 0.000000 0.000000 0.000000
# 3 -0.013793 -0.002281 0.008162 0.000000 0.000000 0.000000
# 4 0.000000 0.000000 0.000000 0.031094 0.000000 0.000000
# 5 0.000000 0.000000 0.000000 0.000000 0.027896 0.000000
# 6 0.000000 0.000000 0.000000 0.000000 0.000000 0.039848
#
#
# Mechanical properties :
#
#
# Convention : Reuss Voigt Hill
#
# Bulk Modulus (GPa) = 13.96762 45.47486 29.72124
# Shear Modulus (GPa) = 21.50457 36.35231 28.92844
#
# Velocity S-wave (km/s) = 3.31446 4.30937 3.84423
# Velocity P-wave (km/s) = 4.66722 6.92761 5.90655
#
# Compressibility (1/GPa) = 0.07159414
#
# Stress axis : x y z
#
# Youngs Moduli (GPa) = 13.78119 100.23796 122.52478
#
# Poissons Ratio (x) = -0.65363 1.68997
# Poissons Ratio (y) = -0.08986 0.27949
# Poissons Ratio (z) = 0.19008 0.22865
#
# Static dielectric constant tensor:
#      x y z
#    x 1.665860 0.000000 0.000000 
#    y 0.000000 1.664400 0.000000 
#    z 0.000000 0.000000 1.764900 
# 
# From -- ./inp_files/569.got.cif
#   From: 2010.05.17/outbox.cif.g08.bks.cpg/sg19_1_cif.got.tgz:569.got - 2010.06.03 22:46:19.
