data_PCOD9313037
_publ_section_title
;
Structure prediction by ZEFSAII (Michael W. Deem and Ramdas Pophale) SiO2 
 PCOD9313037
Probable space group: P 21 21 2
;
_chemical_formula_sum "Si O2"
_cell_formula_units_Z 32
_cell_length_a 10.935059
_cell_length_b 9.026556
_cell_length_c 14.244253
_cell_angle_alpha 90.000000
_cell_angle_beta 90.000000
_cell_angle_gamma 90.000000
_cell_volume 1405.992132
_symmetry_space_group_name_H-M "P 21 21 2"
_symmetry_group_IT_number 18
_symmetry_cell_setting 'orthorhombic'
loop_
_space_group_symop_operation_xyz
x,y,z
-x,-y,z
1/2+x,1/2-y,-z
1/2-x,1/2+y,-z
loop_
_atom_site_type_symbol
_atom_site_label
_atom_site_fract_x
_atom_site_fract_y
_atom_site_fract_z
Si Si1 0.525790 0.338544 0.402765
Si Si2 0.730774 0.800752 0.690390
Si Si3 0.123103 0.399596 0.062490
Si Si4 0.624855 0.094012 0.723600
Si Si5 0.106934 0.619308 0.496170
Si Si6 0.141694 0.964369 0.209989
Si Si7 0.163700 0.125540 0.405890
Si Si8 0.360133 0.567832 0.992647
O O1 0.500000 0.500000 0.363921
O O2 0.634916 0.262037 0.346034
O O3 0.413869 0.228516 0.415565
O O4 0.562267 0.358549 0.512636
O O5 0.641286 0.796848 0.599715
O O6 0.678146 0.705785 0.775373
O O7 0.730105 0.971917 0.718749
O O8 0.114750 0.345738 0.171217
O O9 0.128881 0.246986 0.002355
O O10 0.000000 0.500000 0.044540
O O11 0.249735 0.493562 0.052544
O O12 0.650937 0.213419 0.643883
O O13 0.500000 0.000000 0.709523
O O14 0.233982 0.549370 0.527755
O O15 0.000000 0.500000 0.491160
O O16 0.171037 0.028210 0.312417
O O17 0.189292 0.027991 0.112711
O O18 0.000000 0.000000 0.202510
O O19 0.500000 0.500000 0.006079
#
# Coordination Sequence:
#
# PCOD9313037 Si02
#       8
#     4   4   4   4   4   4   4   4
#     4  11  22  37  56  84 124 174 216 269 332 388
#     4  11  23  36  59  90 124 168 220 277 323 392
#     4  11  25  46  76 107 143 180 225 287 352 428
#     4  11  22  38  65  95 127 162 220 275 331 393
#     4  11  22  37  57  83 125 172 218 268 334 390
#     4  11  22  38  65  95 124 162 222 277 331 389
#     4  11  21  38  59  88 124 166 219 277 322 393
#     4  11  25  46  75 106 141 180 229 285 358 424
#
# _framework density 22.759730000000001
#
# number of rings (size 3 to 8) (size 9 to 14) (size 15 to 20)
#    0.000    1.000    1.250    6.750    7.000    4.000 
#    0.000    3.750    0.000    0.000    0.000    0.000 
#    0.000    0.000    0.000    0.000    0.000    0.000 
#
# Total GULP energy -178327.223157 kJ/mol
# GULP energy per Si atom -5572.725724 kJ/mol
# Density = 2.270793 g / cm^3
# Si number density = 22.759730 Si / 1000 Ang^3
#
#
#
# Elastic Constant Matrix: (Units=GPa)
#
#
# Indices 1 2 3 4 5 6 
#
# 1 76.6628 32.4959 28.2323 0.0000 0.0000 0.0000
# 2 32.4959 104.8989 -0.3221 0.0000 0.0000 0.0000
# 3 28.2323 -0.3221 56.3259 0.0000 0.0000 0.0000
# 4 0.0000 0.0000 0.0000 43.2448 0.0000 0.0000
# 5 0.0000 0.0000 0.0000 0.0000 1559.7416 0.0000
# 6 0.0000 0.0000 0.0000 0.0000 0.0000 26.6402
#
#
#
# Elastic Compliance Matrix: (Units=1/GPa)
#
#
# Indices 1 2 3 4 5 6 
#
# 1 0.019104 -0.005948 -0.009610 0.000000 0.000000 0.000000
# 2 -0.005948 0.011385 0.003046 0.000000 0.000000 0.000000
# 3 -0.009610 0.003046 0.022588 0.000000 0.000000 0.000000
# 4 0.000000 0.000000 0.000000 0.023124 0.000000 0.000000
# 5 0.000000 0.000000 0.000000 0.000000 0.000641 0.000000
# 6 0.000000 0.000000 0.000000 0.000000 0.000000 0.037537
#
#
# Mechanical properties :
#
#
# Convention : Reuss Voigt Hill
#
# Bulk Modulus (GPa) = 35.64447 39.85554 37.75000
# Shear Modulus (GPa) = 33.61275 337.75741 185.68508
#
# Velocity S-wave (km/s) = 3.84715 12.19522 9.04224
# Velocity P-wave (km/s) = 5.95225 14.69175 11.20885
#
# Compressibility (1/GPa) = 0.02805484
#
# Stress axis : x y z
#
# Youngs Moduli (GPa) = 52.34470 87.83625 44.27149
#
# Poissons Ratio (x) = 0.52242 0.42543
# Poissons Ratio (y) = 0.31133 -0.13486
# Poissons Ratio (z) = 0.50301 -0.26757
#
# Static dielectric constant tensor:
#      x y z
#    x 1.957430 0.000000 0.000000 
#    y 0.000000 0.050980 0.000000 
#    z 0.000000 0.000000 2.029930 
# 
# From -- ./inp_files/6931.got.cif
#   From: 2010.05.17/outbox.cif.g08.bks.cpg/sg18_4_cif.got.tgz:6931.got - 2010.06.03 22:40:56.
