data_PCOD9313615
_publ_section_title
;
Structure prediction by ZEFSAII (Michael W. Deem and Ramdas Pophale) SiO2 
 PCOD9313615
Probable space group: P 21 21 21
;
_chemical_formula_sum "Si O2"
_cell_formula_units_Z 32
_cell_length_a 9.142932
_cell_length_b 7.044996
_cell_length_c 22.014370
_cell_angle_alpha 90.000000
_cell_angle_beta 90.000000
_cell_angle_gamma 90.000000
_cell_volume 1417.987825
_symmetry_space_group_name_H-M "P 21 21 21"
_symmetry_group_IT_number 19
_symmetry_cell_setting 'orthorhombic'
loop_
_space_group_symop_operation_xyz
x,y,z
1/2-x,-y,1/2+z
1/2+x,1/2-y,-z
-x,1/2+y,1/2-z
loop_
_atom_site_type_symbol
_atom_site_label
_atom_site_fract_x
_atom_site_fract_y
_atom_site_fract_z
Si Si1 0.037380 0.971131 0.569299
Si Si2 0.133779 0.522288 0.479533
Si Si3 0.418175 0.680666 0.812325
Si Si4 0.021731 0.875173 0.320992
Si Si5 0.131754 0.918109 0.085231
Si Si6 0.691336 0.733719 0.096090
Si Si7 0.704527 0.285589 0.116886
Si Si8 0.376745 0.533023 0.559766
O O1 0.964978 0.176406 0.583731
O O2 0.981770 0.935662 0.499440
O O3 0.207506 0.996985 0.582030
O O4 0.203803 0.674480 0.434084
O O5 0.963470 0.506231 0.469574
O O6 0.951127 0.820321 0.612241
O O7 0.201754 0.319160 0.456389
O O8 0.208820 0.574836 0.542134
O O9 0.449553 0.901076 0.822810
O O10 0.436335 0.655117 0.741108
O O11 0.537530 0.562872 0.851942
O O12 0.260106 0.665501 0.843847
O O13 0.930792 0.848484 0.382806
O O14 0.182566 0.778111 0.325723
O O15 0.127821 0.691325 0.074340
O O16 0.691045 0.508622 0.101803
#
# Coordination Sequence:
#
# PCOD9313615 Si02
#       8
#     4   4   4   4   4   4   4   4
#     4  10  21  38  68  88 134 173 203 261 335 382
#     4   9  19  36  64  88 128 163 201 264 325 371
#     4   9  20  34  65  92 123 169 215 276 315 376
#     4  10  20  36  65  93 127 161 227 268 322 382
#     4  10  19  36  61  99 124 170 220 252 325 398
#     4   8  17  37  61  91 120 161 214 259 319 372
#     4   9  19  37  60  93 123 166 208 265 312 380
#     4   9  19  38  60  94 123 169 208 265 321 381
#
# _framework density 22.56719
#
# number of rings (size 3 to 8) (size 9 to 14) (size 15 to 20)
#    0.000    3.000    0.000    1.500    5.250    2.000 
#    0.000   17.500    5.500    1.500    0.000    0.000 
#    0.000    2.500    0.000    0.000    0.000    0.000 
#
# Total GULP energy -178689.240266 kJ/mol
# GULP energy per Si atom -5584.038758 kJ/mol
# Density = 2.251583 g / cm^3
# Si number density = 22.567190 Si / 1000 Ang^3
#
#
#
# Elastic Constant Matrix: (Units=GPa)
#
#
# Indices 1 2 3 4 5 6 
#
# 1 169.7602 22.5987 40.7303 0.0000 0.0000 0.0000
# 2 22.5987 103.2169 3.4203 0.0000 0.0000 0.0000
# 3 40.7303 3.4203 105.2064 0.0000 0.0000 0.0000
# 4 0.0000 0.0000 0.0000 25.2910 0.0000 0.0000
# 5 0.0000 0.0000 0.0000 0.0000 27.5669 0.0000
# 6 0.0000 0.0000 0.0000 0.0000 0.0000 21.6696
#
#
#
# Elastic Compliance Matrix: (Units=1/GPa)
#
#
# Indices 1 2 3 4 5 6 
#
# 1 0.006684 -0.001379 -0.002543 0.000000 0.000000 0.000000
# 2 -0.001379 0.009983 0.000209 0.000000 0.000000 0.000000
# 3 -0.002543 0.000209 0.010483 0.000000 0.000000 0.000000
# 4 0.000000 0.000000 0.000000 0.039540 0.000000 0.000000
# 5 0.000000 0.000000 0.000000 0.000000 0.036275 0.000000
# 6 0.000000 0.000000 0.000000 0.000000 0.000000 0.046148
#
#
# Mechanical properties :
#
#
# Convention : Reuss Voigt Hill
#
# Bulk Modulus (GPa) = 50.69724 56.85355 53.77539
# Shear Modulus (GPa) = 30.65339 35.66777 33.16058
#
# Velocity S-wave (km/s) = 3.68953 3.97988 3.83745
# Velocity P-wave (km/s) = 6.37683 6.80933 6.59663
#
# Compressibility (1/GPa) = 0.01972494
#
# Stress axis : x y z
#
# Youngs Moduli (GPa) = 149.60188 100.16651 95.39402
#
# Poissons Ratio (x) = 0.13815 0.24259
# Poissons Ratio (y) = 0.20634 -0.01998
# Poissons Ratio (z) = 0.38044 -0.02098
#
# Static dielectric constant tensor:
#      x y z
#    x 1.876050 0.000000 0.000000 
#    y 0.000000 1.931210 0.000000 
#    z 0.000000 0.000000 1.988380 
# 
# From -- ./inp_files/6665.got.cif
#   From: 2010.05.17/outbox.cif.g08.bks.cpg/sg19_4_cif.got.tgz:6665.got - 2010.06.03 22:46:19.
