data_PCOD9313830
_publ_section_title
;
Structure prediction by ZEFSAII (Michael W. Deem and Ramdas Pophale) SiO2 
 PCOD9313830
Probable space group: P 21 21 21
;
_chemical_formula_sum "Si O2"
_cell_formula_units_Z 32
_cell_length_a 23.086081
_cell_length_b 9.244577
_cell_length_c 8.233138
_cell_angle_alpha 90.000000
_cell_angle_beta 90.000000
_cell_angle_gamma 90.000000
_cell_volume 1757.124985
_symmetry_space_group_name_H-M "P 21 21 21"
_symmetry_group_IT_number 19
_symmetry_cell_setting 'orthorhombic'
loop_
_space_group_symop_operation_xyz
x,y,z
1/2-x,-y,1/2+z
1/2+x,1/2-y,-z
-x,1/2+y,1/2-z
loop_
_atom_site_type_symbol
_atom_site_label
_atom_site_fract_x
_atom_site_fract_y
_atom_site_fract_z
Si Si1 0.133113 0.343478 0.093766
Si Si2 0.173533 0.068111 0.893811
Si Si3 0.559099 0.084876 0.197728
Si Si4 0.826468 0.931883 0.893818
Si Si5 0.133111 0.156520 0.406227
Si Si6 0.706686 0.916323 0.722114
Si Si7 0.940902 0.584874 0.802279
Si Si8 0.793315 0.416319 0.277892
O O1 0.113401 0.250002 0.249999
O O2 0.173563 0.470891 0.160751
O O3 0.165236 0.226483 0.977155
O O4 0.082012 0.410419 0.986783
O O5 0.112913 0.030307 0.807892
O O6 0.225595 0.068690 0.765639
O O7 0.191195 0.962645 0.039800
O O8 0.612912 0.030309 0.307904
O O9 0.549313 0.250001 0.250003
O O10 0.500000 0.000001 0.218112
O O11 0.774407 0.931308 0.765644
O O12 0.834765 0.773509 0.977155
O O13 0.808805 0.037343 0.039810
O O14 0.082010 0.089580 0.513207
O O15 0.173560 0.029107 0.339238
O O16 0.689977 0.750002 0.750000
#
# Coordination Sequence:
#
# PCOD9313830 Si02
#       8
#     4   4   4   4   4   4   4   4
#     4   9  20  38  56  80 114 147 176 224 290 337
#     4  10  20  36  56  80 115 149 179 226 288 332
#     4  10  21  39  59  78 108 148 188 227 274 329
#     4  10  20  36  56  80 115 149 179 226 288 332
#     4   9  20  38  56  80 114 147 176 224 290 337
#     4  11  20  33  57  86 112 142 186 231 276 338
#     4  10  21  39  59  78 108 148 188 227 274 329
#     4  11  20  33  57  86 112 142 186 231 276 338
#
# _framework density 18.211568
#
# number of rings (size 3 to 8) (size 9 to 14) (size 15 to 20)
#    0.000    2.000    0.000    5.250    0.000    2.000 
#    0.000   18.750    0.000    0.000    0.000    0.000 
#    0.000    0.000    0.000    0.000    0.000    0.000 
#
# Total GULP energy -178631.077111 kJ/mol
# GULP energy per Si atom -5582.221160 kJ/mol
# Density = 1.817012 g / cm^3
# Si number density = 18.211568 Si / 1000 Ang^3
#
#
#
# Elastic Constant Matrix: (Units=GPa)
#
#
# Indices 1 2 3 4 5 6 
#
# 1 143.6155 64.7488 95.9423 0.0000 0.0000 0.0000
# 2 64.7488 81.4995 49.0939 0.0000 0.0000 0.0000
# 3 95.9423 49.0939 127.8573 0.0000 0.0000 0.0000
# 4 0.0000 0.0000 0.0000 28.2117 0.0000 0.0000
# 5 0.0000 0.0000 0.0000 0.0000 22.8978 0.0000
# 6 0.0000 0.0000 0.0000 0.0000 0.0000 29.4379
#
#
#
# Elastic Compliance Matrix: (Units=1/GPa)
#
#
# Indices 1 2 3 4 5 6 
#
# 1 0.016895 -0.007527 -0.009788 0.000000 0.000000 0.000000
# 2 -0.007527 0.019315 -0.001769 0.000000 0.000000 0.000000
# 3 -0.009788 -0.001769 0.015845 0.000000 0.000000 0.000000
# 4 0.000000 0.000000 0.000000 0.035446 0.000000 0.000000
# 5 0.000000 0.000000 0.000000 0.000000 0.043672 0.000000
# 6 0.000000 0.000000 0.000000 0.000000 0.000000 0.033970
#
#
# Mechanical properties :
#
#
# Convention : Reuss Voigt Hill
#
# Bulk Modulus (GPa) = 71.99936 85.83805 78.91870
# Shear Modulus (GPa) = 24.04545 25.65531 24.85038
#
# Velocity S-wave (km/s) = 3.63759 3.75739 3.69797
# Velocity P-wave (km/s) = 7.56727 8.12773 7.85250
#
# Compressibility (1/GPa) = 0.01388901
#
# Stress axis : x y z
#
# Youngs Moduli (GPa) = 59.18840 51.77302 63.11143
#
# Poissons Ratio (x) = 0.38968 0.61773
# Poissons Ratio (y) = 0.44549 0.11162
# Poissons Ratio (z) = 0.57933 0.09157
#
# Static dielectric constant tensor:
#      x y z
#    x 1.601710 0.000000 0.000000 
#    y 0.000000 1.624580 0.000000 
#    z 0.000000 0.000000 1.663010 
# 
# From -- ./inp_files/3174.got.cif
#   From: 2010.05.17/outbox.cif.g08.bks.cpg/sg19_2_cif.got.tgz:3174.got - 2010.06.03 22:46:19.
