data_PCOD9313009
_publ_section_title
;
Structure prediction by ZEFSAII (Michael W. Deem and Ramdas Pophale) SiO2 
 PCOD9313009
Probable space group: P 21 21 2
;
_chemical_formula_sum "Si O2"
_cell_formula_units_Z 20
_cell_length_a 15.264359
_cell_length_b 10.189313
_cell_length_c 5.205053
_cell_angle_alpha 90.000000
_cell_angle_beta 90.000000
_cell_angle_gamma 90.000000
_cell_volume 809.559234
_symmetry_space_group_name_H-M "P 21 21 2"
_symmetry_group_IT_number 18
_symmetry_cell_setting 'orthorhombic'
loop_
_space_group_symop_operation_xyz
x,y,z
-x,-y,z
1/2+x,1/2-y,-z
1/2-x,1/2+y,-z
loop_
_atom_site_type_symbol
_atom_site_label
_atom_site_fract_x
_atom_site_fract_y
_atom_site_fract_z
Si Si1 0.457583 0.259039 0.437896
Si Si2 0.672221 0.137632 0.977742
Si Si3 0.500000 0.000000 0.128028
Si Si4 0.648874 0.292100 0.497996
Si Si5 0.837420 0.053565 0.279394
Si Si6 0.000000 0.000000 0.939222
O O1 0.548769 0.266455 0.590170
O O2 0.375859 0.309624 0.607097
O O3 0.476195 0.374832 0.233284
O O4 0.459045 0.117680 0.302180
O O5 0.655049 0.240330 0.209626
O O6 0.754408 0.062380 0.097367
O O7 0.583017 0.052775 0.967472
O O8 0.698602 0.205185 0.710402
O O9 0.677381 0.442697 0.506386
O O10 0.916161 0.990859 0.118141
#
# Coordination Sequence:
#
# PCOD9313009 Si02
#       6
#     4   4   2   4   4   2
#     4  11  24  46  77 103 149 199 245 310 376 439
#     4  11  29  44  75 105 155 193 248 313 374 446
#     4  10  26  50  68 108 152 198 240 312 384 440
#     4  11  24  50  68 106 145 193 252 308 363 448
#     4  12  25  43  76 112 139 203 253 308 369 452
#     4  12  22  46  78 110 146 200 256 310 370 442
#
# _framework density 24.704802000000001
#
# number of rings (size 3 to 8) (size 9 to 14) (size 15 to 20)
#    0.000    0.800    4.000    2.400    5.600    3.200 
#    3.600    0.000    0.000    0.000    0.000    0.000 
#    0.000    0.000    0.000    0.000    0.000    0.000 
#
# Total GULP energy -111860.918952 kJ/mol
# GULP energy per Si atom -5593.045948 kJ/mol
# Density = 2.464857 g / cm^3
# Si number density = 24.704802 Si / 1000 Ang^3
#
#
#
# Elastic Constant Matrix: (Units=GPa)
#
#
# Indices 1 2 3 4 5 6 
#
# 1 87.5501 -4.5963 3.9816 0.0000 0.0000 0.0000
# 2 -4.5963 116.5142 30.4043 0.0000 0.0000 0.0000
# 3 3.9816 30.4043 57.1484 0.0000 0.0000 0.0000
# 4 0.0000 0.0000 0.0000 -0.6893 0.0000 0.0000
# 5 0.0000 0.0000 0.0000 0.0000 21.9611 0.0000
# 6 0.0000 0.0000 0.0000 0.0000 0.0000 32.0488
#
#
#
# Elastic Compliance Matrix: (Units=1/GPa)
#
#
# Indices 1 2 3 4 5 6 
#
# 1 0.011518 0.000771 -0.001213 0.000000 0.000000 0.000000
# 2 0.000771 0.010018 -0.005383 0.000000 0.000000 0.000000
# 3 -0.001213 -0.005383 0.020447 0.000000 0.000000 0.000000
# 4 0.000000 0.000000 0.000000 -1.450665 0.000000 0.000000
# 5 0.000000 0.000000 0.000000 0.000000 0.045535 0.000000
# 6 0.000000 0.000000 0.000000 0.000000 0.000000 0.031202
#
#
# Mechanical properties :
#
#
# Convention : Reuss Voigt Hill
#
# Bulk Modulus (GPa) = 32.96850 35.64357 34.30603
# Shear Modulus (GPa) = -3.81626 26.09232 11.13803
#
# Velocity S-wave (km/s) = -1.24423 3.25339 2.12561
# Velocity P-wave (km/s) = 3.36301 5.34527 4.46552
#
# Compressibility (1/GPa) = 0.03033199
#
# Stress axis : x y z
#
# Youngs Moduli (GPa) = 86.82340 99.82182 48.90722
#
# Poissons Ratio (x) = -0.07694 0.05930
# Poissons Ratio (y) = -0.06692 0.26329
# Poissons Ratio (z) = 0.10527 0.53738
#
# Static dielectric constant tensor:
#      x y z
#    x 2.064530 0.000000 0.000000 
#    y 0.000000 2.689980 0.000000 
#    z 0.000000 0.000000 1.969630 
# 
# From -- ./inp_files/1050.got.cif
#   From: 2010.05.17/outbox.cif.g08.bks.cpg/sg18_1_cif.got.tgz:1050.got - 2010.06.03 22:40:56.
