data_PCOD9313964
_publ_section_title
;
Structure prediction by ZEFSAII (Michael W. Deem and Ramdas Pophale) SiO2 
 PCOD9313964
Probable space group: P 21 21 21
;
_chemical_formula_sum "Si O2"
_cell_formula_units_Z 28
_cell_length_a 13.366406
_cell_length_b 13.728441
_cell_length_c 5.784731
_cell_angle_alpha 90.000000
_cell_angle_beta 90.000000
_cell_angle_gamma 90.000000
_cell_volume 1061.497653
_symmetry_space_group_name_H-M "P 21 21 21"
_symmetry_group_IT_number 19
_symmetry_cell_setting 'orthorhombic'
loop_
_space_group_symop_operation_xyz
x,y,z
1/2-x,-y,1/2+z
1/2+x,1/2-y,-z
-x,1/2+y,1/2-z
loop_
_atom_site_type_symbol
_atom_site_label
_atom_site_fract_x
_atom_site_fract_y
_atom_site_fract_z
Si Si1 0.429577 0.257363 0.153685
Si Si2 0.384967 0.573955 0.078962
Si Si3 0.960409 0.394122 0.205171
Si Si4 0.722295 0.397401 0.221353
Si Si5 0.749874 0.373820 0.715179
Si Si6 0.473222 0.425191 0.440691
Si Si7 0.308357 0.395111 0.804754
O O1 0.344837 0.196978 0.287510
O O2 0.499513 0.327332 0.303059
O O3 0.488418 0.179886 0.998891
O O4 0.363292 0.325371 0.984315
O O5 0.447432 0.501738 0.240481
O O6 0.304712 0.629561 0.236247
O O7 0.465543 0.625679 0.916749
O O8 0.317839 0.503840 0.911591
O O9 0.842317 0.380338 0.235150
O O10 0.971539 0.507305 0.129078
O O11 0.689704 0.362638 0.476526
O O12 0.708043 0.514799 0.219379
O O13 0.694409 0.361292 0.963478
O O14 0.373498 0.393400 0.574268
#
# Coordination Sequence:
#
# PCOD9313964 Si02
#       7
#     4   4   4   4   4   4   4
#     4  10  23  38  69  97 134 182 238 282 352 426
#     4  10  20  38  68  91 129 173 226 284 348 418
#     4  10  23  38  68 101 135 185 223 294 363 418
#     4   9  19  37  65  94 128 178 231 278 345 412
#     4   9  19  37  65  93 129 177 232 279 331 424
#     4  10  22  39  69  91 128 179 223 284 349 420
#     4  10  20  39  66  93 119 174 231 277 338 424
#
# _framework density 26.377825000000001
#
# number of rings (size 3 to 8) (size 9 to 14) (size 15 to 20)
#    0.000    2.286    1.429    0.000    8.000    0.000 
#    0.000    0.000   25.143    0.000    0.000    0.000 
#    0.000    0.000    0.000    0.000    0.000    0.000 
#
# Total GULP energy -156628.538673 kJ/mol
# GULP energy per Si atom -5593.876381 kJ/mol
# Density = 2.631779 g / cm^3
# Si number density = 26.377825 Si / 1000 Ang^3
#
#
#
# Elastic Constant Matrix: (Units=GPa)
#
#
# Indices 1 2 3 4 5 6 
#
# 1 87.8140 30.7750 43.9105 0.0000 0.0000 0.0000
# 2 30.7750 78.0401 51.8509 0.0000 0.0000 0.0000
# 3 43.9105 51.8509 174.3016 0.0000 0.0000 0.0000
# 4 0.0000 0.0000 0.0000 48.8862 0.0000 0.0000
# 5 0.0000 0.0000 0.0000 0.0000 38.1753 0.0000
# 6 0.0000 0.0000 0.0000 0.0000 0.0000 24.0897
#
#
#
# Elastic Compliance Matrix: (Units=1/GPa)
#
#
# Indices 1 2 3 4 5 6 
#
# 1 0.013939 -0.003943 -0.002339 0.000000 0.000000 0.000000
# 2 -0.003943 0.017086 -0.004089 0.000000 0.000000 0.000000
# 3 -0.002339 -0.004089 0.007543 0.000000 0.000000 0.000000
# 4 0.000000 0.000000 0.000000 0.020456 0.000000 0.000000
# 5 0.000000 0.000000 0.000000 0.000000 0.026195 0.000000
# 6 0.000000 0.000000 0.000000 0.000000 0.000000 0.041512
#
#
# Mechanical properties :
#
#
# Convention : Reuss Voigt Hill
#
# Bulk Modulus (GPa) = 56.09860 65.91429 61.00645
# Shear Modulus (GPa) = 32.59165 36.47152 34.53159
#
# Velocity S-wave (km/s) = 3.51888 3.72245 3.62209
# Velocity P-wave (km/s) = 6.15008 6.59684 6.37737
#
# Compressibility (1/GPa) = 0.01782576
#
# Stress axis : x y z
#
# Youngs Moduli (GPa) = 71.74142 58.52794 132.57655
#
# Poissons Ratio (x) = 0.23078 0.31004
# Poissons Ratio (y) = 0.28288 0.54215
# Poissons Ratio (z) = 0.16777 0.23934
#
# Static dielectric constant tensor:
#      x y z
#    x 2.090660 0.000000 0.000000 
#    y 0.000000 2.103560 0.000000 
#    z 0.000000 0.000000 2.120590 
# 
# From -- ./inp_files/1493.got.cif
#   From: 2010.05.17/outbox.cif.g08.bks.cpg/sg19_1_cif.got.tgz:1493.got - 2010.06.03 22:46:19.
