data_PCOD9313936
_publ_section_title
;
Structure prediction by ZEFSAII (Michael W. Deem and Ramdas Pophale) SiO2 
 PCOD9313936
Probable space group: P 21 21 21
;
_chemical_formula_sum "Si O2"
_cell_formula_units_Z 28
_cell_length_a 9.663252
_cell_length_b 12.415360
_cell_length_c 9.457738
_cell_angle_alpha 90.000000
_cell_angle_beta 90.000000
_cell_angle_gamma 90.000000
_cell_volume 1134.670859
_symmetry_space_group_name_H-M "P 21 21 21"
_symmetry_group_IT_number 19
_symmetry_cell_setting 'orthorhombic'
loop_
_space_group_symop_operation_xyz
x,y,z
1/2-x,-y,1/2+z
1/2+x,1/2-y,-z
-x,1/2+y,1/2-z
loop_
_atom_site_type_symbol
_atom_site_label
_atom_site_fract_x
_atom_site_fract_y
_atom_site_fract_z
Si Si1 0.245329 0.675968 0.397986
Si Si2 0.781880 0.352030 0.889186
Si Si3 0.400996 0.513913 0.982243
Si Si4 0.954164 0.648430 0.702463
Si Si5 0.934616 0.318201 0.621621
Si Si6 0.504293 0.391328 0.735929
Si Si7 0.184995 0.079487 0.528291
O O1 0.178613 0.748135 0.521733
O O2 0.243142 0.551344 0.453633
O O3 0.380072 0.745350 0.363578
O O4 0.138241 0.670802 0.267001
O O5 0.890841 0.377553 0.766636
O O6 0.633840 0.335111 0.814648
O O7 0.772134 0.455121 0.989091
O O8 0.480063 0.435145 0.093768
O O9 0.427994 0.630996 0.049320
O O10 0.476614 0.499868 0.829622
O O11 0.059105 0.697766 0.819364
O O12 0.841983 0.597900 0.807591
O O13 0.808829 0.343808 0.519180
O O14 0.555833 0.404571 0.577621
#
# Coordination Sequence:
#
# PCOD9313936 Si02
#       7
#     4   4   4   4   4   4   4
#     4  10  20  38  62  85 121 160 195 242 307 376
#     4  11  19  37  66  87 112 158 202 255 294 348
#     4  10  20  40  62  86 120 153 209 246 297 364
#     4  12  23  38  64  90 122 164 195 253 309 355
#     4  11  22  39  62  91 120 158 202 253 297 358
#     4   9  21  37  57  89 116 151 196 251 296 355
#     4  11  23  37  61  92 121 146 213 254 296 342
#
# _framework density 24.676759000000001
#
# number of rings (size 3 to 8) (size 9 to 14) (size 15 to 20)
#    0.857    0.571    5.714    0.000    4.000    0.000 
#    0.000    2.857    0.000    0.000    0.000    0.000 
#    0.000    0.000    0.000    0.000    0.000    0.000 
#
# Total GULP energy -156026.107864 kJ/mol
# GULP energy per Si atom -5572.360995 kJ/mol
# Density = 2.462059 g / cm^3
# Si number density = 24.676759 Si / 1000 Ang^3
#
#
#
# Elastic Constant Matrix: (Units=GPa)
#
#
# Indices 1 2 3 4 5 6 
#
# 1 32.8000 0.8363 5.1700 0.0000 0.0000 0.0000
# 2 0.8363 8.9753 0.3859 0.0000 0.0000 0.0000
# 3 5.1700 0.3859 94.7425 0.0000 0.0000 0.0000
# 4 0.0000 0.0000 0.0000 24.2220 0.0000 0.0000
# 5 0.0000 0.0000 0.0000 0.0000 31.0745 0.0000
# 6 0.0000 0.0000 0.0000 0.0000 0.0000 22.1886
#
#
#
# Elastic Compliance Matrix: (Units=1/GPa)
#
#
# Indices 1 2 3 4 5 6 
#
# 1 0.030823 -0.002800 -0.001671 0.000000 0.000000 0.000000
# 2 -0.002800 0.111691 -0.000302 0.000000 0.000000 0.000000
# 3 -0.001671 -0.000302 0.010647 0.000000 0.000000 0.000000
# 4 0.000000 0.000000 0.000000 0.041285 0.000000 0.000000
# 5 0.000000 0.000000 0.000000 0.000000 0.032181 0.000000
# 6 0.000000 0.000000 0.000000 0.000000 0.000000 0.045068
#
#
# Mechanical properties :
#
#
# Convention : Reuss Voigt Hill
#
# Bulk Modulus (GPa) = 6.96306 16.58913 11.77610
# Shear Modulus (GPa) = 15.19241 24.17206 19.68223
#
# Velocity S-wave (km/s) = 2.48393 3.13317 2.82725
# Velocity P-wave (km/s) = 3.32482 4.45266 3.92941
#
# Compressibility (1/GPa) = 0.14361508
#
# Stress axis : x y z
#
# Youngs Moduli (GPa) = 32.44379 8.95329 93.92037
#
# Poissons Ratio (x) = 0.02507 0.15690
# Poissons Ratio (y) = 0.09085 0.02838
# Poissons Ratio (z) = 0.05420 0.00271
#
# Static dielectric constant tensor:
#      x y z
#    x 2.058110 0.000000 0.000000 
#    y 0.000000 2.064580 0.000000 
#    z 0.000000 0.000000 1.985030 
# 
# From -- ./inp_files/3546.got.cif
#   From: 2010.05.17/outbox.cif.g08.bks.cpg/sg19_2_cif.got.tgz:3546.got - 2010.06.03 22:46:19.
