data_PCOD9313916
_publ_section_title
;
Structure prediction by ZEFSAII (Michael W. Deem and Ramdas Pophale) SiO2 
 PCOD9313916
Probable space group: P 21 21 21
;
_chemical_formula_sum "Si O2"
_cell_formula_units_Z 32
_cell_length_a 16.332805
_cell_length_b 9.596086
_cell_length_c 7.964481
_cell_angle_alpha 90.000000
_cell_angle_beta 90.000000
_cell_angle_gamma 90.000000
_cell_volume 1248.281083
_symmetry_space_group_name_H-M "P 21 21 21"
_symmetry_group_IT_number 19
_symmetry_cell_setting 'orthorhombic'
loop_
_space_group_symop_operation_xyz
x,y,z
1/2-x,-y,1/2+z
1/2+x,1/2-y,-z
-x,1/2+y,1/2-z
loop_
_atom_site_type_symbol
_atom_site_label
_atom_site_fract_x
_atom_site_fract_y
_atom_site_fract_z
Si Si1 0.179609 0.900054 0.430827
Si Si2 0.923212 0.705404 0.552649
Si Si3 0.940917 0.175394 0.506308
Si Si4 0.630570 0.981665 0.689562
Si Si5 0.398242 0.299661 0.140510
Si Si6 0.872349 0.655720 0.910051
Si Si7 0.709464 0.150632 0.200843
Si Si8 0.957109 0.443570 0.339796
O O1 0.165394 0.822159 0.607857
O O2 0.237194 0.793153 0.331658
O O3 0.097948 0.904811 0.318261
O O4 0.190925 0.059641 0.487759
O O5 0.892690 0.616212 0.715380
O O6 0.857420 0.830676 0.551225
O O7 0.936348 0.600897 0.399020
O O8 0.010855 0.761469 0.610717
O O9 0.037953 0.145810 0.508342
O O10 0.896916 0.114056 0.345850
O O11 0.900743 0.129522 0.680204
O O12 0.933269 0.341743 0.491174
O O13 0.616190 0.905234 0.511466
O O14 0.729420 0.979677 0.704279
O O15 0.553419 0.086755 0.694671
O O16 0.837026 0.811257 0.875012
#
# Coordination Sequence:
#
# PCOD9313916 Si02
#       8
#     4   4   4   4   4   4   4   4
#     4  11  19  32  55  87 113 143 190 237 276 341
#     4   8  19  34  53  80 110 147 179 228 286 326
#     4  11  19  36  60  81 114 153 190 232 275 341
#     4  10  20  38  57  84 114 146 196 230 279 336
#     4   9  19  35  56  80 115 148 187 224 276 341
#     4   9  20  35  53  81 115 147 185 231 291 333
#     4   9  20  35  54  79 119 146 175 241 292 325
#     4  11  20  33  60  86 108 150 194 233 275 339
#
# _framework density 25.635252000000001
#
# number of rings (size 3 to 8) (size 9 to 14) (size 15 to 20)
#    0.750    1.500    3.750    0.750    1.750    0.000 
#    0.000    0.000    2.750    0.000    0.000    0.000 
#    0.000    0.000    0.000    0.000    0.000    0.000 
#
# Total GULP energy -178271.600053 kJ/mol
# GULP energy per Si atom -5570.987502 kJ/mol
# Density = 2.557690 g / cm^3
# Si number density = 25.635252 Si / 1000 Ang^3
#
#
#
# Elastic Constant Matrix: (Units=GPa)
#
#
# Indices 1 2 3 4 5 6 
#
# 1 96.2596 14.9472 19.4170 0.0000 0.0000 0.0000
# 2 14.9472 48.9961 23.7702 0.0000 0.0000 0.0000
# 3 19.4170 23.7702 106.7487 0.0000 0.0000 0.0000
# 4 0.0000 0.0000 0.0000 20.3514 0.0000 0.0000
# 5 0.0000 0.0000 0.0000 0.0000 28.2988 0.0000
# 6 0.0000 0.0000 0.0000 0.0000 0.0000 30.1726
#
#
#
# Elastic Compliance Matrix: (Units=1/GPa)
#
#
# Indices 1 2 3 4 5 6 
#
# 1 0.011093 -0.002697 -0.001417 0.000000 0.000000 0.000000
# 2 -0.002697 0.023537 -0.004751 0.000000 0.000000 0.000000
# 3 -0.001417 -0.004751 0.010683 0.000000 0.000000 0.000000
# 4 0.000000 0.000000 0.000000 0.049137 0.000000 0.000000
# 5 0.000000 0.000000 0.000000 0.000000 0.035337 0.000000
# 6 0.000000 0.000000 0.000000 0.000000 0.000000 0.033143
#
#
# Mechanical properties :
#
#
# Convention : Reuss Voigt Hill
#
# Bulk Modulus (GPa) = 36.25195 40.91925 38.58560
# Shear Modulus (GPa) = 26.33599 28.68923 27.51261
#
# Velocity S-wave (km/s) = 3.20868 3.34897 3.27958
# Velocity P-wave (km/s) = 5.28201 5.56335 5.42451
#
# Compressibility (1/GPa) = 0.02758472
#
# Stress axis : x y z
#
# Youngs Moduli (GPa) = 90.14540 42.48596 93.60272
#
# Poissons Ratio (x) = 0.11457 0.13267
# Poissons Ratio (y) = 0.24308 0.44467
# Poissons Ratio (z) = 0.12777 0.20184
#
# Static dielectric constant tensor:
#      x y z
#    x 2.111600 0.000000 0.000000 
#    y 0.000000 2.070060 0.000000 
#    z 0.000000 0.000000 1.970880 
# 
# From -- ./inp_files/4266.got.cif
#   From: 2010.05.17/outbox.cif.g08.bks.cpg/sg19_3_cif.got.tgz:4266.got - 2010.06.03 22:46:19.
