data_PCOD9313521
_publ_section_title
;
Structure prediction by ZEFSAII (Michael W. Deem and Ramdas Pophale) SiO2 
 PCOD9313521
Probable space group: P 21 21 21
;
_chemical_formula_sum "Si O2"
_cell_formula_units_Z 32
_cell_length_a 21.156823
_cell_length_b 5.052378
_cell_length_c 18.596338
_cell_angle_alpha 90.000000
_cell_angle_beta 90.000000
_cell_angle_gamma 90.000000
_cell_volume 1987.804728
_symmetry_space_group_name_H-M "P 21 21 21"
_symmetry_group_IT_number 19
_symmetry_cell_setting 'orthorhombic'
loop_
_space_group_symop_operation_xyz
x,y,z
1/2-x,-y,1/2+z
1/2+x,1/2-y,-z
-x,1/2+y,1/2-z
loop_
_atom_site_type_symbol
_atom_site_label
_atom_site_fract_x
_atom_site_fract_y
_atom_site_fract_z
Si Si1 0.329240 0.789529 0.531067
Si Si2 0.958209 0.835237 0.099353
Si Si3 0.738279 0.789247 0.906051
Si Si4 0.541791 0.164763 0.900647
Si Si5 0.329240 0.789529 0.968933
Si Si6 0.613387 0.164526 0.750000
Si Si7 0.798086 0.334905 0.250000
Si Si8 0.761721 0.210753 0.093949
O O1 0.289464 0.580661 0.579653
O O2 0.402127 0.729599 0.544129
O O3 0.302576 0.746863 0.450926
O O4 0.310695 0.081536 0.557760
O O5 0.015289 0.629504 0.091543
O O6 0.902127 0.770401 0.044129
O O7 0.928042 0.799517 0.178599
O O8 0.984711 0.129504 0.091543
O O9 0.740458 0.720268 0.822506
O O10 0.802576 0.753137 0.950926
O O11 0.571958 0.200483 0.821401
O O12 0.289464 0.580661 0.920348
O O13 0.310695 0.081536 0.942240
O O14 0.670114 0.376938 0.750000
O O15 0.643871 0.873719 0.750000
O O16 0.759542 0.279732 0.177494
#
# Coordination Sequence:
#
# PCOD9313521 Si02
#       8
#     4   4   4   4   4   4   4   4
#     4  10  20  35  49  72  95 132 166 207 240 287
#     4  12  22  34  48  69 102 141 170 192 233 291
#     4  10  19  33  54  70  98 124 165 208 254 284
#     4  12  22  34  48  69 102 141 170 192 233 291
#     4  10  20  35  49  72  95 132 166 207 240 287
#     4  12  22  33  46  74 106 133 170 190 234 296
#     4  12  18  33  54  76  98 131 158 208 252 296
#     4  10  19  33  54  70  98 124 165 208 254 284
#
# _framework density 16.098161999999999
#
# number of rings (size 3 to 8) (size 9 to 14) (size 15 to 20)
#    0.000    1.000    5.000    3.750    0.000    0.000 
#    0.000    0.000    0.000    0.000    0.000    1.750 
#    0.000    0.000    0.000    0.000    0.000    0.000 
#
# Total GULP energy -178776.457154 kJ/mol
# GULP energy per Si atom -5586.764286 kJ/mol
# Density = 1.606152 g / cm^3
# Si number density = 16.098162 Si / 1000 Ang^3
#
#
#
# Elastic Constant Matrix: (Units=GPa)
#
#
# Indices 1 2 3 4 5 6 
#
# 1 54.2063 -11.4944 35.2811 0.0000 0.0000 0.0000
# 2 -11.4944 47.0641 -15.7049 0.0000 0.0000 0.0000
# 3 35.2811 -15.7049 74.7119 0.0000 0.0000 0.0000
# 4 0.0000 0.0000 0.0000 14.5358 0.0000 0.0000
# 5 0.0000 0.0000 0.0000 0.0000 29.1119 0.0000
# 6 0.0000 0.0000 0.0000 0.0000 0.0000 22.9819
#
#
#
# Elastic Compliance Matrix: (Units=1/GPa)
#
#
# Indices 1 2 3 4 5 6 
#
# 1 0.026907 0.002507 -0.012179 0.000000 0.000000 0.000000
# 2 0.002507 0.023084 0.003668 0.000000 0.000000 0.000000
# 3 -0.012179 0.003668 0.019907 0.000000 0.000000 0.000000
# 4 0.000000 0.000000 0.000000 0.068796 0.000000 0.000000
# 5 0.000000 0.000000 0.000000 0.000000 0.034350 0.000000
# 6 0.000000 0.000000 0.000000 0.000000 0.000000 0.043513
#
#
# Mechanical properties :
#
#
# Convention : Reuss Voigt Hill
#
# Bulk Modulus (GPa) = 17.27378 21.34956 19.31167
# Shear Modulus (GPa) = 20.17268 24.51928 22.34598
#
# Velocity S-wave (km/s) = 3.54376 3.90694 3.72977
# Velocity P-wave (km/s) = 5.24384 5.80027 5.52906
#
# Compressibility (1/GPa) = 0.05789122
#
# Stress axis : x y z
#
# Youngs Moduli (GPa) = 37.16558 43.31990 50.23329
#
# Poissons Ratio (x) = -0.10862 0.61179
# Poissons Ratio (y) = -0.09319 -0.18427
# Poissons Ratio (z) = 0.45264 -0.15891
#
# Static dielectric constant tensor:
#      x y z
#    x 1.522340 0.000000 0.000000 
#    y 0.000000 1.547170 0.000000 
#    z 0.000000 0.000000 1.541710 
# 
# From -- ./inp_files/6356.got.cif
#   From: 2010.05.17/outbox.cif.g08.bks.cpg/sg19_4_cif.got.tgz:6356.got - 2010.06.03 22:46:19.
