data_PCOD9313537
_publ_section_title
;
Structure prediction by ZEFSAII (Michael W. Deem and Ramdas Pophale) SiO2 
 PCOD9313537
Probable space group: P 21 21 21
;
_chemical_formula_sum "Si O2"
_cell_formula_units_Z 32
_cell_length_a 11.147668
_cell_length_b 17.999276
_cell_length_c 8.724971
_cell_angle_alpha 90.000000
_cell_angle_beta 90.000000
_cell_angle_gamma 90.000000
_cell_volume 1750.665022
_symmetry_space_group_name_H-M "P 21 21 21"
_symmetry_group_IT_number 19
_symmetry_cell_setting 'orthorhombic'
loop_
_space_group_symop_operation_xyz
x,y,z
1/2-x,-y,1/2+z
1/2+x,1/2-y,-z
-x,1/2+y,1/2-z
loop_
_atom_site_type_symbol
_atom_site_label
_atom_site_fract_x
_atom_site_fract_y
_atom_site_fract_z
Si Si1 0.513768 0.751463 0.557599
Si Si2 0.227228 0.832769 0.285328
Si Si3 0.053283 0.941972 0.095664
Si Si4 0.887488 0.698717 0.988240
Si Si5 0.102772 0.712344 0.780211
Si Si6 0.301832 0.124254 0.336472
Si Si7 0.136923 0.336965 0.279628
Si Si8 0.136804 0.106072 0.071287
O O1 0.640435 0.724382 0.626209
O O2 0.536503 0.768194 0.379026
O O3 0.423205 0.687286 0.617780
O O4 0.449967 0.826157 0.619004
O O5 0.145694 0.895444 0.203256
O O6 0.298201 0.788043 0.154862
O O7 0.318470 0.873896 0.400308
O O8 0.925801 0.909006 0.147609
O O9 0.069485 0.029602 0.101972
O O10 0.098454 0.921873 0.924275
O O11 0.013857 0.682550 0.909519
O O12 0.824577 0.629285 0.072416
O O13 0.894397 0.769622 0.100607
O O14 0.151905 0.791671 0.836382
O O15 0.220333 0.661961 0.759306
O O16 0.260662 0.102991 0.167754
#
# Coordination Sequence:
#
# PCOD9313537 Si02
#       8
#     4   4   4   4   4   4   4   4
#     4  11  20  34  58  83 111 142 193 231 275 332
#     4  10  21  35  55  87 111 146 191 237 278 332
#     4  10  22  36  55  80 121 148 184 232 290 337
#     4  10  19  33  59  83 104 144 188 233 274 326
#     4  11  19  34  58  81 111 139 187 239 269 330
#     4  10  20  35  55  85 108 143 187 232 281 328
#     4  10  21  36  55  83 111 150 186 230 281 336
#     4  12  20  35  57  86 113 150 184 236 290 333
#
# _framework density 18.278770000000002
#
# number of rings (size 3 to 8) (size 9 to 14) (size 15 to 20)
#    0.000    1.500    6.250    0.750    1.750    0.000 
#    0.000    0.000    5.500    0.000    0.000    0.000 
#    0.000    0.000    0.000    0.000    0.000    0.000 
#
# Total GULP energy -178221.727540 kJ/mol
# GULP energy per Si atom -5569.428986 kJ/mol
# Density = 1.823717 g / cm^3
# Si number density = 18.278770 Si / 1000 Ang^3
#
#
#
# Elastic Constant Matrix: (Units=GPa)
#
#
# Indices 1 2 3 4 5 6 
#
# 1 59.0660 -4.3135 16.5710 0.0000 0.0000 0.0000
# 2 -4.3135 48.6403 -3.0644 0.0000 0.0000 0.0000
# 3 16.5710 -3.0644 74.3879 0.0000 0.0000 0.0000
# 4 0.0000 0.0000 0.0000 9.7055 0.0000 0.0000
# 5 0.0000 0.0000 0.0000 0.0000 29.1733 0.0000
# 6 0.0000 0.0000 0.0000 0.0000 0.0000 15.4457
#
#
#
# Elastic Compliance Matrix: (Units=1/GPa)
#
#
# Indices 1 2 3 4 5 6 
#
# 1 0.018148 0.001358 -0.003987 0.000000 0.000000 0.000000
# 2 0.001358 0.020714 0.000551 0.000000 0.000000 0.000000
# 3 -0.003987 0.000551 0.014354 0.000000 0.000000 0.000000
# 4 0.000000 0.000000 0.000000 0.103035 0.000000 0.000000
# 5 0.000000 0.000000 0.000000 0.000000 0.034278 0.000000
# 6 0.000000 0.000000 0.000000 0.000000 0.000000 0.064743
#
#
# Mechanical properties :
#
#
# Convention : Reuss Voigt Hill
#
# Bulk Modulus (GPa) = 20.38305 22.27560 21.32933
# Shear Modulus (GPa) = 18.13036 22.39162 20.26099
#
# Velocity S-wave (km/s) = 3.15283 3.50381 3.33294
# Velocity P-wave (km/s) = 4.94259 5.34621 5.14836
#
# Compressibility (1/GPa) = 0.04906037
#
# Stress axis : x y z
#
# Youngs Moduli (GPa) = 55.10280 48.27602 69.66777
#
# Poissons Ratio (x) = -0.06557 0.27775
# Poissons Ratio (y) = -0.07484 -0.03837
# Poissons Ratio (z) = 0.21968 -0.02659
#
# Static dielectric constant tensor:
#      x y z
#    x 1.670860 0.000000 0.000000 
#    y 0.000000 1.602650 0.000000 
#    z 0.000000 0.000000 1.694190 
# 
# From -- ./inp_files/3704.got.cif
#   From: 2010.05.17/outbox.cif.g08.bks.cpg/sg19_2_cif.got.tgz:3704.got - 2010.06.03 22:46:19.
