data_PCOD9313522
_publ_section_title
;
Structure prediction by ZEFSAII (Michael W. Deem and Ramdas Pophale) SiO2 
 PCOD9313522
Probable space group: P 21 21 21
;
_chemical_formula_sum "Si O2"
_cell_formula_units_Z 32
_cell_length_a 8.216940
_cell_length_b 19.486074
_cell_length_c 7.353623
_cell_angle_alpha 90.000000
_cell_angle_beta 90.000000
_cell_angle_gamma 90.000000
_cell_volume 1177.431971
_symmetry_space_group_name_H-M "P 21 21 21"
_symmetry_group_IT_number 19
_symmetry_cell_setting 'orthorhombic'
loop_
_space_group_symop_operation_xyz
x,y,z
1/2-x,-y,1/2+z
1/2+x,1/2-y,-z
-x,1/2+y,1/2-z
loop_
_atom_site_type_symbol
_atom_site_label
_atom_site_fract_x
_atom_site_fract_y
_atom_site_fract_z
Si Si1 0.504497 0.227966 0.288577
Si Si2 0.303313 0.600625 0.281140
Si Si3 0.305112 0.854391 0.223717
Si Si4 0.305112 0.854392 0.776285
Si Si5 0.977689 0.517794 0.208063
Si Si6 0.303313 0.600625 0.718857
Si Si7 0.522310 0.482205 0.291934
Si Si8 0.004497 0.272033 0.288575
O O1 0.661309 0.178208 0.274126
O O2 0.552717 0.302059 0.215409
O O3 0.358321 0.182734 0.210981
O O4 0.466954 0.238013 0.500001
O O5 0.138874 0.566536 0.210397
O O6 0.299108 0.596327 0.499999
O O7 0.453444 0.552741 0.210942
O O8 0.340389 0.931744 0.285864
O O9 0.141680 0.817265 0.289021
O O10 0.304453 0.856236 0.000001
O O11 0.340388 0.931745 0.714139
O O12 0.447283 0.802060 0.715409
O O13 0.046555 0.447258 0.289055
O O14 0.936445 0.503938 0.999998
O O15 0.138874 0.566537 0.789601
O O16 0.338691 0.678208 0.774123
#
# Coordination Sequence:
#
# PCOD9313522 Si02
#       8
#     4   4   4   4   4   4   4   4
#     4  10  19  33  54  76  99 130 170 212 252 298
#     4  10  20  33  51  77 107 136 166 205 255 305
#     4   9  18  33  55  78  97 128 175 217 249 292
#     4   9  18  33  55  78  97 128 175 217 249 292
#     4   9  18  35  56  76 101 134 173 212 248 295
#     4  10  20  33  51  77 107 136 166 205 255 305
#     4   9  18  35  56  76 101 134 173 212 248 295
#     4  10  19  33  54  76  99 130 170 212 252 298
#
# _framework density 27.177793000000001
#
# number of rings (size 3 to 8) (size 9 to 14) (size 15 to 20)
#    0.000    2.500    0.000    2.250    0.000    6.000 
#    0.000    6.250    0.000    0.000    0.000    0.000 
#    0.000    0.000    0.000    0.000    0.000    0.000 
#
# Total GULP energy -179108.126892 kJ/mol
# GULP energy per Si atom -5597.128965 kJ/mol
# Density = 2.711593 g / cm^3
# Si number density = 27.177793 Si / 1000 Ang^3
#
#
#
# Elastic Constant Matrix: (Units=GPa)
#
#
# Indices 1 2 3 4 5 6 
#
# 1 90.6253 14.0049 11.6084 0.0000 0.0000 0.0000
# 2 14.0049 161.2038 6.3401 0.0000 0.0000 0.0000
# 3 11.6084 6.3401 136.4831 0.0000 0.0000 0.0000
# 4 0.0000 0.0000 0.0000 8.3630 0.0000 0.0000
# 5 0.0000 0.0000 0.0000 0.0000 6.6969 0.0000
# 6 0.0000 0.0000 0.0000 0.0000 0.0000 52.7415
#
#
#
# Elastic Compliance Matrix: (Units=1/GPa)
#
#
# Indices 1 2 3 4 5 6 
#
# 1 0.011298 -0.000945 -0.000917 0.000000 0.000000 0.000000
# 2 -0.000945 0.006294 -0.000212 0.000000 0.000000 0.000000
# 3 -0.000917 -0.000212 0.007415 0.000000 0.000000 0.000000
# 4 0.000000 0.000000 0.000000 0.119574 0.000000 0.000000
# 5 0.000000 0.000000 0.000000 0.000000 0.149322 0.000000
# 6 0.000000 0.000000 0.000000 0.000000 0.000000 0.018960
#
#
# Mechanical properties :
#
#
# Convention : Reuss Voigt Hill
#
# Bulk Modulus (GPa) = 47.94395 50.24656 49.09525
# Shear Modulus (GPa) = 15.43381 37.31755 26.37568
#
# Velocity S-wave (km/s) = 2.38562 3.70954 3.11864
# Velocity P-wave (km/s) = 5.02667 6.07255 5.57419
#
# Compressibility (1/GPa) = 0.02085769
#
# Stress axis : x y z
#
# Youngs Moduli (GPa) = 88.51110 158.88647 134.86621
#
# Poissons Ratio (x) = 0.15022 0.12368
# Poissons Ratio (y) = 0.08368 0.02859
# Poissons Ratio (z) = 0.08117 0.03368
#
# Static dielectric constant tensor:
#      x y z
#    x 2.216900 0.000000 0.000000 
#    y 0.000000 2.047370 0.000000 
#    z 0.000000 0.000000 1.996820 
# 
# From -- ./inp_files/3138.got.cif
#   From: 2010.05.17/outbox.cif.g08.bks.cpg/sg19_2_cif.got.tgz:3138.got - 2010.06.03 22:46:19.
