data_PCOD9313460
_publ_section_title
;
Structure prediction by ZEFSAII (Michael W. Deem and Ramdas Pophale) SiO2 
 PCOD9313460
Probable space group: P 21 21 21
;
_chemical_formula_sum "Si O2"
_cell_formula_units_Z 28
_cell_length_a 9.798005
_cell_length_b 8.750334
_cell_length_c 13.767953
_cell_angle_alpha 90.000000
_cell_angle_beta 90.000000
_cell_angle_gamma 90.000000
_cell_volume 1180.406689
_symmetry_space_group_name_H-M "P 21 21 21"
_symmetry_group_IT_number 19
_symmetry_cell_setting 'orthorhombic'
loop_
_space_group_symop_operation_xyz
x,y,z
1/2-x,-y,1/2+z
1/2+x,1/2-y,-z
-x,1/2+y,1/2-z
loop_
_atom_site_type_symbol
_atom_site_label
_atom_site_fract_x
_atom_site_fract_y
_atom_site_fract_z
Si Si1 0.980593 0.430152 0.488172
Si Si2 0.519412 0.430153 0.511828
Si Si3 0.127794 0.832646 0.337298
Si Si4 0.627789 0.332648 0.837297
Si Si5 0.749998 0.106674 0.999999
Si Si6 0.584297 0.401456 0.169254
Si Si7 0.084303 0.901456 0.669254
O O1 0.000002 0.249999 0.478518
O O2 0.931347 0.516228 0.390388
O O3 0.886079 0.493574 0.575628
O O4 0.125397 0.496980 0.526035
O O5 0.568658 0.516229 0.609612
O O6 0.374609 0.496983 0.473966
O O7 0.613927 0.493574 0.424372
O O8 0.180632 0.717414 0.421505
O O9 0.270476 0.854468 0.283379
O O10 0.000003 0.749999 0.286765
O O11 0.680629 0.217414 0.921502
O O12 0.770470 0.354472 0.783377
O O13 0.499995 0.250001 0.142654
O O14 0.507026 0.500001 0.250001
#
# Coordination Sequence:
#
# PCOD9313460 Si02
#       7
#     4   4   4   4   4   4   4
#     4  11  22  36  64  97 121 155 206 259 297 361
#     4  11  22  36  64  97 121 155 206 259 297 361
#     4  10  20  41  64  86 119 163 203 249 305 361
#     4  10  20  41  64  86 119 163 203 249 305 361
#     4  10  18  36  66  86 120 156 202 250 302 356
#     4  12  23  42  61  88 125 165 202 248 310 369
#     4  12  23  42  61  88 125 165 202 248 310 369
#
# _framework density 23.72064
#
# number of rings (size 3 to 8) (size 9 to 14) (size 15 to 20)
#    0.000    1.143    5.714    1.714    4.000    0.000 
#    0.000    2.857    0.000    0.000    0.000    0.000 
#    0.000    0.000    0.000    0.000    0.000    0.000 
#
# Total GULP energy -156227.148960 kJ/mol
# GULP energy per Si atom -5579.541034 kJ/mol
# Density = 2.366665 g / cm^3
# Si number density = 23.720640 Si / 1000 Ang^3
#
#
#
# Elastic Constant Matrix: (Units=GPa)
#
#
# Indices 1 2 3 4 5 6 
#
# 1 125.1294 35.1864 -15.6298 0.0000 0.0000 0.0000
# 2 35.1864 192.5377 24.5963 0.0000 0.0000 0.0000
# 3 -15.6298 24.5963 23.9663 0.0000 0.0000 0.0000
# 4 0.0000 0.0000 0.0000 29.8107 0.0000 0.0000
# 5 0.0000 0.0000 0.0000 0.0000 11.9667 0.0000
# 6 0.0000 0.0000 0.0000 0.0000 0.0000 24.9564
#
#
#
# Elastic Compliance Matrix: (Units=1/GPa)
#
#
# Indices 1 2 3 4 5 6 
#
# 1 0.010076 -0.003085 0.009737 0.000000 0.000000 0.000000
# 2 -0.003085 0.006922 -0.009116 0.000000 0.000000 0.000000
# 3 0.009737 -0.009116 0.057431 0.000000 0.000000 0.000000
# 4 0.000000 0.000000 0.000000 0.033545 0.000000 0.000000
# 5 0.000000 0.000000 0.000000 0.000000 0.083565 0.000000
# 6 0.000000 0.000000 0.000000 0.000000 0.000000 0.040070
#
#
# Mechanical properties :
#
#
# Convention : Reuss Voigt Hill
#
# Bulk Modulus (GPa) = 14.38840 47.77100 31.07970
# Shear Modulus (GPa) = 19.25269 33.17881 26.21575
#
# Velocity S-wave (km/s) = 2.85203 3.74402 3.32804
# Velocity P-wave (km/s) = 4.11392 6.23482 5.28192
#
# Compressibility (1/GPa) = 0.06950043
#
# Stress axis : x y z
#
# Youngs Moduli (GPa) = 99.25018 144.46309 17.41215
#
# Poissons Ratio (x) = 0.44570 -0.16954
# Poissons Ratio (y) = 0.30621 0.15873
# Poissons Ratio (z) = -0.96641 1.31695
#
# Static dielectric constant tensor:
#      x y z
#    x 2.003290 0.000000 0.000000 
#    y 0.000000 1.923420 0.000000 
#    z 0.000000 0.000000 1.912880 
# 
# From -- ./inp_files/6574.got.cif
#   From: 2010.05.17/outbox.cif.g08.bks.cpg/sg19_4_cif.got.tgz:6574.got - 2010.06.03 22:46:19.
