data_PCOD9313191
_publ_section_title
;
Structure prediction by ZEFSAII (Michael W. Deem and Ramdas Pophale) SiO2 
 PCOD9313191
Probable space group: P 21 21 2
;
_chemical_formula_sum "Si O2"
_cell_formula_units_Z 18
_cell_length_a 8.556171
_cell_length_b 6.973601
_cell_length_c 11.364862
_cell_angle_alpha 90.000000
_cell_angle_beta 90.000000
_cell_angle_gamma 90.000000
_cell_volume 678.110888
_symmetry_space_group_name_H-M "P 21 21 2"
_symmetry_group_IT_number 18
_symmetry_cell_setting 'orthorhombic'
loop_
_space_group_symop_operation_xyz
x,y,z
-x,-y,z
1/2+x,1/2-y,-z
1/2-x,1/2+y,-z
loop_
_atom_site_type_symbol
_atom_site_label
_atom_site_fract_x
_atom_site_fract_y
_atom_site_fract_z
Si Si1 0.970261 0.783365 0.356937
Si Si2 0.777113 0.750281 0.141680
Si Si3 0.445680 0.191743 0.325896
Si Si4 0.799402 0.908290 0.600669
Si Si5 0.000000 0.000000 0.976511
O O1 0.887960 0.676812 0.247551
O O2 0.872970 0.834299 0.476516
O O3 0.124800 0.667286 0.390942
O O4 0.000000 0.000000 0.310397
O O5 0.661594 0.884285 0.220313
O O6 0.896846 0.846889 0.051662
O O7 0.644040 0.609924 0.089166
O O8 0.354021 0.371741 0.384790
O O9 0.606710 0.297998 0.296676
O O10 0.500000 0.000000 0.392576
#
# Coordination Sequence:
#
# PCOD9313191 Si02
#       5
#     4   4   4   4   2
#     4  12  25  52  84 130 176 238 286 365 437 556
#     4  12  30  56  87 124 170 230 301 368 455 503
#     4  11  25  50  83 123 175 223 282 366 437 545
#     4  11  26  49  84 129 181 233 285 344 454 545
#     4  12  32  54  90 120 170 234 304 384 432 526
#
# _framework density 26.544332000000001
#
# number of rings (size 3 to 8) (size 9 to 14) (size 15 to 20)
#    0.000    0.444    3.333    4.000    3.111    4.444 
#    0.000    0.000    0.000    0.000    0.000    0.000 
#    0.000    0.000    0.000    0.000    0.000    0.000 
#
# Total GULP energy -100300.936052 kJ/mol
# GULP energy per Si atom -5572.274225 kJ/mol
# Density = 2.648392 g / cm^3
# Si number density = 26.544332 Si / 1000 Ang^3
#
#
#
# Elastic Constant Matrix: (Units=GPa)
#
#
# Indices 1 2 3 4 5 6 
#
# 1 259.7690 111.5761 114.9828 0.0000 0.0000 0.0000
# 2 111.5761 202.9599 70.3725 0.0000 0.0000 0.0000
# 3 114.9828 70.3725 126.2832 0.0000 0.0000 0.0000
# 4 0.0000 0.0000 0.0000 31.6174 0.0000 0.0000
# 5 0.0000 0.0000 0.0000 0.0000 58.2446 0.0000
# 6 0.0000 0.0000 0.0000 0.0000 0.0000 56.0625
#
#
#
# Elastic Compliance Matrix: (Units=1/GPa)
#
#
# Indices 1 2 3 4 5 6 
#
# 1 0.007077 -0.002053 -0.005300 0.000000 0.000000 0.000000
# 2 -0.002053 0.006703 -0.001866 0.000000 0.000000 0.000000
# 3 -0.005300 -0.001866 0.013784 0.000000 0.000000 0.000000
# 4 0.000000 0.000000 0.000000 0.031628 0.000000 0.000000
# 5 0.000000 0.000000 0.000000 0.000000 0.017169 0.000000
# 6 0.000000 0.000000 0.000000 0.000000 0.000000 0.017837
#
#
# Mechanical properties :
#
#
# Convention : Reuss Voigt Hill
#
# Bulk Modulus (GPa) = 109.57040 131.43056 120.50048
# Shear Modulus (GPa) = 43.22335 48.65695 45.94015
#
# Velocity S-wave (km/s) = 4.03965 4.28605 4.16468
# Velocity P-wave (km/s) = 7.94521 8.60899 8.28375
#
# Compressibility (1/GPa) = 0.00912655
#
# Stress axis : x y z
#
# Youngs Moduli (GPa) = 141.29575 149.19426 72.54736
#
# Poissons Ratio (x) = 0.30631 0.38450
# Poissons Ratio (y) = 0.29009 0.13536
# Poissons Ratio (z) = 0.74886 0.27836
#
# Static dielectric constant tensor:
#      x y z
#    x 2.346940 0.000000 0.000000 
#    y 0.000000 2.145580 0.000000 
#    z 0.000000 0.000000 2.256810 
# 
# From -- ./inp_files/5366.got.cif
#   From: 2010.05.17/outbox.cif.g08.bks.cpg/sg18_3_cif.got.tgz:5366.got - 2010.06.03 22:40:56.
