data_PCOD9313127
_publ_section_title
;
Structure prediction by ZEFSAII (Michael W. Deem and Ramdas Pophale) SiO2 
 PCOD9313127
Probable space group: P 21 21 2
;
_chemical_formula_sum "Si O2"
_cell_formula_units_Z 24
_cell_length_a 11.718201
_cell_length_b 16.254594
_cell_length_c 5.226328
_cell_angle_alpha 90.000000
_cell_angle_beta 90.000000
_cell_angle_gamma 90.000000
_cell_volume 995.482734
_symmetry_space_group_name_H-M "P 21 21 2"
_symmetry_group_IT_number 18
_symmetry_cell_setting 'orthorhombic'
loop_
_space_group_symop_operation_xyz
x,y,z
-x,-y,z
1/2+x,1/2-y,-z
1/2-x,1/2+y,-z
loop_
_atom_site_type_symbol
_atom_site_label
_atom_site_fract_x
_atom_site_fract_y
_atom_site_fract_z
Si Si1 0.891848 0.373080 0.331549
Si Si2 0.784687 0.505134 0.652451
Si Si3 0.368946 0.381160 0.432914
Si Si4 0.000000 0.000000 0.842073
Si Si5 0.692702 0.779033 0.167673
Si Si6 0.500000 0.000000 0.963686
Si Si7 0.911329 0.874363 0.221849
O O1 0.825004 0.457601 0.396564
O O2 0.877620 0.325327 0.601201
O O3 0.842965 0.314674 0.108081
O O4 0.002266 0.416398 0.207859
O O5 0.736360 0.597150 0.618912
O O6 0.681871 0.447232 0.747612
O O7 0.890226 0.500260 0.848829
O O8 0.394042 0.472042 0.323906
O O9 0.333670 0.314940 0.225685
O O10 0.488591 0.359708 0.572988
O O11 0.022857 0.084557 0.987705
O O12 0.827857 0.797345 0.195971
#
# Coordination Sequence:
#
# PCOD9313127 Si02
#       7
#     4   4   4   2   4   2   4
#     4  11  24  48  71 104 149 195 242 306 373 438
#     4  11  23  47  75 109 147 197 261 305 363 460
#     4  12  26  45  77 114 143 205 253 308 382 453
#     4  12  22  44  84 108 144 200 268 302 374 460
#     4  11  28  46  70 107 159 188 239 319 383 433
#     4  12  24  44  82 104 144 208 250 304 372 460
#     4  11  23  47  73 107 148 192 252 317 371 443
#
# _framework density 24.108906999999999
#
# number of rings (size 3 to 8) (size 9 to 14) (size 15 to 20)
#    0.000    0.667    6.667    1.500    4.667    1.333 
#    0.000    0.000    0.000    0.000    0.000    0.000 
#    0.000    0.000    0.000    0.000    0.000    0.000 
#
# Total GULP energy -133821.732942 kJ/mol
# GULP energy per Si atom -5575.905539 kJ/mol
# Density = 2.405403 g / cm^3
# Si number density = 24.108907 Si / 1000 Ang^3
#
#
#
# Elastic Constant Matrix: (Units=GPa)
#
#
# Indices 1 2 3 4 5 6 
#
# 1 64.0891 30.2441 16.3219 0.0000 0.0000 0.0000
# 2 30.2441 64.0266 6.1982 0.0000 0.0000 0.0000
# 3 16.3219 6.1982 93.4540 0.0000 0.0000 0.0000
# 4 0.0000 0.0000 0.0000 67.4847 0.0000 0.0000
# 5 0.0000 0.0000 0.0000 0.0000 -13.5091 0.0000
# 6 0.0000 0.0000 0.0000 0.0000 0.0000 38.9894
#
#
#
# Elastic Compliance Matrix: (Units=1/GPa)
#
#
# Indices 1 2 3 4 5 6 
#
# 1 0.020890 -0.009576 -0.003013 0.000000 0.000000 0.000000
# 2 -0.009576 0.020109 0.000339 0.000000 0.000000 0.000000
# 3 -0.003013 0.000339 0.011204 0.000000 0.000000 0.000000
# 4 0.000000 0.000000 0.000000 0.014818 0.000000 0.000000
# 5 0.000000 0.000000 0.000000 0.000000 -0.074024 0.000000
# 6 0.000000 0.000000 0.000000 0.000000 0.000000 0.025648
#
#
# Mechanical properties :
#
#
# Convention : Reuss Voigt Hill
#
# Bulk Modulus (GPa) = 36.09839 36.34422 36.22130
# Shear Modulus (GPa) = 95.45688 29.84670 62.65179
#
# Velocity S-wave (km/s) = 6.29921 3.52233 5.10327
# Velocity P-wave (km/s) = 8.24089 5.62585 7.05558
#
# Compressibility (1/GPa) = 0.02770207
#
# Stress axis : x y z
#
# Youngs Moduli (GPa) = 47.87075 49.72888 89.25178
#
# Poissons Ratio (x) = 0.47620 0.26894
# Poissons Ratio (y) = 0.45840 -0.03023
# Poissons Ratio (z) = 0.14425 -0.01684
#
# Static dielectric constant tensor:
#      x y z
#    x 2.002360 0.000000 0.000000 
#    y 0.000000 1.958020 0.000000 
#    z 0.000000 0.000000 2.103100 
# 
# From -- ./inp_files/1149.got.cif
#   From: 2010.05.17/outbox.cif.g08.bks.cpg/sg18_1_cif.got.tgz:1149.got - 2010.06.03 22:40:56.
