data_PCOD9313996
_publ_section_title
;
Structure prediction by ZEFSAII (Michael W. Deem and Ramdas Pophale) SiO2 
 PCOD9313996
Probable space group: P 21 21 21
;
_chemical_formula_sum "Si O2"
_cell_formula_units_Z 32
_cell_length_a 9.853164
_cell_length_b 7.793363
_cell_length_c 15.931598
_cell_angle_alpha 90.000000
_cell_angle_beta 90.000000
_cell_angle_gamma 90.000000
_cell_volume 1223.375999
_symmetry_space_group_name_H-M "P 21 21 21"
_symmetry_group_IT_number 19
_symmetry_cell_setting 'orthorhombic'
loop_
_space_group_symop_operation_xyz
x,y,z
1/2-x,-y,1/2+z
1/2+x,1/2-y,-z
-x,1/2+y,1/2-z
loop_
_atom_site_type_symbol
_atom_site_label
_atom_site_fract_x
_atom_site_fract_y
_atom_site_fract_z
Si Si1 0.510794 0.920389 0.749765
Si Si2 0.762180 0.125567 0.713716
Si Si3 0.753288 0.520010 0.786705
Si Si4 0.849234 0.337354 0.935226
Si Si5 0.042146 0.233778 0.071007
Si Si6 0.373177 0.805607 0.923368
Si Si7 0.490085 0.909932 0.312829
Si Si8 0.070728 0.889862 0.966077
O O1 0.403577 0.065801 0.714757
O O2 0.498266 0.795130 0.667977
O O3 0.452968 0.880067 0.842322
O O4 0.658849 0.998152 0.758944
O O5 0.758002 0.320941 0.751684
O O6 0.704309 0.140139 0.620136
O O7 0.911958 0.063832 0.733994
O O8 0.810305 0.503377 0.879670
O O9 0.842686 0.627841 0.723672
O O10 0.704856 0.232905 0.940450
O O11 0.950031 0.232995 0.873591
O O12 0.934417 0.351510 0.021177
O O13 0.030822 0.051907 0.023231
O O14 0.234183 0.890870 0.957805
O O15 0.487288 0.761664 0.991265
O O16 0.480473 0.076705 0.371587
#
# Coordination Sequence:
#
# PCOD9313996 Si02
#       8
#     4   4   4   4   4   4   4   4
#     4  10  20  40  66  92 130 171 219 269 335 395
#     4  10  20  39  65  94 125 172 218 268 324 406
#     4   9  19  41  60  89 129 168 213 272 325 391
#     4   9  21  39  62  94 123 165 218 264 324 390
#     4  10  21  43  64  93 132 170 216 277 326 397
#     4  11  24  45  65  99 136 174 226 283 334 411
#     4  10  20  40  67  89 136 172 212 270 328 396
#     4  11  23  45  65 100 135 174 220 285 338 392
#
# _framework density 26.157125000000001
#
# number of rings (size 3 to 8) (size 9 to 14) (size 15 to 20)
#    0.000    2.000    3.750    0.750    1.750    1.000 
#   13.500    5.000    0.000    0.000    0.000    0.000 
#    0.000    0.000    0.000    0.000    0.000    0.000 
#
# Total GULP energy -178638.424489 kJ/mol
# GULP energy per Si atom -5582.450765 kJ/mol
# Density = 2.609759 g / cm^3
# Si number density = 26.157125 Si / 1000 Ang^3
#
#
#
# Elastic Constant Matrix: (Units=GPa)
#
#
# Indices 1 2 3 4 5 6 
#
# 1 100.9449 18.9260 44.8516 0.0000 0.0000 0.0000
# 2 18.9260 42.0740 29.5002 0.0000 0.0000 0.0000
# 3 44.8516 29.5002 132.6917 0.0000 0.0000 0.0000
# 4 0.0000 0.0000 0.0000 37.9029 0.0000 0.0000
# 5 0.0000 0.0000 0.0000 0.0000 64.2562 0.0000
# 6 0.0000 0.0000 0.0000 0.0000 0.0000 39.5402
#
#
#
# Elastic Compliance Matrix: (Units=1/GPa)
#
#
# Indices 1 2 3 4 5 6 
#
# 1 0.011972 -0.003019 -0.003376 0.000000 0.000000 0.000000
# 2 -0.003019 0.028918 -0.005409 0.000000 0.000000 0.000000
# 3 -0.003376 -0.005409 0.009880 0.000000 0.000000 0.000000
# 4 0.000000 0.000000 0.000000 0.026383 0.000000 0.000000
# 5 0.000000 0.000000 0.000000 0.000000 0.015563 0.000000
# 6 0.000000 0.000000 0.000000 0.000000 0.000000 0.025291
#
#
# Mechanical properties :
#
#
# Convention : Reuss Voigt Hill
#
# Bulk Modulus (GPa) = 36.81363 51.36292 44.08827
# Shear Modulus (GPa) = 33.18578 40.50205 36.84392
#
# Velocity S-wave (km/s) = 3.56576 3.93926 3.75715
# Velocity P-wave (km/s) = 5.57292 6.35368 5.97606
#
# Compressibility (1/GPa) = 0.02716386
#
# Stress axis : x y z
#
# Youngs Moduli (GPa) = 83.52676 34.58077 101.21689
#
# Poissons Ratio (x) = 0.10438 0.34168
# Poissons Ratio (y) = 0.25213 0.54746
# Poissons Ratio (z) = 0.28196 0.18704
#
# Static dielectric constant tensor:
#      x y z
#    x 2.117270 0.000000 0.000000 
#    y 0.000000 2.211130 0.000000 
#    z 0.000000 0.000000 2.086110 
# 
# From -- ./inp_files/6669.got.cif
#   From: 2010.05.17/outbox.cif.g08.bks.cpg/sg19_4_cif.got.tgz:6669.got - 2010.06.03 22:46:19.
