data_PCOD9313128
_publ_section_title
;
Structure prediction by ZEFSAII (Michael W. Deem and Ramdas Pophale) SiO2 
 PCOD9313128
Probable space group: P 21 21 2
;
_chemical_formula_sum "Si O2"
_cell_formula_units_Z 20
_cell_length_a 22.995780
_cell_length_b 5.976801
_cell_length_c 6.898948
_cell_angle_alpha 90.000000
_cell_angle_beta 90.000000
_cell_angle_gamma 90.000000
_cell_volume 948.199698
_symmetry_space_group_name_H-M "P 21 21 2"
_symmetry_group_IT_number 18
_symmetry_cell_setting 'orthorhombic'
loop_
_space_group_symop_operation_xyz
x,y,z
-x,-y,z
1/2+x,1/2-y,-z
1/2-x,1/2+y,-z
loop_
_atom_site_type_symbol
_atom_site_label
_atom_site_fract_x
_atom_site_fract_y
_atom_site_fract_z
Si Si1 0.615175 0.676628 0.530924
Si Si2 0.000000 0.500000 0.842128
Si Si3 0.313956 0.593231 0.816789
Si Si4 0.000000 0.000000 0.629239
Si Si5 0.686894 0.741662 0.150443
Si Si6 0.108018 0.491293 0.131001
O O1 0.670270 0.577689 0.647071
O O2 0.560187 0.517555 0.489310
O O3 0.641504 0.748207 0.325365
O O4 0.594029 0.871080 0.675279
O O5 0.000805 0.251003 0.735123
O O6 0.055603 0.498340 0.981988
O O7 0.251508 0.701296 0.781519
O O8 0.369922 0.750164 0.811832
O O9 0.312280 0.489917 0.032469
O O10 0.663265 0.909355 0.986299
#
# Coordination Sequence:
#
# PCOD9313128 Si02
#       6
#     4   2   4   2   4   4
#     4  11  28  43  72 107 140 187 249 302 368 436
#     4  12  28  50  80 102 150 196 244 306 374 438
#     4  11  25  42  73 100 144 188 237 306 361 448
#     4  12  28  52  76 108 148 196 242 310 372 440
#     4  11  23  48  66 105 142 186 240 295 376 431
#     4  11  26  46  73 101 139 189 243 301 364 438
#
# _framework density 21.092603
#
# number of rings (size 3 to 8) (size 9 to 14) (size 15 to 20)
#    0.000    0.800    4.000    1.200   11.200    1.600 
#    0.000    0.000    0.000    0.000    0.000    0.000 
#    0.000    0.000    0.000    0.000    0.000    0.000 
#
# Total GULP energy -111488.660457 kJ/mol
# GULP energy per Si atom -5574.433023 kJ/mol
# Density = 2.104460 g / cm^3
# Si number density = 21.092603 Si / 1000 Ang^3
#
#
#
# Elastic Constant Matrix: (Units=GPa)
#
#
# Indices 1 2 3 4 5 6 
#
# 1 110.5448 28.2237 41.5721 0.0000 0.0000 0.0000
# 2 28.2237 76.8578 37.1608 0.0000 0.0000 0.0000
# 3 41.5721 37.1608 112.7297 0.0000 0.0000 0.0000
# 4 0.0000 0.0000 0.0000 24.9375 0.0000 0.0000
# 5 0.0000 0.0000 0.0000 0.0000 39.9836 0.0000
# 6 0.0000 0.0000 0.0000 0.0000 0.0000 30.8261
#
#
#
# Elastic Compliance Matrix: (Units=1/GPa)
#
#
# Indices 1 2 3 4 5 6 
#
# 1 0.010875 -0.002444 -0.003205 0.000000 0.000000 0.000000
# 2 -0.002444 0.016027 -0.004382 0.000000 0.000000 0.000000
# 3 -0.003205 -0.004382 0.011497 0.000000 0.000000 0.000000
# 4 0.000000 0.000000 0.000000 0.040100 0.000000 0.000000
# 5 0.000000 0.000000 0.000000 0.000000 0.025010 0.000000
# 6 0.000000 0.000000 0.000000 0.000000 0.000000 0.032440
#
#
# Mechanical properties :
#
#
# Convention : Reuss Voigt Hill
#
# Bulk Modulus (GPa) = 54.53200 57.11616 55.82408
# Shear Modulus (GPa) = 30.84041 32.02781 31.43411
#
# Velocity S-wave (km/s) = 3.82795 3.90094 3.86462
# Velocity P-wave (km/s) = 6.74146 6.88675 6.81449
#
# Compressibility (1/GPa) = 0.01833786
#
# Stress axis : x y z
#
# Youngs Moduli (GPa) = 91.95089 62.39381 86.97788
#
# Poissons Ratio (x) = 0.15249 0.27876
# Poissons Ratio (y) = 0.22473 0.38114
# Poissons Ratio (z) = 0.29469 0.27341
#
# Static dielectric constant tensor:
#      x y z
#    x 1.730840 0.000000 0.000000 
#    y 0.000000 1.878360 0.000000 
#    z 0.000000 0.000000 1.718990 
# 
# From -- ./inp_files/224.got.cif
#   From: 2010.05.17/outbox.cif.g08.bks.cpg/sg18_1_cif.got.tgz:224.got - 2010.06.03 22:40:56.
