data_PCOD9313000
_publ_section_title
;
Structure prediction by ZEFSAII (Michael W. Deem and Ramdas Pophale) SiO2 
 PCOD9313000
Probable space group: P 21 21 2
;
_chemical_formula_sum "Si O2"
_cell_formula_units_Z 24
_cell_length_a 7.743445
_cell_length_b 23.989362
_cell_length_c 4.839451
_cell_angle_alpha 90.000000
_cell_angle_beta 90.000000
_cell_angle_gamma 90.000000
_cell_volume 898.977895
_symmetry_space_group_name_H-M "P 21 21 2"
_symmetry_group_IT_number 18
_symmetry_cell_setting 'orthorhombic'
loop_
_space_group_symop_operation_xyz
x,y,z
-x,-y,z
1/2+x,1/2-y,-z
1/2-x,1/2+y,-z
loop_
_atom_site_type_symbol
_atom_site_label
_atom_site_fract_x
_atom_site_fract_y
_atom_site_fract_z
Si Si1 0.675805 0.596812 0.018783
Si Si2 0.497194 0.951156 0.235102
Si Si3 0.144463 0.731792 0.144986
Si Si4 0.818266 0.990691 0.585784
Si Si5 0.762316 0.704521 0.350588
Si Si6 0.199717 0.115099 0.971651
O O1 0.666854 0.538440 0.183399
O O2 0.720057 0.642980 0.247267
O O3 0.490153 0.612927 0.895864
O O4 0.831908 0.589579 0.806115
O O5 0.648876 0.905792 0.172114
O O6 0.500000 0.000000 0.990911
O O7 0.643626 0.997217 0.405058
O O8 0.226888 0.779755 0.335185
O O9 0.255990 0.675431 0.145408
O O10 0.956675 0.718030 0.260076
O O11 0.143820 0.754358 0.834204
O O12 0.807276 0.930807 0.728829
O O13 0.000000 0.000000 0.423301
#
# Coordination Sequence:
#
# PCOD9313000 Si02
#       6
#     4   4   4   4   4   4
#     4  11  25  51  72 106 152 196 249 309 384 447
#     4  12  26  41  73 107 142 191 247 298 377 454
#     4  12  27  49  79 112 154 198 264 316 387 453
#     4  10  26  46  72 108 148 196 243 311 380 454
#     4  12  27  51  77 114 150 207 256 323 379 462
#     4  11  25  49  71 106 150 193 247 315 375 456
#
# _framework density 26.696985999999999
#
# number of rings (size 3 to 8) (size 9 to 14) (size 15 to 20)
#    0.000    0.667    3.333    3.000    7.000    2.667 
#    3.000    0.000    0.000    0.000    0.000    0.000 
#    0.000    0.000    0.000    0.000    0.000    0.000 
#
# Total GULP energy -134254.606521 kJ/mol
# GULP energy per Si atom -5593.941938 kJ/mol
# Density = 2.663622 g / cm^3
# Si number density = 26.696986 Si / 1000 Ang^3
#
#
#
# Elastic Constant Matrix: (Units=GPa)
#
#
# Indices 1 2 3 4 5 6 
#
# 1 252.9226 2.9424 34.3770 0.0000 0.0000 0.0000
# 2 2.9424 138.6638 20.2603 0.0000 0.0000 0.0000
# 3 34.3770 20.2603 78.2900 0.0000 0.0000 0.0000
# 4 0.0000 0.0000 0.0000 31.5839 0.0000 0.0000
# 5 0.0000 0.0000 0.0000 0.0000 30.1362 0.0000
# 6 0.0000 0.0000 0.0000 0.0000 0.0000 33.4988
#
#
#
# Elastic Compliance Matrix: (Units=1/GPa)
#
#
# Indices 1 2 3 4 5 6 
#
# 1 0.004209 0.000188 -0.001897 0.000000 0.000000 0.000000
# 2 0.000188 0.007503 -0.002024 0.000000 0.000000 0.000000
# 3 -0.001897 -0.002024 0.014130 0.000000 0.000000 0.000000
# 4 0.000000 0.000000 0.000000 0.031662 0.000000 0.000000
# 5 0.000000 0.000000 0.000000 0.000000 0.033183 0.000000
# 6 0.000000 0.000000 0.000000 0.000000 0.000000 0.029852
#
#
# Mechanical properties :
#
#
# Convention : Reuss Voigt Hill
#
# Bulk Modulus (GPa) = 54.41898 65.00398 59.71148
# Shear Modulus (GPa) = 37.27699 46.53024 41.90362
#
# Velocity S-wave (km/s) = 3.74076 4.17934 3.96612
# Velocity P-wave (km/s) = 6.25187 6.90585 6.58699
#
# Compressibility (1/GPa) = 0.01837594
#
# Stress axis : x y z
#
# Youngs Moduli (GPa) = 237.56211 133.27173 70.77232
#
# Poissons Ratio (x) = -0.02503 0.13425
# Poissons Ratio (y) = -0.04462 0.14326
# Poissons Ratio (z) = 0.45065 0.26978
#
# Static dielectric constant tensor:
#      x y z
#    x 2.274790 0.000000 0.000000 
#    y 0.000000 2.045760 0.000000 
#    z 0.000000 0.000000 2.025480 
# 
# From -- ./inp_files/619.got.cif
#   From: 2010.05.17/outbox.cif.g08.bks.cpg/sg18_1_cif.got.tgz:619.got - 2010.06.03 22:40:56.
