data_PCOD9313635
_publ_section_title
;
Structure prediction by ZEFSAII (Michael W. Deem and Ramdas Pophale) SiO2 
 PCOD9313635
Probable space group: P 21 21 21
;
_chemical_formula_sum "Si O2"
_cell_formula_units_Z 32
_cell_length_a 14.956311
_cell_length_b 5.145949
_cell_length_c 20.101586
_cell_angle_alpha 90.000000
_cell_angle_beta 90.000000
_cell_angle_gamma 90.000000
_cell_volume 1547.106780
_symmetry_space_group_name_H-M "P 21 21 21"
_symmetry_group_IT_number 19
_symmetry_cell_setting 'orthorhombic'
loop_
_space_group_symop_operation_xyz
x,y,z
1/2-x,-y,1/2+z
1/2+x,1/2-y,-z
-x,1/2+y,1/2-z
loop_
_atom_site_type_symbol
_atom_site_label
_atom_site_fract_x
_atom_site_fract_y
_atom_site_fract_z
Si Si1 0.546529 0.814431 0.056403
Si Si2 0.472086 0.609667 0.570547
Si Si3 0.700981 0.295013 0.683264
Si Si4 0.433856 0.643361 0.174377
Si Si5 0.881833 0.357349 0.758277
Si Si6 0.149801 0.192770 0.963851
Si Si7 0.834809 0.202538 0.095919
Si Si8 0.048021 0.393356 0.224280
O O1 0.592815 0.088168 0.077059
O O2 0.463616 0.729464 0.101169
O O3 0.620300 0.589720 0.059742
O O4 0.519624 0.867015 0.979875
O O5 0.389996 0.766924 0.537607
O O6 0.565817 0.762393 0.567574
O O7 0.451982 0.544348 0.646364
O O8 0.801429 0.294608 0.709308
O O9 0.677282 0.574050 0.652168
O O10 0.680950 0.077989 0.627932
O O11 0.527078 0.644409 0.215563
O O12 0.392035 0.361796 0.185134
O O13 0.372667 0.861880 0.208227
O O14 0.860922 0.781914 0.245525
O O15 0.253953 0.244320 0.955290
O O16 0.979733 0.155474 0.237633
#
# Coordination Sequence:
#
# PCOD9313635 Si02
#       8
#     4   4   4   4   4   4   4   4
#     4  10  22  41  62  92 130 174 210 264 321 396
#     4  10  26  42  68  95 133 169 225 260 341 381
#     4  12  24  41  68  97 127 165 221 272 321 390
#     4  10  19  37  57  88 127 171 204 260 320 373
#     4  10  21  34  60  90 126 161 218 261 309 382
#     4  10  23  40  64  97 131 167 216 271 309 406
#     4  12  23  42  70  96 125 171 222 263 325 393
#     4  12  24  45  67  95 127 170 214 281 324 383
#
# _framework density 20.683769000000002
#
# number of rings (size 3 to 8) (size 9 to 14) (size 15 to 20)
#    0.750    0.500    2.500    3.750    3.500    2.000 
#    2.250    1.250    0.000    0.000    0.000    0.000 
#    0.000    0.000    0.000    0.000    0.000    0.000 
#
# Total GULP energy -178717.911385 kJ/mol
# GULP energy per Si atom -5584.934731 kJ/mol
# Density = 2.063669 g / cm^3
# Si number density = 20.683769 Si / 1000 Ang^3
#
#
#
# Elastic Constant Matrix: (Units=GPa)
#
#
# Indices 1 2 3 4 5 6 
#
# 1 77.5346 -3.8865 14.8272 0.0000 0.0000 0.0000
# 2 -3.8865 71.3147 -4.2402 0.0000 0.0000 0.0000
# 3 14.8272 -4.2402 79.8390 0.0000 0.0000 0.0000
# 4 0.0000 0.0000 0.0000 13.8540 0.0000 0.0000
# 5 0.0000 0.0000 0.0000 0.0000 35.3165 0.0000
# 6 0.0000 0.0000 0.0000 0.0000 0.0000 25.6874
#
#
#
# Elastic Compliance Matrix: (Units=1/GPa)
#
#
# Indices 1 2 3 4 5 6 
#
# 1 0.013397 0.000584 -0.002457 0.000000 0.000000 0.000000
# 2 0.000584 0.014092 0.000640 0.000000 0.000000 0.000000
# 3 -0.002457 0.000640 0.013015 0.000000 0.000000 0.000000
# 4 0.000000 0.000000 0.000000 0.072181 0.000000 0.000000
# 5 0.000000 0.000000 0.000000 0.000000 0.028315 0.000000
# 6 0.000000 0.000000 0.000000 0.000000 0.000000 0.038930
#
#
# Mechanical properties :
#
#
# Convention : Reuss Voigt Hill
#
# Bulk Modulus (GPa) = 26.28921 26.89882 26.59401
# Shear Modulus (GPa) = 25.63103 29.77076 27.70090
#
# Velocity S-wave (km/s) = 3.52403 3.79797 3.66356
# Velocity P-wave (km/s) = 5.41258 5.68030 5.54805
#
# Compressibility (1/GPa) = 0.03803842
#
# Stress axis : x y z
#
# Youngs Moduli (GPa) = 74.64592 70.96104 76.83156
#
# Poissons Ratio (x) = -0.04144 0.18877
# Poissons Ratio (y) = -0.04359 -0.04917
# Poissons Ratio (z) = 0.18340 -0.04541
#
# Static dielectric constant tensor:
#      x y z
#    x 1.723440 0.000000 0.000000 
#    y 0.000000 1.739360 0.000000 
#    z 0.000000 0.000000 1.756520 
# 
# From -- ./inp_files/6790.got.cif
#   From: 2010.05.17/outbox.cif.g08.bks.cpg/sg19_4_cif.got.tgz:6790.got - 2010.06.03 22:46:19.
