data_PCOD9313219
_publ_section_title
;
Structure prediction by ZEFSAII (Michael W. Deem and Ramdas Pophale) SiO2 
 PCOD9313219
Probable space group: P 21 21 2
;
_chemical_formula_sum "Si O2"
_cell_formula_units_Z 16
_cell_length_a 10.900184
_cell_length_b 8.353268
_cell_length_c 7.230928
_cell_angle_alpha 90.000000
_cell_angle_beta 90.000000
_cell_angle_gamma 90.000000
_cell_volume 658.391600
_symmetry_space_group_name_H-M "P 21 21 2"
_symmetry_group_IT_number 18
_symmetry_cell_setting 'orthorhombic'
loop_
_space_group_symop_operation_xyz
x,y,z
-x,-y,z
1/2+x,1/2-y,-z
1/2-x,1/2+y,-z
loop_
_atom_site_type_symbol
_atom_site_label
_atom_site_fract_x
_atom_site_fract_y
_atom_site_fract_z
Si Si1 0.809972 0.262530 0.613568
Si Si2 0.622523 0.058380 0.828391
Si Si3 0.063275 0.744493 0.963466
Si Si4 0.863810 0.056619 0.286962
O O1 0.727685 0.119968 0.700234
O O2 0.733686 0.422539 0.655590
O O3 0.833766 0.216874 0.403356
O O4 0.929941 0.255363 0.743945
O O5 0.570168 0.206050 0.952192
O O6 0.500000 0.000000 0.718221
O O7 0.639980 0.911362 0.967662
O O8 0.122406 0.892668 0.072274
O O9 0.000000 0.000000 0.344418
#
# Coordination Sequence:
#
# PCOD9313219 Si02
#       4
#     4   4   4   4
#     4  12  23  42  68  95 135 178 214 275 344 384
#     4   8  19  42  62  90 123 164 222 273 315 387
#     4   9  21  43  65  89 125 173 220 275 324 392
#     4  12  25  44  65 103 137 173 226 275 328 411
#
# _framework density 24.301646999999999
#
# number of rings (size 3 to 8) (size 9 to 14) (size 15 to 20)
#    1.500    0.000    2.500    3.000    0.000    1.000 
#   18.000    0.000    0.000    0.000    0.000    0.000 
#    0.000    0.000    0.000    0.000    0.000    0.000 
#
# Total GULP energy -89274.132743 kJ/mol
# GULP energy per Si atom -5579.633296 kJ/mol
# Density = 2.424634 g / cm^3
# Si number density = 24.301647 Si / 1000 Ang^3
#
#
#
# Elastic Constant Matrix: (Units=GPa)
#
#
# Indices 1 2 3 4 5 6 
#
# 1 42.0399 -3.6598 -1.2153 0.0000 0.0000 0.0000
# 2 -3.6598 85.1961 3.0743 0.0000 0.0000 0.0000
# 3 -1.2153 3.0743 85.9268 0.0000 0.0000 0.0000
# 4 0.0000 0.0000 0.0000 14.1887 0.0000 0.0000
# 5 0.0000 0.0000 0.0000 0.0000 -7.0656 0.0000
# 6 0.0000 0.0000 0.0000 0.0000 0.0000 42.7707
#
#
#
# Elastic Compliance Matrix: (Units=1/GPa)
#
#
# Indices 1 2 3 4 5 6 
#
# 1 0.023884 0.001015 0.000301 0.000000 0.000000 0.000000
# 2 0.001015 0.011796 -0.000408 0.000000 0.000000 0.000000
# 3 0.000301 -0.000408 0.011657 0.000000 0.000000 0.000000
# 4 0.000000 0.000000 0.000000 0.070479 0.000000 0.000000
# 5 0.000000 0.000000 0.000000 0.000000 -0.141531 0.000000
# 6 0.000000 0.000000 0.000000 0.000000 0.000000 0.023381
#
#
# Mechanical properties :
#
#
# Convention : Reuss Voigt Hill
#
# Bulk Modulus (GPa) = 20.34405 23.28459 21.81432
# Shear Modulus (GPa) = 351.32548 24.30966 187.81757
#
# Velocity S-wave (km/s) = 12.03671 3.16623 8.80078
# Velocity P-wave (km/s) = 14.19740 4.79260 10.59564
#
# Compressibility (1/GPa) = 0.04915441
#
# Stress axis : x y z
#
# Youngs Moduli (GPa) = 41.86903 84.77490 85.78787
#
# Poissons Ratio (x) = -0.08606 -0.02586
# Poissons Ratio (y) = -0.04250 0.03497
# Poissons Ratio (z) = -0.01262 0.03456
#
# Static dielectric constant tensor:
#      x y z
#    x 1.962340 0.000000 0.000000 
#    y 0.000000 2.009740 0.000000 
#    z 0.000000 0.000000 1.942660 
# 
# From -- ./inp_files/2736.got.cif
#   From: 2010.05.17/outbox.cif.g08.bks.cpg/sg18_2_cif.got.tgz:2736.got - 2010.06.03 22:40:56.
