data_PCOD9313197
_publ_section_title
;
Structure prediction by ZEFSAII (Michael W. Deem and Ramdas Pophale) SiO2 
 PCOD9313197
Probable space group: P 21 21 2
;
_chemical_formula_sum "Si O2"
_cell_formula_units_Z 20
_cell_length_a 4.974114
_cell_length_b 8.677311
_cell_length_c 19.451509
_cell_angle_alpha 90.000000
_cell_angle_beta 90.000000
_cell_angle_gamma 90.000000
_cell_volume 839.564750
_symmetry_space_group_name_H-M "P 21 21 2"
_symmetry_group_IT_number 18
_symmetry_cell_setting 'orthorhombic'
loop_
_space_group_symop_operation_xyz
x,y,z
-x,-y,z
1/2+x,1/2-y,-z
1/2-x,1/2+y,-z
loop_
_atom_site_type_symbol
_atom_site_label
_atom_site_fract_x
_atom_site_fract_y
_atom_site_fract_z
Si Si1 0.398186 0.822454 0.035157
Si Si2 0.257258 0.605987 0.752498
Si Si3 0.390034 0.171548 0.683564
Si Si4 0.429565 0.675778 0.172863
Si Si5 0.865981 0.329927 0.469695
O O1 0.296702 0.762834 0.109449
O O2 0.500000 0.000000 0.035118
O O3 0.652043 0.714104 0.015621
O O4 0.500000 0.500000 0.774578
O O5 0.369200 0.705761 0.689594
O O6 0.000000 0.500000 0.737656
O O7 0.194837 0.725724 0.812350
O O8 0.215282 0.185829 0.752793
O O9 0.261328 0.187917 0.608921
O O10 0.500000 0.000000 0.686302
O O11 0.500000 0.500000 0.158004
O O12 0.609422 0.289233 0.516037
O O13 0.000000 0.500000 0.478487
#
# Coordination Sequence:
#
# PCOD9313197 Si02
#       5
#     4   4   4   4   4
#     4  12  29  52  79 112 153 200 250 305 370 446
#     4  12  26  43  69 111 148 185 240 311 366 426
#     4  11  26  47  77 109 151 197 252 303 376 450
#     4  12  26  47  80 110 151 197 251 305 376 442
#     4  11  27  49  75 106 149 199 249 306 374 448
#
# _framework density 23.821869
#
# number of rings (size 3 to 8) (size 9 to 14) (size 15 to 20)
#    0.000    0.400    4.000    3.000    5.600    3.200 
#    0.000    0.000    0.000    0.000    0.000    0.000 
#    0.000    0.000    0.000    0.000    0.000    0.000 
#
# Total GULP energy -111885.411280 kJ/mol
# GULP energy per Si atom -5594.270564 kJ/mol
# Density = 2.376765 g / cm^3
# Si number density = 23.821869 Si / 1000 Ang^3
#
#
#
# Elastic Constant Matrix: (Units=GPa)
#
#
# Indices 1 2 3 4 5 6 
#
# 1 109.5484 38.6295 33.5613 0.0000 0.0000 0.0000
# 2 38.6295 155.0893 39.6712 0.0000 0.0000 0.0000
# 3 33.5613 39.6712 143.8828 0.0000 0.0000 0.0000
# 4 0.0000 0.0000 0.0000 -548.4699 0.0000 0.0000
# 5 0.0000 0.0000 0.0000 0.0000 40.9751 0.0000
# 6 0.0000 0.0000 0.0000 0.0000 0.0000 17.6988
#
#
#
# Elastic Compliance Matrix: (Units=1/GPa)
#
#
# Indices 1 2 3 4 5 6 
#
# 1 0.010446 -0.002129 -0.001850 0.000000 0.000000 0.000000
# 2 -0.002129 0.007371 -0.001536 0.000000 0.000000 0.000000
# 3 -0.001850 -0.001536 0.007805 0.000000 0.000000 0.000000
# 4 0.000000 0.000000 0.000000 -0.001823 0.000000 0.000000
# 5 0.000000 0.000000 0.000000 0.000000 0.024405 0.000000
# 6 0.000000 0.000000 0.000000 0.000000 0.000000 0.056501
#
#
# Mechanical properties :
#
#
# Convention : Reuss Voigt Hill
#
# Bulk Modulus (GPa) = 68.52373 70.24939 69.38656
# Shear Modulus (GPa) = 41.46044 -78.18197 -18.36076
#
# Velocity S-wave (km/s) = 4.17638 -5.73504 -2.77925
# Velocity P-wave (km/s) = 7.21690 3.78163 4.34643
#
# Compressibility (1/GPa) = 0.01459348
#
# Stress axis : x y z
#
# Youngs Moduli (GPa) = 95.73364 135.66757 128.12346
#
# Poissons Ratio (x) = 0.28879 0.23697
# Poissons Ratio (y) = 0.20379 0.19677
# Poissons Ratio (z) = 0.17707 0.20836
#
# Static dielectric constant tensor:
#      x y z
#    x 2.119160 0.000000 0.000000 
#    y 0.000000 1.912670 0.000000 
#    z 0.000000 0.000000 1.959590 
# 
# From -- ./inp_files/7079.got.cif
#   From: 2010.05.17/outbox.cif.g08.bks.cpg/sg18_4_cif.got.tgz:7079.got - 2010.06.03 22:40:56.
