data_PCOD9313086
_publ_section_title
;
Structure prediction by ZEFSAII (Michael W. Deem and Ramdas Pophale) SiO2 
 PCOD9313086
Probable space group: P 21 21 2
;
_chemical_formula_sum "Si O2"
_cell_formula_units_Z 22
_cell_length_a 8.122305
_cell_length_b 14.833671
_cell_length_c 8.360158
_cell_angle_alpha 90.000000
_cell_angle_beta 90.000000
_cell_angle_gamma 90.000000
_cell_volume 1007.261934
_symmetry_space_group_name_H-M "P 21 21 2"
_symmetry_group_IT_number 18
_symmetry_cell_setting 'orthorhombic'
loop_
_space_group_symop_operation_xyz
x,y,z
-x,-y,z
1/2+x,1/2-y,-z
1/2-x,1/2+y,-z
loop_
_atom_site_type_symbol
_atom_site_label
_atom_site_fract_x
_atom_site_fract_y
_atom_site_fract_z
Si Si1 0.546927 0.393629 0.166053
Si Si2 0.876248 0.334618 0.320908
Si Si3 0.336538 0.447620 0.576787
Si Si4 0.186243 0.771225 0.633724
Si Si5 0.477441 0.671462 0.818346
Si Si6 0.000000 0.500000 0.455187
O O1 0.500000 0.500000 0.167389
O O2 0.698079 0.375067 0.285189
O O3 0.412896 0.319104 0.223112
O O4 0.587449 0.365093 0.984929
O O5 0.896249 0.290660 0.497006
O O6 0.999155 0.417085 0.332001
O O7 0.911873 0.261559 0.184533
O O8 0.500000 0.500000 0.515158
O O9 0.288547 0.359606 0.475807
O O10 0.406993 0.405979 0.741254
O O11 0.166022 0.502794 0.563507
O O12 0.329778 0.708159 0.705093
#
# Coordination Sequence:
#
# PCOD9313086 Si02
#       6
#     4   4   4   4   4   2
#     4  12  26  44  71 101 143 187 225 293 362 424
#     4  11  24  42  70 104 136 183 242 289 344 424
#     4  11  23  42  71 107 143 186 241 299 346 409
#     4  11  22  43  70 101 138 185 239 289 346 417
#     4  11  24  44  68 102 148 186 229 287 365 421
#     4  12  22  42  74 110 138 180 250 298 340 410
#
# _framework density 21.841387000000001
#
# number of rings (size 3 to 8) (size 9 to 14) (size 15 to 20)
#    0.000    0.727    1.818    7.636    2.545    0.000 
#    0.000    0.000    0.000    0.000    0.000    0.000 
#    0.000    0.000    0.000    0.000    0.000    0.000 
#
# Total GULP energy -122492.809374 kJ/mol
# GULP energy per Si atom -5567.854972 kJ/mol
# Density = 2.179167 g / cm^3
# Si number density = 21.841387 Si / 1000 Ang^3
#
#
#
# Elastic Constant Matrix: (Units=GPa)
#
#
# Indices 1 2 3 4 5 6 
#
# 1 92.6344 26.4072 16.1263 0.0000 0.0000 0.0000
# 2 26.4072 133.4252 30.2914 0.0000 0.0000 0.0000
# 3 16.1263 30.2914 87.4139 0.0000 0.0000 0.0000
# 4 0.0000 0.0000 0.0000 14.0108 0.0000 0.0000
# 5 0.0000 0.0000 0.0000 0.0000 114.6297 0.0000
# 6 0.0000 0.0000 0.0000 0.0000 0.0000 32.6354
#
#
#
# Elastic Compliance Matrix: (Units=1/GPa)
#
#
# Indices 1 2 3 4 5 6 
#
# 1 0.011610 -0.001966 -0.001460 0.000000 0.000000 0.000000
# 2 -0.001966 0.008468 -0.002572 0.000000 0.000000 0.000000
# 3 -0.001460 -0.002572 0.012600 0.000000 0.000000 0.000000
# 4 0.000000 0.000000 0.000000 0.071374 0.000000 0.000000
# 5 0.000000 0.000000 0.000000 0.000000 0.008724 0.000000
# 6 0.000000 0.000000 0.000000 0.000000 0.000000 0.030642
#
#
# Mechanical properties :
#
#
# Convention : Reuss Voigt Hill
#
# Bulk Modulus (GPa) = 48.35242 51.01371 49.68306
# Shear Modulus (GPa) = 30.80573 48.29842 39.55208
#
# Velocity S-wave (km/s) = 3.75964 4.70758 4.26006
# Velocity P-wave (km/s) = 6.40567 7.27705 6.85522
#
# Compressibility (1/GPa) = 0.02068149
#
# Stress axis : x y z
#
# Youngs Moduli (GPa) = 86.13346 118.09420 79.36265
#
# Poissons Ratio (x) = 0.23220 0.11591
# Poissons Ratio (y) = 0.16936 0.20409
# Poissons Ratio (z) = 0.12579 0.30369
#
# Static dielectric constant tensor:
#      x y z
#    x 1.872440 0.000000 0.000000 
#    y 0.000000 1.597800 0.000000 
#    z 0.000000 0.000000 1.795020 
# 
# From -- ./inp_files/3166.got.cif
#   From: 2010.05.17/outbox.cif.g08.bks.cpg/sg18_2_cif.got.tgz:3166.got - 2010.06.03 22:40:56.
