data_PCOD9313603
_publ_section_title
;
Structure prediction by ZEFSAII (Michael W. Deem and Ramdas Pophale) SiO2 
 PCOD9313603
Probable space group: P 21 21 21
;
_chemical_formula_sum "Si O2"
_cell_formula_units_Z 24
_cell_length_a 7.208488
_cell_length_b 14.781575
_cell_length_c 8.563832
_cell_angle_alpha 90.000000
_cell_angle_beta 90.000000
_cell_angle_gamma 90.000000
_cell_volume 912.500330
_symmetry_space_group_name_H-M "P 21 21 21"
_symmetry_group_IT_number 19
_symmetry_cell_setting 'orthorhombic'
loop_
_space_group_symop_operation_xyz
x,y,z
1/2-x,-y,1/2+z
1/2+x,1/2-y,-z
-x,1/2+y,1/2-z
loop_
_atom_site_type_symbol
_atom_site_label
_atom_site_fract_x
_atom_site_fract_y
_atom_site_fract_z
Si Si1 0.042942 0.273512 0.338870
Si Si2 0.568423 0.149785 0.148130
Si Si3 0.485168 0.896434 0.654937
Si Si4 0.387700 0.817198 0.170611
Si Si5 0.091672 0.438974 0.167542
Si Si6 0.993837 0.513390 0.660313
O O1 0.100157 0.197164 0.213937
O O2 0.831992 0.305586 0.319771
O O3 0.057884 0.227120 0.506551
O O4 0.143354 0.368210 0.306034
O O5 0.792068 0.128436 0.152948
O O6 0.534412 0.253383 0.191072
O O7 0.468182 0.087819 0.278648
O O8 0.513801 0.118403 0.976044
O O9 0.413189 0.940098 0.494460
O O10 0.465116 0.978871 0.776971
O O11 0.445565 0.919477 0.198147
O O12 0.287091 0.482357 0.122035
#
# Coordination Sequence:
#
# PCOD9313603 Si02
#       6
#     4   4   4   4   4   4
#     4  11  22  37  56  82 112 147 186 227 272 324
#     4   9  19  35  58  82 109 145 184 221 274 338
#     4   9  19  35  58  82 109 145 184 221 274 338
#     4  11  22  37  56  82 112 147 186 227 272 324
#     4  10  19  36  59  82 107 142 183 226 272 328
#     4  10  19  36  59  82 107 142 183 226 272 328
#
# _framework density 26.301361
#
# number of rings (size 3 to 8) (size 9 to 14) (size 15 to 20)
#    0.000    2.000    0.000    4.000    0.000    5.333 
#    0.000   10.000    0.000    0.000    0.000    0.000 
#    0.000    0.000    0.000    0.000    0.000    0.000 
#
# Total GULP energy -134365.844624 kJ/mol
# GULP energy per Si atom -5598.576859 kJ/mol
# Density = 2.624150 g / cm^3
# Si number density = 26.301361 Si / 1000 Ang^3
#
#
#
# Elastic Constant Matrix: (Units=GPa)
#
#
# Indices 1 2 3 4 5 6 
#
# 1 75.9173 0.0171 -2.1851 0.0000 0.0000 0.0000
# 2 0.0171 101.8546 -6.2080 0.0000 0.0000 0.0000
# 3 -2.1851 -6.2080 65.9129 0.0000 0.0000 0.0000
# 4 0.0000 0.0000 0.0000 49.6041 0.0000 0.0000
# 5 0.0000 0.0000 0.0000 0.0000 17.3769 0.0000
# 6 0.0000 0.0000 0.0000 0.0000 0.0000 24.9784
#
#
#
# Elastic Compliance Matrix: (Units=1/GPa)
#
#
# Indices 1 2 3 4 5 6 
#
# 1 0.013185 0.000025 0.000439 0.000000 0.000000 0.000000
# 2 0.000025 0.009875 0.000931 0.000000 0.000000 0.000000
# 3 0.000439 0.000931 0.015274 0.000000 0.000000 0.000000
# 4 0.000000 0.000000 0.000000 0.020160 0.000000 0.000000
# 5 0.000000 0.000000 0.000000 0.000000 0.057548 0.000000
# 6 0.000000 0.000000 0.000000 0.000000 0.000000 0.040035
#
#
# Mechanical properties :
#
#
# Convention : Reuss Voigt Hill
#
# Bulk Modulus (GPa) = 24.31729 25.21473 24.76601
# Shear Modulus (GPa) = 29.94137 35.19594 32.56865
#
# Velocity S-wave (km/s) = 3.37767 3.66208 3.52275
# Velocity P-wave (km/s) = 4.94745 5.24298 5.09736
#
# Compressibility (1/GPa) = 0.04112301
#
# Stress axis : x y z
#
# Youngs Moduli (GPa) = 75.84451 101.26940 65.47164
#
# Poissons Ratio (x) = -0.00249 -0.02877
# Poissons Ratio (y) = -0.00186 -0.06095
# Poissons Ratio (z) = -0.03333 -0.09427
#
# Static dielectric constant tensor:
#      x y z
#    x 2.108680 0.000000 0.000000 
#    y 0.000000 2.007370 0.000000 
#    z 0.000000 0.000000 2.097460 
# 
# From -- ./inp_files/2744.got.cif
#   From: 2010.05.17/outbox.cif.g08.bks.cpg/sg19_2_cif.got.tgz:2744.got - 2010.06.03 22:46:19.
