data_PCOD9313988
_publ_section_title
;
Structure prediction by ZEFSAII (Michael W. Deem and Ramdas Pophale) SiO2 
 PCOD9313988
Probable space group: P 21 21 21
;
_chemical_formula_sum "Si O2"
_cell_formula_units_Z 32
_cell_length_a 11.192602
_cell_length_b 12.089013
_cell_length_c 10.783704
_cell_angle_alpha 90.000000
_cell_angle_beta 90.000000
_cell_angle_gamma 90.000000
_cell_volume 1459.116148
_symmetry_space_group_name_H-M "P 21 21 21"
_symmetry_group_IT_number 19
_symmetry_cell_setting 'orthorhombic'
loop_
_space_group_symop_operation_xyz
x,y,z
1/2-x,-y,1/2+z
1/2+x,1/2-y,-z
-x,1/2+y,1/2-z
loop_
_atom_site_type_symbol
_atom_site_label
_atom_site_fract_x
_atom_site_fract_y
_atom_site_fract_z
Si Si1 0.779452 0.755776 0.347888
Si Si2 0.548713 0.041817 0.102205
Si Si3 0.692283 0.513538 0.282453
Si Si4 0.286409 0.335396 0.412714
Si Si5 0.945172 0.960207 0.104821
Si Si6 0.221511 0.669512 0.380065
Si Si7 0.465438 0.155258 0.849536
Si Si8 0.184894 0.918583 0.985138
O O1 0.735673 0.632503 0.331204
O O2 0.725889 0.826914 0.235978
O O3 0.736017 0.807205 0.474648
O O4 0.922840 0.759277 0.345701
O O5 0.450653 0.011451 0.203974
O O6 0.646893 0.127531 0.157314
O O7 0.621261 0.933125 0.057091
O O8 0.482520 0.095086 0.982214
O O9 0.731512 0.517086 0.138041
O O10 0.740010 0.432827 0.389160
O O11 0.152175 0.372812 0.448350
O O12 0.320201 0.212958 0.457625
O O13 0.004891 0.922507 0.233994
O O14 0.869387 0.068651 0.133815
O O15 0.054648 0.968491 0.011701
O O16 0.157208 0.778565 0.329194
#
# Coordination Sequence:
#
# PCOD9313988 Si02
#       8
#     4   4   4   4   4   4   4   4
#     4   9  19  39  64  89 131 173 224 284 330 396
#     4  10  22  40  68  98 132 175 223 282 336 408
#     4  11  24  44  65  99 131 175 227 275 340 398
#     4   9  22  43  63  96 137 171 220 286 345 389
#     4  10  23  41  61  97 129 177 221 274 339 403
#     4  10  20  39  63  95 130 178 228 278 334 402
#     4  10  20  39  66  93 129 176 225 276 330 404
#     4  11  26  43  68  95 135 177 222 283 332 408
#
# _framework density 21.931084999999999
#
# number of rings (size 3 to 8) (size 9 to 14) (size 15 to 20)
#    0.000    2.000    1.250    0.750    5.250    1.000 
#    4.500    0.000    0.000    0.000    0.000    0.000 
#    0.000    0.000    0.000    0.000    0.000    0.000 
#
# Total GULP energy -178667.627153 kJ/mol
# GULP energy per Si atom -5583.363349 kJ/mol
# Density = 2.188117 g / cm^3
# Si number density = 21.931085 Si / 1000 Ang^3
#
#
#
# Elastic Constant Matrix: (Units=GPa)
#
#
# Indices 1 2 3 4 5 6 
#
# 1 62.5216 11.9660 43.7276 0.0000 0.0000 0.0000
# 2 11.9660 53.0832 20.9933 0.0000 0.0000 0.0000
# 3 43.7276 20.9933 75.8225 0.0000 0.0000 0.0000
# 4 0.0000 0.0000 0.0000 14.9938 0.0000 0.0000
# 5 0.0000 0.0000 0.0000 0.0000 14.7506 0.0000
# 6 0.0000 0.0000 0.0000 0.0000 0.0000 48.4356
#
#
#
# Elastic Compliance Matrix: (Units=1/GPa)
#
#
# Indices 1 2 3 4 5 6 
#
# 1 0.026807 0.000080 -0.015482 0.000000 0.000000 0.000000
# 2 0.000080 0.021155 -0.005903 0.000000 0.000000 0.000000
# 3 -0.015482 -0.005903 0.023752 0.000000 0.000000 0.000000
# 4 0.000000 0.000000 0.000000 0.066694 0.000000 0.000000
# 5 0.000000 0.000000 0.000000 0.000000 0.067794 0.000000
# 6 0.000000 0.000000 0.000000 0.000000 0.000000 0.020646
#
#
# Mechanical properties :
#
#
# Convention : Reuss Voigt Hill
#
# Bulk Modulus (GPa) = 34.36066 38.31124 36.33595
# Shear Modulus (GPa) = 17.91079 23.28534 20.59806
#
# Velocity S-wave (km/s) = 2.86087 3.26199 3.06799
# Velocity P-wave (km/s) = 5.15891 5.62976 5.39947
#
# Compressibility (1/GPa) = 0.02910305
#
# Stress axis : x y z
#
# Youngs Moduli (GPa) = 37.30300 47.27018 42.10172
#
# Poissons Ratio (x) = -0.00378 0.65183
# Poissons Ratio (y) = -0.00298 0.24854
# Poissons Ratio (z) = 0.57754 0.27906
#
# Static dielectric constant tensor:
#      x y z
#    x 1.840040 0.000000 0.000000 
#    y 0.000000 1.825110 0.000000 
#    z 0.000000 0.000000 1.788840 
# 
# From -- ./inp_files/5041.got.cif
#   From: 2010.05.17/outbox.cif.g08.bks.cpg/sg19_3_cif.got.tgz:5041.got - 2010.06.03 22:46:19.
