data_PCOD9313184
_publ_section_title
;
Structure prediction by ZEFSAII (Michael W. Deem and Ramdas Pophale) SiO2 
 PCOD9313184
Probable space group: P 21 21 2
;
_chemical_formula_sum "Si O2"
_cell_formula_units_Z 20
_cell_length_a 18.372281
_cell_length_b 8.435814
_cell_length_c 4.812581
_cell_angle_alpha 90.000000
_cell_angle_beta 90.000000
_cell_angle_gamma 90.000000
_cell_volume 745.878565
_symmetry_space_group_name_H-M "P 21 21 2"
_symmetry_group_IT_number 18
_symmetry_cell_setting 'orthorhombic'
loop_
_space_group_symop_operation_xyz
x,y,z
-x,-y,z
1/2+x,1/2-y,-z
1/2-x,1/2+y,-z
loop_
_atom_site_type_symbol
_atom_site_label
_atom_site_fract_x
_atom_site_fract_y
_atom_site_fract_z
Si Si1 0.583499 0.273647 0.925435
Si Si2 0.519123 0.730240 0.402951
Si Si3 0.277335 0.138193 0.759449
Si Si4 0.363382 0.027288 0.255425
Si Si5 0.339756 0.467369 0.576782
O O1 0.532057 0.224396 0.663776
O O2 0.638179 0.400543 0.798202
O O3 0.623592 0.134881 0.094540
O O4 0.303311 0.120684 0.074205
O O5 0.561322 0.877420 0.265218
O O6 0.469854 0.659743 0.160585
O O7 0.584189 0.616666 0.500484
O O8 0.334537 0.037118 0.569240
O O9 0.288800 0.322275 0.679341
O O10 0.202042 0.060302 0.665951
#
# Coordination Sequence:
#
# PCOD9313184 Si02
#       5
#     4   4   4   4   4
#     4  12  26  47  77 109 149 195 243 304 370 442
#     4  11  26  45  74 111 151 190 241 304 370 443
#     4  11  26  47  73 105 146 194 248 306 361 437
#     4  11  25  47  74 107 144 192 244 301 367 436
#     4  11  27  48  73 108 148 195 249 303 368 432
#
# _framework density 26.814015999999999
#
# number of rings (size 3 to 8) (size 9 to 14) (size 15 to 20)
#    0.000    0.800    0.000    6.000    0.000   19.200 
#    0.000    0.000    0.000    0.000    0.000    0.000 
#    0.000    0.000    0.000    0.000    0.000    0.000 
#
# Total GULP energy -112284.872370 kJ/mol
# GULP energy per Si atom -5614.243618 kJ/mol
# Density = 2.675299 g / cm^3
# Si number density = 26.814016 Si / 1000 Ang^3
#
#
#
# Elastic Constant Matrix: (Units=GPa)
#
#
# Indices 1 2 3 4 5 6 
#
# 1 129.9370 43.2896 33.9910 0.0000 0.0000 0.0000
# 2 43.2896 156.9034 27.5619 0.0000 0.0000 0.0000
# 3 33.9910 27.5619 119.5527 0.0000 0.0000 0.0000
# 4 0.0000 0.0000 0.0000 49.7042 0.0000 0.0000
# 5 0.0000 0.0000 0.0000 0.0000 64.5861 0.0000
# 6 0.0000 0.0000 0.0000 0.0000 0.0000 53.0741
#
#
#
# Elastic Compliance Matrix: (Units=1/GPa)
#
#
# Indices 1 2 3 4 5 6 
#
# 1 0.008935 -0.002104 -0.002055 0.000000 0.000000 0.000000
# 2 -0.002104 0.007138 -0.001047 0.000000 0.000000 0.000000
# 3 -0.002055 -0.001047 0.009190 0.000000 0.000000 0.000000
# 4 0.000000 0.000000 0.000000 0.020119 0.000000 0.000000
# 5 0.000000 0.000000 0.000000 0.000000 0.015483 0.000000
# 6 0.000000 0.000000 0.000000 0.000000 0.000000 0.018842
#
#
# Mechanical properties :
#
#
# Convention : Reuss Voigt Hill
#
# Bulk Modulus (GPa) = 67.34202 68.45313 67.89757
# Shear Modulus (GPa) = 52.59299 53.57624 53.08462
#
# Velocity S-wave (km/s) = 4.43357 4.47483 4.45425
# Velocity P-wave (km/s) = 7.16783 7.23070 7.19933
#
# Compressibility (1/GPa) = 0.01484957
#
# Stress axis : x y z
#
# Youngs Moduli (GPa) = 111.92376 140.09849 108.81033
#
# Poissons Ratio (x) = 0.29477 0.22363
# Poissons Ratio (y) = 0.23549 0.11396
# Poissons Ratio (z) = 0.23003 0.14673
#
# Static dielectric constant tensor:
#      x y z
#    x 2.155090 0.000000 0.000000 
#    y 0.000000 2.143560 0.000000 
#    z 0.000000 0.000000 2.003480 
# 
# From -- ./inp_files/1746.got.cif
#   From: 2010.05.17/outbox.cif.g08.bks.cpg/sg18_1_cif.got.tgz:1746.got - 2010.06.03 22:40:56.
