data_PCOD9313083
_publ_section_title
;
Structure prediction by ZEFSAII (Michael W. Deem and Ramdas Pophale) SiO2 
 PCOD9313083
Probable space group: P 21 21 2
;
_chemical_formula_sum "Si O2"
_cell_formula_units_Z 28
_cell_length_a 19.137123
_cell_length_b 10.618542
_cell_length_c 5.469560
_cell_angle_alpha 90.000000
_cell_angle_beta 90.000000
_cell_angle_gamma 90.000000
_cell_volume 1111.460232
_symmetry_space_group_name_H-M "P 21 21 2"
_symmetry_group_IT_number 18
_symmetry_cell_setting 'orthorhombic'
loop_
_space_group_symop_operation_xyz
x,y,z
-x,-y,z
1/2+x,1/2-y,-z
1/2-x,1/2+y,-z
loop_
_atom_site_type_symbol
_atom_site_label
_atom_site_fract_x
_atom_site_fract_y
_atom_site_fract_z
Si Si1 0.000000 0.500000 0.443816
Si Si2 0.928239 0.712403 0.772776
Si Si3 0.866443 0.537010 0.195405
Si Si4 0.299400 0.202985 0.970220
Si Si5 0.367211 0.536498 0.314269
Si Si6 0.000000 0.000000 0.363660
Si Si7 0.558281 0.657689 0.015456
Si Si8 0.250709 0.335407 0.459705
O O1 0.037343 0.393530 0.602108
O O2 0.066378 0.543381 0.283953
O O3 0.867160 0.813686 0.711054
O O4 0.899040 0.638578 0.010079
O O5 0.997380 0.799854 0.804753
O O6 0.808465 0.446555 0.069997
O O7 0.825668 0.603682 0.419630
O O8 0.378947 0.246401 0.012433
O O9 0.273039 0.271624 0.718648
O O10 0.260439 0.242804 0.221548
O O11 0.428173 0.512047 0.501881
O O12 0.302769 0.453726 0.406546
O O13 0.399872 0.471909 0.072484
O O14 0.012781 0.870925 0.219277
#
# Coordination Sequence:
#
# PCOD9313083 Si02
#       8
#     2   4   4   4   4   2   4   4
#     4  12  30  48  76 110 158 206 266 330 410 478
#     4  12  26  47  74 114 154 206 272 329 395 489
#     4  12  31  51  77 114 153 215 263 336 408 482
#     4  11  27  51  78 109 160 202 261 322 401 480
#     4  11  24  41  74 111 151 202 261 328 391 465
#     4  12  18  38  70 110 146 194 256 318 394 450
#     4  11  22  42  71 111 151 198 255 331 389 459
#     4  11  29  51  79 114 154 212 262 325 400 475
#
# _framework density 25.192081999999999
#
# number of rings (size 3 to 8) (size 9 to 14) (size 15 to 20)
#    0.000    0.571    4.286    2.143   14.000    0.000 
#    2.571    0.000    0.000    0.000    0.000    0.000 
#    0.000    0.000    0.000    0.000    0.000    0.000 
#
# Total GULP energy -156370.510758 kJ/mol
# GULP energy per Si atom -5584.661098 kJ/mol
# Density = 2.513474 g / cm^3
# Si number density = 25.192082 Si / 1000 Ang^3
#
#
#
# Elastic Constant Matrix: (Units=GPa)
#
#
# Indices 1 2 3 4 5 6 
#
# 1 121.6646 10.4713 1.9733 0.0000 0.0000 0.0000
# 2 10.4713 88.4007 -3.5759 0.0000 0.0000 0.0000
# 3 1.9733 -3.5759 59.1304 0.0000 0.0000 0.0000
# 4 0.0000 0.0000 0.0000 34.6447 0.0000 0.0000
# 5 0.0000 0.0000 0.0000 0.0000 25.9289 0.0000
# 6 0.0000 0.0000 0.0000 0.0000 0.0000 29.4754
#
#
#
# Elastic Compliance Matrix: (Units=1/GPa)
#
#
# Indices 1 2 3 4 5 6 
#
# 1 0.008311 -0.000998 -0.000338 0.000000 0.000000 0.000000
# 2 -0.000998 0.011460 0.000726 0.000000 0.000000 0.000000
# 3 -0.000338 0.000726 0.016967 0.000000 0.000000 0.000000
# 4 0.000000 0.000000 0.000000 0.028864 0.000000 0.000000
# 5 0.000000 0.000000 0.000000 0.000000 0.038567 0.000000
# 6 0.000000 0.000000 0.000000 0.000000 0.000000 0.033927
#
#
# Mechanical properties :
#
#
# Convention : Reuss Voigt Hill
#
# Bulk Modulus (GPa) = 28.15434 31.88145 30.01790
# Shear Modulus (GPa) = 33.07888 35.36493 34.22191
#
# Velocity S-wave (km/s) = 3.62756 3.75081 3.68970
# Velocity P-wave (km/s) = 5.36150 5.60722 5.48574
#
# Compressibility (1/GPa) = 0.03551850
#
# Stress axis : x y z
#
# Youngs Moduli (GPa) = 120.32683 87.26210 58.93799
#
# Poissons Ratio (x) = 0.08709 0.01990
# Poissons Ratio (y) = 0.12010 -0.04281
# Poissons Ratio (z) = 0.04064 -0.06338
#
# Static dielectric constant tensor:
#      x y z
#    x 1.945690 0.000000 0.000000 
#    y 0.000000 2.099250 0.000000 
#    z 0.000000 0.000000 2.088930 
# 
# From -- ./inp_files/1992.got.cif
#   From: 2010.05.17/outbox.cif.g08.bks.cpg/sg18_1_cif.got.tgz:1992.got - 2010.06.03 22:40:56.
