data_PCOD9313187
_publ_section_title
;
Structure prediction by ZEFSAII (Michael W. Deem and Ramdas Pophale) SiO2 
 PCOD9313187
Probable space group: P 21 21 2
;
_chemical_formula_sum "Si O2"
_cell_formula_units_Z 26
_cell_length_a 21.228275
_cell_length_b 8.515629
_cell_length_c 6.128944
_cell_angle_alpha 90.000000
_cell_angle_beta 90.000000
_cell_angle_gamma 90.000000
_cell_volume 1107.942165
_symmetry_space_group_name_H-M "P 21 21 2"
_symmetry_group_IT_number 18
_symmetry_cell_setting 'orthorhombic'
loop_
_space_group_symop_operation_xyz
x,y,z
-x,-y,z
1/2+x,1/2-y,-z
1/2-x,1/2+y,-z
loop_
_atom_site_type_symbol
_atom_site_label
_atom_site_fract_x
_atom_site_fract_y
_atom_site_fract_z
Si Si1 0.074141 0.347319 0.467593
Si Si2 0.620137 0.952067 0.155071
Si Si3 0.207249 0.755714 0.534620
Si Si4 0.101137 0.982277 0.464203
Si Si5 0.029091 0.752552 0.147016
Si Si6 0.500000 0.500000 0.168011
Si Si7 0.305776 0.968784 0.762559
O O1 0.124955 0.447577 0.337556
O O2 0.008624 0.334810 0.338517
O O3 0.098472 0.168787 0.457158
O O4 0.079043 0.423712 0.706577
O O5 0.574167 0.856809 0.995029
O O6 0.677943 0.027628 0.017665
O O7 0.656199 0.833029 0.315044
O O8 0.170570 0.912012 0.461121
O O9 0.264581 0.823728 0.675811
O O10 0.220442 0.633643 0.337150
O O11 0.067654 0.889979 0.267965
O O12 0.058049 0.950068 0.678260
O O13 0.984825 0.849218 0.980559
#
# Coordination Sequence:
#
# PCOD9313187 Si02
#       7
#     4   4   4   4   4   2   4
#     4  11  26  46  72 114 145 200 261 306 387 471
#     4  11  27  49  71 111 151 201 251 316 398 448
#     4  11  25  48  75 103 148 193 260 315 378 468
#     4  12  23  45  74 106 149 194 257 308 377 468
#     4  12  24  48  74 107 160 197 247 328 385 451
#     4  12  22  42  74 108 142 202 248 296 390 458
#     4  11  26  49  71 106 145 200 247 322 389 441
#
# _framework density 23.466926999999998
#
# number of rings (size 3 to 8) (size 9 to 14) (size 15 to 20)
#    0.000    0.615    6.154    0.923    2.154    4.308 
#    8.308    0.000    0.000    0.000    0.000    0.000 
#    0.000    0.000    0.000    0.000    0.000    0.000 
#
# Total GULP energy -145343.887531 kJ/mol
# GULP energy per Si atom -5590.149520 kJ/mol
# Density = 2.341351 g / cm^3
# Si number density = 23.466927 Si / 1000 Ang^3
#
#
#
# Elastic Constant Matrix: (Units=GPa)
#
#
# Indices 1 2 3 4 5 6 
#
# 1 52.3461 11.8120 6.3662 0.0000 0.0000 0.0000
# 2 11.8120 119.7558 51.9116 0.0000 0.0000 0.0000
# 3 6.3662 51.9116 81.2115 0.0000 0.0000 0.0000
# 4 0.0000 0.0000 0.0000 46.2877 0.0000 0.0000
# 5 0.0000 0.0000 0.0000 0.0000 20.2727 0.0000
# 6 0.0000 0.0000 0.0000 0.0000 0.0000 50.8078
#
#
#
# Elastic Compliance Matrix: (Units=1/GPa)
#
#
# Indices 1 2 3 4 5 6 
#
# 1 0.019549 -0.001748 -0.000415 0.000000 0.000000 0.000000
# 2 -0.001748 0.011707 -0.007346 0.000000 0.000000 0.000000
# 3 -0.000415 -0.007346 0.017042 0.000000 0.000000 0.000000
# 4 0.000000 0.000000 0.000000 0.021604 0.000000 0.000000
# 5 0.000000 0.000000 0.000000 0.000000 0.049327 0.000000
# 6 0.000000 0.000000 0.000000 0.000000 0.000000 0.019682
#
#
# Mechanical properties :
#
#
# Convention : Reuss Voigt Hill
#
# Bulk Modulus (GPa) = 34.15461 43.72145 38.93803
# Shear Modulus (GPa) = 29.81690 35.68854 32.75272
#
# Velocity S-wave (km/s) = 3.56840 3.90398 3.73996
# Velocity P-wave (km/s) = 5.61818 6.24443 5.93957
#
# Compressibility (1/GPa) = 0.02927862
#
# Stress axis : x y z
#
# Youngs Moduli (GPa) = 51.15465 85.41689 58.67861
#
# Poissons Ratio (x) = 0.14933 0.02434
# Poissons Ratio (y) = 0.08943 0.43108
# Poissons Ratio (z) = 0.02122 0.62751
#
# Static dielectric constant tensor:
#      x y z
#    x 1.882640 0.000000 0.000000 
#    y 0.000000 1.930160 0.000000 
#    z 0.000000 0.000000 1.980070 
# 
# From -- ./inp_files/2099.got.cif
#   From: 2010.05.17/outbox.cif.g08.bks.cpg/sg18_2_cif.got.tgz:2099.got - 2010.06.03 22:40:56.
