data_PCOD9313152
_publ_section_title
;
Structure prediction by ZEFSAII (Michael W. Deem and Ramdas Pophale) SiO2 
 PCOD9313152
Probable space group: P 21 21 2
;
_chemical_formula_sum "Si O2"
_cell_formula_units_Z 26
_cell_length_a 10.818714
_cell_length_b 16.409284
_cell_length_c 6.577045
_cell_angle_alpha 90.000000
_cell_angle_beta 90.000000
_cell_angle_gamma 90.000000
_cell_volume 1167.605373
_symmetry_space_group_name_H-M "P 21 21 2"
_symmetry_group_IT_number 18
_symmetry_cell_setting 'orthorhombic'
loop_
_space_group_symop_operation_xyz
x,y,z
-x,-y,z
1/2+x,1/2-y,-z
1/2-x,1/2+y,-z
loop_
_atom_site_type_symbol
_atom_site_label
_atom_site_fract_x
_atom_site_fract_y
_atom_site_fract_z
Si Si1 0.279937 0.467276 0.743204
Si Si2 0.500000 0.500000 0.491043
Si Si3 0.438537 0.399856 0.117412
Si Si4 0.137461 0.325179 0.517348
Si Si5 0.280762 0.253179 0.162184
Si Si6 0.134440 0.605355 0.561026
Si Si7 0.684009 0.335130 0.228166
O O1 0.387758 0.522267 0.636556
O O2 0.236778 0.381578 0.639285
O O3 0.162869 0.525803 0.698609
O O4 0.348790 0.441827 0.953172
O O5 0.431695 0.437583 0.342007
O O6 0.399074 0.307296 0.119261
O O7 0.587400 0.394301 0.111328
O O8 0.184784 0.309068 0.287911
O O9 0.127894 0.234507 0.619474
O O10 0.008230 0.373494 0.517750
O O11 0.316322 0.180111 0.307092
O O12 0.238493 0.218556 0.950293
O O13 0.215318 0.611818 0.352745
#
# Coordination Sequence:
#
# PCOD9313152 Si02
#       7
#     4   2   4   4   4   4   4
#     4  12  26  45  72 105 145 197 239 309 375 431
#     4  12  26  46  68 106 142 182 238 304 360 438
#     4  12  25  46  74 103 140 188 247 301 366 440
#     4  11  24  45  72 101 145 193 239 303 368 440
#     4  11  25  43  72 104 140 188 244 300 362 440
#     4  11  26  45  70 104 146 192 245 298 374 440
#     4  11  25  45  71 108 138 190 243 296 367 438
#
# _framework density 22.267797999999999
#
# number of rings (size 3 to 8) (size 9 to 14) (size 15 to 20)
#    0.000    0.615    6.154    0.923    6.462    0.000 
#    0.000    0.000    0.000    0.000    0.000    0.000 
#    0.000    0.000    0.000    0.000    0.000    0.000 
#
# Total GULP energy -144816.573620 kJ/mol
# GULP energy per Si atom -5569.868216 kJ/mol
# Density = 2.221712 g / cm^3
# Si number density = 22.267798 Si / 1000 Ang^3
#
#
#
# Elastic Constant Matrix: (Units=GPa)
#
#
# Indices 1 2 3 4 5 6 
#
# 1 83.7632 12.9580 27.7447 0.0000 0.0000 0.0000
# 2 12.9580 72.3484 14.9365 0.0000 0.0000 0.0000
# 3 27.7447 14.9365 83.2506 0.0000 0.0000 0.0000
# 4 0.0000 0.0000 0.0000 33.2494 0.0000 0.0000
# 5 0.0000 0.0000 0.0000 0.0000 21.2237 0.0000
# 6 0.0000 0.0000 0.0000 0.0000 0.0000 44.0734
#
#
#
# Elastic Compliance Matrix: (Units=1/GPa)
#
#
# Indices 1 2 3 4 5 6 
#
# 1 0.013586 -0.001556 -0.004249 0.000000 0.000000 0.000000
# 2 -0.001556 0.014532 -0.002089 0.000000 0.000000 0.000000
# 3 -0.004249 -0.002089 0.013803 0.000000 0.000000 0.000000
# 4 0.000000 0.000000 0.000000 0.030076 0.000000 0.000000
# 5 0.000000 0.000000 0.000000 0.000000 0.047117 0.000000
# 6 0.000000 0.000000 0.000000 0.000000 0.000000 0.022689
#
#
# Mechanical properties :
#
#
# Convention : Reuss Voigt Hill
#
# Bulk Modulus (GPa) = 38.26453 38.96005 38.61229
# Shear Modulus (GPa) = 30.06582 31.95750 31.01166
#
# Velocity S-wave (km/s) = 3.67848 3.79244 3.73590
# Velocity P-wave (km/s) = 5.93824 6.05895 5.99890
#
# Compressibility (1/GPa) = 0.02613387
#
# Stress axis : x y z
#
# Youngs Moduli (GPa) = 73.60268 68.81397 72.45007
#
# Poissons Ratio (x) = 0.10709 0.30782
# Poissons Ratio (y) = 0.11455 0.15132
# Poissons Ratio (z) = 0.31272 0.14373
#
# Static dielectric constant tensor:
#      x y z
#    x 1.915320 0.000000 0.000000 
#    y 0.000000 1.921580 0.000000 
#    z 0.000000 0.000000 1.954140 
# 
# From -- ./inp_files/1168.got.cif
#   From: 2010.05.17/outbox.cif.g08.bks.cpg/sg18_1_cif.got.tgz:1168.got - 2010.06.03 22:40:56.
