data_PCOD9313857
_publ_section_title
;
Structure prediction by ZEFSAII (Michael W. Deem and Ramdas Pophale) SiO2 
 PCOD9313857
Probable space group: P 21 21 21
;
_chemical_formula_sum "Si O2"
_cell_formula_units_Z 32
_cell_length_a 15.406759
_cell_length_b 5.080185
_cell_length_c 19.179218
_cell_angle_alpha 90.000000
_cell_angle_beta 90.000000
_cell_angle_gamma 90.000000
_cell_volume 1501.141780
_symmetry_space_group_name_H-M "P 21 21 21"
_symmetry_group_IT_number 19
_symmetry_cell_setting 'orthorhombic'
loop_
_space_group_symop_operation_xyz
x,y,z
1/2-x,-y,1/2+z
1/2+x,1/2-y,-z
-x,1/2+y,1/2-z
loop_
_atom_site_type_symbol
_atom_site_label
_atom_site_fract_x
_atom_site_fract_y
_atom_site_fract_z
Si Si1 0.410735 0.337273 0.687295
Si Si2 0.342460 0.066502 0.137635
Si Si3 0.715669 0.481795 0.752609
Si Si4 0.594675 0.126838 0.664327
Si Si5 0.251326 0.452988 0.591869
Si Si6 0.757404 0.796353 0.066051
Si Si7 0.008583 0.235028 0.797115
Si Si8 0.809198 0.722453 0.638375
O O1 0.358663 0.064205 0.694178
O O2 0.504875 0.285573 0.654899
O O3 0.424432 0.430721 0.768818
O O4 0.340413 0.484739 0.637533
O O5 0.295948 0.266337 0.085359
O O6 0.441569 0.137419 0.147998
O O7 0.297238 0.145528 0.210896
O O8 0.312495 0.765287 0.127655
O O9 0.668459 0.300804 0.699031
O O10 0.750769 0.726864 0.708435
O O11 0.646187 0.089615 0.590525
O O12 0.261594 0.335986 0.515145
O O13 0.734064 0.498345 0.088739
O O14 0.692339 0.992969 0.105162
O O15 0.095479 0.150502 0.836564
O O16 0.025654 0.473923 0.742481
#
# Coordination Sequence:
#
# PCOD9313857 Si02
#       8
#     4   4   4   4   4   4   4   4
#     4  11  21  37  63  97 124 162 217 276 322 379
#     4  11  23  41  66  94 128 174 216 267 327 394
#     4  10  20  36  62  92 126 158 210 270 330 378
#     4  11  21  37  63  97 124 162 217 276 322 379
#     4  11  25  45  67  91 135 178 217 265 339 405
#     4  11  25  45  67  91 135 178 217 265 339 405
#     4  12  24  38  64 102 134 162 222 282 328 384
#     4  11  23  41  66  94 128 174 216 267 327 394
#
# _framework density 21.317108999999999
#
# number of rings (size 3 to 8) (size 9 to 14) (size 15 to 20)
#    0.000    1.000    5.000    2.250    3.500    0.000 
#    4.500    0.000    0.000    0.000    0.000    0.000 
#    0.000    0.000    0.000    0.000    0.000    0.000 
#
# Total GULP energy -178160.566939 kJ/mol
# GULP energy per Si atom -5567.517717 kJ/mol
# Density = 2.126859 g / cm^3
# Si number density = 21.317109 Si / 1000 Ang^3
#
#
#
# Elastic Constant Matrix: (Units=GPa)
#
#
# Indices 1 2 3 4 5 6 
#
# 1 76.3898 3.5198 21.0821 0.0000 0.0000 0.0000
# 2 3.5198 65.7519 1.7258 0.0000 0.0000 0.0000
# 3 21.0821 1.7258 53.6268 0.0000 0.0000 0.0000
# 4 0.0000 0.0000 0.0000 30.5624 0.0000 0.0000
# 5 0.0000 0.0000 0.0000 0.0000 12.4031 0.0000
# 6 0.0000 0.0000 0.0000 0.0000 0.0000 14.6840
#
#
#
# Elastic Compliance Matrix: (Units=1/GPa)
#
#
# Indices 1 2 3 4 5 6 
#
# 1 0.014710 -0.000636 -0.005763 0.000000 0.000000 0.000000
# 2 -0.000636 0.015249 -0.000241 0.000000 0.000000 0.000000
# 3 -0.005763 -0.000241 0.020921 0.000000 0.000000 0.000000
# 4 0.000000 0.000000 0.000000 0.032720 0.000000 0.000000
# 5 0.000000 0.000000 0.000000 0.000000 0.080625 0.000000
# 6 0.000000 0.000000 0.000000 0.000000 0.000000 0.068101
#
#
# Mechanical properties :
#
#
# Convention : Reuss Voigt Hill
#
# Bulk Modulus (GPa) = 26.59489 27.60264 27.09877
# Shear Modulus (GPa) = 19.36941 22.82595 21.09768
#
# Velocity S-wave (km/s) = 3.01762 3.27583 3.14937
# Velocity P-wave (km/s) = 4.96430 5.22348 5.09554
#
# Compressibility (1/GPa) = 0.03760121
#
# Stress axis : x y z
#
# Youngs Moduli (GPa) = 67.97894 65.57778 47.79985
#
# Poissons Ratio (x) = 0.04172 0.27545
# Poissons Ratio (y) = 0.04325 0.01150
# Poissons Ratio (z) = 0.39173 0.01578
#
# Static dielectric constant tensor:
#      x y z
#    x 1.799700 0.000000 0.000000 
#    y 0.000000 1.837620 0.000000 
#    z 0.000000 0.000000 1.920570 
# 
# From -- ./inp_files/6800.got.cif
#   From: 2010.05.17/outbox.cif.g08.bks.cpg/sg19_4_cif.got.tgz:6800.got - 2010.06.03 22:46:19.
