data_PCOD9313470
_publ_section_title
;
Structure prediction by ZEFSAII (Michael W. Deem and Ramdas Pophale) SiO2 
 PCOD9313470
Probable space group: P 21 21 21
;
_chemical_formula_sum "Si O2"
_cell_formula_units_Z 28
_cell_length_a 14.897782
_cell_length_b 13.813158
_cell_length_c 5.829123
_cell_angle_alpha 90.000000
_cell_angle_beta 90.000000
_cell_angle_gamma 90.000000
_cell_volume 1199.548505
_symmetry_space_group_name_H-M "P 21 21 21"
_symmetry_group_IT_number 19
_symmetry_cell_setting 'orthorhombic'
loop_
_space_group_symop_operation_xyz
x,y,z
1/2-x,-y,1/2+z
1/2+x,1/2-y,-z
-x,1/2+y,1/2-z
loop_
_atom_site_type_symbol
_atom_site_label
_atom_site_fract_x
_atom_site_fract_y
_atom_site_fract_z
Si Si1 0.420556 0.868729 0.287157
Si Si2 0.425113 0.243348 0.454199
Si Si3 0.878327 0.949558 0.452198
Si Si4 0.941106 0.131260 0.154600
Si Si5 0.762602 0.444203 0.168416
Si Si6 0.934939 0.415954 0.904416
Si Si7 0.701414 0.889021 0.254118
O O1 0.486811 0.792677 0.165718
O O2 0.463534 0.882164 0.536082
O O3 0.313435 0.861250 0.301439
O O4 0.436176 0.970842 0.160054
O O5 0.443969 0.266988 0.716111
O O6 0.410261 0.143698 0.324149
O O7 0.334881 0.307127 0.415070
O O8 0.805469 0.889961 0.310989
O O9 0.963227 0.889744 0.534118
O O10 0.919654 0.037988 0.307238
O O11 0.825258 0.005114 0.655771
O O12 0.861089 0.130896 0.972012
O O13 0.738160 0.499859 0.919618
O O14 0.860964 0.406500 0.102661
#
# Coordination Sequence:
#
# PCOD9313470 Si02
#       7
#     4   4   4   4   4   4   4
#     4  10  21  42  66  89 130 174 216 274 335 393
#     4  10  23  40  60  98 133 167 221 272 329 395
#     4  11  19  35  65  88 119 161 205 253 326 390
#     4  10  18  38  61  86 127 162 208 270 320 391
#     4  10  23  42  69  96 127 180 232 273 330 399
#     4  11  22  42  64  96 127 175 224 268 331 399
#     4  10  20  35  59  93 123 161 206 266 325 387
#
# _framework density 23.342116000000001
#
# number of rings (size 3 to 8) (size 9 to 14) (size 15 to 20)
#    0.000    1.714    5.714    0.857    2.000    1.143 
#   15.429    1.429    0.000    0.000    0.000    0.000 
#    0.000    0.000    0.000    0.000    0.000    0.000 
#
# Total GULP energy -156206.185569 kJ/mol
# GULP energy per Si atom -5578.792342 kJ/mol
# Density = 2.328899 g / cm^3
# Si number density = 23.342116 Si / 1000 Ang^3
#
#
#
# Elastic Constant Matrix: (Units=GPa)
#
#
# Indices 1 2 3 4 5 6 
#
# 1 137.0217 21.7958 20.2289 0.0000 0.0000 0.0000
# 2 21.7958 34.4703 6.6180 0.0000 0.0000 0.0000
# 3 20.2289 6.6180 61.6633 0.0000 0.0000 0.0000
# 4 0.0000 0.0000 0.0000 35.2506 0.0000 0.0000
# 5 0.0000 0.0000 0.0000 0.0000 8.4235 0.0000
# 6 0.0000 0.0000 0.0000 0.0000 0.0000 19.2099
#
#
#
# Elastic Compliance Matrix: (Units=1/GPa)
#
#
# Indices 1 2 3 4 5 6 
#
# 1 0.008405 -0.004886 -0.002233 0.000000 0.000000 0.000000
# 2 -0.004886 0.032461 -0.001881 0.000000 0.000000 0.000000
# 3 -0.002233 -0.001881 0.017152 0.000000 0.000000 0.000000
# 4 0.000000 0.000000 0.000000 0.028368 0.000000 0.000000
# 5 0.000000 0.000000 0.000000 0.000000 0.118716 0.000000
# 6 0.000000 0.000000 0.000000 0.000000 0.000000 0.052057
#
#
# Mechanical properties :
#
#
# Convention : Reuss Voigt Hill
#
# Bulk Modulus (GPa) = 24.98883 36.71563 30.85223
# Shear Modulus (GPa) = 17.33119 24.87761 21.10440
#
# Velocity S-wave (km/s) = 2.72782 3.26817 3.01014
# Velocity P-wave (km/s) = 4.54423 5.47766 5.03263
#
# Compressibility (1/GPa) = 0.04001787
#
# Stress axis : x y z
#
# Youngs Moduli (GPa) = 118.97756 30.80618 58.30390
#
# Poissons Ratio (x) = 0.15051 0.13019
# Poissons Ratio (y) = 0.58130 0.10967
# Poissons Ratio (z) = 0.26567 0.05795
#
# Static dielectric constant tensor:
#      x y z
#    x 1.873020 0.000000 0.000000 
#    y 0.000000 1.914700 0.000000 
#    z 0.000000 0.000000 1.995760 
# 
# From -- ./inp_files/1479.got.cif
#   From: 2010.05.17/outbox.cif.g08.bks.cpg/sg19_1_cif.got.tgz:1479.got - 2010.06.03 22:46:19.
