data_PCOD9313555
_publ_section_title
;
Structure prediction by ZEFSAII (Michael W. Deem and Ramdas Pophale) SiO2 
 PCOD9313555
Probable space group: P 21 21 21
;
_chemical_formula_sum "Si O2"
_cell_formula_units_Z 28
_cell_length_a 15.326246
_cell_length_b 13.453769
_cell_length_c 5.406110
_cell_angle_alpha 90.000000
_cell_angle_beta 90.000000
_cell_angle_gamma 90.000000
_cell_volume 1114.717032
_symmetry_space_group_name_H-M "P 21 21 21"
_symmetry_group_IT_number 19
_symmetry_cell_setting 'orthorhombic'
loop_
_space_group_symop_operation_xyz
x,y,z
1/2-x,-y,1/2+z
1/2+x,1/2-y,-z
-x,1/2+y,1/2-z
loop_
_atom_site_type_symbol
_atom_site_label
_atom_site_fract_x
_atom_site_fract_y
_atom_site_fract_z
Si Si1 0.513048 0.252314 0.971879
Si Si2 0.558001 0.429134 0.296776
Si Si3 0.830123 0.727303 0.097838
Si Si4 0.161953 0.358811 0.816890
Si Si5 0.712780 0.550117 0.202471
Si Si6 0.625433 0.928158 0.994755
Si Si7 0.334818 0.313128 0.005057
O O1 0.581724 0.251388 0.750853
O O2 0.410450 0.233316 0.938692
O O3 0.519269 0.365840 0.070366
O O4 0.562257 0.177682 0.156583
O O5 0.630502 0.353493 0.401254
O O6 0.610162 0.527445 0.224516
O O7 0.479410 0.443688 0.487156
O O8 0.811491 0.831270 0.960655
O O9 0.745010 0.662987 0.173092
O O10 0.167743 0.468557 0.920971
O O11 0.231345 0.294046 0.975138
O O12 0.756751 0.510826 0.457792
O O13 0.646296 0.853151 0.220728
O O14 0.650508 0.892434 0.721233
#
# Coordination Sequence:
#
# PCOD9313555 Si02
#       7
#     4   4   4   4   4   4   4
#     4  10  21  43  66  94 138 171 217 279 346 392
#     4   9  19  39  62  93 125 177 220 271 328 400
#     4  10  20  39  61  92 135 170 214 281 339 389
#     4  11  26  42  67 101 133 178 225 282 334 404
#     4  10  19  34  60  87 122 169 213 257 329 398
#     4  11  24  44  69  96 130 178 234 270 323 409
#     4  11  25  47  69  95 133 183 221 276 337 396
#
# _framework density 25.118482
#
# number of rings (size 3 to 8) (size 9 to 14) (size 15 to 20)
#    0.000    1.714    2.857    0.857    4.000    0.000 
#    5.143    0.000    0.000    0.000    0.000    0.000 
#    0.000    0.000    0.000    0.000    0.000    0.000 
#
# Total GULP energy -156219.350738 kJ/mol
# GULP energy per Si atom -5579.262526 kJ/mol
# Density = 2.506131 g / cm^3
# Si number density = 25.118482 Si / 1000 Ang^3
#
#
#
# Elastic Constant Matrix: (Units=GPa)
#
#
# Indices 1 2 3 4 5 6 
#
# 1 136.7209 9.0632 -8.9904 0.0000 0.0000 0.0000
# 2 9.0632 57.3828 20.3731 0.0000 0.0000 0.0000
# 3 -8.9904 20.3731 57.5620 0.0000 0.0000 0.0000
# 4 0.0000 0.0000 0.0000 36.2281 0.0000 0.0000
# 5 0.0000 0.0000 0.0000 0.0000 40.6946 0.0000
# 6 0.0000 0.0000 0.0000 0.0000 0.0000 36.4416
#
#
#
# Elastic Compliance Matrix: (Units=1/GPa)
#
#
# Indices 1 2 3 4 5 6 
#
# 1 0.007557 -0.001844 0.001833 0.000000 0.000000 0.000000
# 2 -0.001844 0.020382 -0.007502 0.000000 0.000000 0.000000
# 3 0.001833 -0.007502 0.020314 0.000000 0.000000 0.000000
# 4 0.000000 0.000000 0.000000 0.027603 0.000000 0.000000
# 5 0.000000 0.000000 0.000000 0.000000 0.024573 0.000000
# 6 0.000000 0.000000 0.000000 0.000000 0.000000 0.027441
#
#
# Mechanical properties :
#
#
# Convention : Reuss Voigt Hill
#
# Bulk Modulus (GPa) = 30.09657 32.50639 31.30148
# Shear Modulus (GPa) = 32.47355 38.08753 35.28054
#
# Velocity S-wave (km/s) = 3.59947 3.89821 3.75182
# Velocity P-wave (km/s) = 5.41136 5.76461 5.59078
#
# Compressibility (1/GPa) = 0.03322638
#
# Stress axis : x y z
#
# Youngs Moduli (GPa) = 132.32814 49.06395 49.22707
#
# Poissons Ratio (x) = 0.09049 -0.09024
# Poissons Ratio (y) = 0.24406 0.36929
# Poissons Ratio (z) = -0.24257 0.36807
#
# Static dielectric constant tensor:
#      x y z
#    x 2.123960 0.000000 0.000000 
#    y 0.000000 2.006500 0.000000 
#    z 0.000000 0.000000 2.126960 
# 
# From -- ./inp_files/1494.got.cif
#   From: 2010.05.17/outbox.cif.g08.bks.cpg/sg19_1_cif.got.tgz:1494.got - 2010.06.03 22:46:19.
