data_PCOD9313099
_publ_section_title
;
Structure prediction by ZEFSAII (Michael W. Deem and Ramdas Pophale) SiO2 
 PCOD9313099
Probable space group: P 21 21 2
;
_chemical_formula_sum "Si O2"
_cell_formula_units_Z 30
_cell_length_a 6.087086
_cell_length_b 26.376546
_cell_length_c 9.119519
_cell_angle_alpha 90.000000
_cell_angle_beta 90.000000
_cell_angle_gamma 90.000000
_cell_volume 1464.196264
_symmetry_space_group_name_H-M "P 21 21 2"
_symmetry_group_IT_number 18
_symmetry_cell_setting 'orthorhombic'
loop_
_space_group_symop_operation_xyz
x,y,z
-x,-y,z
1/2+x,1/2-y,-z
1/2-x,1/2+y,-z
loop_
_atom_site_type_symbol
_atom_site_label
_atom_site_fract_x
_atom_site_fract_y
_atom_site_fract_z
Si Si1 0.612044 0.444973 0.998626
Si Si2 0.616897 0.714364 0.350066
Si Si3 0.756914 0.822735 0.455757
Si Si4 0.905749 0.137650 0.211845
Si Si5 0.154000 0.374828 0.513001
Si Si6 0.803055 0.224222 0.984084
Si Si7 0.500000 0.000000 0.906799
Si Si8 0.877323 0.049111 0.709695
O O1 0.500000 0.500000 0.971786
O O2 0.527180 0.404437 0.884322
O O3 0.869075 0.458096 0.000519
O O4 0.538356 0.428834 0.163929
O O5 0.638697 0.773376 0.388766
O O6 0.376906 0.695641 0.396936
O O7 0.772740 0.680498 0.453172
O O8 0.681053 0.705505 0.183051
O O9 0.925839 0.838361 0.328857
O O10 0.606856 0.870723 0.493840
O O11 0.810804 0.180219 0.104628
O O12 0.718629 0.116473 0.318927
O O13 0.284728 0.413230 0.410294
O O14 0.052313 0.250998 0.003038
O O15 0.673402 0.028055 0.803615
O O16 0.000000 0.000000 0.644482
#
# Coordination Sequence:
#
# PCOD9313099 Si02
#       8
#     4   4   4   4   4   4   2   4
#     4   9  20  42  65  92 125 167 213 277 336 404
#     4  11  23  41  63  88 128 172 220 274 331 394
#     4  11  23  40  64  89 127 173 220 272 333 403
#     4  11  25  42  60  96 134 168 227 271 342 405
#     4  11  24  40  64  91 127 176 212 273 335 397
#     4  12  27  44  68  98 133 179 226 280 338 404
#     4   8  18  38  68  90 120 158 216 268 338 396
#     4   9  20  40  66  93 124 163 215 270 328 404
#
# _framework density 20.489058
#
# number of rings (size 3 to 8) (size 9 to 14) (size 15 to 20)
#    0.000    1.867    2.667    1.600    3.733    8.000 
#    0.000    0.000    0.000    0.000    0.000    0.000 
#    0.000    0.000    0.000    0.000    0.000    0.000 
#
# Total GULP energy -167196.792675 kJ/mol
# GULP energy per Si atom -5573.226423 kJ/mol
# Density = 2.044242 g / cm^3
# Si number density = 20.489058 Si / 1000 Ang^3
#
#
#
# Elastic Constant Matrix: (Units=GPa)
#
#
# Indices 1 2 3 4 5 6 
#
# 1 50.0729 -8.9211 -7.7317 0.0000 0.0000 0.0000
# 2 -8.9211 39.0389 6.4031 0.0000 0.0000 0.0000
# 3 -7.7317 6.4031 81.6799 0.0000 0.0000 0.0000
# 4 0.0000 0.0000 0.0000 25.8521 0.0000 0.0000
# 5 0.0000 0.0000 0.0000 0.0000 19.0007 0.0000
# 6 0.0000 0.0000 0.0000 0.0000 0.0000 18.8546
#
#
#
# Elastic Compliance Matrix: (Units=1/GPa)
#
#
# Indices 1 2 3 4 5 6 
#
# 1 0.021032 0.004538 0.001635 0.000000 0.000000 0.000000
# 2 0.004538 0.026928 -0.001681 0.000000 0.000000 0.000000
# 3 0.001635 -0.001681 0.012530 0.000000 0.000000 0.000000
# 4 0.000000 0.000000 0.000000 0.038682 0.000000 0.000000
# 5 0.000000 0.000000 0.000000 0.000000 0.052630 0.000000
# 6 0.000000 0.000000 0.000000 0.000000 0.000000 0.053037
#
#
# Mechanical properties :
#
#
# Convention : Reuss Voigt Hill
#
# Bulk Modulus (GPa) = 14.39411 16.69915 15.54663
# Shear Modulus (GPa) = 22.82975 24.81092 23.82033
#
# Velocity S-wave (km/s) = 3.34165 3.48362 3.41337
# Velocity P-wave (km/s) = 4.68287 4.93445 4.81031
#
# Compressibility (1/GPa) = 0.06947286
#
# Stress axis : x y z
#
# Youngs Moduli (GPa) = 47.54695 37.13571 79.81161
#
# Poissons Ratio (x) = -0.16852 -0.13050
# Poissons Ratio (y) = -0.21577 0.13420
# Poissons Ratio (z) = -0.07774 0.06244
#
# Static dielectric constant tensor:
#      x y z
#    x 1.873510 0.000000 0.000000 
#    y 0.000000 1.726480 0.000000 
#    z 0.000000 0.000000 1.695230 
# 
# From -- ./inp_files/2670.got.cif
#   From: 2010.05.17/outbox.cif.g08.bks.cpg/sg18_2_cif.got.tgz:2670.got - 2010.06.03 22:40:56.
