data_PCOD9313672
_publ_section_title
;
Structure prediction by ZEFSAII (Michael W. Deem and Ramdas Pophale) SiO2 
 PCOD9313672
Probable space group: P 21 21 21
;
_chemical_formula_sum "Si O2"
_cell_formula_units_Z 28
_cell_length_a 7.654167
_cell_length_b 18.271441
_cell_length_c 7.481766
_cell_angle_alpha 90.000000
_cell_angle_beta 90.000000
_cell_angle_gamma 90.000000
_cell_volume 1046.344882
_symmetry_space_group_name_H-M "P 21 21 21"
_symmetry_group_IT_number 19
_symmetry_cell_setting 'orthorhombic'
loop_
_space_group_symop_operation_xyz
x,y,z
1/2-x,-y,1/2+z
1/2+x,1/2-y,-z
-x,1/2+y,1/2-z
loop_
_atom_site_type_symbol
_atom_site_label
_atom_site_fract_x
_atom_site_fract_y
_atom_site_fract_z
Si Si1 0.649923 0.023581 0.625517
Si Si2 0.767706 0.791454 0.708398
Si Si3 0.385636 0.826065 0.803859
Si Si4 0.208157 0.021005 0.303400
Si Si5 0.549331 0.070885 0.234172
Si Si6 0.329797 0.673151 0.688034
Si Si7 0.241627 0.856867 0.404615
O O1 0.486043 0.992069 0.733096
O O2 0.579629 0.041080 0.431157
O O3 0.720200 0.097751 0.716444
O O4 0.799244 0.963139 0.615708
O O5 0.595926 0.819306 0.810859
O O6 0.929756 0.842984 0.751703
O O7 0.731458 0.806159 0.495480
O O8 0.814287 0.706703 0.726440
O O9 0.322185 0.742057 0.823972
O O10 0.331131 0.840905 0.595702
O O11 0.310863 0.898967 0.902366
O O12 0.273404 0.939896 0.351605
O O13 0.365683 0.042368 0.167892
O O14 0.532463 0.660094 0.621610
#
# Coordination Sequence:
#
# PCOD9313672 Si02
#       7
#     4   4   4   4   4   4   4
#     4  11  25  44  66  99 135 168 225 275 335 402
#     4  10  20  39  67  95 131 170 225 277 328 396
#     4  10  19  38  63  94 129 175 223 272 324 396
#     4  11  23  41  65  94 133 172 223 271 326 390
#     4  12  25  42  69  96 133 178 215 277 336 395
#     4   9  20  39  66  94 128 171 224 278 326 395
#     4   9  20  37  64  92 129 174 225 270 323 396
#
# _framework density 26.759820000000001
#
# number of rings (size 3 to 8) (size 9 to 14) (size 15 to 20)
#    0.000    1.714    1.429    2.571    2.000    4.571 
#    0.000    5.714    0.000    0.000    0.000    0.000 
#    0.000    0.000    0.000    0.000    0.000    0.000 
#
# Total GULP energy -156510.373314 kJ/mol
# GULP energy per Si atom -5589.656190 kJ/mol
# Density = 2.669891 g / cm^3
# Si number density = 26.759820 Si / 1000 Ang^3
#
#
#
# Elastic Constant Matrix: (Units=GPa)
#
#
# Indices 1 2 3 4 5 6 
#
# 1 81.0757 57.4500 -7.6861 0.0000 0.0000 0.0000
# 2 57.4500 220.0769 28.7811 0.0000 0.0000 0.0000
# 3 -7.6861 28.7811 25.1700 0.0000 0.0000 0.0000
# 4 0.0000 0.0000 0.0000 34.7359 0.0000 0.0000
# 5 0.0000 0.0000 0.0000 0.0000 19.0795 0.0000
# 6 0.0000 0.0000 0.0000 0.0000 0.0000 38.3915
#
#
#
# Elastic Compliance Matrix: (Units=1/GPa)
#
#
# Indices 1 2 3 4 5 6 
#
# 1 0.018088 -0.006401 0.012843 0.000000 0.000000 0.000000
# 2 -0.006401 0.007608 -0.010655 0.000000 0.000000 0.000000
# 3 0.012843 -0.010655 0.055835 0.000000 0.000000 0.000000
# 4 0.000000 0.000000 0.000000 0.028789 0.000000 0.000000
# 5 0.000000 0.000000 0.000000 0.000000 0.052412 0.000000
# 6 0.000000 0.000000 0.000000 0.000000 0.000000 0.026047
#
#
# Mechanical properties :
#
#
# Convention : Reuss Voigt Hill
#
# Bulk Modulus (GPa) = 13.67897 53.71251 33.69574
# Shear Modulus (GPa) = 22.56595 34.95987 28.76291
#
# Velocity S-wave (km/s) = 2.90707 3.61838 3.28205
# Velocity P-wave (km/s) = 4.04858 6.12965 5.19440
#
# Compressibility (1/GPa) = 0.07310490
#
# Stress axis : x y z
#
# Youngs Moduli (GPa) = 55.28652 131.43625 17.91002
#
# Poissons Ratio (x) = 0.84136 -0.23002
# Poissons Ratio (y) = 0.35390 0.19082
# Poissons Ratio (z) = -0.71004 1.40039
#
# Static dielectric constant tensor:
#      x y z
#    x 2.212100 0.000000 0.000000 
#    y 0.000000 2.115150 0.000000 
#    z 0.000000 0.000000 2.156760 
# 
# From -- ./inp_files/2971.got.cif
#   From: 2010.05.17/outbox.cif.g08.bks.cpg/sg19_2_cif.got.tgz:2971.got - 2010.06.03 22:46:19.
