data_PCOD9313316
_publ_section_title
;
Structure prediction by ZEFSAII (Michael W. Deem and Ramdas Pophale) SiO2 
 PCOD9313316
Probable space group: P 21 21 21
;
_chemical_formula_sum "Si O2"
_cell_formula_units_Z 32
_cell_length_a 18.935194
_cell_length_b 7.759499
_cell_length_c 8.969426
_cell_angle_alpha 90.000000
_cell_angle_beta 90.000000
_cell_angle_gamma 90.000000
_cell_volume 1317.856405
_symmetry_space_group_name_H-M "P 21 21 21"
_symmetry_group_IT_number 19
_symmetry_cell_setting 'orthorhombic'
loop_
_space_group_symop_operation_xyz
x,y,z
1/2-x,-y,1/2+z
1/2+x,1/2-y,-z
-x,1/2+y,1/2-z
loop_
_atom_site_type_symbol
_atom_site_label
_atom_site_fract_x
_atom_site_fract_y
_atom_site_fract_z
Si Si1 0.060328 0.773406 0.144230
Si Si2 0.749389 0.426889 0.962704
Si Si3 0.483323 0.084916 0.250695
Si Si4 0.092952 0.273747 0.297493
Si Si5 0.744179 0.243355 0.645250
Si Si6 0.101568 0.590596 0.879561
Si Si7 0.399595 0.888719 0.489725
Si Si8 0.401700 0.107615 0.941923
O O1 0.072255 0.758015 0.319387
O O2 0.979461 0.839243 0.130541
O O3 0.083171 0.603800 0.055313
O O4 0.106575 0.927492 0.076763
O O5 0.755422 0.629801 0.002292
O O6 0.681599 0.354880 0.052361
O O7 0.822363 0.346659 0.015955
O O8 0.743121 0.370540 0.790321
O O9 0.449475 0.251909 0.327283
O O10 0.566517 0.063566 0.214671
O O11 0.452897 0.931732 0.357027
O O12 0.446837 0.085513 0.089779
O O13 0.168834 0.353106 0.339652
O O14 0.096728 0.079470 0.364540
O O15 0.082771 0.244345 0.120370
O O16 0.816405 0.133031 0.646776
#
# Coordination Sequence:
#
# PCOD9313316 Si02
#       8
#     4   4   4   4   4   4   4   4
#     4  10  19  34  49  79 114 145 184 231 286 348
#     4  10  16  31  50  82 111 133 185 240 294 318
#     4  11  21  36  56  86 113 152 184 242 285 349
#     4   9  19  32  51  78 107 148 183 229 285 341
#     4  10  19  31  53  80 112 142 184 250 282 332
#     4  11  22  38  55  87 120 145 194 240 295 337
#     4   9  19  32  52  81 113 138 181 244 283 331
#     4  10  19  30  54  79 108 145 183 230 288 338
#
# _framework density 24.281856999999999
#
# number of rings (size 3 to 8) (size 9 to 14) (size 15 to 20)
#    0.000    2.000    5.000    0.750    1.750    0.000 
#    0.000    0.000    0.000    3.000   13.000    0.000 
#    0.000    0.000    0.000    0.000    0.000    0.000 
#
# Total GULP energy -178554.519130 kJ/mol
# GULP energy per Si atom -5579.828723 kJ/mol
# Density = 2.422659 g / cm^3
# Si number density = 24.281857 Si / 1000 Ang^3
#
#
#
# Elastic Constant Matrix: (Units=GPa)
#
#
# Indices 1 2 3 4 5 6 
#
# 1 132.2350 -22.1222 33.2507 0.0000 0.0000 0.0000
# 2 -22.1222 55.1256 6.8463 0.0000 0.0000 0.0000
# 3 33.2507 6.8463 103.5540 0.0000 0.0000 0.0000
# 4 0.0000 0.0000 0.0000 0.9963 0.0000 0.0000
# 5 0.0000 0.0000 0.0000 0.0000 37.3905 0.0000
# 6 0.0000 0.0000 0.0000 0.0000 0.0000 24.5022
#
#
#
# Elastic Compliance Matrix: (Units=1/GPa)
#
#
# Indices 1 2 3 4 5 6 
#
# 1 0.009030 0.004017 -0.003165 0.000000 0.000000 0.000000
# 2 0.004017 0.020077 -0.002617 0.000000 0.000000 0.000000
# 3 -0.003165 -0.002617 0.010846 0.000000 0.000000 0.000000
# 4 0.000000 0.000000 0.000000 1.003739 0.000000 0.000000
# 5 0.000000 0.000000 0.000000 0.000000 0.026745 0.000000
# 6 0.000000 0.000000 0.000000 0.000000 0.000000 0.040813
#
#
# Mechanical properties :
#
#
# Convention : Reuss Voigt Hill
#
# Bulk Modulus (GPa) = 27.45519 36.31825 31.88672
# Shear Modulus (GPa) = 4.43687 30.77379 17.60533
#
# Velocity S-wave (km/s) = 1.35322 3.56386 2.69558
# Velocity P-wave (km/s) = 3.71120 5.65015 4.78002
#
# Compressibility (1/GPa) = 0.03642299
#
# Stress axis : x y z
#
# Youngs Moduli (GPa) = 110.73972 49.80714 92.19872
#
# Poissons Ratio (x) = -0.20007 0.29182
# Poissons Ratio (y) = -0.44484 0.24130
# Poissons Ratio (z) = 0.35050 0.13036
#
# Static dielectric constant tensor:
#      x y z
#    x 1.984490 0.000000 0.000000 
#    y 0.000000 2.020660 0.000000 
#    z 0.000000 0.000000 1.984090 
# 
# From -- ./inp_files/4244.got.cif
#   From: 2010.05.17/outbox.cif.g08.bks.cpg/sg19_3_cif.got.tgz:4244.got - 2010.06.03 22:46:19.
