data_PCOD9313748
_publ_section_title
;
Structure prediction by ZEFSAII (Michael W. Deem and Ramdas Pophale) SiO2 
 PCOD9313748
Probable space group: P 21 21 21
;
_chemical_formula_sum "Si O2"
_cell_formula_units_Z 24
_cell_length_a 9.245802
_cell_length_b 6.767539
_cell_length_c 16.142681
_cell_angle_alpha 90.000000
_cell_angle_beta 90.000000
_cell_angle_gamma 90.000000
_cell_volume 1010.068949
_symmetry_space_group_name_H-M "P 21 21 21"
_symmetry_group_IT_number 19
_symmetry_cell_setting 'orthorhombic'
loop_
_space_group_symop_operation_xyz
x,y,z
1/2-x,-y,1/2+z
1/2+x,1/2-y,-z
-x,1/2+y,1/2-z
loop_
_atom_site_type_symbol
_atom_site_label
_atom_site_fract_x
_atom_site_fract_y
_atom_site_fract_z
Si Si1 0.563972 0.499498 0.993544
Si Si2 0.501879 0.091634 0.902265
Si Si3 0.672568 0.922886 0.390510
Si Si4 0.017348 0.474363 0.777800
Si Si5 0.138942 0.043801 0.563917
Si Si6 0.206041 0.102761 0.830654
O O1 0.411753 0.554737 0.039804
O O2 0.653173 0.430915 0.075322
O O3 0.518207 0.315136 0.936680
O O4 0.693477 0.612172 0.944846
O O5 0.661300 0.029013 0.878152
O O6 0.378085 0.093912 0.833277
O O7 0.448220 0.953286 0.977918
O O8 0.657222 0.695464 0.419672
O O9 0.596140 0.937066 0.302411
O O10 0.132265 0.310603 0.806433
O O11 0.964289 0.598300 0.858178
O O12 0.860825 0.443493 0.732484
#
# Coordination Sequence:
#
# PCOD9313748 Si02
#       6
#     4   4   4   4   4   4
#     4   8  15  30  54  78  93 130 187 219 245 296
#     4   9  16  32  51  80  98 134 187 220 247 304
#     4   9  17  30  50  78 107 129 170 228 263 303
#     4  11  18  34  49  82 107 143 169 219 278 306
#     4   9  16  30  54  75  96 137 181 218 247 306
#     4  10  20  32  54  79 105 141 170 222 268 317
#
# _framework density 23.760755
#
# number of rings (size 3 to 8) (size 9 to 14) (size 15 to 20)
#    0.000    2.667    5.000    1.000    0.000    0.000 
#    6.000    0.000    0.000    6.000    0.000    0.000 
#    0.000    0.000    0.000    0.000    0.000    0.000 
#
# Total GULP energy -133609.323895 kJ/mol
# GULP energy per Si atom -5567.055162 kJ/mol
# Density = 2.370667 g / cm^3
# Si number density = 23.760755 Si / 1000 Ang^3
#
#
#
# Elastic Constant Matrix: (Units=GPa)
#
#
# Indices 1 2 3 4 5 6 
#
# 1 231.4522 9.0197 57.3230 0.0000 0.0000 0.0000
# 2 9.0197 34.4284 11.3127 0.0000 0.0000 0.0000
# 3 57.3230 11.3127 87.3924 0.0000 0.0000 0.0000
# 4 0.0000 0.0000 0.0000 26.4658 0.0000 0.0000
# 5 0.0000 0.0000 0.0000 0.0000 36.7792 0.0000
# 6 0.0000 0.0000 0.0000 0.0000 0.0000 24.4545
#
#
#
# Elastic Compliance Matrix: (Units=1/GPa)
#
#
# Indices 1 2 3 4 5 6 
#
# 1 0.005161 -0.000250 -0.003353 0.000000 0.000000 0.000000
# 2 -0.000250 0.030348 -0.003764 0.000000 0.000000 0.000000
# 3 -0.003353 -0.003764 0.014129 0.000000 0.000000 0.000000
# 4 0.000000 0.000000 0.000000 0.037785 0.000000 0.000000
# 5 0.000000 0.000000 0.000000 0.000000 0.027189 0.000000
# 6 0.000000 0.000000 0.000000 0.000000 0.000000 0.040892
#
#
# Mechanical properties :
#
#
# Convention : Reuss Voigt Hill
#
# Bulk Modulus (GPa) = 28.65048 56.50931 42.57990
# Shear Modulus (GPa) = 27.49170 35.91439 31.70304
#
# Velocity S-wave (km/s) = 3.40519 3.89202 3.65672
# Velocity P-wave (km/s) = 5.24829 6.63561 5.98230
#
# Compressibility (1/GPa) = 0.03490343
#
# Stress axis : x y z
#
# Youngs Moduli (GPa) = 193.77491 32.95078 70.77657
#
# Poissons Ratio (x) = 0.00825 0.23728
# Poissons Ratio (y) = 0.04852 0.26642
# Poissons Ratio (z) = 0.64965 0.12404
#
# Static dielectric constant tensor:
#      x y z
#    x 1.973810 0.000000 0.000000 
#    y 0.000000 2.133280 0.000000 
#    z 0.000000 0.000000 1.903240 
# 
# From -- ./inp_files/5853.got.cif
#   From: 2010.05.17/outbox.cif.g08.bks.cpg/sg19_3_cif.got.tgz:5853.got - 2010.06.03 22:46:19.
