data_PCOD9313992
_publ_section_title
;
Structure prediction by ZEFSAII (Michael W. Deem and Ramdas Pophale) SiO2 
 PCOD9313992
Probable space group: P 21 21 21
;
_chemical_formula_sum "Si O2"
_cell_formula_units_Z 28
_cell_length_a 19.075183
_cell_length_b 10.890104
_cell_length_c 5.404502
_cell_angle_alpha 90.000000
_cell_angle_beta 90.000000
_cell_angle_gamma 90.000000
_cell_volume 1122.681128
_symmetry_space_group_name_H-M "P 21 21 21"
_symmetry_group_IT_number 19
_symmetry_cell_setting 'orthorhombic'
loop_
_space_group_symop_operation_xyz
x,y,z
1/2-x,-y,1/2+z
1/2+x,1/2-y,-z
-x,1/2+y,1/2-z
loop_
_atom_site_type_symbol
_atom_site_label
_atom_site_fract_x
_atom_site_fract_y
_atom_site_fract_z
Si Si1 0.674364 0.916591 0.112470
Si Si2 0.086705 0.955419 0.599952
Si Si3 0.858123 0.674532 0.218549
Si Si4 0.778966 0.296811 0.977799
Si Si5 0.519972 0.222237 0.976110
Si Si6 0.193401 0.355197 0.651717
Si Si7 0.558552 0.736366 0.033748
O O1 0.696842 0.826893 0.337196
O O2 0.619603 0.831247 0.973368
O O3 0.648275 0.050435 0.189463
O O4 0.742347 0.936320 0.946685
O O5 0.149750 0.871179 0.483902
O O6 0.086347 0.900797 0.883599
O O7 0.007798 0.917635 0.519222
O O8 0.107454 0.083625 0.480092
O O9 0.779605 0.636618 0.304992
O O10 0.905649 0.710385 0.454427
O O11 0.848802 0.802749 0.075578
O O12 0.733611 0.255189 0.212209
O O13 0.490936 0.239413 0.699732
O O14 0.478876 0.280242 0.210868
#
# Coordination Sequence:
#
# PCOD9313992 Si02
#       7
#     4   4   4   4   4   4   4
#     4  10  20  39  64  96 128 179 224 288 346 416
#     4   9  23  45  69  98 143 188 227 295 358 424
#     4  11  26  41  66 109 134 187 241 295 351 433
#     4  10  22  42  64  99 137 180 234 287 358 412
#     4  10  23  47  67  99 139 182 237 281 353 422
#     4  11  22  36  65  96 139 169 235 287 348 410
#     4   9  22  44  71  93 130 185 228 275 356 417
#
# _framework density 24.940297999999999
#
# number of rings (size 3 to 8) (size 9 to 14) (size 15 to 20)
#    0.857    1.143    1.429    0.857    4.000    2.286 
#    5.143    0.000    0.000    0.000    0.000    0.000 
#    0.000    0.000    0.000    0.000    0.000    0.000 
#
# Total GULP energy -156063.129266 kJ/mol
# GULP energy per Si atom -5573.683188 kJ/mol
# Density = 2.488353 g / cm^3
# Si number density = 24.940298 Si / 1000 Ang^3
#
#
#
# Elastic Constant Matrix: (Units=GPa)
#
#
# Indices 1 2 3 4 5 6 
#
# 1 93.1601 10.9279 10.2790 0.0000 0.0000 0.0000
# 2 10.9279 42.4394 2.1114 0.0000 0.0000 0.0000
# 3 10.2790 2.1114 66.8930 0.0000 0.0000 0.0000
# 4 0.0000 0.0000 0.0000 16.7922 0.0000 0.0000
# 5 0.0000 0.0000 0.0000 0.0000 38.6317 0.0000
# 6 0.0000 0.0000 0.0000 0.0000 0.0000 20.8328
#
#
#
# Elastic Compliance Matrix: (Units=1/GPa)
#
#
# Indices 1 2 3 4 5 6 
#
# 1 0.011245 -0.002814 -0.001639 0.000000 0.000000 0.000000
# 2 -0.002814 0.024304 -0.000335 0.000000 0.000000 0.000000
# 3 -0.001639 -0.000335 0.015212 0.000000 0.000000 0.000000
# 4 0.000000 0.000000 0.000000 0.059551 0.000000 0.000000
# 5 0.000000 0.000000 0.000000 0.000000 0.025885 0.000000
# 6 0.000000 0.000000 0.000000 0.000000 0.000000 0.048001
#
#
# Mechanical properties :
#
#
# Convention : Reuss Voigt Hill
#
# Bulk Modulus (GPa) = 24.28051 27.68103 25.98077
# Shear Modulus (GPa) = 24.09600 27.19630 25.64615
#
# Velocity S-wave (km/s) = 3.11166 3.30579 3.21019
# Velocity P-wave (km/s) = 4.76094 5.06892 4.91734
#
# Compressibility (1/GPa) = 0.04118530
#
# Stress axis : x y z
#
# Youngs Moduli (GPa) = 88.92718 41.14509 65.73890
#
# Poissons Ratio (x) = 0.11578 0.10776
# Poissons Ratio (y) = 0.25024 0.02200
# Poissons Ratio (z) = 0.14577 0.01377
#
# Static dielectric constant tensor:
#      x y z
#    x 2.051650 0.000000 0.000000 
#    y 0.000000 1.984080 0.000000 
#    z 0.000000 0.000000 1.978760 
# 
# From -- ./inp_files/1949.got.cif
#   From: 2010.05.17/outbox.cif.g08.bks.cpg/sg19_1_cif.got.tgz:1949.got - 2010.06.03 22:46:19.
