data_PCOD9313949
_publ_section_title
;
Structure prediction by ZEFSAII (Michael W. Deem and Ramdas Pophale) SiO2 
 PCOD9313949
Probable space group: P 21 21 21
;
_chemical_formula_sum "Si O2"
_cell_formula_units_Z 32
_cell_length_a 13.918059
_cell_length_b 5.130216
_cell_length_c 17.484244
_cell_angle_alpha 90.000000
_cell_angle_beta 90.000000
_cell_angle_gamma 90.000000
_cell_volume 1248.421337
_symmetry_space_group_name_H-M "P 21 21 21"
_symmetry_group_IT_number 19
_symmetry_cell_setting 'orthorhombic'
loop_
_space_group_symop_operation_xyz
x,y,z
1/2-x,-y,1/2+z
1/2+x,1/2-y,-z
-x,1/2+y,1/2-z
loop_
_atom_site_type_symbol
_atom_site_label
_atom_site_fract_x
_atom_site_fract_y
_atom_site_fract_z
Si Si1 0.550393 0.061112 0.226877
Si Si2 0.983892 0.663196 0.197434
Si Si3 0.804366 0.222202 0.807309
Si Si4 0.940304 0.171368 0.556429
Si Si5 0.672615 0.864955 0.860538
Si Si6 0.657896 0.439387 0.442652
Si Si7 0.214035 0.911114 0.301517
Si Si8 0.687298 0.304411 0.048411
O O1 0.481755 0.857347 0.271589
O O2 0.643001 0.037367 0.281161
O O3 0.560045 0.932390 0.144186
O O4 0.880077 0.565928 0.169814
O O5 0.018758 0.435100 0.256519
O O6 0.060145 0.679938 0.127824
O O7 0.863421 0.379198 0.869203
O O8 0.786916 0.375387 0.730360
O O9 0.701855 0.163869 0.845973
O O10 0.885471 0.447578 0.549618
O O11 0.873032 0.944164 0.518863
O O12 0.054167 0.176373 0.534282
O O13 0.757205 0.754264 0.913582
O O14 0.682142 0.736271 0.775439
O O15 0.716814 0.616192 0.502142
O O16 0.267982 0.754974 0.367228
#
# Coordination Sequence:
#
# PCOD9313949 Si02
#       8
#     4   4   4   4   4   4   4   4
#     4  12  23  39  71 111 137 178 225 299 369 416
#     4  10  20  38  64 100 137 178 228 286 344 409
#     4  11  21  39  71  99 140 176 230 300 357 413
#     4  12  27  49  74 104 147 188 244 296 364 443
#     4  10  22  41  70 100 139 182 239 299 354 419
#     4  11  28  47  71 104 142 192 240 299 357 445
#     4  10  22  41  65 104 137 184 234 294 355 424
#     4  12  29  48  70 102 147 190 238 291 366 439
#
# _framework density 25.632375
#
# number of rings (size 3 to 8) (size 9 to 14) (size 15 to 20)
#    0.000    1.000    3.750    2.250    5.250    1.000 
#    0.000    0.000    0.000    0.000    0.000    0.000 
#    0.000    0.000    0.000    0.000    0.000    0.000 
#
# Total GULP energy -178881.715738 kJ/mol
# GULP energy per Si atom -5590.053617 kJ/mol
# Density = 2.557403 g / cm^3
# Si number density = 25.632375 Si / 1000 Ang^3
#
#
#
# Elastic Constant Matrix: (Units=GPa)
#
#
# Indices 1 2 3 4 5 6 
#
# 1 154.7694 45.5947 42.1491 0.0000 0.0000 0.0000
# 2 45.5947 93.1825 4.6504 0.0000 0.0000 0.0000
# 3 42.1491 4.6504 60.1744 0.0000 0.0000 0.0000
# 4 0.0000 0.0000 0.0000 29.7875 0.0000 0.0000
# 5 0.0000 0.0000 0.0000 0.0000 42.2203 0.0000
# 6 0.0000 0.0000 0.0000 0.0000 0.0000 51.8896
#
#
#
# Elastic Compliance Matrix: (Units=1/GPa)
#
#
# Indices 1 2 3 4 5 6 
#
# 1 0.009440 -0.004306 -0.006279 0.000000 0.000000 0.000000
# 2 -0.004306 0.012737 0.002031 0.000000 0.000000 0.000000
# 3 -0.006279 0.002031 0.020860 0.000000 0.000000 0.000000
# 4 0.000000 0.000000 0.000000 0.033571 0.000000 0.000000
# 5 0.000000 0.000000 0.000000 0.000000 0.023685 0.000000
# 6 0.000000 0.000000 0.000000 0.000000 0.000000 0.019272
#
#
# Mechanical properties :
#
#
# Convention : Reuss Voigt Hill
#
# Bulk Modulus (GPa) = 38.56587 54.76831 46.66709
# Shear Modulus (GPa) = 34.40816 39.16162 36.78489
#
# Velocity S-wave (km/s) = 3.66781 3.91297 3.79237
# Velocity P-wave (km/s) = 5.74592 6.46749 6.11735
#
# Compressibility (1/GPa) = 0.02592967
#
# Stress axis : x y z
#
# Youngs Moduli (GPa) = 105.93569 78.51169 47.93931
#
# Poissons Ratio (x) = 0.33803 0.30103
# Poissons Ratio (y) = 0.45611 -0.09739
# Poissons Ratio (z) = 0.66520 -0.15949
#
# Static dielectric constant tensor:
#      x y z
#    x 2.124840 0.000000 0.000000 
#    y 0.000000 2.006780 0.000000 
#    z 0.000000 0.000000 2.077390 
# 
# From -- ./inp_files/6815.got.cif
#   From: 2010.05.17/outbox.cif.g08.bks.cpg/sg19_4_cif.got.tgz:6815.got - 2010.06.03 22:46:19.
