data_PCOD9313841
_publ_section_title
;
Structure prediction by ZEFSAII (Michael W. Deem and Ramdas Pophale) SiO2 
 PCOD9313841
Probable space group: P 21 21 21
;
_chemical_formula_sum "Si O2"
_cell_formula_units_Z 32
_cell_length_a 7.420595
_cell_length_b 5.401838
_cell_length_c 32.220705
_cell_angle_alpha 90.000000
_cell_angle_beta 90.000000
_cell_angle_gamma 90.000000
_cell_volume 1291.562193
_symmetry_space_group_name_H-M "P 21 21 21"
_symmetry_group_IT_number 19
_symmetry_cell_setting 'orthorhombic'
loop_
_space_group_symop_operation_xyz
x,y,z
1/2-x,-y,1/2+z
1/2+x,1/2-y,-z
-x,1/2+y,1/2-z
loop_
_atom_site_type_symbol
_atom_site_label
_atom_site_fract_x
_atom_site_fract_y
_atom_site_fract_z
Si Si1 0.587239 0.896439 0.400507
Si Si2 0.964045 0.864947 0.438389
Si Si3 0.759999 0.415863 0.261265
Si Si4 0.810142 0.919723 0.216677
Si Si5 0.764582 0.778827 0.041880
Si Si6 0.008697 0.564436 0.513741
Si Si7 0.081635 0.484656 0.375479
Si Si8 0.661430 0.389039 0.355362
O O1 0.595293 0.654290 0.372186
O O2 0.778782 0.967730 0.421436
O O3 0.490496 0.793977 0.442833
O O4 0.558348 0.146553 0.373459
O O5 0.911880 0.650686 0.471484
O O6 0.057686 0.754111 0.396854
O O7 0.100809 0.042211 0.462490
O O8 0.729423 0.664739 0.234560
O O9 0.662048 0.402487 0.305526
O O10 0.976352 0.417707 0.270945
O O11 0.724108 0.162774 0.236895
O O12 0.814454 0.957139 0.167347
O O13 0.568063 0.689894 0.032082
O O14 0.811564 0.848105 0.088393
O O15 0.807352 0.988419 0.008648
O O16 0.876487 0.387702 0.368252
#
# Coordination Sequence:
#
# PCOD9313841 Si02
#       8
#     4   4   4   4   4   4   4   4
#     4  11  22  38  59  85 116 160 198 244 295 355
#     4  10  21  37  57  81 118 158 203 245 302 348
#     4   9  17  29  50  82 116 156 180 242 287 362
#     4   9  17  28  50  81 121 147 192 226 304 349
#     4  11  22  40  58  81 122 153 209 246 303 349
#     4  11  25  37  59  86 114 165 203 252 296 357
#     4   9  20  33  53  86 116 161 188 250 294 359
#     4  10  20  36  58  84 123 154 199 239 303 351
#
# _framework density 24.776195999999999
#
# number of rings (size 3 to 8) (size 9 to 14) (size 15 to 20)
#    0.000    2.000    1.250    2.250    7.000    4.000 
#    0.000    0.000    0.000    0.000    0.000    3.500 
#    0.000    0.000    0.000    0.000    0.000    0.000 
#
# Total GULP energy -178519.235314 kJ/mol
# GULP energy per Si atom -5578.726104 kJ/mol
# Density = 2.471980 g / cm^3
# Si number density = 24.776196 Si / 1000 Ang^3
#
#
#
# Elastic Constant Matrix: (Units=GPa)
#
#
# Indices 1 2 3 4 5 6 
#
# 1 31.9277 4.2637 5.3863 0.0000 0.0000 0.0000
# 2 4.2637 124.0084 62.9199 0.0000 0.0000 0.0000
# 3 5.3863 62.9199 143.4280 0.0000 0.0000 0.0000
# 4 0.0000 0.0000 0.0000 33.3296 0.0000 0.0000
# 5 0.0000 0.0000 0.0000 0.0000 28.4175 0.0000
# 6 0.0000 0.0000 0.0000 0.0000 0.0000 16.6851
#
#
#
# Elastic Compliance Matrix: (Units=1/GPa)
#
#
# Indices 1 2 3 4 5 6 
#
# 1 0.031558 -0.000622 -0.000912 0.000000 0.000000 0.000000
# 2 -0.000622 0.010385 -0.004532 0.000000 0.000000 0.000000
# 3 -0.000912 -0.004532 0.008995 0.000000 0.000000 0.000000
# 4 0.000000 0.000000 0.000000 0.030003 0.000000 0.000000
# 5 0.000000 0.000000 0.000000 0.000000 0.035190 0.000000
# 6 0.000000 0.000000 0.000000 0.000000 0.000000 0.059934
#
#
# Mechanical properties :
#
#
# Convention : Reuss Voigt Hill
#
# Bulk Modulus (GPa) = 25.77063 49.38933 37.57998
# Shear Modulus (GPa) = 24.85927 30.80607 27.83267
#
# Velocity S-wave (km/s) = 3.17101 3.52998 3.35530
# Velocity P-wave (km/s) = 4.88170 6.04911 5.49649
#
# Compressibility (1/GPa) = 0.03880386
#
# Stress axis : x y z
#
# Youngs Moduli (GPa) = 31.68799 96.29243 111.17665
#
# Poissons Ratio (x) = 0.05991 0.10141
# Poissons Ratio (y) = 0.01972 0.50390
# Poissons Ratio (z) = 0.02890 0.43644
#
# Static dielectric constant tensor:
#      x y z
#    x 2.103120 0.000000 0.000000 
#    y 0.000000 2.062170 0.000000 
#    z 0.000000 0.000000 1.905780 
# 
# From -- ./inp_files/2326.got.cif
#   From: 2010.05.17/outbox.cif.g08.bks.cpg/sg19_2_cif.got.tgz:2326.got - 2010.06.03 22:46:19.
