data_PCOD9313814
_publ_section_title
;
Structure prediction by ZEFSAII (Michael W. Deem and Ramdas Pophale) SiO2 
 PCOD9313814
Probable space group: P 21 21 21
;
_chemical_formula_sum "Si O2"
_cell_formula_units_Z 28
_cell_length_a 15.867001
_cell_length_b 8.719525
_cell_length_c 8.144530
_cell_angle_alpha 90.000000
_cell_angle_beta 90.000000
_cell_angle_gamma 90.000000
_cell_volume 1126.817813
_symmetry_space_group_name_H-M "P 21 21 21"
_symmetry_group_IT_number 19
_symmetry_cell_setting 'orthorhombic'
loop_
_space_group_symop_operation_xyz
x,y,z
1/2-x,-y,1/2+z
1/2+x,1/2-y,-z
-x,1/2+y,1/2-z
loop_
_atom_site_type_symbol
_atom_site_label
_atom_site_fract_x
_atom_site_fract_y
_atom_site_fract_z
Si Si1 0.622173 0.539460 0.679677
Si Si2 0.177724 0.058779 0.833320
Si Si3 0.761132 0.931738 0.104702
Si Si4 0.510374 0.028955 0.057867
Si Si5 0.640676 0.138618 0.305795
Si Si6 0.872026 0.756331 0.350246
Si Si7 0.605941 0.730763 0.004802
O O1 0.723158 0.527944 0.678023
O O2 0.581997 0.575942 0.503724
O O3 0.588640 0.371067 0.730626
O O4 0.597428 0.656471 0.824881
O O5 0.150553 0.177896 0.691546
O O6 0.159444 0.155592 0.997786
O O7 0.125390 0.904691 0.865546
O O8 0.838352 0.943194 0.977517
O O9 0.690686 0.833515 0.010203
O O10 0.795835 0.838062 0.258611
O O11 0.712978 0.076902 0.179111
O O12 0.565887 0.114456 0.916861
O O13 0.532776 0.848929 0.052003
O O14 0.552397 0.089798 0.225526
#
# Coordination Sequence:
#
# PCOD9313814 Si02
#       7
#     4   4   4   4   4   4   4
#     4  11  20  37  64  91 126 162 208 266 308 369
#     4  10  20  36  60  94 116 161 217 260 299 361
#     4  11  19  38  62  92 118 163 212 256 302 367
#     4  10  22  39  61  90 129 165 202 257 320 375
#     4  10  21  36  63  89 124 157 209 251 311 373
#     4  10  22  37  62  92 123 167 216 254 303 384
#     4  10  20  35  62  90 120 163 206 256 303 367
#
# _framework density 24.848735000000001
#
# number of rings (size 3 to 8) (size 9 to 14) (size 15 to 20)
#    0.000    1.714    2.857    3.429    0.000    0.000 
#    0.000    0.000   12.571    0.000    0.000    0.000 
#    0.000    0.000    0.000    0.000    0.000    0.000 
#
# Total GULP energy -156675.636477 kJ/mol
# GULP energy per Si atom -5595.558446 kJ/mol
# Density = 2.479218 g / cm^3
# Si number density = 24.848735 Si / 1000 Ang^3
#
#
#
# Elastic Constant Matrix: (Units=GPa)
#
#
# Indices 1 2 3 4 5 6 
#
# 1 94.8028 30.6259 28.6673 0.0000 0.0000 0.0000
# 2 30.6259 127.6654 22.2129 0.0000 0.0000 0.0000
# 3 28.6673 22.2129 61.8062 0.0000 0.0000 0.0000
# 4 0.0000 0.0000 0.0000 14.8986 0.0000 0.0000
# 5 0.0000 0.0000 0.0000 0.0000 45.7711 0.0000
# 6 0.0000 0.0000 0.0000 0.0000 0.0000 15.1171
#
#
#
# Elastic Compliance Matrix: (Units=1/GPa)
#
#
# Indices 1 2 3 4 5 6 
#
# 1 0.012811 -0.002175 -0.005160 0.000000 0.000000 0.000000
# 2 -0.002175 0.008725 -0.002127 0.000000 0.000000 0.000000
# 3 -0.005160 -0.002127 0.019337 0.000000 0.000000 0.000000
# 4 0.000000 0.000000 0.000000 0.067121 0.000000 0.000000
# 5 0.000000 0.000000 0.000000 0.000000 0.021848 0.000000
# 6 0.000000 0.000000 0.000000 0.000000 0.000000 0.066150
#
#
# Mechanical properties :
#
#
# Convention : Reuss Voigt Hill
#
# Bulk Modulus (GPa) = 45.56082 49.69851 47.62967
# Shear Modulus (GPa) = 22.49883 28.67524 25.58703
#
# Velocity S-wave (km/s) = 3.01230 3.40073 3.21239
# Velocity P-wave (km/s) = 5.52030 5.95515 5.74184
#
# Compressibility (1/GPa) = 0.02194868
#
# Stress axis : x y z
#
# Youngs Moduli (GPa) = 78.05514 114.61482 51.71314
#
# Poissons Ratio (x) = 0.24934 0.26686
# Poissons Ratio (y) = 0.16981 0.10998
# Poissons Ratio (z) = 0.40280 0.24374
#
# Static dielectric constant tensor:
#      x y z
#    x 2.015530 0.000000 0.000000 
#    y 0.000000 1.972480 0.000000 
#    z 0.000000 0.000000 1.995480 
# 
# From -- ./inp_files/2949.got.cif
#   From: 2010.05.17/outbox.cif.g08.bks.cpg/sg19_2_cif.got.tgz:2949.got - 2010.06.03 22:46:19.
