data_PCOD9313315
_publ_section_title
;
Structure prediction by ZEFSAII (Michael W. Deem and Ramdas Pophale) SiO2 
 PCOD9313315
Probable space group: P 21 21 21
;
_chemical_formula_sum "Si O2"
_cell_formula_units_Z 24
_cell_length_a 24.152576
_cell_length_b 8.271357
_cell_length_c 5.189293
_cell_angle_alpha 90.000000
_cell_angle_beta 90.000000
_cell_angle_gamma 90.000000
_cell_volume 1036.688822
_symmetry_space_group_name_H-M "P 21 21 21"
_symmetry_group_IT_number 19
_symmetry_cell_setting 'orthorhombic'
loop_
_space_group_symop_operation_xyz
x,y,z
1/2-x,-y,1/2+z
1/2+x,1/2-y,-z
-x,1/2+y,1/2-z
loop_
_atom_site_type_symbol
_atom_site_label
_atom_site_fract_x
_atom_site_fract_y
_atom_site_fract_z
Si Si1 0.877706 0.636452 0.953797
Si Si2 0.546980 0.894395 0.533076
Si Si3 0.278629 0.071467 0.913237
Si Si4 0.206282 0.352502 0.812536
Si Si5 0.844520 0.960998 0.181772
Si Si6 0.491927 0.029773 0.049600
O O1 0.841384 0.489048 0.067071
O O2 0.840181 0.709215 0.723666
O O3 0.878263 0.789405 0.148291
O O4 0.937585 0.574723 0.880670
O O5 0.611239 0.903857 0.612005
O O6 0.514191 0.967175 0.776123
O O7 0.526221 0.714780 0.475022
O O8 0.536120 0.999710 0.276119
O O9 0.249281 0.033711 0.185869
O O10 0.262988 0.255210 0.849877
O O11 0.182998 0.460033 0.041489
O O12 0.201490 0.440020 0.539333
#
# Coordination Sequence:
#
# PCOD9313315 Si02
#       6
#     4   4   4   4   4   4
#     4   9  21  32  60  84 120 150 198 244 293 347
#     4  12  26  43  61  87 121 159 206 253 304 364
#     4  10  16  30  51  89 117 149 191 250 279 349
#     4   9  18  31  57  86 114 150 197 238 290 346
#     4  10  19  34  57  80 114 152 194 243 289 351
#     4  12  26  42  62  88 120 160 204 252 307 363
#
# _framework density 23.150632999999999
#
# number of rings (size 3 to 8) (size 9 to 14) (size 15 to 20)
#    1.000    0.667    1.667    4.000    4.667    0.000 
#    0.000    0.000    0.000    2.000    0.000    0.000 
#    0.000    0.000    0.000    0.000    0.000    0.000 
#
# Total GULP energy -134157.622456 kJ/mol
# GULP energy per Si atom -5589.900936 kJ/mol
# Density = 2.309794 g / cm^3
# Si number density = 23.150633 Si / 1000 Ang^3
#
#
#
# Elastic Constant Matrix: (Units=GPa)
#
#
# Indices 1 2 3 4 5 6 
#
# 1 60.2089 23.3309 -10.2314 0.0000 0.0000 0.0000
# 2 23.3309 107.0970 19.6381 0.0000 0.0000 0.0000
# 3 -10.2314 19.6381 80.5418 0.0000 0.0000 0.0000
# 4 0.0000 0.0000 0.0000 1.7913 0.0000 0.0000
# 5 0.0000 0.0000 0.0000 0.0000 7.2154 0.0000
# 6 0.0000 0.0000 0.0000 0.0000 0.0000 40.5274
#
#
#
# Elastic Compliance Matrix: (Units=1/GPa)
#
#
# Indices 1 2 3 4 5 6 
#
# 1 0.019088 -0.004818 0.003600 0.000000 0.000000 0.000000
# 2 -0.004818 0.010991 -0.003292 0.000000 0.000000 0.000000
# 3 0.003600 -0.003292 0.013676 0.000000 0.000000 0.000000
# 4 0.000000 0.000000 0.000000 0.558260 0.000000 0.000000
# 5 0.000000 0.000000 0.000000 0.000000 0.138593 0.000000
# 6 0.000000 0.000000 0.000000 0.000000 0.000000 0.024675
#
#
# Mechanical properties :
#
#
# Convention : Reuss Voigt Hill
#
# Bulk Modulus (GPa) = 28.79113 34.81365 31.80239
# Shear Modulus (GPa) = 6.36229 24.24747 15.30488
#
# Velocity S-wave (km/s) = 1.65957 3.23983 2.57398
# Velocity P-wave (km/s) = 4.01692 5.39128 4.75403
#
# Compressibility (1/GPa) = 0.03473291
#
# Stress axis : x y z
#
# Youngs Moduli (GPa) = 52.39002 90.98679 73.12177
#
# Poissons Ratio (x) = 0.43840 -0.26321
# Poissons Ratio (y) = 0.25243 0.24071
# Poissons Ratio (z) = -0.18858 0.29952
#
# Static dielectric constant tensor:
#      x y z
#    x 1.881270 0.000000 0.000000 
#    y 0.000000 1.909590 0.000000 
#    z 0.000000 0.000000 1.810680 
# 
# From -- ./inp_files/2235.got.cif
#   From: 2010.05.17/outbox.cif.g08.bks.cpg/sg19_2_cif.got.tgz:2235.got - 2010.06.03 22:46:19.
