data_PCOD9313011
_publ_section_title
;
Structure prediction by ZEFSAII (Michael W. Deem and Ramdas Pophale) SiO2 
 PCOD9313011
Probable space group: P 21 21 2
;
_chemical_formula_sum "Si O2"
_cell_formula_units_Z 14
_cell_length_a 5.319814
_cell_length_b 19.557911
_cell_length_c 4.881085
_cell_angle_alpha 90.000000
_cell_angle_beta 90.000000
_cell_angle_gamma 90.000000
_cell_volume 507.849798
_symmetry_space_group_name_H-M "P 21 21 2"
_symmetry_group_IT_number 18
_symmetry_cell_setting 'orthorhombic'
loop_
_space_group_symop_operation_xyz
x,y,z
-x,-y,z
1/2+x,1/2-y,-z
1/2-x,1/2+y,-z
loop_
_atom_site_type_symbol
_atom_site_label
_atom_site_fract_x
_atom_site_fract_y
_atom_site_fract_z
Si Si1 0.840701 0.595716 0.124496
Si Si2 0.500000 0.500000 0.455343
Si Si3 0.174195 0.617542 0.612490
Si Si4 0.132846 0.760813 0.850391
O O1 0.287646 0.470224 0.252982
O O2 0.085953 0.611995 0.302370
O O3 0.660434 0.659279 0.208311
O O4 0.944775 0.595472 0.815510
O O5 0.392034 0.561570 0.641114
O O6 0.228124 0.697264 0.667536
O O7 0.844048 0.744723 0.911377
#
# Coordination Sequence:
#
# PCOD9313011 Si02
#       4
#     4   2   4   4
#     4  11  29  51  79 118 160 211 273 332 411 487
#     4  12  30  50  84 116 168 216 262 350 406 502
#     4  11  29  51  79 118 160 211 273 332 411 487
#     4  10  26  52  84 118 156 212 274 338 400 484
#
# _framework density 27.567207
#
# number of rings (size 3 to 8) (size 9 to 14) (size 15 to 20)
#    0.000    1.143    0.000    0.857   20.000    9.143 
#    0.000    0.000    0.000    0.000    0.000    0.000 
#    0.000    0.000    0.000    0.000    0.000    0.000 
#
# Total GULP energy -78418.974767 kJ/mol
# GULP energy per Si atom -5601.355341 kJ/mol
# Density = 2.750446 g / cm^3
# Si number density = 27.567207 Si / 1000 Ang^3
#
#
#
# Elastic Constant Matrix: (Units=GPa)
#
#
# Indices 1 2 3 4 5 6 
#
# 1 88.4602 37.5325 27.3344 0.0000 0.0000 0.0000
# 2 37.5325 135.7214 34.3907 0.0000 0.0000 0.0000
# 3 27.3344 34.3907 66.4788 0.0000 0.0000 0.0000
# 4 0.0000 0.0000 0.0000 37.8949 0.0000 0.0000
# 5 0.0000 0.0000 0.0000 0.0000 32.6322 0.0000
# 6 0.0000 0.0000 0.0000 0.0000 0.0000 72.0569
#
#
#
# Elastic Compliance Matrix: (Units=1/GPa)
#
#
# Indices 1 2 3 4 5 6 
#
# 1 0.013778 -0.002733 -0.004251 0.000000 0.000000 0.000000
# 2 -0.002733 0.009022 -0.003543 0.000000 0.000000 0.000000
# 3 -0.004251 -0.003543 0.018623 0.000000 0.000000 0.000000
# 4 0.000000 0.000000 0.000000 0.026389 0.000000 0.000000
# 5 0.000000 0.000000 0.000000 0.000000 0.030645 0.000000
# 6 0.000000 0.000000 0.000000 0.000000 0.000000 0.013878
#
#
# Mechanical properties :
#
#
# Convention : Reuss Voigt Hill
#
# Bulk Modulus (GPa) = 49.09717 54.35283 51.72500
# Shear Modulus (GPa) = 35.66885 41.27699 38.47292
#
# Velocity S-wave (km/s) = 3.60097 3.87372 3.73983
# Velocity P-wave (km/s) = 5.92773 6.30610 6.11984
#
# Compressibility (1/GPa) = 0.02036777
#
# Stress axis : x y z
#
# Youngs Moduli (GPa) = 72.58113 110.84450 53.69566
#
# Poissons Ratio (x) = 0.30292 0.22828
# Poissons Ratio (y) = 0.19835 0.19026
# Poissons Ratio (z) = 0.30856 0.39277
#
# Static dielectric constant tensor:
#      x y z
#    x 2.143440 0.000000 0.000000 
#    y 0.000000 2.214770 0.000000 
#    z 0.000000 0.000000 2.117030 
# 
# From -- ./inp_files/136.got.cif
#   From: 2010.05.17/outbox.cif.g08.bks.cpg/sg18_1_cif.got.tgz:136.got - 2010.06.03 22:40:56.
