data_PCOD9313439
_publ_section_title
;
Structure prediction by ZEFSAII (Michael W. Deem and Ramdas Pophale) SiO2 
 PCOD9313439
Probable space group: P 21 21 21
;
_chemical_formula_sum "Si O2"
_cell_formula_units_Z 32
_cell_length_a 7.566165
_cell_length_b 11.432529
_cell_length_c 17.538970
_cell_angle_alpha 90.000000
_cell_angle_beta 90.000000
_cell_angle_gamma 90.000000
_cell_volume 1517.127934
_symmetry_space_group_name_H-M "P 21 21 21"
_symmetry_group_IT_number 19
_symmetry_cell_setting 'orthorhombic'
loop_
_space_group_symop_operation_xyz
x,y,z
1/2-x,-y,1/2+z
1/2+x,1/2-y,-z
-x,1/2+y,1/2-z
loop_
_atom_site_type_symbol
_atom_site_label
_atom_site_fract_x
_atom_site_fract_y
_atom_site_fract_z
Si Si1 0.797363 0.714160 0.429537
Si Si2 0.681652 0.324771 0.170538
Si Si3 0.176496 0.716511 0.738080
Si Si4 0.230973 0.014225 0.966710
Si Si5 0.400394 0.842979 0.854993
Si Si6 0.493718 0.539539 0.746731
Si Si7 0.295398 0.372570 0.937299
Si Si8 0.516891 0.087554 0.589083
O O1 0.729245 0.732789 0.344829
O O2 0.694878 0.611751 0.475488
O O3 0.776074 0.829381 0.481458
O O4 0.000824 0.673334 0.433221
O O5 0.634547 0.411173 0.099957
O O6 0.863914 0.377496 0.203732
O O7 0.704199 0.198505 0.131020
O O8 0.473116 0.819365 0.267942
O O9 0.227485 0.807084 0.804990
O O10 0.307738 0.606476 0.748955
O O11 0.365345 0.932462 0.922788
O O12 0.103004 0.933767 0.016110
O O13 0.467241 0.722269 0.889464
O O14 0.517988 0.915004 0.794693
O O15 0.558052 0.528593 0.833551
O O16 0.306100 0.511703 0.926807
#
# Coordination Sequence:
#
# PCOD9313439 Si02
#       8
#     4   4   4   4   4   4   4   4
#     4  10  18  34  66  93 120 163 211 269 319 365
#     4  10  21  41  65  97 123 158 221 273 313 372
#     4  11  21  40  68  97 124 164 220 271 316 371
#     4   9  20  40  58  88 131 164 206 262 318 383
#     4  10  22  42  58  92 133 170 214 259 320 398
#     4  10  22  42  67  88 130 171 213 264 322 379
#     4  10  19  36  63  95 127 158 212 271 322 373
#     4  10  21  39  63  88 132 174 209 263 322 391
#
# _framework density 21.092485
#
# number of rings (size 3 to 8) (size 9 to 14) (size 15 to 20)
#    0.000    2.000    1.250    3.750    1.750    0.000 
#   15.750    0.000    0.000    0.000    0.000    0.000 
#    0.000    0.000    0.000    0.000    0.000    0.000 
#
# Total GULP energy -178578.211484 kJ/mol
# GULP energy per Si atom -5580.569109 kJ/mol
# Density = 2.104448 g / cm^3
# Si number density = 21.092485 Si / 1000 Ang^3
#
#
#
# Elastic Constant Matrix: (Units=GPa)
#
#
# Indices 1 2 3 4 5 6 
#
# 1 37.2479 0.4459 -9.6051 0.0000 0.0000 0.0000
# 2 0.4459 85.6920 2.9284 0.0000 0.0000 0.0000
# 3 -9.6051 2.9284 69.1867 0.0000 0.0000 0.0000
# 4 0.0000 0.0000 0.0000 40.7772 0.0000 0.0000
# 5 0.0000 0.0000 0.0000 0.0000 22.9400 0.0000
# 6 0.0000 0.0000 0.0000 0.0000 0.0000 12.5764
#
#
#
# Elastic Compliance Matrix: (Units=1/GPa)
#
#
# Indices 1 2 3 4 5 6 
#
# 1 0.027851 -0.000277 0.003878 0.000000 0.000000 0.000000
# 2 -0.000277 0.011689 -0.000533 0.000000 0.000000 0.000000
# 3 0.003878 -0.000533 0.015015 0.000000 0.000000 0.000000
# 4 0.000000 0.000000 0.000000 0.024524 0.000000 0.000000
# 5 0.000000 0.000000 0.000000 0.000000 0.043592 0.000000
# 6 0.000000 0.000000 0.000000 0.000000 0.000000 0.079514
#
#
# Mechanical properties :
#
#
# Convention : Reuss Voigt Hill
#
# Bulk Modulus (GPa) = 16.47732 19.96276 18.22004
# Shear Modulus (GPa) = 23.11829 28.48254 25.80041
#
# Velocity S-wave (km/s) = 3.31425 3.67872 3.50123
# Velocity P-wave (km/s) = 4.74073 5.24680 5.00017
#
# Compressibility (1/GPa) = 0.06068949
#
# Stress axis : x y z
#
# Youngs Moduli (GPa) = 35.90596 85.54778 66.60170
#
# Poissons Ratio (x) = 0.02374 -0.25830
# Poissons Ratio (y) = 0.00996 0.03552
# Poissons Ratio (z) = -0.13925 0.04562
#
# Static dielectric constant tensor:
#      x y z
#    x 1.796190 0.000000 0.000000 
#    y 0.000000 1.810300 0.000000 
#    z 0.000000 0.000000 1.776210 
# 
# From -- ./inp_files/6739.got.cif
#   From: 2010.05.17/outbox.cif.g08.bks.cpg/sg19_4_cif.got.tgz:6739.got - 2010.06.03 22:46:19.
