data_PCOD9313802
_publ_section_title
;
Structure prediction by ZEFSAII (Michael W. Deem and Ramdas Pophale) SiO2 
 PCOD9313802
Probable space group: P 21 21 21
;
_chemical_formula_sum "Si O2"
_cell_formula_units_Z 28
_cell_length_a 9.251682
_cell_length_b 10.939703
_cell_length_c 14.624579
_cell_angle_alpha 90.000000
_cell_angle_beta 90.000000
_cell_angle_gamma 90.000000
_cell_volume 1480.163195
_symmetry_space_group_name_H-M "P 21 21 21"
_symmetry_group_IT_number 19
_symmetry_cell_setting 'orthorhombic'
loop_
_space_group_symop_operation_xyz
x,y,z
1/2-x,-y,1/2+z
1/2+x,1/2-y,-z
-x,1/2+y,1/2-z
loop_
_atom_site_type_symbol
_atom_site_label
_atom_site_fract_x
_atom_site_fract_y
_atom_site_fract_z
Si Si1 0.381643 0.127895 0.014277
Si Si2 0.277676 0.864523 0.699726
Si Si3 0.904893 0.583487 0.751078
Si Si4 0.086838 0.753657 0.858539
Si Si5 0.134705 0.487990 0.878475
Si Si6 0.891833 0.507158 0.550317
Si Si7 0.567257 0.859055 0.608739
O O1 0.275553 0.020640 0.979450
O O2 0.396394 0.229790 0.937443
O O3 0.299031 0.176400 0.105057
O O4 0.536865 0.081959 0.047756
O O5 0.203890 0.792957 0.782428
O O6 0.447498 0.847035 0.687461
O O7 0.234547 0.007312 0.715988
O O8 0.907956 0.588457 0.642392
O O9 0.942953 0.707466 0.804420
O O10 0.143894 0.630531 0.906672
O O11 0.037454 0.497386 0.786510
O O12 0.067978 0.869693 0.922721
O O13 0.285915 0.424601 0.863062
O O14 0.989634 0.560989 0.470349
#
# Coordination Sequence:
#
# PCOD9313802 Si02
#       7
#     4   4   4   4   4   4   4
#     4  10  20  35  59  84 115 152 198 240 292 355
#     4   9  18  36  57  81 113 152 194 235 294 349
#     4   8  18  37  57  79 115 157 199 236 297 353
#     4   9  19  37  59  78 118 158 195 242 293 367
#     4   9  20  37  56  83 118 158 187 250 300 349
#     4  10  20  35  61  85 110 158 202 240 299 347
#     4  11  21  35  57  90 117 149 197 253 291 354
#
# _framework density 18.916834000000001
#
# number of rings (size 3 to 8) (size 9 to 14) (size 15 to 20)
#    0.857    1.714    0.000    2.571    0.000    3.429 
#    5.143    0.000    0.000    0.000    0.000    0.000 
#    0.000    0.000    0.000    0.000    0.000    0.000 
#
# Total GULP energy -155974.092057 kJ/mol
# GULP energy per Si atom -5570.503288 kJ/mol
# Density = 1.887378 g / cm^3
# Si number density = 18.916834 Si / 1000 Ang^3
#
#
#
# Elastic Constant Matrix: (Units=GPa)
#
#
# Indices 1 2 3 4 5 6 
#
# 1 77.7869 13.3112 0.4604 0.0000 0.0000 0.0000
# 2 13.3112 64.2068 -12.3952 0.0000 0.0000 0.0000
# 3 0.4604 -12.3952 27.0222 0.0000 0.0000 0.0000
# 4 0.0000 0.0000 0.0000 23.8334 0.0000 0.0000
# 5 0.0000 0.0000 0.0000 0.0000 12.1067 0.0000
# 6 0.0000 0.0000 0.0000 0.0000 0.0000 10.5345
#
#
#
# Elastic Compliance Matrix: (Units=1/GPa)
#
#
# Indices 1 2 3 4 5 6 
#
# 1 0.013395 -0.003095 -0.001648 0.000000 0.000000 0.000000
# 2 -0.003095 0.017803 0.008219 0.000000 0.000000 0.000000
# 3 -0.001648 0.008219 0.040805 0.000000 0.000000 0.000000
# 4 0.000000 0.000000 0.000000 0.041958 0.000000 0.000000
# 5 0.000000 0.000000 0.000000 0.000000 0.082599 0.000000
# 6 0.000000 0.000000 0.000000 0.000000 0.000000 0.094926
#
#
# Mechanical properties :
#
#
# Convention : Reuss Voigt Hill
#
# Bulk Modulus (GPa) = 12.66547 19.08541 15.87544
# Shear Modulus (GPa) = 16.08482 20.47089 18.27786
#
# Velocity S-wave (km/s) = 2.91914 3.29318 3.11178
# Velocity P-wave (km/s) = 4.25108 4.95692 4.61751
#
# Compressibility (1/GPa) = 0.07895481
#
# Stress axis : x y z
#
# Youngs Moduli (GPa) = 74.65448 56.17008 24.50689
#
# Poissons Ratio (x) = 0.17386 0.04039
# Poissons Ratio (y) = 0.23107 -0.20142
# Poissons Ratio (z) = 0.12303 -0.46167
#
# Static dielectric constant tensor:
#      x y z
#    x 1.654020 0.000000 0.000000 
#    y 0.000000 1.692390 0.000000 
#    z 0.000000 0.000000 1.653330 
# 
# From -- ./inp_files/4764.got.cif
#   From: 2010.05.17/outbox.cif.g08.bks.cpg/sg19_3_cif.got.tgz:4764.got - 2010.06.03 22:46:19.
