data_PCOD9313674
_publ_section_title
;
Structure prediction by ZEFSAII (Michael W. Deem and Ramdas Pophale) SiO2 
 PCOD9313674
Probable space group: P 21 21 21
;
_chemical_formula_sum "Si O2"
_cell_formula_units_Z 32
_cell_length_a 12.071000
_cell_length_b 10.913047
_cell_length_c 12.676816
_cell_angle_alpha 90.000000
_cell_angle_beta 90.000000
_cell_angle_gamma 90.000000
_cell_volume 1669.934597
_symmetry_space_group_name_H-M "P 21 21 21"
_symmetry_group_IT_number 19
_symmetry_cell_setting 'orthorhombic'
loop_
_space_group_symop_operation_xyz
x,y,z
1/2-x,-y,1/2+z
1/2+x,1/2-y,-z
-x,1/2+y,1/2-z
loop_
_atom_site_type_symbol
_atom_site_label
_atom_site_fract_x
_atom_site_fract_y
_atom_site_fract_z
Si Si1 0.785708 0.669317 0.544102
Si Si2 0.162237 0.616806 0.130141
Si Si3 0.744511 0.361725 0.292664
Si Si4 0.105118 0.997308 0.534761
Si Si5 0.844071 0.952815 0.555759
Si Si6 0.068999 0.043310 0.129000
Si Si7 0.659435 0.049097 0.678980
Si Si8 0.417382 0.819003 0.847565
O O1 0.779460 0.634880 0.667922
O O2 0.670914 0.627635 0.489551
O O3 0.811170 0.813110 0.533917
O O4 0.876233 0.594112 0.477008
O O5 0.243147 0.719323 0.175882
O O6 0.132358 0.500303 0.204097
O O7 0.045421 0.687210 0.115603
O O8 0.204803 0.551932 0.026111
O O9 0.654386 0.432445 0.363829
O O10 0.859284 0.429514 0.325316
O O11 0.128715 0.083273 0.432111
O O12 0.975723 0.970407 0.550474
O O13 0.780867 0.995226 0.660099
O O14 0.079541 0.137840 0.226159
O O15 0.940075 0.013412 0.112993
O O16 0.647086 0.191736 0.656246
#
# Coordination Sequence:
#
# PCOD9313674 Si02
#       8
#     4   4   4   4   4   4   4   4
#     4  11  23  41  66  87 128 166 215 259 316 380
#     4  10  21  37  64  91 124 161 205 261 314 366
#     4  11  20  43  63  89 127 168 204 256 314 383
#     4  10  24  41  63  92 127 170 205 260 323 370
#     4  11  24  40  61  94 125 166 207 265 315 370
#     4  10  22  37  64  96 114 165 217 255 318 370
#     4  11  21  37  63  93 121 159 210 260 309 373
#     4  10  19  38  64  94 124 153 211 266 307 374
#
# _framework density 19.162427000000001
#
# number of rings (size 3 to 8) (size 9 to 14) (size 15 to 20)
#    0.000    1.500    3.750    1.500    1.750    0.000 
#    2.250    2.500    0.000    0.000    0.000    0.000 
#    0.000    0.000    0.000    0.000    0.000    0.000 
#
# Total GULP energy -178312.835867 kJ/mol
# GULP energy per Si atom -5572.276121 kJ/mol
# Density = 1.911881 g / cm^3
# Si number density = 19.162427 Si / 1000 Ang^3
#
#
#
# Elastic Constant Matrix: (Units=GPa)
#
#
# Indices 1 2 3 4 5 6 
#
# 1 78.0904 39.7714 18.2844 0.0000 0.0000 0.0000
# 2 39.7714 115.6227 29.2970 0.0000 0.0000 0.0000
# 3 18.2844 29.2970 79.7735 0.0000 0.0000 0.0000
# 4 0.0000 0.0000 0.0000 26.5864 0.0000 0.0000
# 5 0.0000 0.0000 0.0000 0.0000 17.6564 0.0000
# 6 0.0000 0.0000 0.0000 0.0000 0.0000 20.7296
#
#
#
# Elastic Compliance Matrix: (Units=1/GPa)
#
#
# Indices 1 2 3 4 5 6 
#
# 1 0.015753 -0.004966 -0.001787 0.000000 0.000000 0.000000
# 2 -0.004966 0.011102 -0.002939 0.000000 0.000000 0.000000
# 3 -0.001787 -0.002939 0.014024 0.000000 0.000000 0.000000
# 4 0.000000 0.000000 0.000000 0.037613 0.000000 0.000000
# 5 0.000000 0.000000 0.000000 0.000000 0.056637 0.000000
# 6 0.000000 0.000000 0.000000 0.000000 0.000000 0.048240
#
#
# Mechanical properties :
#
#
# Convention : Reuss Voigt Hill
#
# Bulk Modulus (GPa) = 46.52091 49.79911 48.16001
# Shear Modulus (GPa) = 23.81881 25.40340 24.61110
#
# Velocity S-wave (km/s) = 3.52944 3.64495 3.58766
# Velocity P-wave (km/s) = 6.39837 6.61502 6.50760
#
# Compressibility (1/GPa) = 0.02149571
#
# Stress axis : x y z
#
# Youngs Moduli (GPa) = 63.47905 90.07668 71.30437
#
# Poissons Ratio (x) = 0.44732 0.12742
# Poissons Ratio (y) = 0.31523 0.20956
# Poissons Ratio (z) = 0.11343 0.26473
#
# Static dielectric constant tensor:
#      x y z
#    x 1.686460 0.000000 0.000000 
#    y 0.000000 1.681430 0.000000 
#    z 0.000000 0.000000 1.694040 
# 
# From -- ./inp_files/5040.got.cif
#   From: 2010.05.17/outbox.cif.g08.bks.cpg/sg19_3_cif.got.tgz:5040.got - 2010.06.03 22:46:19.
