data_PCOD9313409
_publ_section_title
;
Structure prediction by ZEFSAII (Michael W. Deem and Ramdas Pophale) SiO2 
 PCOD9313409
Probable space group: P 21 21 21
;
_chemical_formula_sum "Si O2"
_cell_formula_units_Z 32
_cell_length_a 14.244492
_cell_length_b 23.560327
_cell_length_c 5.402901
_cell_angle_alpha 90.000000
_cell_angle_beta 90.000000
_cell_angle_gamma 90.000000
_cell_volume 1813.239993
_symmetry_space_group_name_H-M "P 21 21 21"
_symmetry_group_IT_number 19
_symmetry_cell_setting 'orthorhombic'
loop_
_space_group_symop_operation_xyz
x,y,z
1/2-x,-y,1/2+z
1/2+x,1/2-y,-z
-x,1/2+y,1/2-z
loop_
_atom_site_type_symbol
_atom_site_label
_atom_site_fract_x
_atom_site_fract_y
_atom_site_fract_z
Si Si1 0.377060 0.210188 0.000000
Si Si2 0.165875 0.305590 0.500000
Si Si3 0.533271 0.298097 0.500000
Si Si4 0.458992 0.336645 0.000000
Si Si5 0.850702 0.046488 1.000000
Si Si6 0.835923 0.264102 0.500000
Si Si7 0.370539 0.522107 0.500000
Si Si8 0.075719 0.354244 1.000000
O O1 0.320618 0.200976 0.749186
O O2 0.475466 0.177251 0.000000
O O3 0.399700 0.277925 0.000000
O O4 0.320618 0.200976 0.250814
O O5 0.123152 0.242047 0.500000
O O6 0.276639 0.293967 0.500000
O O7 0.130534 0.335724 0.250046
O O8 0.130534 0.335725 0.749952
O O9 0.520348 0.333428 0.249628
O O10 0.445970 0.253090 0.500000
O O11 0.520348 0.333428 0.750373
O O12 0.391725 0.390508 0.000000
O O13 0.737358 0.044835 1.000000
O O14 0.881969 0.014263 0.749676
O O15 0.881969 0.014263 0.250324
O O16 0.433687 0.578136 0.500000
#
# Coordination Sequence:
#
# PCOD9313409 Si02
#       8
#     4   4   4   4   4   4   4   4
#     4  10  19  36  48  80 103 138 182 224 272 326
#     4  12  21  33  53  78 113 146 179 216 277 345
#     4  10  19  33  46  80 104 135 179 222 259 328
#     4  10  18  32  55  65 104 140 168 226 268 295
#     4  10  21  38  49  75 107 143 196 220 253 319
#     4  10  20  31  49  72 109 141 175 209 269 337
#     4  10  23  35  50  75 107 146 188 227 251 319
#     4  12  21  36  54  75 115 147 181 228 273 319
#
# _framework density 17.647967999999999
#
# number of rings (size 3 to 8) (size 9 to 14) (size 15 to 20)
#    0.000    1.500    5.000    2.250    7.000    0.000 
#    0.000    0.000    0.000    0.000    0.000    0.000 
#    0.000   20.000    0.000    0.000    0.000    0.000 
#
# Total GULP energy -178519.003434 kJ/mol
# GULP energy per Si atom -5578.718857 kJ/mol
# Density = 1.760780 g / cm^3
# Si number density = 17.647968 Si / 1000 Ang^3
#
#
#
# Elastic Constant Matrix: (Units=GPa)
#
#
# Indices 1 2 3 4 5 6 
#
# 1 17.7169 23.0590 7.8588 0.0000 0.0000 0.0000
# 2 23.0590 101.9861 32.3161 0.0000 0.0000 0.0000
# 3 7.8588 32.3161 179.9678 0.0000 0.0000 0.0000
# 4 0.0000 0.0000 0.0000 21.9680 0.0000 0.0000
# 5 0.0000 0.0000 0.0000 0.0000 13.6159 0.0000
# 6 0.0000 0.0000 0.0000 0.0000 0.0000 12.8110
#
#
#
# Elastic Compliance Matrix: (Units=1/GPa)
#
#
# Indices 1 2 3 4 5 6 
#
# 1 0.079991 -0.018003 -0.000260 0.000000 0.000000 0.000000
# 2 -0.018003 0.014449 -0.001808 0.000000 0.000000 0.000000
# 3 -0.000260 -0.001808 0.005893 0.000000 0.000000 0.000000
# 4 0.000000 0.000000 0.000000 0.045521 0.000000 0.000000
# 5 0.000000 0.000000 0.000000 0.000000 0.073444 0.000000
# 6 0.000000 0.000000 0.000000 0.000000 0.000000 0.078058
#
#
# Mechanical properties :
#
#
# Convention : Reuss Voigt Hill
#
# Bulk Modulus (GPa) = 16.61453 47.34873 31.98163
# Shear Modulus (GPa) = 13.98360 25.44143 19.71252
#
# Velocity S-wave (km/s) = 2.81795 3.80097 3.34576
# Velocity P-wave (km/s) = 4.47467 6.79345 5.75211
#
# Compressibility (1/GPa) = 0.06018830
#
# Stress axis : x y z
#
# Youngs Moduli (GPa) = 12.50143 69.20969 169.70356
#
# Poissons Ratio (x) = 1.24601 0.04416
# Poissons Ratio (y) = 0.22507 0.30688
# Poissons Ratio (z) = 0.00325 0.12516
#
# Static dielectric constant tensor:
#      x y z
#    x 1.584720 0.000000 0.000000 
#    y 0.000000 1.574440 0.000000 
#    z 0.000000 0.000000 1.724890 
# 
# From -- ./inp_files/1637.got.cif
#   From: 2010.05.17/outbox.cif.g08.bks.cpg/sg19_1_cif.got.tgz:1637.got - 2010.06.03 22:46:19.
