data_PCOD9313351
_publ_section_title
;
Structure prediction by ZEFSAII (Michael W. Deem and Ramdas Pophale) SiO2 
 PCOD9313351
Probable space group: P 21 21 21
;
_chemical_formula_sum "Si O2"
_cell_formula_units_Z 28
_cell_length_a 8.490711
_cell_length_b 10.581541
_cell_length_c 13.771255
_cell_angle_alpha 90.000000
_cell_angle_beta 90.000000
_cell_angle_gamma 90.000000
_cell_volume 1237.275742
_symmetry_space_group_name_H-M "P 21 21 21"
_symmetry_group_IT_number 19
_symmetry_cell_setting 'orthorhombic'
loop_
_space_group_symop_operation_xyz
x,y,z
1/2-x,-y,1/2+z
1/2+x,1/2-y,-z
-x,1/2+y,1/2-z
loop_
_atom_site_type_symbol
_atom_site_label
_atom_site_fract_x
_atom_site_fract_y
_atom_site_fract_z
Si Si1 0.617372 0.670763 0.644531
Si Si2 0.927548 0.166144 0.973420
Si Si3 0.740526 0.574650 0.207387
Si Si4 0.152420 0.499692 0.047320
Si Si5 0.525197 0.568785 0.373332
Si Si6 0.141115 0.999532 0.092213
Si Si7 0.004419 0.742994 0.143160
O O1 0.662584 0.776959 0.567891
O O2 0.743150 0.558749 0.654576
O O3 0.465863 0.601224 0.597704
O O4 0.573759 0.725969 0.749617
O O5 0.079387 0.104624 0.020786
O O6 0.954979 0.285577 0.905422
O O7 0.823129 0.054910 0.929542
O O8 0.570004 0.577308 0.259245
O O9 0.824036 0.690261 0.151214
O O10 0.861568 0.555978 0.298686
O O11 0.105677 0.633272 0.092129
O O12 0.119996 0.491736 0.930850
O O13 0.671117 0.485756 0.418135
O O14 0.037244 0.873964 0.086974
#
# Coordination Sequence:
#
# PCOD9313351 Si02
#       7
#     4   4   4   4   4   4   4
#     4   9  17  33  54  76 103 141 182 214 252 315
#     4  11  18  32  52  86 104 135 180 224 258 313
#     4   8  16  32  56  75  96 140 183 211 250 307
#     4  10  21  30  56  81 105 139 174 229 272 303
#     4   9  18  34  52  77 107 140 175 213 268 316
#     4   9  19  30  53  76 103 141 176 213 259 310
#     4  10  17  33  53  81 104 138 190 220 247 316
#
# _framework density 22.630364
#
# number of rings (size 3 to 8) (size 9 to 14) (size 15 to 20)
#    0.857    1.714    1.429    2.571    0.000    1.143 
#    0.000    0.000    3.143    5.143    0.000    0.000 
#    0.000    0.000    0.000    0.000    0.000    0.000 
#
# Total GULP energy -155956.715551 kJ/mol
# GULP energy per Si atom -5569.882698 kJ/mol
# Density = 2.257886 g / cm^3
# Si number density = 22.630364 Si / 1000 Ang^3
#
#
#
# Elastic Constant Matrix: (Units=GPa)
#
#
# Indices 1 2 3 4 5 6 
#
# 1 10.5340 9.6864 10.3919 0.0000 0.0000 0.0000
# 2 9.6864 78.8050 22.5199 0.0000 0.0000 0.0000
# 3 10.3919 22.5199 42.3743 0.0000 0.0000 0.0000
# 4 0.0000 0.0000 0.0000 33.3955 0.0000 0.0000
# 5 0.0000 0.0000 0.0000 0.0000 29.5725 0.0000
# 6 0.0000 0.0000 0.0000 0.0000 0.0000 16.9532
#
#
#
# Elastic Compliance Matrix: (Units=1/GPa)
#
#
# Indices 1 2 3 4 5 6 
#
# 1 0.129430 -0.008063 -0.027456 0.000000 0.000000 0.000000
# 2 -0.008063 0.015464 -0.006241 0.000000 0.000000 0.000000
# 3 -0.027456 -0.006241 0.033649 0.000000 0.000000 0.000000
# 4 0.000000 0.000000 0.000000 0.029944 0.000000 0.000000
# 5 0.000000 0.000000 0.000000 0.000000 0.033815 0.000000
# 6 0.000000 0.000000 0.000000 0.000000 0.000000 0.058986
#
#
# Mechanical properties :
#
#
# Convention : Reuss Voigt Hill
#
# Bulk Modulus (GPa) = 10.52377 24.10107 17.31242
# Shear Modulus (GPa) = 12.00526 21.92524 16.96525
#
# Velocity S-wave (km/s) = 2.30574 3.11600 2.74098
# Velocity P-wave (km/s) = 3.42768 4.85993 4.20523
#
# Compressibility (1/GPa) = 0.09502303
#
# Stress axis : x y z
#
# Youngs Moduli (GPa) = 7.72617 64.66588 29.71821
#
# Poissons Ratio (x) = 0.52140 0.81595
# Poissons Ratio (y) = 0.06230 0.18547
# Poissons Ratio (z) = 0.21213 0.40358
#
# Static dielectric constant tensor:
#      x y z
#    x 1.880040 0.000000 0.000000 
#    y 0.000000 1.814870 0.000000 
#    z 0.000000 0.000000 1.903800 
# 
# From -- ./inp_files/6639.got.cif
#   From: 2010.05.17/outbox.cif.g08.bks.cpg/sg19_4_cif.got.tgz:6639.got - 2010.06.03 22:46:19.
