data_PCOD9313480
_publ_section_title
;
Structure prediction by ZEFSAII (Michael W. Deem and Ramdas Pophale) SiO2 
 PCOD9313480
Probable space group: P 21 21 21
;
_chemical_formula_sum "Si O2"
_cell_formula_units_Z 16
_cell_length_a 5.021021
_cell_length_b 23.280192
_cell_length_c 5.008514
_cell_angle_alpha 90.000000
_cell_angle_beta 90.000000
_cell_angle_gamma 90.000000
_cell_volume 585.446869
_symmetry_space_group_name_H-M "P 21 21 21"
_symmetry_group_IT_number 19
_symmetry_cell_setting 'orthorhombic'
loop_
_space_group_symop_operation_xyz
x,y,z
1/2-x,-y,1/2+z
1/2+x,1/2-y,-z
-x,1/2+y,1/2-z
loop_
_atom_site_type_symbol
_atom_site_label
_atom_site_fract_x
_atom_site_fract_y
_atom_site_fract_z
Si Si1 0.946149 0.716060 0.929184
Si Si2 0.839811 0.966160 0.764345
Si Si3 0.693262 0.602505 0.913283
Si Si4 0.339656 0.372771 0.073476
O O1 0.796717 0.660665 0.055788
O O2 0.712109 0.762673 0.924842
O O3 0.047407 0.690490 0.644115
O O4 0.721527 0.902168 0.706729
O O5 0.120015 0.948978 0.892492
O O6 0.819059 0.997860 0.483692
O O7 0.433451 0.620021 0.740731
O O8 0.926943 0.588806 0.705832
#
# Coordination Sequence:
#
# PCOD9313480 Si02
#       4
#     4   4   4   4
#     4  10  18  41  84 112 160 209 260 330 414 470
#     4  12  26  53  82 120 162 225 262 338 410 472
#     4  10  23  46  75 117 164 200 278 324 393 495
#     4  10  23  46  75 117 164 200 278 324 393 495
#
# _framework density 27.329547999999999
#
# number of rings (size 3 to 8) (size 9 to 14) (size 15 to 20)
#    1.500    0.000    5.000    0.000    0.000    2.000 
#    9.000    0.000   11.000    0.000    0.000    0.000 
#    0.000    0.000    0.000    0.000    0.000    0.000 
#
# Total GULP energy -89475.886841 kJ/mol
# GULP energy per Si atom -5592.242928 kJ/mol
# Density = 2.726735 g / cm^3
# Si number density = 27.329548 Si / 1000 Ang^3
#
#
#
# Elastic Constant Matrix: (Units=GPa)
#
#
# Indices 1 2 3 4 5 6 
#
# 1 194.1163 27.8912 30.3240 0.0000 0.0000 0.0000
# 2 27.8912 63.1016 9.1431 0.0000 0.0000 0.0000
# 3 30.3240 9.1431 89.1823 0.0000 0.0000 0.0000
# 4 0.0000 0.0000 0.0000 30.7573 0.0000 0.0000
# 5 0.0000 0.0000 0.0000 0.0000 35.7232 0.0000
# 6 0.0000 0.0000 0.0000 0.0000 0.0000 65.4456
#
#
#
# Elastic Compliance Matrix: (Units=1/GPa)
#
#
# Indices 1 2 3 4 5 6 
#
# 1 0.005750 -0.002292 -0.001720 0.000000 0.000000 0.000000
# 2 -0.002292 0.017000 -0.000964 0.000000 0.000000 0.000000
# 3 -0.001720 -0.000964 0.011897 0.000000 0.000000 0.000000
# 4 0.000000 0.000000 0.000000 0.032513 0.000000 0.000000
# 5 0.000000 0.000000 0.000000 0.000000 0.027993 0.000000
# 6 0.000000 0.000000 0.000000 0.000000 0.000000 0.015280
#
#
# Mechanical properties :
#
#
# Convention : Reuss Voigt Hill
#
# Bulk Modulus (GPa) = 40.49381 53.45742 46.97561
# Shear Modulus (GPa) = 38.87577 44.98801 41.93189
#
# Velocity S-wave (km/s) = 3.77567 4.06166 3.92127
# Velocity P-wave (km/s) = 5.81864 6.44971 6.14229
#
# Compressibility (1/GPa) = 0.02469513
#
# Stress axis : x y z
#
# Youngs Moduli (GPa) = 173.92569 58.82283 84.05762
#
# Poissons Ratio (x) = 0.13483 0.14458
# Poissons Ratio (y) = 0.39866 0.08099
# Poissons Ratio (z) = 0.29915 0.05668
#
# Static dielectric constant tensor:
#      x y z
#    x 2.084620 0.000000 0.000000 
#    y 0.000000 2.267400 0.000000 
#    z 0.000000 0.000000 2.122890 
# 
# From -- ./inp_files/132.got.cif
#   From: 2010.05.17/outbox.cif.g08.bks.cpg/sg19_1_cif.got.tgz:132.got - 2010.06.03 22:46:19.
