data_PCOD9313352
_publ_section_title
;
Structure prediction by ZEFSAII (Michael W. Deem and Ramdas Pophale) SiO2 
 PCOD9313352
Probable space group: P 21 21 21
;
_chemical_formula_sum "Si O2"
_cell_formula_units_Z 20
_cell_length_a 11.323011
_cell_length_b 9.786023
_cell_length_c 6.871619
_cell_angle_alpha 90.000000
_cell_angle_beta 90.000000
_cell_angle_gamma 90.000000
_cell_volume 761.425177
_symmetry_space_group_name_H-M "P 21 21 21"
_symmetry_group_IT_number 19
_symmetry_cell_setting 'orthorhombic'
loop_
_space_group_symop_operation_xyz
x,y,z
1/2-x,-y,1/2+z
1/2+x,1/2-y,-z
-x,1/2+y,1/2-z
loop_
_atom_site_type_symbol
_atom_site_label
_atom_site_fract_x
_atom_site_fract_y
_atom_site_fract_z
Si Si1 0.752845 0.159769 0.902712
Si Si2 0.421467 0.994563 0.054042
Si Si3 0.599760 0.903142 0.762195
Si Si4 0.254810 0.212173 0.514362
Si Si5 0.061421 0.252618 0.798857
O O1 0.769960 0.239296 0.703261
O O2 0.686673 0.019032 0.848220
O O3 0.862594 0.121729 0.041786
O O4 0.661000 0.246977 0.033871
O O5 0.477843 0.893747 0.217657
O O6 0.465857 0.140310 0.124696
O O7 0.475079 0.953370 0.843925
O O8 0.286111 0.944362 0.043557
O O9 0.631415 0.759767 0.867132
O O10 0.142161 0.292870 0.610015
#
# Coordination Sequence:
#
# PCOD9313352 Si02
#       5
#     4   4   4   4   4
#     4  10  17  33  54  87 114 150 193 254 280 321
#     4   9  19  37  58  88 123 149 193 239 300 345
#     4  10  18  32  57  86 114 149 198 242 287 340
#     4   9  19  34  53  88 119 145 193 244 283 347
#     4   8  19  36  54  85 118 149 189 241 288 349
#
# _framework density 26.266532999999999
#
# number of rings (size 3 to 8) (size 9 to 14) (size 15 to 20)
#    1.200    1.600    2.000    0.000    0.000    0.000 
#   10.800    0.000    0.000    7.200    0.000    0.000 
#    0.000    0.000    0.000    0.000    0.000    0.000 
#
# Total GULP energy -111665.594338 kJ/mol
# GULP energy per Si atom -5583.279717 kJ/mol
# Density = 2.620675 g / cm^3
# Si number density = 26.266533 Si / 1000 Ang^3
#
#
#
# Elastic Constant Matrix: (Units=GPa)
#
#
# Indices 1 2 3 4 5 6 
#
# 1 37.8075 21.5094 23.7570 0.0000 0.0000 0.0000
# 2 21.5094 89.3186 22.1271 0.0000 0.0000 0.0000
# 3 23.7570 22.1271 168.5742 0.0000 0.0000 0.0000
# 4 0.0000 0.0000 0.0000 30.5003 0.0000 0.0000
# 5 0.0000 0.0000 0.0000 0.0000 34.2436 0.0000
# 6 0.0000 0.0000 0.0000 0.0000 0.0000 32.8607
#
#
#
# Elastic Compliance Matrix: (Units=1/GPa)
#
#
# Indices 1 2 3 4 5 6 
#
# 1 0.032738 -0.006967 -0.003699 0.000000 0.000000 0.000000
# 2 -0.006967 0.013055 -0.000732 0.000000 0.000000 0.000000
# 3 -0.003699 -0.000732 0.006549 0.000000 0.000000 0.000000
# 4 0.000000 0.000000 0.000000 0.032787 0.000000 0.000000
# 5 0.000000 0.000000 0.000000 0.000000 0.029203 0.000000
# 6 0.000000 0.000000 0.000000 0.000000 0.000000 0.030431
#
#
# Mechanical properties :
#
#
# Convention : Reuss Voigt Hill
#
# Bulk Modulus (GPa) = 33.84562 47.83192 40.83877
# Shear Modulus (GPa) = 28.18351 34.74138 31.46245
#
# Velocity S-wave (km/s) = 3.27919 3.64077 3.46470
# Velocity P-wave (km/s) = 5.22024 5.99361 5.62024
#
# Compressibility (1/GPa) = 0.02954592
#
# Stress axis : x y z
#
# Youngs Moduli (GPa) = 30.54536 76.59884 152.68406
#
# Poissons Ratio (x) = 0.53370 0.56481
# Poissons Ratio (y) = 0.21282 0.11172
# Poissons Ratio (z) = 0.11299 0.05605
#
# Static dielectric constant tensor:
#      x y z
#    x 2.138820 0.000000 0.000000 
#    y 0.000000 2.080780 0.000000 
#    z 0.000000 0.000000 2.026740 
# 
# From -- ./inp_files/863.got.cif
#   From: 2010.05.17/outbox.cif.g08.bks.cpg/sg19_1_cif.got.tgz:863.got - 2010.06.03 22:46:19.
