data_PCOD9313610
_publ_section_title
;
Structure prediction by ZEFSAII (Michael W. Deem and Ramdas Pophale) SiO2 
 PCOD9313610
Probable space group: P 21 21 21
;
_chemical_formula_sum "Si O2"
_cell_formula_units_Z 32
_cell_length_a 8.552672
_cell_length_b 8.902263
_cell_length_c 20.762447
_cell_angle_alpha 90.000000
_cell_angle_beta 90.000000
_cell_angle_gamma 90.000000
_cell_volume 1580.814003
_symmetry_space_group_name_H-M "P 21 21 21"
_symmetry_group_IT_number 19
_symmetry_cell_setting 'orthorhombic'
loop_
_space_group_symop_operation_xyz
x,y,z
1/2-x,-y,1/2+z
1/2+x,1/2-y,-z
-x,1/2+y,1/2-z
loop_
_atom_site_type_symbol
_atom_site_label
_atom_site_fract_x
_atom_site_fract_y
_atom_site_fract_z
Si Si1 0.855686 0.600286 0.317805
Si Si2 0.484451 0.763097 0.552401
Si Si3 0.869246 0.558850 0.897728
Si Si4 0.153388 0.656557 0.112168
Si Si5 0.046724 0.305632 0.292823
Si Si6 0.644905 0.477173 0.544559
Si Si7 0.702836 0.956466 0.476250
Si Si8 0.789228 0.189617 0.589595
O O1 0.682083 0.550875 0.340226
O O2 0.871471 0.740670 0.270292
O O3 0.936321 0.643586 0.385293
O O4 0.945168 0.456845 0.287458
O O5 0.614889 0.640189 0.574873
O O6 0.548478 0.871434 0.497361
O O7 0.341424 0.665945 0.524963
O O8 0.736484 0.686456 0.899641
O O9 0.038372 0.634027 0.891937
O O10 0.857824 0.489601 0.968804
O O11 0.281430 0.532268 0.093869
O O12 0.072131 0.675856 0.180856
O O13 0.010362 0.619521 0.063686
O O14 0.173237 0.327735 0.349787
O O15 0.780382 0.364120 0.566750
O O16 0.731500 0.085258 0.530154
#
# Coordination Sequence:
#
# PCOD9313610 Si02
#       8
#     4   4   4   4   4   4   4   4
#     4  11  25  42  68  86 128 171 228 258 316 386
#     4  11  23  37  61  99 134 164 208 274 326 388
#     4  11  19  37  62  96 122 164 200 273 318 382
#     4   9  20  35  63  88 125 162 214 255 317 386
#     4  10  24  44  63  90 120 180 223 265 304 392
#     4  10  19  36  60  95 130 160 205 254 333 384
#     4  11  21  38  59  97 132 161 203 265 341 385
#     4  11  21  39  66  91 131 164 209 264 325 395
#
# _framework density 20.242736000000001
#
# number of rings (size 3 to 8) (size 9 to 14) (size 15 to 20)
#    0.000    1.500    5.000    0.750    5.250    2.000 
#    0.000    2.500    0.000    0.000    0.000    0.000 
#    0.000    0.000    0.000    0.000    0.000    0.000 
#
# Total GULP energy -178437.125654 kJ/mol
# GULP energy per Si atom -5576.160177 kJ/mol
# Density = 2.019666 g / cm^3
# Si number density = 20.242736 Si / 1000 Ang^3
#
#
#
# Elastic Constant Matrix: (Units=GPa)
#
#
# Indices 1 2 3 4 5 6 
#
# 1 24.1914 16.7136 1.8142 0.0000 0.0000 0.0000
# 2 16.7136 68.5129 2.6691 0.0000 0.0000 0.0000
# 3 1.8142 2.6691 21.6047 0.0000 0.0000 0.0000
# 4 0.0000 0.0000 0.0000 39.8063 0.0000 0.0000
# 5 0.0000 0.0000 0.0000 0.0000 21.0816 0.0000
# 6 0.0000 0.0000 0.0000 0.0000 0.0000 34.9318
#
#
#
# Elastic Compliance Matrix: (Units=1/GPa)
#
#
# Indices 1 2 3 4 5 6 
#
# 1 0.049872 -0.012061 -0.002698 0.000000 0.000000 0.000000
# 2 -0.012061 0.017583 -0.001159 0.000000 0.000000 0.000000
# 3 -0.002698 -0.001159 0.046656 0.000000 0.000000 0.000000
# 4 0.000000 0.000000 0.000000 0.025122 0.000000 0.000000
# 5 0.000000 0.000000 0.000000 0.000000 0.047435 0.000000
# 6 0.000000 0.000000 0.000000 0.000000 0.000000 0.028627
#
#
# Mechanical properties :
#
#
# Convention : Reuss Voigt Hill
#
# Bulk Modulus (GPa) = 12.15441 17.41142 14.78292
# Shear Modulus (GPa) = 18.21114 25.37140 21.79127
#
# Velocity S-wave (km/s) = 3.00265 3.54412 3.28456
# Velocity P-wave (km/s) = 4.24719 5.03664 4.65866
#
# Compressibility (1/GPa) = 0.08227464
#
# Stress axis : x y z
#
# Youngs Moduli (GPa) = 20.05117 56.87218 21.43348
#
# Poissons Ratio (x) = 0.68595 0.05782
# Poissons Ratio (y) = 0.24184 0.02485
# Poissons Ratio (z) = 0.05410 0.06594
#
# Static dielectric constant tensor:
#      x y z
#    x 1.780000 0.000000 0.000000 
#    y 0.000000 1.767590 0.000000 
#    z 0.000000 0.000000 1.708760 
# 
# From -- ./inp_files/7070.got.cif
#   From: 2010.05.17/outbox.cif.g08.bks.cpg/sg19_4_cif.got.tgz:7070.got - 2010.06.03 22:46:19.
