data_PCOD9313612
_publ_section_title
;
Structure prediction by ZEFSAII (Michael W. Deem and Ramdas Pophale) SiO2 
 PCOD9313612
Probable space group: P 21 21 21
;
_chemical_formula_sum "Si O2"
_cell_formula_units_Z 32
_cell_length_a 5.604386
_cell_length_b 27.868570
_cell_length_c 8.057785
_cell_angle_alpha 90.000000
_cell_angle_beta 90.000000
_cell_angle_gamma 90.000000
_cell_volume 1258.515009
_symmetry_space_group_name_H-M "P 21 21 21"
_symmetry_group_IT_number 19
_symmetry_cell_setting 'orthorhombic'
loop_
_space_group_symop_operation_xyz
x,y,z
1/2-x,-y,1/2+z
1/2+x,1/2-y,-z
-x,1/2+y,1/2-z
loop_
_atom_site_type_symbol
_atom_site_label
_atom_site_fract_x
_atom_site_fract_y
_atom_site_fract_z
Si Si1 0.705385 0.789267 0.661207
Si Si2 0.411015 0.972121 0.059232
Si Si3 0.160690 0.896334 0.229953
Si Si4 0.591807 0.438217 0.936533
Si Si5 0.216926 0.466267 0.164087
Si Si6 0.549709 0.729001 0.069606
Si Si7 0.312356 0.849497 0.764568
Si Si8 0.441767 0.188176 0.933024
O O1 0.568696 0.824225 0.786442
O O2 0.555170 0.744111 0.605116
O O3 0.931183 0.763333 0.749508
O O4 0.797318 0.821386 0.509315
O O5 0.187084 0.007705 0.073302
O O6 0.557994 0.989785 0.900628
O O7 0.326461 0.917429 0.085601
O O8 0.570437 0.983717 0.220632
O O9 0.273760 0.915665 0.403423
O O10 0.119498 0.841026 0.268284
O O11 0.915116 0.925726 0.228538
O O12 0.319914 0.441193 0.997582
O O13 0.658135 0.405010 0.781271
O O14 0.635400 0.673149 0.098216
O O15 0.305664 0.743461 0.964438
O O16 0.229347 0.827487 0.584363
#
# Coordination Sequence:
#
# PCOD9313612 Si02
#       8
#     4   4   4   4   4   4   4   4
#     4  11  20  35  64  92 127 162 206 267 320 382
#     4  10  20  36  59  87 120 160 208 253 312 372
#     4   9  19  35  56  86 126 158 200 250 313 380
#     4   9  19  35  60  89 118 155 210 255 306 374
#     4  10  19  36  61  86 119 165 204 256 315 369
#     4  11  23  42  62  83 123 174 217 254 314 374
#     4  10  20  37  62  92 122 160 208 267 312 382
#     4  10  20  34  58  97 125 154 203 262 328 381
#
# _framework density 25.426793
#
# number of rings (size 3 to 8) (size 9 to 14) (size 15 to 20)
#    0.000    2.000    2.500    1.500    0.000    1.000 
#    0.000    1.250   11.000    0.000    0.000    0.000 
#    0.000    0.000    0.000    0.000    0.000    0.000 
#
# Total GULP energy -178386.375570 kJ/mol
# GULP energy per Si atom -5574.574237 kJ/mol
# Density = 2.536892 g / cm^3
# Si number density = 25.426793 Si / 1000 Ang^3
#
#
#
# Elastic Constant Matrix: (Units=GPa)
#
#
# Indices 1 2 3 4 5 6 
#
# 1 81.8856 -6.9664 1.0037 0.0000 0.0000 0.0000
# 2 -6.9664 40.9527 -32.1899 0.0000 0.0000 0.0000
# 3 1.0037 -32.1899 67.7354 0.0000 0.0000 0.0000
# 4 0.0000 0.0000 0.0000 27.8933 0.0000 0.0000
# 5 0.0000 0.0000 0.0000 0.0000 39.1226 0.0000
# 6 0.0000 0.0000 0.0000 0.0000 0.0000 10.1671
#
#
#
# Elastic Compliance Matrix: (Units=1/GPa)
#
#
# Indices 1 2 3 4 5 6 
#
# 1 0.012464 0.003153 0.001314 0.000000 0.000000 0.000000
# 2 0.003153 0.039776 0.018856 0.000000 0.000000 0.000000
# 3 0.001314 0.018856 0.023705 0.000000 0.000000 0.000000
# 4 0.000000 0.000000 0.000000 0.035851 0.000000 0.000000
# 5 0.000000 0.000000 0.000000 0.000000 0.025561 0.000000
# 6 0.000000 0.000000 0.000000 0.000000 0.000000 0.098356
#
#
# Mechanical properties :
#
#
# Convention : Reuss Voigt Hill
#
# Bulk Modulus (GPa) = 8.15724 12.69649 10.42687
# Shear Modulus (GPa) = 21.74563 30.68502 26.21533
#
# Velocity S-wave (km/s) = 2.92760 3.47767 3.21442
# Velocity P-wave (km/s) = 3.82660 4.59671 4.22922
#
# Compressibility (1/GPa) = 0.12259047
#
# Stress axis : x y z
#
# Youngs Moduli (GPa) = 80.22921 25.14068 42.18543
#
# Poissons Ratio (x) = -0.07926 -0.05542
# Poissons Ratio (y) = -0.25295 -0.79545
# Poissons Ratio (z) = -0.10539 -0.47406
#
# Static dielectric constant tensor:
#      x y z
#    x 2.135890 0.000000 0.000000 
#    y 0.000000 1.989560 0.000000 
#    z 0.000000 0.000000 2.147330 
# 
# From -- ./inp_files/2499.got.cif
#   From: 2010.05.17/outbox.cif.g08.bks.cpg/sg19_2_cif.got.tgz:2499.got - 2010.06.03 22:46:19.
