data_PCOD9313596
_publ_section_title
;
Structure prediction by ZEFSAII (Michael W. Deem and Ramdas Pophale) SiO2 
 PCOD9313596
Probable space group: P 21 21 21
;
_chemical_formula_sum "Si O2"
_cell_formula_units_Z 32
_cell_length_a 7.946646
_cell_length_b 7.804054
_cell_length_c 22.663776
_cell_angle_alpha 90.000000
_cell_angle_beta 90.000000
_cell_angle_gamma 90.000000
_cell_volume 1405.517968
_symmetry_space_group_name_H-M "P 21 21 21"
_symmetry_group_IT_number 19
_symmetry_cell_setting 'orthorhombic'
loop_
_space_group_symop_operation_xyz
x,y,z
1/2-x,-y,1/2+z
1/2+x,1/2-y,-z
-x,1/2+y,1/2-z
loop_
_atom_site_type_symbol
_atom_site_label
_atom_site_fract_x
_atom_site_fract_y
_atom_site_fract_z
Si Si1 0.541965 0.516550 0.068259
Si Si2 0.553595 0.524251 0.933361
Si Si3 0.999929 0.307688 0.317085
Si Si4 0.698709 0.917068 0.739666
Si Si5 0.116215 0.818723 0.602090
Si Si6 0.821590 0.466977 0.781762
Si Si7 0.245012 0.716095 0.388534
Si Si8 0.507618 0.700075 0.184524
O O1 0.394763 0.372334 0.076023
O O2 0.708158 0.405021 0.087006
O O3 0.514810 0.664561 0.115620
O O4 0.544414 0.574398 0.001268
O O5 0.512222 0.678032 0.887605
O O6 0.737943 0.439467 0.922967
O O7 0.414699 0.377692 0.917226
O O8 0.955562 0.138430 0.281830
O O9 0.847512 0.435687 0.298177
O O10 0.160794 0.404276 0.291491
O O11 0.721518 0.792194 0.682568
O O12 0.852038 0.897594 0.783998
O O13 0.152173 0.812682 0.672157
O O14 0.921908 0.880246 0.596069
O O15 0.965568 0.605695 0.798757
O O16 0.841541 0.398438 0.716566
#
# Coordination Sequence:
#
# PCOD9313596 Si02
#       8
#     4   4   4   4   4   4   4   4
#     4  10  20  34  55  86 112 153 195 228 282 344
#     4  10  19  36  59  83 118 153 190 235 278 348
#     4   9  21  34  57  79 114 145 183 238 292 339
#     4  10  19  37  55  84 112 143 189 244 292 345
#     4   9  19  35  60  84 107 152 190 234 294 329
#     4  10  19  36  55  85 109 147 188 237 297 342
#     4   9  19  35  59  85 110 141 196 237 279 335
#     4  11  20  33  60  80 116 146 185 239 286 350
#
# _framework density 22.767406000000001
#
# number of rings (size 3 to 8) (size 9 to 14) (size 15 to 20)
#    0.750    1.500    1.250    3.000    0.000    4.000 
#    0.000    0.000    8.250    0.000    0.000    0.000 
#    0.000    0.000    0.000    0.000    0.000    0.000 
#
# Total GULP energy -178446.789474 kJ/mol
# GULP energy per Si atom -5576.462171 kJ/mol
# Density = 2.271559 g / cm^3
# Si number density = 22.767406 Si / 1000 Ang^3
#
#
#
# Elastic Constant Matrix: (Units=GPa)
#
#
# Indices 1 2 3 4 5 6 
#
# 1 88.2069 1.1409 15.0811 0.0000 0.0000 0.0000
# 2 1.1409 56.5037 46.7735 0.0000 0.0000 0.0000
# 3 15.0811 46.7735 194.9136 0.0000 0.0000 0.0000
# 4 0.0000 0.0000 0.0000 15.8027 0.0000 0.0000
# 5 0.0000 0.0000 0.0000 0.0000 21.1046 0.0000
# 6 0.0000 0.0000 0.0000 0.0000 0.0000 15.9616
#
#
#
# Elastic Compliance Matrix: (Units=1/GPa)
#
#
# Indices 1 2 3 4 5 6 
#
# 1 0.011507 0.000630 -0.001041 0.000000 0.000000 0.000000
# 2 0.000630 0.022120 -0.005357 0.000000 0.000000 0.000000
# 3 -0.001041 -0.005357 0.006497 0.000000 0.000000 0.000000
# 4 0.000000 0.000000 0.000000 0.063280 0.000000 0.000000
# 5 0.000000 0.000000 0.000000 0.000000 0.047383 0.000000
# 6 0.000000 0.000000 0.000000 0.000000 0.000000 0.062651
#
#
# Mechanical properties :
#
#
# Convention : Reuss Voigt Hill
#
# Bulk Modulus (GPa) = 34.98209 51.73504 43.35857
# Shear Modulus (GPa) = 21.32175 29.01569 25.16872
#
# Velocity S-wave (km/s) = 3.06355 3.57380 3.32847
# Velocity P-wave (km/s) = 5.28320 6.30889 5.81869
#
# Compressibility (1/GPa) = 0.02858605
#
# Stress axis : x y z
#
# Youngs Moduli (GPa) = 86.90439 45.20890 153.92846
#
# Poissons Ratio (x) = -0.02847 0.16031
# Poissons Ratio (y) = -0.05473 0.82456
# Poissons Ratio (z) = 0.09051 0.24217
#
# Static dielectric constant tensor:
#      x y z
#    x 2.336600 0.000000 0.000000 
#    y 0.000000 1.854540 0.000000 
#    z 0.000000 0.000000 1.834130 
# 
# From -- ./inp_files/7376.got.cif
#   From: 2010.05.17/outbox.cif.g08.bks.cpg/sg19_4_cif.got.tgz:7376.got - 2010.06.03 22:46:19.
