data_PCOD9313788
_publ_section_title
;
Structure prediction by ZEFSAII (Michael W. Deem and Ramdas Pophale) SiO2 
 PCOD9313788
Probable space group: P 21 21 21
;
_chemical_formula_sum "Si O2"
_cell_formula_units_Z 32
_cell_length_a 13.388916
_cell_length_b 6.349665
_cell_length_c 19.758271
_cell_angle_alpha 90.000000
_cell_angle_beta 90.000000
_cell_angle_gamma 90.000000
_cell_volume 1679.752004
_symmetry_space_group_name_H-M "P 21 21 21"
_symmetry_group_IT_number 19
_symmetry_cell_setting 'orthorhombic'
loop_
_space_group_symop_operation_xyz
x,y,z
1/2-x,-y,1/2+z
1/2+x,1/2-y,-z
-x,1/2+y,1/2-z
loop_
_atom_site_type_symbol
_atom_site_label
_atom_site_fract_x
_atom_site_fract_y
_atom_site_fract_z
Si Si1 0.894651 0.133473 0.433941
Si Si2 0.105348 0.366528 0.433941
Si Si3 0.796948 0.547313 0.401417
Si Si4 0.796949 0.452687 0.098582
Si Si5 0.894464 0.837152 0.303666
Si Si6 0.613157 0.235907 0.028934
Si Si7 0.394465 0.337151 0.803666
Si Si8 0.613155 0.764093 0.471066
O O1 0.809527 0.298214 0.410358
O O2 0.999999 0.250000 0.444646
O O3 0.911593 0.974314 0.371484
O O4 0.867787 0.999760 0.500927
O O5 0.088406 0.525686 0.371484
O O6 0.132212 0.500241 0.500927
O O7 0.190472 0.201786 0.410359
O O8 0.831666 0.637816 0.329645
O O9 0.871849 0.628601 0.460506
O O10 0.693345 0.661371 0.420856
O O11 0.693347 0.338628 0.079144
O O12 0.831667 0.362185 0.170354
O O13 0.871851 0.371399 0.039494
O O14 0.999999 0.750000 0.276870
O O15 0.849522 0.000000 0.250000
O O16 0.500001 0.250000 0.053308
#
# Coordination Sequence:
#
# PCOD9313788 Si02
#       8
#     4   4   4   4   4   4   4   4
#     4  11  18  36  57  79 117 150 186 232 286 335
#     4  11  18  36  57  79 117 150 186 232 286 335
#     4  10  21  34  54  84 115 151 188 233 289 339
#     4  10  21  34  54  84 115 151 188 233 289 339
#     4  11  22  34  54  84 112 150 191 234 285 345
#     4  10  20  35  54  83 117 151 188 233 281 352
#     4  11  22  34  54  84 112 150 191 234 285 345
#     4  10  20  35  54  83 117 151 188 233 281 352
#
# _framework density 19.050431
#
# number of rings (size 3 to 8) (size 9 to 14) (size 15 to 20)
#    0.000    1.500    5.000    2.250    0.000    8.000 
#    0.000    0.000    0.000    0.000    6.500    0.000 
#    0.000    0.000    0.000    0.000    0.000    0.000 
#
# Total GULP energy -178386.102344 kJ/mol
# GULP energy per Si atom -5574.565698 kJ/mol
# Density = 1.900707 g / cm^3
# Si number density = 19.050431 Si / 1000 Ang^3
#
#
#
# Elastic Constant Matrix: (Units=GPa)
#
#
# Indices 1 2 3 4 5 6 
#
# 1 103.0750 31.9543 13.6901 0.0000 0.0000 0.0000
# 2 31.9543 86.0834 2.6640 0.0000 0.0000 0.0000
# 3 13.6901 2.6640 32.5699 0.0000 0.0000 0.0000
# 4 0.0000 0.0000 0.0000 23.8142 0.0000 0.0000
# 5 0.0000 0.0000 0.0000 0.0000 13.8102 0.0000
# 6 0.0000 0.0000 0.0000 0.0000 0.0000 24.0989
#
#
#
# Elastic Compliance Matrix: (Units=1/GPa)
#
#
# Indices 1 2 3 4 5 6 
#
# 1 0.011594 -0.004164 -0.004533 0.000000 0.000000 0.000000
# 2 -0.004164 0.013141 0.000675 0.000000 0.000000 0.000000
# 3 -0.004533 0.000675 0.032553 0.000000 0.000000 0.000000
# 4 0.000000 0.000000 0.000000 0.041992 0.000000 0.000000
# 5 0.000000 0.000000 0.000000 0.000000 0.072411 0.000000
# 6 0.000000 0.000000 0.000000 0.000000 0.000000 0.041496
#
#
# Mechanical properties :
#
#
# Convention : Reuss Voigt Hill
#
# Bulk Modulus (GPa) = 24.24454 35.37170 29.80812
# Shear Modulus (GPa) = 20.57794 23.90597 22.24196
#
# Velocity S-wave (km/s) = 3.29018 3.54627 3.42062
# Velocity P-wave (km/s) = 5.21420 5.94775 5.59301
#
# Compressibility (1/GPa) = 0.04124640
#
# Stress axis : x y z
#
# Youngs Moduli (GPa) = 86.24784 76.09606 30.71879
#
# Poissons Ratio (x) = 0.31683 0.13925
# Poissons Ratio (y) = 0.35910 -0.02074
# Poissons Ratio (z) = 0.39096 -0.05138
#
# Static dielectric constant tensor:
#      x y z
#    x 1.694000 0.000000 0.000000 
#    y 0.000000 1.780150 0.000000 
#    z 0.000000 0.000000 1.652850 
# 
# From -- ./inp_files/7219.got.cif
#   From: 2010.05.17/outbox.cif.g08.bks.cpg/sg19_4_cif.got.tgz:7219.got - 2010.06.03 22:46:19.
