data_PCOD9313997
_publ_section_title
;
Structure prediction by ZEFSAII (Michael W. Deem and Ramdas Pophale) SiO2 
 PCOD9313997
Probable space group: P 21 21 21
;
_chemical_formula_sum "Si O2"
_cell_formula_units_Z 32
_cell_length_a 14.337870
_cell_length_b 8.112470
_cell_length_c 11.497578
_cell_angle_alpha 90.000000
_cell_angle_beta 90.000000
_cell_angle_gamma 90.000000
_cell_volume 1337.346997
_symmetry_space_group_name_H-M "P 21 21 21"
_symmetry_group_IT_number 19
_symmetry_cell_setting 'orthorhombic'
loop_
_space_group_symop_operation_xyz
x,y,z
1/2-x,-y,1/2+z
1/2+x,1/2-y,-z
-x,1/2+y,1/2-z
loop_
_atom_site_type_symbol
_atom_site_label
_atom_site_fract_x
_atom_site_fract_y
_atom_site_fract_z
Si Si1 0.521237 0.629445 0.844318
Si Si2 0.613326 0.482486 0.050054
Si Si3 0.632271 0.397244 0.401388
Si Si4 0.348084 0.621242 0.420491
Si Si5 0.543043 0.922353 0.266431
Si Si6 0.295648 0.170790 0.255683
Si Si7 0.678765 0.127796 0.586933
Si Si8 0.507050 0.512198 0.592377
O O1 0.421949 0.556062 0.884401
O O2 0.531516 0.606390 0.708676
O O3 0.516550 0.821050 0.879807
O O4 0.596694 0.531715 0.918781
O O5 0.668629 0.314759 0.072321
O O6 0.515089 0.466120 0.119221
O O7 0.665878 0.626673 0.116155
O O8 0.538172 0.365640 0.324799
O O9 0.700690 0.505358 0.320715
O O10 0.670480 0.237911 0.469269
O O11 0.594457 0.510716 0.505907
O O12 0.402999 0.566459 0.303292
O O13 0.257382 0.509160 0.427575
O O14 0.418844 0.584866 0.525382
O O15 0.622959 0.789354 0.293329
O O16 0.203496 0.266588 0.294837
#
# Coordination Sequence:
#
# PCOD9313997 Si02
#       8
#     4   4   4   4   4   4   4   4
#     4  11  23  42  66  91 126 171 218 260 318 378
#     4  11  20  37  67  94 116 171 219 255 303 386
#     4   9  19  38  65  89 124 167 212 255 312 381
#     4  10  21  39  60  93 132 160 211 262 321 372
#     4   9  18  37  68  93 119 159 215 263 300 376
#     4  10  20  39  65  95 124 164 208 265 316 371
#     4  10  22  43  58  96 136 164 200 270 336 369
#     4  10  21  41  63  89 121 172 217 260 304 385
#
# _framework density 23.927970999999999
#
# number of rings (size 3 to 8) (size 9 to 14) (size 15 to 20)
#    0.000    2.000    0.000    6.000    0.000    2.000 
#   20.250    3.750    0.000    0.000    0.000    0.000 
#    0.000    0.000    0.000    0.000    0.000    0.000 
#
# Total GULP energy -179059.600476 kJ/mol
# GULP energy per Si atom -5595.612515 kJ/mol
# Density = 2.387351 g / cm^3
# Si number density = 23.927971 Si / 1000 Ang^3
#
#
#
# Elastic Constant Matrix: (Units=GPa)
#
#
# Indices 1 2 3 4 5 6 
#
# 1 53.9032 -5.4821 7.8787 0.0000 0.0000 0.0000
# 2 -5.4821 36.3245 -2.9360 0.0000 0.0000 0.0000
# 3 7.8787 -2.9360 100.0190 0.0000 0.0000 0.0000
# 4 0.0000 0.0000 0.0000 30.9260 0.0000 0.0000
# 5 0.0000 0.0000 0.0000 0.0000 15.0220 0.0000
# 6 0.0000 0.0000 0.0000 0.0000 0.0000 17.9634
#
#
#
# Elastic Compliance Matrix: (Units=1/GPa)
#
#
# Indices 1 2 3 4 5 6 
#
# 1 0.019040 0.002759 -0.001419 0.000000 0.000000 0.000000
# 2 0.002759 0.027995 0.000604 0.000000 0.000000 0.000000
# 3 -0.001419 0.000604 0.010128 0.000000 0.000000 0.000000
# 4 0.000000 0.000000 0.000000 0.032335 0.000000 0.000000
# 5 0.000000 0.000000 0.000000 0.000000 0.066569 0.000000
# 6 0.000000 0.000000 0.000000 0.000000 0.000000 0.055669
#
#
# Mechanical properties :
#
#
# Convention : Reuss Voigt Hill
#
# Bulk Modulus (GPa) = 16.37971 21.01863 18.69917
# Shear Modulus (GPa) = 21.91093 25.50136 23.70615
#
# Velocity S-wave (km/s) = 3.02934 3.26813 3.15100
# Velocity P-wave (km/s) = 4.36992 4.80043 4.59022
#
# Compressibility (1/GPa) = 0.06105112
#
# Stress axis : x y z
#
# Youngs Moduli (GPa) = 52.52171 35.72088 98.74002
#
# Poissons Ratio (x) = -0.09855 0.14009
# Poissons Ratio (y) = -0.14490 -0.05969
# Poissons Ratio (z) = 0.07452 -0.02159
#
# Static dielectric constant tensor:
#      x y z
#    x 1.911980 0.000000 0.000000 
#    y 0.000000 1.936550 0.000000 
#    z 0.000000 0.000000 1.898100 
# 
# From -- ./inp_files/5415.got.cif
#   From: 2010.05.17/outbox.cif.g08.bks.cpg/sg19_3_cif.got.tgz:5415.got - 2010.06.03 22:46:19.
