data_PCOD9313863
_publ_section_title
;
Structure prediction by ZEFSAII (Michael W. Deem and Ramdas Pophale) SiO2 
 PCOD9313863
Probable space group: P 21 21 21
;
_chemical_formula_sum "Si O2"
_cell_formula_units_Z 32
_cell_length_a 8.159748
_cell_length_b 20.335790
_cell_length_c 7.747475
_cell_angle_alpha 90.000000
_cell_angle_beta 90.000000
_cell_angle_gamma 90.000000
_cell_volume 1285.576658
_symmetry_space_group_name_H-M "P 21 21 21"
_symmetry_group_IT_number 19
_symmetry_cell_setting 'orthorhombic'
loop_
_space_group_symop_operation_xyz
x,y,z
1/2-x,-y,1/2+z
1/2+x,1/2-y,-z
-x,1/2+y,1/2-z
loop_
_atom_site_type_symbol
_atom_site_label
_atom_site_fract_x
_atom_site_fract_y
_atom_site_fract_z
Si Si1 0.024344 0.085695 0.757839
Si Si2 0.643835 0.038186 0.175882
Si Si3 0.351368 0.894445 0.875295
Si Si4 0.483386 0.273266 0.792385
Si Si5 0.478765 0.519296 0.717845
Si Si6 0.025802 0.837028 0.724747
Si Si7 0.846245 0.354356 0.167503
Si Si8 0.843148 0.207041 0.832318
O O1 0.109862 0.090850 0.572467
O O2 0.165707 0.118040 0.873377
O O3 0.968212 0.011669 0.788251
O O4 0.868056 0.134167 0.760229
O O5 0.824721 0.009651 0.183432
O O6 0.625846 0.113273 0.238295
O O7 0.579464 0.029737 0.980911
O O8 0.476455 0.836853 0.818886
O O9 0.172048 0.868781 0.833151
O O10 0.384796 0.962623 0.776892
O O11 0.363972 0.214295 0.731390
O O12 0.661444 0.237408 0.819145
O O13 0.399643 0.296527 0.969587
O O14 0.552628 0.589355 0.764716
O O15 0.077493 0.841221 0.522028
O O16 0.031668 0.759086 0.758363
#
# Coordination Sequence:
#
# PCOD9313863 Si02
#       8
#     4   4   4   4   4   4   4   4
#     4  11  22  36  56  83 115 144 177 227 282 328
#     4  10  22  38  57  82 111 143 182 229 274 324
#     4  10  22  37  55  83 114 144 178 225 283 331
#     4  10  21  37  59  83 109 146 190 227 268 324
#     4  10  22  38  57  83 111 143 185 228 275 327
#     4   9  20  39  58  79 107 145 188 224 264 325
#     4  10  21  38  60  81 107 148 191 226 267 326
#     4  10  20  37  58  82 110 145 189 228 265 323
#
# _framework density 24.891552999999998
#
# number of rings (size 3 to 8) (size 9 to 14) (size 15 to 20)
#    0.000    2.000    0.000    3.750    0.000    9.000 
#    0.000    2.500    0.000    0.000    0.000    0.000 
#    0.000    0.000    0.000    0.000    0.000    0.000 
#
# Total GULP energy -178973.892341 kJ/mol
# GULP energy per Si atom -5592.934136 kJ/mol
# Density = 2.483490 g / cm^3
# Si number density = 24.891553 Si / 1000 Ang^3
#
#
#
# Elastic Constant Matrix: (Units=GPa)
#
#
# Indices 1 2 3 4 5 6 
#
# 1 68.9861 -0.0151 4.3055 0.0000 0.0000 0.0000
# 2 -0.0151 83.7965 19.5327 0.0000 0.0000 0.0000
# 3 4.3055 19.5327 12.3600 0.0000 0.0000 0.0000
# 4 0.0000 0.0000 0.0000 23.1453 0.0000 0.0000
# 5 0.0000 0.0000 0.0000 0.0000 27.3895 0.0000
# 6 0.0000 0.0000 0.0000 0.0000 0.0000 38.5471
#
#
#
# Elastic Compliance Matrix: (Units=1/GPa)
#
#
# Indices 1 2 3 4 5 6 
#
# 1 0.015013 0.001934 -0.008286 0.000000 0.000000 0.000000
# 2 0.001934 0.019143 -0.030925 0.000000 0.000000 0.000000
# 3 -0.008286 -0.030925 0.132664 0.000000 0.000000 0.000000
# 4 0.000000 0.000000 0.000000 0.043205 0.000000 0.000000
# 5 0.000000 0.000000 0.000000 0.000000 0.036510 0.000000
# 6 0.000000 0.000000 0.000000 0.000000 0.000000 0.025942
#
#
# Mechanical properties :
#
#
# Convention : Reuss Voigt Hill
#
# Bulk Modulus (GPa) = 10.83832 23.64319 17.24075
# Shear Modulus (GPa) = 13.23498 27.23769 20.23633
#
# Velocity S-wave (km/s) = 2.30838 3.31154 2.85437
# Velocity P-wave (km/s) = 3.38651 4.91333 4.21956
#
# Compressibility (1/GPa) = 0.09226526
#
# Stress axis : x y z
#
# Youngs Moduli (GPa) = 66.60777 52.23971 7.53786
#
# Poissons Ratio (x) = -0.10104 0.06246
# Poissons Ratio (y) = -0.12883 0.23311
# Poissons Ratio (z) = 0.55194 1.61551
#
# Static dielectric constant tensor:
#      x y z
#    x 2.018400 0.000000 0.000000 
#    y 0.000000 2.008250 0.000000 
#    z 0.000000 0.000000 1.994130 
# 
# From -- ./inp_files/3134.got.cif
#   From: 2010.05.17/outbox.cif.g08.bks.cpg/sg19_2_cif.got.tgz:3134.got - 2010.06.03 22:46:19.
