data_PCOD9313016
_publ_section_title
;
Structure prediction by ZEFSAII (Michael W. Deem and Ramdas Pophale) SiO2 
 PCOD9313016
Probable space group: P 21 21 2
;
_chemical_formula_sum "Si O2"
_cell_formula_units_Z 20
_cell_length_a 13.556869
_cell_length_b 9.488985
_cell_length_c 6.357291
_cell_angle_alpha 90.000000
_cell_angle_beta 90.000000
_cell_angle_gamma 90.000000
_cell_volume 817.807805
_symmetry_space_group_name_H-M "P 21 21 2"
_symmetry_group_IT_number 18
_symmetry_cell_setting 'orthorhombic'
loop_
_space_group_symop_operation_xyz
x,y,z
-x,-y,z
1/2+x,1/2-y,-z
1/2-x,1/2+y,-z
loop_
_atom_site_type_symbol
_atom_site_label
_atom_site_fract_x
_atom_site_fract_y
_atom_site_fract_z
Si Si1 0.704695 0.837987 0.978651
Si Si2 0.500000 0.000000 0.362639
Si Si3 0.334207 0.956765 0.651887
Si Si4 0.030440 0.301468 0.004800
Si Si5 0.212477 0.934945 0.265760
Si Si6 0.000000 0.000000 0.145500
O O1 0.585616 0.839308 0.972604
O O2 0.734060 0.681104 0.915441
O O3 0.732850 0.940169 0.788215
O O4 0.745488 0.914575 0.184722
O O5 0.412583 0.047499 0.515067
O O6 0.451263 0.880738 0.215176
O O7 0.402489 0.860952 0.804737
O O8 0.262885 0.886622 0.481166
O O9 0.035426 0.133270 0.008305
O O10 0.094390 0.950052 0.278434
#
# Coordination Sequence:
#
# PCOD9313016 Si02
#       6
#     4   2   4   4   4   2
#     4  11  24  45  67 106 137 189 242 290 358 428
#     4  12  20  42  78 102 134 188 238 296 346 432
#     4  12  23  42  76 104 138 184 246 291 353 438
#     4  11  22  46  71 103 143 185 240 293 364 428
#     4  11  27  45  73 102 147 192 236 300 357 425
#     4  10  28  48  68 102 156 186 236 306 360 418
#
# _framework density 24.455625000000001
#
# number of rings (size 3 to 8) (size 9 to 14) (size 15 to 20)
#    0.000    0.800    6.000    0.000    8.400    0.000 
#    0.000    2.000    0.000    0.000    0.000    0.000 
#    0.000    0.000    0.000    0.000    0.000    0.000 
#
# Total GULP energy -111778.407575 kJ/mol
# GULP energy per Si atom -5588.920379 kJ/mol
# Density = 2.439996 g / cm^3
# Si number density = 24.455625 Si / 1000 Ang^3
#
#
#
# Elastic Constant Matrix: (Units=GPa)
#
#
# Indices 1 2 3 4 5 6 
#
# 1 117.5580 23.6922 47.7449 0.0000 0.0000 0.0000
# 2 23.6922 125.7505 25.2816 0.0000 0.0000 0.0000
# 3 47.7449 25.2816 88.1073 0.0000 0.0000 0.0000
# 4 0.0000 0.0000 0.0000 18.4366 0.0000 0.0000
# 5 0.0000 0.0000 0.0000 0.0000 39.6151 0.0000
# 6 0.0000 0.0000 0.0000 0.0000 0.0000 34.6856
#
#
#
# Elastic Compliance Matrix: (Units=1/GPa)
#
#
# Indices 1 2 3 4 5 6 
#
# 1 0.011008 -0.000928 -0.005699 0.000000 0.000000 0.000000
# 2 -0.000928 0.008517 -0.001941 0.000000 0.000000 0.000000
# 3 -0.005699 -0.001941 0.014995 0.000000 0.000000 0.000000
# 4 0.000000 0.000000 0.000000 0.054240 0.000000 0.000000
# 5 0.000000 0.000000 0.000000 0.000000 0.025243 0.000000
# 6 0.000000 0.000000 0.000000 0.000000 0.000000 0.028830
#
#
# Mechanical properties :
#
#
# Convention : Reuss Voigt Hill
#
# Bulk Modulus (GPa) = 57.52353 58.31701 57.92027
# Shear Modulus (GPa) = 30.16329 34.19394 32.17862
#
# Velocity S-wave (km/s) = 3.51577 3.74331 3.63133
# Velocity P-wave (km/s) = 6.32879 6.52541 6.42785
#
# Compressibility (1/GPa) = 0.01738419
#
# Stress axis : x y z
#
# Youngs Moduli (GPa) = 90.84266 117.40716 66.68929
#
# Poissons Ratio (x) = 0.10898 0.38005
# Poissons Ratio (y) = 0.08433 0.12944
# Poissons Ratio (z) = 0.51770 0.22788
#
# Static dielectric constant tensor:
#      x y z
#    x 2.011860 0.000000 0.000000 
#    y 0.000000 1.969160 0.000000 
#    z 0.000000 0.000000 1.927630 
# 
# From -- ./inp_files/1419.got.cif
#   From: 2010.05.17/outbox.cif.g08.bks.cpg/sg18_1_cif.got.tgz:1419.got - 2010.06.03 22:40:56.
