data_PCOD9313908
_publ_section_title
;
Structure prediction by ZEFSAII (Michael W. Deem and Ramdas Pophale) SiO2 
 PCOD9313908
Probable space group: P 21 21 21
;
_chemical_formula_sum "Si O2"
_cell_formula_units_Z 24
_cell_length_a 6.507568
_cell_length_b 18.040927
_cell_length_c 9.784320
_cell_angle_alpha 90.000000
_cell_angle_beta 90.000000
_cell_angle_gamma 90.000000
_cell_volume 1148.704208
_symmetry_space_group_name_H-M "P 21 21 21"
_symmetry_group_IT_number 19
_symmetry_cell_setting 'orthorhombic'
loop_
_space_group_symop_operation_xyz
x,y,z
1/2-x,-y,1/2+z
1/2+x,1/2-y,-z
-x,1/2+y,1/2-z
loop_
_atom_site_type_symbol
_atom_site_label
_atom_site_fract_x
_atom_site_fract_y
_atom_site_fract_z
Si Si1 0.886046 0.474334 0.757087
Si Si2 0.613267 0.694550 0.187129
Si Si3 0.372928 0.076920 0.942994
Si Si4 0.471203 0.696494 0.882269
Si Si5 0.645224 0.303924 0.181763
Si Si6 0.268380 0.415849 0.226817
O O1 0.860149 0.392656 0.697196
O O2 0.735964 0.529744 0.677127
O O3 0.117346 0.506294 0.743714
O O4 0.840532 0.466245 0.917165
O O5 0.826902 0.739785 0.183220
O O6 0.459894 0.723844 0.305861
O O7 0.509307 0.711589 0.040541
O O8 0.264626 0.158105 0.944195
O O9 0.609388 0.084443 0.898576
O O10 0.684869 0.692761 0.801241
O O11 0.357117 0.618076 0.854663
O O12 0.452629 0.357804 0.206421
#
# Coordination Sequence:
#
# PCOD9313908 Si02
#       6
#     4   4   4   4   4   4
#     4  11  26  40  69 100 130 174 223 273 334 405
#     4  11  22  37  65  99 126 177 224 267 331 395
#     4  10  24  45  63  96 133 173 218 277 335 389
#     4  10  20  37  66  92 131 171 220 275 323 387
#     4   9  20  43  61  90 130 170 213 271 323 386
#     4   9  22  40  66  89 132 171 214 275 324 384
#
# _framework density 20.893107000000001
#
# number of rings (size 3 to 8) (size 9 to 14) (size 15 to 20)
#    0.000    2.000    1.667    0.000    9.333    2.667 
#    9.000    0.000    0.000    0.000    0.000    0.000 
#    0.000    0.000    0.000    0.000    0.000    0.000 
#
# Total GULP energy -133845.864175 kJ/mol
# GULP energy per Si atom -5576.911007 kJ/mol
# Density = 2.084555 g / cm^3
# Si number density = 20.893107 Si / 1000 Ang^3
#
#
#
# Elastic Constant Matrix: (Units=GPa)
#
#
# Indices 1 2 3 4 5 6 
#
# 1 122.1757 34.7464 33.2245 0.0000 0.0000 0.0000
# 2 34.7464 79.9499 -12.9888 0.0000 0.0000 0.0000
# 3 33.2245 -12.9888 31.6080 0.0000 0.0000 0.0000
# 4 0.0000 0.0000 0.0000 28.0885 0.0000 0.0000
# 5 0.0000 0.0000 0.0000 0.0000 19.9019 0.0000
# 6 0.0000 0.0000 0.0000 0.0000 0.0000 39.3055
#
#
#
# Elastic Compliance Matrix: (Units=1/GPa)
#
#
# Indices 1 2 3 4 5 6 
#
# 1 0.017903 -0.011613 -0.023591 0.000000 0.000000 0.000000
# 2 -0.011613 0.020936 0.020811 0.000000 0.000000 0.000000
# 3 -0.023591 0.020811 0.064987 0.000000 0.000000 0.000000
# 4 0.000000 0.000000 0.000000 0.035602 0.000000 0.000000
# 5 0.000000 0.000000 0.000000 0.000000 0.050246 0.000000
# 6 0.000000 0.000000 0.000000 0.000000 0.000000 0.025442
#
#
# Mechanical properties :
#
#
# Convention : Reuss Voigt Hill
#
# Bulk Modulus (GPa) = 13.32651 38.18866 25.75759
# Shear Modulus (GPa) = 18.59315 29.37596 23.98455
#
# Velocity S-wave (km/s) = 2.98639 3.75375 3.39184
# Velocity P-wave (km/s) = 4.27593 6.09141 5.26255
#
# Compressibility (1/GPa) = 0.07503838
#
# Stress axis : x y z
#
# Youngs Moduli (GPa) = 55.85619 47.76465 15.38771
#
# Poissons Ratio (x) = 0.55471 0.36301
# Poissons Ratio (y) = 0.64868 -0.32023
# Poissons Ratio (z) = 1.31771 -0.99401
#
# Static dielectric constant tensor:
#      x y z
#    x 1.750450 0.000000 0.000000 
#    y 0.000000 1.776510 0.000000 
#    z 0.000000 0.000000 1.739920 
# 
# From -- ./inp_files/420.got.cif
#   From: 2010.05.17/outbox.cif.g08.bks.cpg/sg19_1_cif.got.tgz:420.got - 2010.06.03 22:46:19.
