data_PCOD9313354
_publ_section_title
;
Structure prediction by ZEFSAII (Michael W. Deem and Ramdas Pophale) SiO2 
 PCOD9313354
Probable space group: P 21 21 21
;
_chemical_formula_sum "Si O2"
_cell_formula_units_Z 32
_cell_length_a 11.604392
_cell_length_b 9.359884
_cell_length_c 10.676407
_cell_angle_alpha 90.000000
_cell_angle_beta 90.000000
_cell_angle_gamma 90.000000
_cell_volume 1159.626093
_symmetry_space_group_name_H-M "P 21 21 21"
_symmetry_group_IT_number 19
_symmetry_cell_setting 'orthorhombic'
loop_
_space_group_symop_operation_xyz
x,y,z
1/2-x,-y,1/2+z
1/2+x,1/2-y,-z
-x,1/2+y,1/2-z
loop_
_atom_site_type_symbol
_atom_site_label
_atom_site_fract_x
_atom_site_fract_y
_atom_site_fract_z
Si Si1 0.678885 0.463857 0.529694
Si Si2 0.186966 0.578642 0.652902
Si Si3 0.372742 0.656400 0.847966
Si Si4 0.919730 0.378020 0.502960
Si Si5 0.483228 0.409949 0.351885
Si Si6 0.538402 0.733039 0.626313
Si Si7 0.280896 0.295217 0.705825
Si Si8 0.353586 0.691583 0.446923
O O1 0.646037 0.316329 0.598304
O O2 0.816169 0.479221 0.546697
O O3 0.615374 0.445081 0.393912
O O4 0.619679 0.600695 0.590731
O O5 0.253471 0.609148 0.785522
O O6 0.057329 0.580784 0.707158
O O7 0.228428 0.419293 0.621835
O O8 0.243487 0.675115 0.543179
O O9 0.456820 0.578303 0.947105
O O10 0.449037 0.670822 0.724630
O O11 0.949723 0.247296 0.596554
O O12 0.846142 0.311520 0.385344
O O13 0.412876 0.535023 0.425855
O O14 0.615033 0.845529 0.702537
O O15 0.456613 0.776335 0.513458
O O16 0.184147 0.261347 0.808744
#
# Coordination Sequence:
#
# PCOD9313354 Si02
#       8
#     4   4   4   4   4   4   4   4
#     4  10  19  35  56  79 115 145 186 230 287 342
#     4  10  17  33  57  84 103 141 193 235 271 327
#     4   9  19  31  57  82 107 145 185 236 268 330
#     4  10  18  34  53  81 112 143 182 228 285 330
#     4   9  17  31  54  79 102 139 183 227 275 328
#     4   9  20  35  53  79 110 151 183 226 280 324
#     4  10  20  35  56  81 114 143 184 235 274 334
#     4   9  18  34  54  77 109 141 184 227 272 327
#
# _framework density 27.595102000000001
#
# number of rings (size 3 to 8) (size 9 to 14) (size 15 to 20)
#    0.000    2.500    2.500    0.000    5.250    0.000 
#    4.500    1.250    0.000    6.000    0.000    0.000 
#    0.000    0.000    0.000    0.000    0.000    0.000 
#
# Total GULP energy -178814.167449 kJ/mol
# GULP energy per Si atom -5587.942733 kJ/mol
# Density = 2.753229 g / cm^3
# Si number density = 27.595102 Si / 1000 Ang^3
#
#
#
# Elastic Constant Matrix: (Units=GPa)
#
#
# Indices 1 2 3 4 5 6 
#
# 1 113.9111 33.9939 17.4302 0.0000 0.0000 0.0000
# 2 33.9939 60.9000 19.7368 0.0000 0.0000 0.0000
# 3 17.4302 19.7368 80.8963 0.0000 0.0000 0.0000
# 4 0.0000 0.0000 0.0000 20.8749 0.0000 0.0000
# 5 0.0000 0.0000 0.0000 0.0000 64.3768 0.0000
# 6 0.0000 0.0000 0.0000 0.0000 0.0000 45.6345
#
#
#
# Elastic Compliance Matrix: (Units=1/GPa)
#
#
# Indices 1 2 3 4 5 6 
#
# 1 0.010595 -0.005618 -0.000912 0.000000 0.000000 0.000000
# 2 -0.005618 0.020810 -0.003866 0.000000 0.000000 0.000000
# 3 -0.000912 -0.003866 0.013501 0.000000 0.000000 0.000000
# 4 0.000000 0.000000 0.000000 0.047904 0.000000 0.000000
# 5 0.000000 0.000000 0.000000 0.000000 0.015534 0.000000
# 6 0.000000 0.000000 0.000000 0.000000 0.000000 0.021913
#
#
# Mechanical properties :
#
#
# Convention : Reuss Voigt Hill
#
# Bulk Modulus (GPa) = 41.47320 44.22547 42.84934
# Shear Modulus (GPa) = 31.42903 38.48034 34.95469
#
# Velocity S-wave (km/s) = 3.37847 3.73830 3.56293
# Velocity P-wave (km/s) = 5.50278 5.89021 5.69979
#
# Compressibility (1/GPa) = 0.02411195
#
# Stress axis : x y z
#
# Youngs Moduli (GPa) = 94.38389 48.05472 74.06665
#
# Poissons Ratio (x) = 0.26999 0.06755
# Poissons Ratio (y) = 0.53029 0.28638
# Poissons Ratio (z) = 0.08608 0.18580
#
# Static dielectric constant tensor:
#      x y z
#    x 2.252660 0.000000 0.000000 
#    y 0.000000 2.131610 0.000000 
#    z 0.000000 0.000000 2.147970 
# 
# From -- ./inp_files/5021.got.cif
#   From: 2010.05.17/outbox.cif.g08.bks.cpg/sg19_3_cif.got.tgz:5021.got - 2010.06.03 22:46:19.
