data_PCOD9313431
_publ_section_title
;
Structure prediction by ZEFSAII (Michael W. Deem and Ramdas Pophale) SiO2 
 PCOD9313431
Probable space group: P 21 21 21
;
_chemical_formula_sum "Si O2"
_cell_formula_units_Z 32
_cell_length_a 4.974137
_cell_length_b 16.802357
_cell_length_c 19.640909
_cell_angle_alpha 90.000000
_cell_angle_beta 90.000000
_cell_angle_gamma 90.000000
_cell_volume 1641.532683
_symmetry_space_group_name_H-M "P 21 21 21"
_symmetry_group_IT_number 19
_symmetry_cell_setting 'orthorhombic'
loop_
_space_group_symop_operation_xyz
x,y,z
1/2-x,-y,1/2+z
1/2+x,1/2-y,-z
-x,1/2+y,1/2-z
loop_
_atom_site_type_symbol
_atom_site_label
_atom_site_fract_x
_atom_site_fract_y
_atom_site_fract_z
Si Si1 0.316603 0.208945 0.532650
Si Si2 0.000090 0.403809 0.658649
Si Si3 0.394129 0.088545 0.192930
Si Si4 0.606343 0.801089 0.686701
Si Si5 0.099584 0.967706 0.987663
Si Si6 0.501812 0.290697 0.665585
Si Si7 0.411165 0.546018 0.449370
Si Si8 0.839723 0.222128 0.038786
O O1 0.538781 0.247061 0.482686
O O2 0.293252 0.116608 0.515635
O O3 0.420525 0.228464 0.608129
O O4 0.935007 0.445066 0.731180
O O5 0.958382 0.456935 0.592236
O O6 0.793140 0.329352 0.655270
O O7 0.295870 0.365439 0.659191
O O8 0.591678 0.165504 0.192359
O O9 0.488697 0.037192 0.128672
O O10 0.094745 0.122542 0.182390
O O11 0.529240 0.759709 0.757366
O O12 0.584219 0.754834 0.616076
O O13 0.329221 0.031379 0.004099
O O14 0.826158 0.988139 0.027193
O O15 0.289298 0.634261 0.457137
O O16 0.607853 0.275533 0.005833
#
# Coordination Sequence:
#
# PCOD9313431 Si02
#       8
#     4   4   4   4   4   4   4   4
#     4  12  21  35  56  86 119 154 193 231 278 337
#     4  10  19  33  58  84 107 148 195 233 270 324
#     4   9  18  35  56  80 108 143 193 235 266 338
#     4   9  18  32  58  86 106 138 187 238 281 329
#     4  12  22  35  58  86 120 152 187 236 293 339
#     4  10  18  34  54  84 114 143 194 237 263 326
#     4  11  23  38  57  86 113 149 192 235 292 351
#     4  11  21  38  63  86 109 143 193 245 295 344
#
# _framework density 19.493979
#
# number of rings (size 3 to 8) (size 9 to 14) (size 15 to 20)
#    0.000    1.500    2.500    5.250    0.000    0.000 
#    0.000    0.000    8.250    0.000    0.000    0.000 
#    0.000    0.000    0.000    0.000    0.000    0.000 
#
# Total GULP energy -178647.445553 kJ/mol
# GULP energy per Si atom -5582.732674 kJ/mol
# Density = 1.944961 g / cm^3
# Si number density = 19.493979 Si / 1000 Ang^3
#
#
#
# Elastic Constant Matrix: (Units=GPa)
#
#
# Indices 1 2 3 4 5 6 
#
# 1 79.9754 1.8081 8.1012 0.0000 0.0000 0.0000
# 2 1.8081 28.4005 22.5370 0.0000 0.0000 0.0000
# 3 8.1012 22.5370 160.7440 0.0000 0.0000 0.0000
# 4 0.0000 0.0000 0.0000 11.0208 0.0000 0.0000
# 5 0.0000 0.0000 0.0000 0.0000 28.1099 0.0000
# 6 0.0000 0.0000 0.0000 0.0000 0.0000 20.9905
#
#
#
# Elastic Compliance Matrix: (Units=1/GPa)
#
#
# Indices 1 2 3 4 5 6 
#
# 1 0.012571 -0.000335 -0.000587 0.000000 0.000000 0.000000
# 2 -0.000335 0.039627 -0.005539 0.000000 0.000000 0.000000
# 3 -0.000587 -0.005539 0.007027 0.000000 0.000000 0.000000
# 4 0.000000 0.000000 0.000000 0.090737 0.000000 0.000000
# 5 0.000000 0.000000 0.000000 0.000000 0.035575 0.000000
# 6 0.000000 0.000000 0.000000 0.000000 0.000000 0.047641
#
#
# Mechanical properties :
#
#
# Convention : Reuss Voigt Hill
#
# Bulk Modulus (GPa) = 21.59616 37.11249 29.35432
# Shear Modulus (GPa) = 19.11799 27.80250 23.46024
#
# Velocity S-wave (km/s) = 3.13503 3.78062 3.47286
# Velocity P-wave (km/s) = 4.92006 6.17549 5.58317
#
# Compressibility (1/GPa) = 0.04630453
#
# Stress axis : x y z
#
# Youngs Moduli (GPa) = 79.54926 25.23508 142.30358
#
# Poissons Ratio (x) = 0.00845 0.08348
# Poissons Ratio (y) = 0.02663 0.78823
# Poissons Ratio (z) = 0.04666 0.13978
#
# Static dielectric constant tensor:
#      x y z
#    x 1.673270 0.000000 0.000000 
#    y 0.000000 1.653780 0.000000 
#    z 0.000000 0.000000 1.746580 
# 
# From -- ./inp_files/6453.got.cif
#   From: 2010.05.17/outbox.cif.g08.bks.cpg/sg19_4_cif.got.tgz:6453.got - 2010.06.03 22:46:19.
