data_PCOD9313400
_publ_section_title
;
Structure prediction by ZEFSAII (Michael W. Deem and Ramdas Pophale) SiO2 
 PCOD9313400
Probable space group: P 21 21 21
;
_chemical_formula_sum "Si O2"
_cell_formula_units_Z 24
_cell_length_a 7.799238
_cell_length_b 14.690341
_cell_length_c 7.676944
_cell_angle_alpha 90.000000
_cell_angle_beta 90.000000
_cell_angle_gamma 90.000000
_cell_volume 879.574081
_symmetry_space_group_name_H-M "P 21 21 21"
_symmetry_group_IT_number 19
_symmetry_cell_setting 'orthorhombic'
loop_
_space_group_symop_operation_xyz
x,y,z
1/2-x,-y,1/2+z
1/2+x,1/2-y,-z
-x,1/2+y,1/2-z
loop_
_atom_site_type_symbol
_atom_site_label
_atom_site_fract_x
_atom_site_fract_y
_atom_site_fract_z
Si Si1 0.032401 0.975400 0.835540
Si Si2 0.754715 0.370095 0.126842
Si Si3 0.637782 0.377594 0.735048
Si Si4 0.587674 0.033324 0.724275
Si Si5 0.781300 0.197994 0.656760
Si Si6 0.862678 0.803951 0.771470
O O1 0.208374 0.918822 0.880523
O O2 0.919504 0.906094 0.718295
O O3 0.111109 0.070017 0.770174
O O4 0.931825 0.980354 0.016837
O O5 0.933319 0.405848 0.198136
O O6 0.737552 0.261683 0.141511
O O7 0.710322 0.395882 0.929091
O O8 0.464775 0.434015 0.704435
O O9 0.635956 0.270161 0.717920
O O10 0.751105 0.098956 0.742919
O O11 0.738958 0.194196 0.452415
O O12 0.959555 0.247770 0.697450
#
# Coordination Sequence:
#
# PCOD9313400 Si02
#       6
#     4   4   4   4   4   4
#     4   8  17  33  52  70  97 134 169 196 241 311
#     4  10  18  31  54  77  99 127 165 211 254 292
#     4   9  18  32  52  77 102 130 167 208 252 305
#     4   9  18  35  55  74  98 135 172 205 248 306
#     4  10  20  35  53  73 101 136 174 205 245 305
#     4  10  19  34  52  73  99 136 171 203 244 301
#
# _framework density 27.285933
#
# number of rings (size 3 to 8) (size 9 to 14) (size 15 to 20)
#    0.000    2.667    0.000    3.000    0.000    4.000 
#    0.000    6.667    0.000    2.000    0.000    0.000 
#    0.000    0.000    0.000    0.000    0.000    0.000 
#
# Total GULP energy -134130.636467 kJ/mol
# GULP energy per Si atom -5588.776519 kJ/mol
# Density = 2.722383 g / cm^3
# Si number density = 27.285933 Si / 1000 Ang^3
#
#
#
# Elastic Constant Matrix: (Units=GPa)
#
#
# Indices 1 2 3 4 5 6 
#
# 1 100.5018 -5.5627 15.1353 0.0000 0.0000 0.0000
# 2 -5.5627 132.7669 35.4999 0.0000 0.0000 0.0000
# 3 15.1353 35.4999 30.6495 0.0000 0.0000 0.0000
# 4 0.0000 0.0000 0.0000 35.1915 0.0000 0.0000
# 5 0.0000 0.0000 0.0000 0.0000 10.3345 0.0000
# 6 0.0000 0.0000 0.0000 0.0000 0.0000 54.2021
#
#
#
# Elastic Compliance Matrix: (Units=1/GPa)
#
#
# Indices 1 2 3 4 5 6 
#
# 1 0.011467 0.002889 -0.009009 0.000000 0.000000 0.000000
# 2 0.002889 0.011639 -0.014908 0.000000 0.000000 0.000000
# 3 -0.009009 -0.014908 0.054343 0.000000 0.000000 0.000000
# 4 0.000000 0.000000 0.000000 0.028416 0.000000 0.000000
# 5 0.000000 0.000000 0.000000 0.000000 0.096763 0.000000
# 6 0.000000 0.000000 0.000000 0.000000 0.000000 0.018449
#
#
# Mechanical properties :
#
#
# Convention : Reuss Voigt Hill
#
# Bulk Modulus (GPa) = 28.25375 39.34034 33.79705
# Shear Modulus (GPa) = 18.18639 34.53534 26.36086
#
# Velocity S-wave (km/s) = 2.58449 3.56150 3.11158
# Velocity P-wave (km/s) = 4.39127 5.60014 5.03214
#
# Compressibility (1/GPa) = 0.03539353
#
# Stress axis : x y z
#
# Youngs Moduli (GPa) = 87.20883 85.91634 18.40166
#
# Poissons Ratio (x) = -0.24824 0.16578
# Poissons Ratio (y) = -0.25197 0.27433
# Poissons Ratio (z) = 0.78567 1.28084
#
# Static dielectric constant tensor:
#      x y z
#    x 2.187290 0.000000 0.000000 
#    y 0.000000 2.156560 0.000000 
#    z 0.000000 0.000000 2.083660 
# 
# From -- ./inp_files/2747.got.cif
#   From: 2010.05.17/outbox.cif.g08.bks.cpg/sg19_2_cif.got.tgz:2747.got - 2010.06.03 22:46:19.
