data_PCOD9313774
_publ_section_title
;
Structure prediction by ZEFSAII (Michael W. Deem and Ramdas Pophale) SiO2 
 PCOD9313774
Probable space group: P 21 21 21
;
_chemical_formula_sum "Si O2"
_cell_formula_units_Z 24
_cell_length_a 12.239336
_cell_length_b 7.756195
_cell_length_c 9.396106
_cell_angle_alpha 90.000000
_cell_angle_beta 90.000000
_cell_angle_gamma 90.000000
_cell_volume 891.978701
_symmetry_space_group_name_H-M "P 21 21 21"
_symmetry_group_IT_number 19
_symmetry_cell_setting 'orthorhombic'
loop_
_space_group_symop_operation_xyz
x,y,z
1/2-x,-y,1/2+z
1/2+x,1/2-y,-z
-x,1/2+y,1/2-z
loop_
_atom_site_type_symbol
_atom_site_label
_atom_site_fract_x
_atom_site_fract_y
_atom_site_fract_z
Si Si1 0.203302 0.153465 0.607600
Si Si2 0.942302 0.523441 0.130709
Si Si3 0.447618 0.093121 0.288553
Si Si4 0.279599 0.301397 0.883346
Si Si5 0.879352 0.042542 0.582930
Si Si6 0.604766 0.424247 0.952855
O O1 0.236761 0.294620 0.720976
O O2 0.120773 0.153031 0.476455
O O3 0.152692 0.004589 0.711565
O O4 0.317262 0.091142 0.546869
O O5 0.881454 0.334636 0.112886
O O6 0.936080 0.586675 0.292415
O O7 0.064289 0.527033 0.071415
O O8 0.544386 0.090361 0.174933
O O9 0.412174 0.281788 0.336511
O O10 0.480775 0.976634 0.425622
O O11 0.249964 0.500409 0.919111
O O12 0.190571 0.216514 0.991697
#
# Coordination Sequence:
#
# PCOD9313774 Si02
#       6
#     4   4   4   4   4   4
#     4   8  16  34  57  78 106 149 190 226 284 352
#     4   9  18  32  54  81 111 146 187 239 295 338
#     4  10  20  34  56  83 111 151 195 237 287 351
#     4   9  18  35  57  78 109 154 194 233 288 353
#     4  11  21  36  57  82 114 154 200 240 284 352
#     4   9  17  33  55  78 107 142 184 235 290 338
#
# _framework density 26.906472999999998
#
# number of rings (size 3 to 8) (size 9 to 14) (size 15 to 20)
#    0.000    2.667    0.000    4.000    0.000    1.333 
#    0.000   10.000    0.000   12.000    0.000    0.000 
#    0.000    0.000    0.000    0.000    0.000    0.000 
#
# Total GULP energy -133892.396292 kJ/mol
# GULP energy per Si atom -5578.849845 kJ/mol
# Density = 2.684523 g / cm^3
# Si number density = 26.906473 Si / 1000 Ang^3
#
#
#
# Elastic Constant Matrix: (Units=GPa)
#
#
# Indices 1 2 3 4 5 6 
#
# 1 85.3865 40.5138 31.6121 0.0000 0.0000 0.0000
# 2 40.5138 86.2789 27.3110 0.0000 0.0000 0.0000
# 3 31.6121 27.3110 166.8262 0.0000 0.0000 0.0000
# 4 0.0000 0.0000 0.0000 19.8794 0.0000 0.0000
# 5 0.0000 0.0000 0.0000 0.0000 34.1335 0.0000
# 6 0.0000 0.0000 0.0000 0.0000 0.0000 50.6113
#
#
#
# Elastic Compliance Matrix: (Units=1/GPa)
#
#
# Indices 1 2 3 4 5 6 
#
# 1 0.015593 -0.006736 -0.001852 0.000000 0.000000 0.000000
# 2 -0.006736 0.015133 -0.001201 0.000000 0.000000 0.000000
# 3 -0.001852 -0.001201 0.006542 0.000000 0.000000 0.000000
# 4 0.000000 0.000000 0.000000 0.050303 0.000000 0.000000
# 5 0.000000 0.000000 0.000000 0.000000 0.029297 0.000000
# 6 0.000000 0.000000 0.000000 0.000000 0.000000 0.019758
#
#
# Mechanical properties :
#
#
# Convention : Reuss Voigt Hill
#
# Bulk Modulus (GPa) = 56.52750 59.70727 58.11739
# Shear Modulus (GPa) = 30.84486 36.86182 33.85334
#
# Velocity S-wave (km/s) = 3.38949 3.70536 3.55094
# Velocity P-wave (km/s) = 6.03097 6.36751 6.20152
#
# Compressibility (1/GPa) = 0.01769050
#
# Stress axis : x y z
#
# Youngs Moduli (GPa) = 64.13098 66.07892 152.86217
#
# Poissons Ratio (x) = 0.44509 0.28311
# Poissons Ratio (y) = 0.43197 0.18360
# Poissons Ratio (z) = 0.11877 0.07937
#
# Static dielectric constant tensor:
#      x y z
#    x 2.137310 0.000000 0.000000 
#    y 0.000000 2.415430 0.000000 
#    z 0.000000 0.000000 2.156270 
# 
# From -- ./inp_files/4128.got.cif
#   From: 2010.05.17/outbox.cif.g08.bks.cpg/sg19_3_cif.got.tgz:4128.got - 2010.06.03 22:46:19.
