data_PCOD9313668
_publ_section_title
;
Structure prediction by ZEFSAII (Michael W. Deem and Ramdas Pophale) SiO2 
 PCOD9313668
Probable space group: P 21 21 21
;
_chemical_formula_sum "Si O2"
_cell_formula_units_Z 32
_cell_length_a 14.879498
_cell_length_b 7.979173
_cell_length_c 13.375549
_cell_angle_alpha 90.000000
_cell_angle_beta 90.000000
_cell_angle_gamma 90.000000
_cell_volume 1588.026617
_symmetry_space_group_name_H-M "P 21 21 21"
_symmetry_group_IT_number 19
_symmetry_cell_setting 'orthorhombic'
loop_
_space_group_symop_operation_xyz
x,y,z
1/2-x,-y,1/2+z
1/2+x,1/2-y,-z
-x,1/2+y,1/2-z
loop_
_atom_site_type_symbol
_atom_site_label
_atom_site_fract_x
_atom_site_fract_y
_atom_site_fract_z
Si Si1 0.333799 0.557701 0.890271
Si Si2 0.621931 0.217458 0.229468
Si Si3 0.819977 0.259256 0.716378
Si Si4 0.203042 0.526529 0.610259
Si Si5 0.010017 0.586602 0.849568
Si Si6 0.206547 0.902482 0.306013
Si Si7 0.564458 0.404408 0.571428
Si Si8 0.381778 0.374747 0.693611
O O1 0.241162 0.621955 0.841395
O O2 0.387388 0.726369 0.914944
O O3 0.383295 0.451891 0.805092
O O4 0.318200 0.465928 0.994433
O O5 0.650244 0.122360 0.331942
O O6 0.564061 0.376213 0.264808
O O7 0.712940 0.270867 0.172875
O O8 0.561944 0.085851 0.170243
O O9 0.916790 0.237247 0.664257
O O10 0.763140 0.428951 0.715341
O O11 0.824835 0.192275 0.829604
O O12 0.306724 0.477039 0.631040
O O13 0.965443 0.578361 0.957411
O O14 0.153394 0.815385 0.213408
O O15 0.133770 0.954247 0.389017
O O16 0.476103 0.396458 0.640329
#
# Coordination Sequence:
#
# PCOD9313668 Si02
#       8
#     4   4   4   4   4   4   4   4
#     4  10  19  38  61  87 125 167 208 257 326 382
#     4  10  21  39  65  91 128 164 215 279 326 383
#     4   9  20  36  62  88 125 163 210 270 321 381
#     4   9  18  37  60  88 115 166 211 258 325 376
#     4  11  21  40  68  96 123 171 223 274 327 393
#     4  10  22  42  60  92 135 172 207 273 331 389
#     4  11  22  39  66  92 127 174 216 259 333 398
#     4  10  21  37  62  90 130 165 214 262 313 392
#
# _framework density 20.150796
#
# number of rings (size 3 to 8) (size 9 to 14) (size 15 to 20)
#    0.000    2.000    1.250    3.000    0.000    0.000 
#    6.750    0.000    5.500    0.000    0.000    0.000 
#    0.000    0.000    0.000    0.000    0.000    0.000 
#
# Total GULP energy -178588.801096 kJ/mol
# GULP energy per Si atom -5580.900034 kJ/mol
# Density = 2.010493 g / cm^3
# Si number density = 20.150796 Si / 1000 Ang^3
#
#
#
# Elastic Constant Matrix: (Units=GPa)
#
#
# Indices 1 2 3 4 5 6 
#
# 1 124.0473 29.9685 45.9360 0.0000 0.0000 0.0000
# 2 29.9685 77.1091 23.1254 0.0000 0.0000 0.0000
# 3 45.9360 23.1254 94.0040 0.0000 0.0000 0.0000
# 4 0.0000 0.0000 0.0000 16.9774 0.0000 0.0000
# 5 0.0000 0.0000 0.0000 0.0000 20.3051 0.0000
# 6 0.0000 0.0000 0.0000 0.0000 0.0000 34.3174
#
#
#
# Elastic Compliance Matrix: (Units=1/GPa)
#
#
# Indices 1 2 3 4 5 6 
#
# 1 0.010339 -0.002702 -0.004387 0.000000 0.000000 0.000000
# 2 -0.002702 0.014708 -0.002298 0.000000 0.000000 0.000000
# 3 -0.004387 -0.002298 0.013347 0.000000 0.000000 0.000000
# 4 0.000000 0.000000 0.000000 0.058902 0.000000 0.000000
# 5 0.000000 0.000000 0.000000 0.000000 0.049249 0.000000
# 6 0.000000 0.000000 0.000000 0.000000 0.000000 0.029140
#
#
# Mechanical properties :
#
#
# Convention : Reuss Voigt Hill
#
# Bulk Modulus (GPa) = 50.97104 54.80223 52.88663
# Shear Modulus (GPa) = 24.87571 27.39534 26.13553
#
# Velocity S-wave (km/s) = 3.51733 3.69116 3.60529
# Velocity P-wave (km/s) = 6.46878 6.73954 6.60555
#
# Compressibility (1/GPa) = 0.01961899
#
# Stress axis : x y z
#
# Youngs Moduli (GPa) = 96.72069 67.99009 74.92289
#
# Poissons Ratio (x) = 0.18374 0.32872
# Poissons Ratio (y) = 0.26138 0.17215
# Poissons Ratio (z) = 0.42436 0.15622
#
# Static dielectric constant tensor:
#      x y z
#    x 1.736130 0.000000 0.000000 
#    y 0.000000 1.765870 0.000000 
#    z 0.000000 0.000000 1.669950 
# 
# From -- ./inp_files/5252.got.cif
#   From: 2010.05.17/outbox.cif.g08.bks.cpg/sg19_3_cif.got.tgz:5252.got - 2010.06.03 22:46:19.
