data_PCOD9313107
_publ_section_title
;
Structure prediction by ZEFSAII (Michael W. Deem and Ramdas Pophale) SiO2 
 PCOD9313107
Probable space group: P 21 21 2
;
_chemical_formula_sum "Si O2"
_cell_formula_units_Z 18
_cell_length_a 8.156764
_cell_length_b 8.196305
_cell_length_c 11.892677
_cell_angle_alpha 90.000000
_cell_angle_beta 90.000000
_cell_angle_gamma 90.000000
_cell_volume 795.088793
_symmetry_space_group_name_H-M "P 21 21 2"
_symmetry_group_IT_number 18
_symmetry_cell_setting 'orthorhombic'
loop_
_space_group_symop_operation_xyz
x,y,z
-x,-y,z
1/2+x,1/2-y,-z
1/2-x,1/2+y,-z
loop_
_atom_site_type_symbol
_atom_site_label
_atom_site_fract_x
_atom_site_fract_y
_atom_site_fract_z
Si Si1 0.500000 0.500000 0.764007
Si Si2 0.754850 0.101311 0.072484
Si Si3 0.750535 0.047895 0.430638
Si Si4 0.450581 0.262378 0.394218
Si Si5 0.410472 0.247512 0.131020
O O1 0.415202 0.370575 0.848642
O O2 0.353746 0.519508 0.675174
O O3 0.600081 0.217472 0.096765
O O4 0.685426 0.921921 0.103036
O O5 0.820291 0.120742 0.946430
O O6 0.640450 0.205994 0.398962
O O7 0.866880 0.096522 0.532996
O O8 0.632914 0.896480 0.450488
O O9 0.407328 0.282489 0.263301
#
# Coordination Sequence:
#
# PCOD9313107 Si02
#       5
#     2   4   4   4   4
#     4  12  20  42  66  96 124 190 208 280 332 402
#     4  11  23  42  71  96 140 178 230 273 351 389
#     4  11  23  42  71  96 140 178 230 273 351 389
#     4  11  23  46  65 105 137 182 226 289 327 415
#     4  11  23  46  65 105 137 182 226 289 327 415
#
# _framework density 22.638978000000002
#
# number of rings (size 3 to 8) (size 9 to 14) (size 15 to 20)
#    0.000    0.889    4.444    4.000    0.000    0.000 
#    4.000    5.556    0.000    0.000    0.000    0.000 
#    0.000    0.000    0.000    0.000    0.000    0.000 
#
# Total GULP energy -100350.089036 kJ/mol
# GULP energy per Si atom -5575.004946 kJ/mol
# Density = 2.258745 g / cm^3
# Si number density = 22.638978 Si / 1000 Ang^3
#
#
#
# Elastic Constant Matrix: (Units=GPa)
#
#
# Indices 1 2 3 4 5 6 
#
# 1 142.3800 33.8937 85.0253 0.0000 0.0000 0.0000
# 2 33.8937 35.7707 38.3119 0.0000 0.0000 0.0000
# 3 85.0253 38.3119 182.6408 0.0000 0.0000 0.0000
# 4 0.0000 0.0000 0.0000 25.7727 0.0000 0.0000
# 5 0.0000 0.0000 0.0000 0.0000 13.5724 0.0000
# 6 0.0000 0.0000 0.0000 0.0000 0.0000 33.4970
#
#
#
# Elastic Compliance Matrix: (Units=1/GPa)
#
#
# Indices 1 2 3 4 5 6 
#
# 1 0.010695 -0.006193 -0.003680 0.000000 0.000000 0.000000
# 2 -0.006193 0.039642 -0.005433 0.000000 0.000000 0.000000
# 3 -0.003680 -0.005433 0.008328 0.000000 0.000000 0.000000
# 4 0.000000 0.000000 0.000000 0.038801 0.000000 0.000000
# 5 0.000000 0.000000 0.000000 0.000000 0.073679 0.000000
# 6 0.000000 0.000000 0.000000 0.000000 0.000000 0.029853
#
#
# Mechanical properties :
#
#
# Convention : Reuss Voigt Hill
#
# Bulk Modulus (GPa) = 35.64454 75.02815 55.33634
# Shear Modulus (GPa) = 20.75027 28.13912 24.44470
#
# Velocity S-wave (km/s) = 3.03078 3.52937 3.28954
# Velocity P-wave (km/s) = 5.29400 7.05845 6.23892
#
# Compressibility (1/GPa) = 0.02805479
#
# Stress axis : x y z
#
# Youngs Moduli (GPa) = 93.50001 25.22562 120.07708
#
# Poissons Ratio (x) = 0.15621 0.44188
# Poissons Ratio (y) = 0.57901 0.65235
# Poissons Ratio (z) = 0.34408 0.13704
#
# Static dielectric constant tensor:
#      x y z
#    x 1.948990 0.000000 0.000000 
#    y 0.000000 1.940980 0.000000 
#    z 0.000000 0.000000 1.820150 
# 
# From -- ./inp_files/5359.got.cif
#   From: 2010.05.17/outbox.cif.g08.bks.cpg/sg18_3_cif.got.tgz:5359.got - 2010.06.03 22:40:56.
