data_PCOD9313144
_publ_section_title
;
Structure prediction by ZEFSAII (Michael W. Deem and Ramdas Pophale) SiO2 
 PCOD9313144
Probable space group: P 21 21 2
;
_chemical_formula_sum "Si O2"
_cell_formula_units_Z 18
_cell_length_a 14.145900
_cell_length_b 5.475678
_cell_length_c 8.353744
_cell_angle_alpha 90.000000
_cell_angle_beta 90.000000
_cell_angle_gamma 90.000000
_cell_volume 647.067589
_symmetry_space_group_name_H-M "P 21 21 2"
_symmetry_group_IT_number 18
_symmetry_cell_setting 'orthorhombic'
loop_
_space_group_symop_operation_xyz
x,y,z
-x,-y,z
1/2+x,1/2-y,-z
1/2-x,1/2+y,-z
loop_
_atom_site_type_symbol
_atom_site_label
_atom_site_fract_x
_atom_site_fract_y
_atom_site_fract_z
Si Si1 0.500000 0.000000 0.116529
Si Si2 0.142863 0.886779 0.574117
Si Si3 0.137695 0.401344 0.448594
Si Si4 0.351315 0.219231 0.876381
Si Si5 0.363101 0.616299 0.096530
O O1 0.451346 0.755765 0.176482
O O2 0.588042 0.926978 0.004234
O O3 0.101709 0.124856 0.480255
O O4 0.250939 0.867590 0.508136
O O5 0.155328 0.921766 0.762589
O O6 0.097584 0.619265 0.558153
O O7 0.132069 0.553433 0.281327
O O8 0.239417 0.242468 0.907245
O O9 0.383956 0.496969 0.922516
#
# Coordination Sequence:
#
# PCOD9313144 Si02
#       5
#     2   4   4   4   4
#     4  12  26  44  70 104 144 176 240 296 354 414
#     4   9  20  38  67 101 138 183 234 288 356 426
#     4   9  20  38  67 101 138 183 234 288 356 426
#     4  11  24  43  74 104 140 188 238 294 358 426
#     4  11  24  43  74 104 140 188 238 294 358 426
#
# _framework density 27.817803999999999
#
# number of rings (size 3 to 8) (size 9 to 14) (size 15 to 20)
#    0.000    1.778    2.222    0.667    6.222    1.778 
#    0.000    1.111    0.000    0.000    0.000    0.000 
#    0.000    0.000    0.000    0.000    0.000    0.000 
#
# Total GULP energy -100262.768581 kJ/mol
# GULP energy per Si atom -5570.153810 kJ/mol
# Density = 2.775449 g / cm^3
# Si number density = 27.817804 Si / 1000 Ang^3
#
#
#
# Elastic Constant Matrix: (Units=GPa)
#
#
# Indices 1 2 3 4 5 6 
#
# 1 125.7511 30.3108 0.2492 0.0000 0.0000 0.0000
# 2 30.3108 180.3310 34.0957 0.0000 0.0000 0.0000
# 3 0.2492 34.0957 68.3295 0.0000 0.0000 0.0000
# 4 0.0000 0.0000 0.0000 35.0098 0.0000 0.0000
# 5 0.0000 0.0000 0.0000 0.0000 0.6809 0.0000
# 6 0.0000 0.0000 0.0000 0.0000 0.0000 51.0418
#
#
#
# Elastic Compliance Matrix: (Units=1/GPa)
#
#
# Indices 1 2 3 4 5 6 
#
# 1 0.008321 -0.001538 0.000737 0.000000 0.000000 0.000000
# 2 -0.001538 0.006407 -0.003192 0.000000 0.000000 0.000000
# 3 0.000737 -0.003192 0.016225 0.000000 0.000000 0.000000
# 4 0.000000 0.000000 0.000000 0.028563 0.000000 0.000000
# 5 0.000000 0.000000 0.000000 0.000000 1.468670 0.000000
# 6 0.000000 0.000000 0.000000 0.000000 0.000000 0.019592
#
#
# Mechanical properties :
#
#
# Convention : Reuss Voigt Hill
#
# Bulk Modulus (GPa) = 43.53769 55.96923 49.75346
# Shear Modulus (GPa) = 3.19812 37.99688 20.59750
#
# Velocity S-wave (km/s) = 1.07339 3.69984 2.72406
# Velocity P-wave (km/s) = 4.14984 6.19802 5.27431
#
# Compressibility (1/GPa) = 0.02296860
#
# Stress axis : x y z
#
# Youngs Moduli (GPa) = 120.17073 156.07140 61.63393
#
# Poissons Ratio (x) = 0.24005 -0.04543
# Poissons Ratio (y) = 0.18483 0.19671
# Poissons Ratio (z) = -0.08858 0.49811
#
# Static dielectric constant tensor:
#      x y z
#    x 2.119460 0.000000 0.000000 
#    y 0.000000 2.791140 0.000000 
#    z 0.000000 0.000000 2.196370 
# 
# From -- ./inp_files/4399.got.cif
#   From: 2010.05.17/outbox.cif.g08.bks.cpg/sg18_3_cif.got.tgz:4399.got - 2010.06.03 22:40:56.
