data_PCOD9313158
_publ_section_title
;
Structure prediction by ZEFSAII (Michael W. Deem and Ramdas Pophale) SiO2 
 PCOD9313158
Probable space group: P 21 21 2
;
_chemical_formula_sum "Si O2"
_cell_formula_units_Z 22
_cell_length_a 10.289735
_cell_length_b 6.706857
_cell_length_c 14.537233
_cell_angle_alpha 90.000000
_cell_angle_beta 90.000000
_cell_angle_gamma 90.000000
_cell_volume 1003.240343
_symmetry_space_group_name_H-M "P 21 21 2"
_symmetry_group_IT_number 18
_symmetry_cell_setting 'orthorhombic'
loop_
_space_group_symop_operation_xyz
x,y,z
-x,-y,z
1/2+x,1/2-y,-z
1/2-x,1/2+y,-z
loop_
_atom_site_type_symbol
_atom_site_label
_atom_site_fract_x
_atom_site_fract_y
_atom_site_fract_z
Si Si1 0.180055 0.809649 0.131322
Si Si2 0.898696 0.323708 0.428785
Si Si3 0.147692 0.922031 0.612148
Si Si4 0.849956 0.061192 0.808670
Si Si5 0.000000 0.000000 0.282799
Si Si6 0.126495 0.608241 0.954508
O O1 0.265537 0.638512 0.180146
O O2 0.262979 0.945858 0.062263
O O3 0.094239 0.685738 0.057278
O O4 0.113256 0.947855 0.208146
O O5 0.856410 0.209791 0.521227
O O6 0.762101 0.415218 0.394828
O O7 0.974380 0.182951 0.354949
O O8 0.000000 0.500000 0.450845
O O9 0.175512 0.827529 0.711869
O O10 0.000000 0.000000 0.617477
O O11 0.830733 0.209315 0.891652
O O12 0.000000 0.000000 0.812159
O O13 0.000000 0.500000 0.915361
#
# Coordination Sequence:
#
# PCOD9313158 Si02
#       6
#     4   4   4   4   2   4
#     4  12  27  46  74 107 154 197 254 316 386 460
#     4  12  27  50  76 115 157 197 266 319 394 469
#     4  11  25  48  77 106 149 201 252 320 380 456
#     4  11  24  46  68 107 147 192 257 315 374 457
#     4  12  30  48  78 112 154 208 250 322 398 466
#     4  12  27  44  73 108 145 197 252 311 383 458
#
# _framework density 21.928943
#
# number of rings (size 3 to 8) (size 9 to 14) (size 15 to 20)
#    0.000    0.364    6.364    1.091    6.364    1.455 
#    0.000    0.000    0.000    0.000    0.000    0.000 
#    0.000    0.000    0.000    0.000    0.000    0.000 
#
# Total GULP energy -122626.975092 kJ/mol
# GULP energy per Si atom -5573.953413 kJ/mol
# Density = 2.187903 g / cm^3
# Si number density = 21.928943 Si / 1000 Ang^3
#
#
#
# Elastic Constant Matrix: (Units=GPa)
#
#
# Indices 1 2 3 4 5 6 
#
# 1 91.8270 58.6504 32.6962 0.0000 0.0000 0.0000
# 2 58.6504 89.8832 55.6194 0.0000 0.0000 0.0000
# 3 32.6962 55.6194 175.0003 0.0000 0.0000 0.0000
# 4 0.0000 0.0000 0.0000 12.6158 0.0000 0.0000
# 5 0.0000 0.0000 0.0000 0.0000 44.1820 0.0000
# 6 0.0000 0.0000 0.0000 0.0000 0.0000 39.6500
#
#
#
# Elastic Compliance Matrix: (Units=1/GPa)
#
#
# Indices 1 2 3 4 5 6 
#
# 1 0.018704 -0.012501 0.000478 0.000000 0.000000 0.000000
# 2 -0.012501 0.022204 -0.004721 0.000000 0.000000 0.000000
# 3 0.000478 -0.004721 0.007125 0.000000 0.000000 0.000000
# 4 0.000000 0.000000 0.000000 0.079266 0.000000 0.000000
# 5 0.000000 0.000000 0.000000 0.000000 0.022634 0.000000
# 6 0.000000 0.000000 0.000000 0.000000 0.000000 0.025221
#
#
# Mechanical properties :
#
#
# Convention : Reuss Voigt Hill
#
# Bulk Modulus (GPa) = 68.74674 72.29362 70.52018
# Shear Modulus (GPa) = 23.42031 33.27252 28.34641
#
# Velocity S-wave (km/s) = 3.27159 3.89946 3.59924
# Velocity P-wave (km/s) = 6.75935 7.30159 7.03570
#
# Compressibility (1/GPa) = 0.01454614
#
# Stress axis : x y z
#
# Youngs Moduli (GPa) = 53.46454 45.03662 140.34170
#
# Poissons Ratio (x) = 0.56299 -0.06715
# Poissons Ratio (y) = 0.66835 0.66261
# Poissons Ratio (z) = -0.02558 0.21264
#
# Static dielectric constant tensor:
#      x y z
#    x 1.790390 0.000000 0.000000 
#    y 0.000000 1.764960 0.000000 
#    z 0.000000 0.000000 1.859370 
# 
# From -- ./inp_files/6860.got.cif
#   From: 2010.05.17/outbox.cif.g08.bks.cpg/sg18_4_cif.got.tgz:6860.got - 2010.06.03 22:40:56.
