data_PCOD9313427
_publ_section_title
;
Structure prediction by ZEFSAII (Michael W. Deem and Ramdas Pophale) SiO2 
 PCOD9313427
Probable space group: P 21 21 21
;
_chemical_formula_sum "Si O2"
_cell_formula_units_Z 24
_cell_length_a 5.721816
_cell_length_b 22.282247
_cell_length_c 7.092855
_cell_angle_alpha 90.000000
_cell_angle_beta 90.000000
_cell_angle_gamma 90.000000
_cell_volume 904.302962
_symmetry_space_group_name_H-M "P 21 21 21"
_symmetry_group_IT_number 19
_symmetry_cell_setting 'orthorhombic'
loop_
_space_group_symop_operation_xyz
x,y,z
1/2-x,-y,1/2+z
1/2+x,1/2-y,-z
-x,1/2+y,1/2-z
loop_
_atom_site_type_symbol
_atom_site_label
_atom_site_fract_x
_atom_site_fract_y
_atom_site_fract_z
Si Si1 0.292275 0.855594 0.508416
Si Si2 0.715313 0.263365 0.398518
Si Si3 0.882753 0.510093 0.519817
Si Si4 0.196451 0.326723 0.951144
Si Si5 0.878371 0.613955 0.045055
Si Si6 0.743127 0.945884 0.765373
O O1 0.545950 0.827091 0.456009
O O2 0.058164 0.819297 0.455374
O O3 0.277086 0.924732 0.444088
O O4 0.311034 0.861064 0.742670
O O5 0.473211 0.247650 0.511606
O O6 0.704234 0.219371 0.220638
O O7 0.690135 0.335615 0.398228
O O8 0.026725 0.520224 0.327624
O O9 0.067532 0.493600 0.680531
O O10 0.742223 0.449052 0.504604
O O11 0.176899 0.395826 0.881039
O O12 0.150248 0.594931 0.061854
#
# Coordination Sequence:
#
# PCOD9313427 Si02
#       6
#     4   4   4   4   4   4
#     4  10  20  32  52  72 113 145 183 223 272 336
#     4  12  18  30  52  76 115 148 178 231 292 335
#     4  10  21  34  55  78 121 152 185 234 278 343
#     4  10  18  34  47  80 107 148 178 226 281 333
#     4  10  20  31  50  82 112 152 181 233 286 341
#     4  10  21  35  54  80 118 149 187 233 279 340
#
# _framework density 26.53978
#
# number of rings (size 3 to 8) (size 9 to 14) (size 15 to 20)
#    0.000    2.000    6.667    0.000    4.667    0.000 
#    0.000    0.000    0.000    0.000    0.000    0.000 
#   60.000    0.000    0.000    0.000    0.000    0.000 
#
# Total GULP energy -134170.637512 kJ/mol
# GULP energy per Si atom -5590.443230 kJ/mol
# Density = 2.647937 g / cm^3
# Si number density = 26.539780 Si / 1000 Ang^3
#
#
#
# Elastic Constant Matrix: (Units=GPa)
#
#
# Indices 1 2 3 4 5 6 
#
# 1 190.4410 57.1742 28.2181 0.0000 0.0000 0.0000
# 2 57.1742 156.4191 31.7348 0.0000 0.0000 0.0000
# 3 28.2181 31.7348 57.9759 0.0000 0.0000 0.0000
# 4 0.0000 0.0000 0.0000 47.5625 0.0000 0.0000
# 5 0.0000 0.0000 0.0000 0.0000 41.4199 0.0000
# 6 0.0000 0.0000 0.0000 0.0000 0.0000 36.6609
#
#
#
# Elastic Compliance Matrix: (Units=1/GPa)
#
#
# Indices 1 2 3 4 5 6 
#
# 1 0.006091 -0.001828 -0.001964 0.000000 0.000000 0.000000
# 2 -0.001828 0.007740 -0.003347 0.000000 0.000000 0.000000
# 3 -0.001964 -0.003347 0.020037 0.000000 0.000000 0.000000
# 4 0.000000 0.000000 0.000000 0.021025 0.000000 0.000000
# 5 0.000000 0.000000 0.000000 0.000000 0.024143 0.000000
# 6 0.000000 0.000000 0.000000 0.000000 0.000000 0.027277
#
#
# Mechanical properties :
#
#
# Convention : Reuss Voigt Hill
#
# Bulk Modulus (GPa) = 51.04746 71.01001 61.02874
# Shear Modulus (GPa) = 39.33277 44.30928 41.82102
#
# Velocity S-wave (km/s) = 3.85389 4.09044 3.97392
# Velocity P-wave (km/s) = 6.25135 7.00878 6.64087
#
# Compressibility (1/GPa) = 0.01958961
#
# Stress axis : x y z
#
# Youngs Moduli (GPa) = 164.18402 129.19433 49.90854
#
# Poissons Ratio (x) = 0.23614 0.09802
# Poissons Ratio (y) = 0.30010 0.16706
# Poissons Ratio (z) = 0.32245 0.43244
#
# Static dielectric constant tensor:
#      x y z
#    x 2.214610 0.000000 0.000000 
#    y 0.000000 1.988280 0.000000 
#    z 0.000000 0.000000 2.200650 
# 
# From -- ./inp_files/4509.got.cif
#   From: 2010.05.17/outbox.cif.g08.bks.cpg/sg19_3_cif.got.tgz:4509.got - 2010.06.03 22:46:19.
