data_PCOD9313202
_publ_section_title
;
Structure prediction by ZEFSAII (Michael W. Deem and Ramdas Pophale) SiO2 
 PCOD9313202
Probable space group: P 21 21 2
;
_chemical_formula_sum "Si O2"
_cell_formula_units_Z 20
_cell_length_a 9.440951
_cell_length_b 8.540443
_cell_length_c 10.686292
_cell_angle_alpha 90.000000
_cell_angle_beta 90.000000
_cell_angle_gamma 90.000000
_cell_volume 861.634697
_symmetry_space_group_name_H-M "P 21 21 2"
_symmetry_group_IT_number 18
_symmetry_cell_setting 'orthorhombic'
loop_
_space_group_symop_operation_xyz
x,y,z
-x,-y,z
1/2+x,1/2-y,-z
1/2-x,1/2+y,-z
loop_
_atom_site_type_symbol
_atom_site_label
_atom_site_fract_x
_atom_site_fract_y
_atom_site_fract_z
Si Si1 0.772894 0.430694 0.541942
Si Si2 0.841714 0.929476 0.176881
Si Si3 0.273147 0.290935 0.998007
Si Si4 0.047184 0.267745 0.565680
Si Si5 0.957502 0.822203 0.839676
O O1 0.728186 0.432883 0.687514
O O2 0.854847 0.591146 0.516179
O O3 0.632166 0.388709 0.466522
O O4 0.891076 0.297383 0.513694
O O5 0.768408 0.042548 0.073328
O O6 0.822460 0.755919 0.118592
O O7 0.000000 0.000000 0.186109
O O8 0.202358 0.186050 0.889440
O O9 0.430931 0.269122 0.053282
O O10 0.031396 0.278195 0.715015
O O11 0.000000 0.000000 0.812237
#
# Coordination Sequence:
#
# PCOD9313202 Si02
#       5
#     4   4   4   4   4
#     4  11  27  47  74 106 143 196 248 305 369 435
#     4  12  25  44  72 108 145 190 243 306 369 439
#     4  12  22  44  70 108 146 186 234 300 368 434
#     4  11  27  47  74 106 143 196 248 305 369 435
#     4  12  25  44  72 108 145 190 243 306 369 439
#
# _framework density 23.211694999999999
#
# number of rings (size 3 to 8) (size 9 to 14) (size 15 to 20)
#    0.000    0.400    8.000    0.000    5.600    0.800 
#    0.000    0.000    0.000    0.000    0.000    0.000 
#    0.000    0.000    0.000    0.000    0.000    0.000 
#
# Total GULP energy -111572.449838 kJ/mol
# GULP energy per Si atom -5578.622492 kJ/mol
# Density = 2.315886 g / cm^3
# Si number density = 23.211695 Si / 1000 Ang^3
#
#
#
# Elastic Constant Matrix: (Units=GPa)
#
#
# Indices 1 2 3 4 5 6 
#
# 1 142.1932 53.4456 33.5574 0.0000 0.0000 0.0000
# 2 53.4456 48.1811 1.8270 0.0000 0.0000 0.0000
# 3 33.5574 1.8270 54.6931 0.0000 0.0000 0.0000
# 4 0.0000 0.0000 0.0000 30.7893 0.0000 0.0000
# 5 0.0000 0.0000 0.0000 0.0000 41.1180 0.0000
# 6 0.0000 0.0000 0.0000 0.0000 0.0000 49.4428
#
#
#
# Elastic Compliance Matrix: (Units=1/GPa)
#
#
# Indices 1 2 3 4 5 6 
#
# 1 0.015454 -0.016805 -0.008921 0.000000 0.000000 0.000000
# 2 -0.016805 0.039054 0.009006 0.000000 0.000000 0.000000
# 3 -0.008921 0.009006 0.023456 0.000000 0.000000 0.000000
# 4 0.000000 0.000000 0.000000 0.032479 0.000000 0.000000
# 5 0.000000 0.000000 0.000000 0.000000 0.024320 0.000000
# 6 0.000000 0.000000 0.000000 0.000000 0.000000 0.020225
#
#
# Mechanical properties :
#
#
# Convention : Reuss Voigt Hill
#
# Bulk Modulus (GPa) = 22.45867 46.96970 34.71418
# Shear Modulus (GPa) = 24.59783 34.68585 29.64184
#
# Velocity S-wave (km/s) = 3.25886 3.86985 3.57742
# Velocity P-wave (km/s) = 4.88434 6.34404 5.66144
#
# Compressibility (1/GPa) = 0.04452624
#
# Stress axis : x y z
#
# Youngs Moduli (GPa) = 64.70723 25.60543 42.63232
#
# Poissons Ratio (x) = 0.43029 0.38031
# Poissons Ratio (y) = 1.08738 -0.38395
# Poissons Ratio (z) = 0.57723 -0.23060
#
# Static dielectric constant tensor:
#      x y z
#    x 1.893900 0.000000 0.000000 
#    y 0.000000 2.058960 0.000000 
#    z 0.000000 0.000000 1.820610 
# 
# From -- ./inp_files/5422.got.cif
#   From: 2010.05.17/outbox.cif.g08.bks.cpg/sg18_3_cif.got.tgz:5422.got - 2010.06.03 22:40:56.
