data_PCOD9313442
_publ_section_title
;
Structure prediction by ZEFSAII (Michael W. Deem and Ramdas Pophale) SiO2 
 PCOD9313442
Probable space group: P 21 21 21
;
_chemical_formula_sum "Si O2"
_cell_formula_units_Z 28
_cell_length_a 16.280798
_cell_length_b 5.857646
_cell_length_c 10.451647
_cell_angle_alpha 90.000000
_cell_angle_beta 90.000000
_cell_angle_gamma 90.000000
_cell_volume 996.743801
_symmetry_space_group_name_H-M "P 21 21 21"
_symmetry_group_IT_number 19
_symmetry_cell_setting 'orthorhombic'
loop_
_space_group_symop_operation_xyz
x,y,z
1/2-x,-y,1/2+z
1/2+x,1/2-y,-z
-x,1/2+y,1/2-z
loop_
_atom_site_type_symbol
_atom_site_label
_atom_site_fract_x
_atom_site_fract_y
_atom_site_fract_z
Si Si1 0.366705 0.701628 0.728049
Si Si2 0.981342 0.403636 0.812531
Si Si3 0.186104 0.708469 0.374460
Si Si4 0.549447 0.421801 0.556961
Si Si5 0.676768 0.769023 0.217836
Si Si6 0.684939 0.504959 0.993576
Si Si7 0.176941 0.338337 0.597040
O O1 0.349557 0.431793 0.750863
O O2 0.274583 0.773477 0.777341
O O3 0.367358 0.843108 0.597415
O O4 0.446272 0.773385 0.812090
O O5 0.010985 0.450529 0.958537
O O6 0.881921 0.374728 0.809721
O O7 0.996431 0.641662 0.732819
O O8 0.269084 0.851601 0.399790
O O9 0.198204 0.528569 0.490278
O O10 0.113428 0.882553 0.403939
O O11 0.591111 0.246041 0.458103
O O12 0.669140 0.027172 0.270175
O O13 0.643275 0.700903 0.078649
O O14 0.753996 0.644628 0.914180
#
# Coordination Sequence:
#
# PCOD9313442 Si02
#       7
#     4   4   4   4   4   4   4
#     4  11  23  35  65 102 142 176 218 298 385 432
#     4  12  28  47  70 100 142 200 252 300 351 430
#     4  10  18  35  58  93 136 183 208 279 365 440
#     4  10  21  41  65  93 135 179 237 289 366 430
#     4  12  22  41  67  96 146 183 233 301 354 443
#     4  11  23  37  58 101 142 181 230 281 378 445
#     4  10  19  36  57  97 137 184 214 284 365 430
#
# _framework density 28.091472
#
# number of rings (size 3 to 8) (size 9 to 14) (size 15 to 20)
#    0.000    1.143    7.143    1.714    4.000    2.286 
#    0.000    0.000    0.000    1.714    0.000    0.000 
#    0.000    0.000    0.000    0.000    0.000    0.000 
#
# Total GULP energy -155953.940315 kJ/mol
# GULP energy per Si atom -5569.783583 kJ/mol
# Density = 2.802753 g / cm^3
# Si number density = 28.091472 Si / 1000 Ang^3
#
#
#
# Elastic Constant Matrix: (Units=GPa)
#
#
# Indices 1 2 3 4 5 6 
#
# 1 54.8759 41.0488 21.4593 0.0000 0.0000 0.0000
# 2 41.0488 146.0921 64.1186 0.0000 0.0000 0.0000
# 3 21.4593 64.1186 105.3373 0.0000 0.0000 0.0000
# 4 0.0000 0.0000 0.0000 92.4235 0.0000 0.0000
# 5 0.0000 0.0000 0.0000 0.0000 21.3014 0.0000
# 6 0.0000 0.0000 0.0000 0.0000 0.0000 38.0347
#
#
#
# Elastic Compliance Matrix: (Units=1/GPa)
#
#
# Indices 1 2 3 4 5 6 
#
# 1 0.023154 -0.006053 -0.001033 0.000000 0.000000 0.000000
# 2 -0.006053 0.010922 -0.005415 0.000000 0.000000 0.000000
# 3 -0.001033 -0.005415 0.013000 0.000000 0.000000 0.000000
# 4 0.000000 0.000000 0.000000 0.010820 0.000000 0.000000
# 5 0.000000 0.000000 0.000000 0.000000 0.046945 0.000000
# 6 0.000000 0.000000 0.000000 0.000000 0.000000 0.026292
#
#
# Mechanical properties :
#
#
# Convention : Reuss Voigt Hill
#
# Bulk Modulus (GPa) = 45.29967 62.17319 53.73643
# Shear Modulus (GPa) = 30.58222 42.33050 36.45636
#
# Velocity S-wave (km/s) = 3.30307 3.88607 3.60637
# Velocity P-wave (km/s) = 5.54146 6.50506 6.04250
#
# Compressibility (1/GPa) = 0.02207522
#
# Stress axis : x y z
#
# Youngs Moduli (GPa) = 43.18843 91.55465 76.92268
#
# Poissons Ratio (x) = 0.55414 0.07944
# Poissons Ratio (y) = 0.26140 0.41657
# Poissons Ratio (z) = 0.04460 0.49581
#
# Static dielectric constant tensor:
#      x y z
#    x 2.323700 0.000000 0.000000 
#    y 0.000000 2.271040 0.000000 
#    z 0.000000 0.000000 2.331580 
# 
# From -- ./inp_files/5447.got.cif
#   From: 2010.05.17/outbox.cif.g08.bks.cpg/sg19_3_cif.got.tgz:5447.got - 2010.06.03 22:46:19.
