data_PCOD9313002
_publ_section_title
;
Structure prediction by ZEFSAII (Michael W. Deem and Ramdas Pophale) SiO2 
 PCOD9313002
Probable space group: P 21 21 2
;
_chemical_formula_sum "Si O2"
_cell_formula_units_Z 18
_cell_length_a 9.191128
_cell_length_b 7.767838
_cell_length_c 11.237415
_cell_angle_alpha 90.000000
_cell_angle_beta 90.000000
_cell_angle_gamma 90.000000
_cell_volume 802.297417
_symmetry_space_group_name_H-M "P 21 21 2"
_symmetry_group_IT_number 18
_symmetry_cell_setting 'orthorhombic'
loop_
_space_group_symop_operation_xyz
x,y,z
-x,-y,z
1/2+x,1/2-y,-z
1/2-x,1/2+y,-z
loop_
_atom_site_type_symbol
_atom_site_label
_atom_site_fract_x
_atom_site_fract_y
_atom_site_fract_z
Si Si1 0.840031 0.700203 0.648921
Si Si2 0.224091 0.123314 0.252037
Si Si3 0.513102 0.796789 0.580145
Si Si4 0.491443 0.208151 0.117855
Si Si5 0.000000 0.000000 0.075298
O O1 0.825070 0.492646 0.662558
O O2 0.678595 0.750916 0.608759
O O3 0.953397 0.758944 0.548948
O O4 0.893524 0.756716 0.779029
O O5 0.098955 0.215437 0.325612
O O6 0.332901 0.239637 0.176288
O O7 0.140842 0.999384 0.159570
O O8 0.500000 0.000000 0.587741
O O9 0.509056 0.329372 0.004885
O O10 0.500000 0.000000 0.094590
#
# Coordination Sequence:
#
# PCOD9313002 Si02
#       5
#     4   4   4   4   2
#     4  11  23  48  67 107 140 186 231 304 361 432
#     4  11  25  47  66 103 146 184 237 300 356 425
#     4  12  24  40  75 101 142 181 238 294 372 434
#     4  10  26  46  74 100 147 188 245 294 355 421
#     4  12  26  46  74 104 142 196 242 298 348 428
#
# _framework density 22.435570999999999
#
# number of rings (size 3 to 8) (size 9 to 14) (size 15 to 20)
#    0.000    0.889    2.222    4.667    9.333    0.889 
#    4.000    0.000    0.000    0.000    0.000    0.000 
#    0.000    0.000    0.000    0.000    0.000    0.000 
#
# Total GULP energy -100691.293180 kJ/mol
# GULP energy per Si atom -5593.960732 kJ/mol
# Density = 2.238451 g / cm^3
# Si number density = 22.435571 Si / 1000 Ang^3
#
#
#
# Elastic Constant Matrix: (Units=GPa)
#
#
# Indices 1 2 3 4 5 6 
#
# 1 136.8401 7.8580 55.4657 0.0000 0.0000 0.0000
# 2 7.8580 60.2719 48.8747 0.0000 0.0000 0.0000
# 3 55.4657 48.8747 125.8872 0.0000 0.0000 0.0000
# 4 0.0000 0.0000 0.0000 37.6319 0.0000 0.0000
# 5 0.0000 0.0000 0.0000 0.0000 36.0300 0.0000
# 6 0.0000 0.0000 0.0000 0.0000 0.0000 29.9174
#
#
#
# Elastic Compliance Matrix: (Units=1/GPa)
#
#
# Indices 1 2 3 4 5 6 
#
# 1 0.009270 0.003070 -0.005276 0.000000 0.000000 0.000000
# 2 0.003070 0.025232 -0.011149 0.000000 0.000000 0.000000
# 3 -0.005276 -0.011149 0.014597 0.000000 0.000000 0.000000
# 4 0.000000 0.000000 0.000000 0.026573 0.000000 0.000000
# 5 0.000000 0.000000 0.000000 0.000000 0.027755 0.000000
# 6 0.000000 0.000000 0.000000 0.000000 0.000000 0.033425
#
#
# Mechanical properties :
#
#
# Convention : Reuss Voigt Hill
#
# Bulk Modulus (GPa) = 44.66550 60.82179 52.74364
# Shear Modulus (GPa) = 29.23556 34.76924 32.00240
#
# Velocity S-wave (km/s) = 3.61375 3.94094 3.78089
# Velocity P-wave (km/s) = 6.11259 6.91928 6.52841
#
# Compressibility (1/GPa) = 0.02238865
#
# Stress axis : x y z
#
# Youngs Moduli (GPa) = 107.87287 39.63271 68.50851
#
# Poissons Ratio (x) = -0.12167 0.36147
# Poissons Ratio (y) = -0.33117 0.76378
# Poissons Ratio (z) = 0.56917 0.44185
#
# Static dielectric constant tensor:
#      x y z
#    x 1.884660 0.000000 0.000000 
#    y 0.000000 1.859410 0.000000 
#    z 0.000000 0.000000 1.827210 
# 
# From -- ./inp_files/5381.got.cif
#   From: 2010.05.17/outbox.cif.g08.bks.cpg/sg18_3_cif.got.tgz:5381.got - 2010.06.03 22:40:56.
