data_PCOD9313630
_publ_section_title
;
Structure prediction by ZEFSAII (Michael W. Deem and Ramdas Pophale) SiO2 
 PCOD9313630
Probable space group: P 21 21 21
;
_chemical_formula_sum "Si O2"
_cell_formula_units_Z 28
_cell_length_a 22.640397
_cell_length_b 5.257825
_cell_length_c 8.470746
_cell_angle_alpha 90.000000
_cell_angle_beta 90.000000
_cell_angle_gamma 90.000000
_cell_volume 1008.351211
_symmetry_space_group_name_H-M "P 21 21 21"
_symmetry_group_IT_number 19
_symmetry_cell_setting 'orthorhombic'
loop_
_space_group_symop_operation_xyz
x,y,z
1/2-x,-y,1/2+z
1/2+x,1/2-y,-z
-x,1/2+y,1/2-z
loop_
_atom_site_type_symbol
_atom_site_label
_atom_site_fract_x
_atom_site_fract_y
_atom_site_fract_z
Si Si1 0.286022 0.007148 0.270077
Si Si2 0.039408 0.659408 0.987591
Si Si3 0.935745 0.438418 0.134214
Si Si4 0.826818 0.990990 0.555085
Si Si5 0.647823 0.203245 0.483990
Si Si6 0.675385 0.805732 0.728587
Si Si7 0.037378 0.553669 0.630721
O O1 0.313532 0.792733 0.387832
O O2 0.312701 0.913188 0.102766
O O3 0.216789 0.941910 0.272418
O O4 0.302223 0.288592 0.327383
O O5 0.015572 0.601635 0.806973
O O6 0.104645 0.560140 0.966405
O O7 0.016444 0.951868 0.981224
O O8 0.002882 0.531505 0.130756
O O9 0.893831 0.272001 0.245228
O O10 0.935879 0.289305 0.967245
O O11 0.895022 0.685307 0.118270
O O12 0.802805 0.037377 0.378977
O O13 0.680989 0.971430 0.569102
O O14 0.596768 0.116590 0.362280
#
# Coordination Sequence:
#
# PCOD9313630 Si02
#       7
#     4   4   4   4   4   4   4
#     4  12  28  48  80 108 150 197 259 312 374 458
#     4  11  21  39  70 101 148 185 255 306 378 441
#     4  10  23  42  70 101 146 193 243 305 379 448
#     4  12  30  49  75 117 151 198 254 327 377 454
#     4  10  23  45  73 105 139 197 250 304 381 447
#     4  11  28  49  73 107 154 197 254 306 398 450
#     4  10  19  36  67 103 134 187 247 314 359 452
#
# _framework density 27.768104000000001
#
# number of rings (size 3 to 8) (size 9 to 14) (size 15 to 20)
#    0.000    1.143    2.857    1.714   12.000    0.000 
#    7.714    0.000    0.000    0.000    0.000    0.000 
#    0.000    0.000    0.000    0.000    0.000    0.000 
#
# Total GULP energy -156502.183916 kJ/mol
# GULP energy per Si atom -5589.363711 kJ/mol
# Density = 2.770490 g / cm^3
# Si number density = 27.768104 Si / 1000 Ang^3
#
#
#
# Elastic Constant Matrix: (Units=GPa)
#
#
# Indices 1 2 3 4 5 6 
#
# 1 168.9003 16.7297 -15.0105 0.0000 0.0000 0.0000
# 2 16.7297 62.7532 -9.4691 0.0000 0.0000 0.0000
# 3 -15.0105 -9.4691 34.8936 0.0000 0.0000 0.0000
# 4 0.0000 0.0000 0.0000 41.2864 0.0000 0.0000
# 5 0.0000 0.0000 0.0000 0.0000 41.2476 0.0000
# 6 0.0000 0.0000 0.0000 0.0000 0.0000 45.7420
#
#
#
# Elastic Compliance Matrix: (Units=1/GPa)
#
#
# Indices 1 2 3 4 5 6 
#
# 1 0.006259 -0.001316 0.002335 0.000000 0.000000 0.000000
# 2 -0.001316 0.016893 0.004018 0.000000 0.000000 0.000000
# 3 0.002335 0.004018 0.030753 0.000000 0.000000 0.000000
# 4 0.000000 0.000000 0.000000 0.024221 0.000000 0.000000
# 5 0.000000 0.000000 0.000000 0.000000 0.024244 0.000000
# 6 0.000000 0.000000 0.000000 0.000000 0.000000 0.021862
#
#
# Mechanical properties :
#
#
# Convention : Reuss Voigt Hill
#
# Bulk Modulus (GPa) = 15.63026 27.89415 21.76220
# Shear Modulus (GPa) = 36.90489 43.94167 40.42328
#
# Velocity S-wave (km/s) = 3.64955 3.98232 3.81956
# Velocity P-wave (km/s) = 4.83736 5.58680 5.22553
#
# Compressibility (1/GPa) = 0.06397847
#
# Stress axis : x y z
#
# Youngs Moduli (GPa) = 159.78152 59.19751 32.51674
#
# Poissons Ratio (x) = 0.07791 -0.07593
# Poissons Ratio (y) = 0.21029 -0.13065
# Poissons Ratio (z) = -0.37311 -0.23785
#
# Static dielectric constant tensor:
#      x y z
#    x 2.197940 0.000000 0.000000 
#    y 0.000000 2.380930 0.000000 
#    z 0.000000 0.000000 2.238080 
# 
# From -- ./inp_files/4367.got.cif
#   From: 2010.05.17/outbox.cif.g08.bks.cpg/sg19_3_cif.got.tgz:4367.got - 2010.06.03 22:46:19.
