data_PCOD9313673
_publ_section_title
;
Structure prediction by ZEFSAII (Michael W. Deem and Ramdas Pophale) SiO2 
 PCOD9313673
Probable space group: P 21 21 21
;
_chemical_formula_sum "Si O2"
_cell_formula_units_Z 32
_cell_length_a 11.274302
_cell_length_b 8.651487
_cell_length_c 14.878616
_cell_angle_alpha 90.000000
_cell_angle_beta 90.000000
_cell_angle_gamma 90.000000
_cell_volume 1451.252426
_symmetry_space_group_name_H-M "P 21 21 21"
_symmetry_group_IT_number 19
_symmetry_cell_setting 'orthorhombic'
loop_
_space_group_symop_operation_xyz
x,y,z
1/2-x,-y,1/2+z
1/2+x,1/2-y,-z
-x,1/2+y,1/2-z
loop_
_atom_site_type_symbol
_atom_site_label
_atom_site_fract_x
_atom_site_fract_y
_atom_site_fract_z
Si Si1 0.440046 0.560084 0.129729
Si Si2 0.463232 0.823442 0.248773
Si Si3 0.598866 0.310815 0.819914
Si Si4 0.562013 0.076659 0.670990
Si Si5 0.243596 0.487175 0.484750
Si Si6 0.554993 0.772907 0.976553
Si Si7 0.364873 0.121322 0.155812
Si Si8 0.483588 0.619687 0.512722
O O1 0.397935 0.667075 0.214421
O O2 0.535380 0.431837 0.161973
O O3 0.329724 0.488049 0.076295
O O4 0.500264 0.677945 0.059456
O O5 0.591679 0.742886 0.267188
O O6 0.426034 0.955519 0.178100
O O7 0.509832 0.439392 0.783462
O O8 0.724299 0.383198 0.847169
O O9 0.649209 0.106452 0.029039
O O10 0.620234 0.183091 0.745073
O O11 0.468007 0.731659 0.596307
O O12 0.657828 0.018589 0.599318
O O13 0.467011 0.171967 0.611208
O O14 0.311291 0.323314 0.499703
O O15 0.492971 0.940182 0.961817
O O16 0.421525 0.167208 0.060708
#
# Coordination Sequence:
#
# PCOD9313673 Si02
#       8
#     4   4   4   4   4   4   4   4
#     4  10  19  38  63  98 134 176 223 280 348 406
#     4  10  22  38  65 102 136 166 231 283 342 401
#     4  12  28  45  72 101 145 182 237 288 348 426
#     4  11  26  47  69 102 140 190 236 281 362 413
#     4   9  22  43  73  90 139 187 225 288 354 413
#     4   9  21  41  66  95 131 185 225 279 347 415
#     4  11  25  44  70 107 135 180 231 295 342 415
#     4  10  23  44  70 101 136 178 232 286 349 411
#
# _framework density 22.049921999999999
#
# number of rings (size 3 to 8) (size 9 to 14) (size 15 to 20)
#    0.750    1.000    1.250    1.500   12.250    0.000 
#    2.250    1.250    0.000    0.000    0.000    0.000 
#    0.000    0.000    0.000    0.000    0.000    0.000 
#
# Total GULP energy -178243.746442 kJ/mol
# GULP energy per Si atom -5570.117076 kJ/mol
# Density = 2.199974 g / cm^3
# Si number density = 22.049922 Si / 1000 Ang^3
#
#
#
# Elastic Constant Matrix: (Units=GPa)
#
#
# Indices 1 2 3 4 5 6 
#
# 1 63.5688 17.4466 24.6217 0.0000 0.0000 0.0000
# 2 17.4466 78.9428 11.0420 0.0000 0.0000 0.0000
# 3 24.6217 11.0420 52.5055 0.0000 0.0000 0.0000
# 4 0.0000 0.0000 0.0000 27.6618 0.0000 0.0000
# 5 0.0000 0.0000 0.0000 0.0000 13.7690 0.0000
# 6 0.0000 0.0000 0.0000 0.0000 0.0000 20.1002
#
#
#
# Elastic Compliance Matrix: (Units=1/GPa)
#
#
# Indices 1 2 3 4 5 6 
#
# 1 0.019977 -0.003199 -0.008695 0.000000 0.000000 0.000000
# 2 -0.003199 0.013563 -0.001352 0.000000 0.000000 0.000000
# 3 -0.008695 -0.001352 0.023407 0.000000 0.000000 0.000000
# 4 0.000000 0.000000 0.000000 0.036151 0.000000 0.000000
# 5 0.000000 0.000000 0.000000 0.000000 0.072627 0.000000
# 6 0.000000 0.000000 0.000000 0.000000 0.000000 0.049751
#
#
# Mechanical properties :
#
#
# Convention : Reuss Voigt Hill
#
# Bulk Modulus (GPa) = 32.83513 33.47087 33.15300
# Shear Modulus (GPa) = 19.83181 21.76666 20.79924
#
# Velocity S-wave (km/s) = 3.00226 3.14531 3.07462
# Velocity P-wave (km/s) = 5.19054 5.32946 5.26046
#
# Compressibility (1/GPa) = 0.03045518
#
# Stress axis : x y z
#
# Youngs Moduli (GPa) = 50.05837 73.72736 42.72142
#
# Poissons Ratio (x) = 0.23583 0.37147
# Poissons Ratio (y) = 0.16012 0.05778
# Poissons Ratio (z) = 0.43526 0.09971
#
# Static dielectric constant tensor:
#      x y z
#    x 1.780490 0.000000 0.000000 
#    y 0.000000 1.861190 0.000000 
#    z 0.000000 0.000000 1.828810 
# 
# From -- ./inp_files/7206.got.cif
#   From: 2010.05.17/outbox.cif.g08.bks.cpg/sg19_4_cif.got.tgz:7206.got - 2010.06.03 22:46:19.
