data_PCOD9313929
_publ_section_title
;
Structure prediction by ZEFSAII (Michael W. Deem and Ramdas Pophale) SiO2 
 PCOD9313929
Probable space group: P 21 21 21
;
_chemical_formula_sum "Si O2"
_cell_formula_units_Z 32
_cell_length_a 9.398322
_cell_length_b 17.750139
_cell_length_c 7.965834
_cell_angle_alpha 90.000000
_cell_angle_beta 90.000000
_cell_angle_gamma 90.000000
_cell_volume 1328.872551
_symmetry_space_group_name_H-M "P 21 21 21"
_symmetry_group_IT_number 19
_symmetry_cell_setting 'orthorhombic'
loop_
_space_group_symop_operation_xyz
x,y,z
1/2-x,-y,1/2+z
1/2+x,1/2-y,-z
-x,1/2+y,1/2-z
loop_
_atom_site_type_symbol
_atom_site_label
_atom_site_fract_x
_atom_site_fract_y
_atom_site_fract_z
Si Si1 0.525712 0.105192 0.132584
Si Si2 0.101860 0.642580 0.856756
Si Si3 0.386450 0.968472 0.996604
Si Si4 0.695982 0.952272 0.440962
Si Si5 0.627587 0.578260 0.815108
Si Si6 0.016513 0.675202 0.496453
Si Si7 0.863227 0.873969 0.981030
Si Si8 0.793269 0.301920 0.068242
O O1 0.665812 0.083069 0.027287
O O2 0.565827 0.144771 0.304858
O O3 0.420484 0.158567 0.032474
O O4 0.439346 0.026435 0.142305
O O5 0.183504 0.576731 0.749507
O O6 0.042947 0.688175 0.697636
O O7 0.230972 0.676891 0.962685
O O8 0.984084 0.604932 0.975666
O O9 0.222167 0.952045 0.032459
O O10 0.403534 0.013361 0.822484
O O11 0.556790 0.912933 0.524822
O O12 0.694226 0.041269 0.444121
O O13 0.484827 0.617251 0.879896
O O14 0.723364 0.641978 0.724312
O O15 0.137319 0.721161 0.397950
O O16 0.854436 0.698055 0.466876
#
# Coordination Sequence:
#
# PCOD9313929 Si02
#       8
#     4   4   4   4   4   4   4   4
#     4  11  22  35  63  91 132 168 204 259 318 383
#     4  10  21  38  60  91 124 163 204 259 309 379
#     4  11  20  38  55  93 128 160 206 256 324 382
#     4  10  20  38  60  97 124 167 204 254 319 377
#     4  11  25  36  64  92 129 168 205 267 327 378
#     4  10  23  42  69  90 123 164 229 257 315 384
#     4  12  22  37  61  97 136 161 208 260 324 386
#     4  11  23  42  68  89 122 175 218 270 310 385
#
# _framework density 24.080565
#
# number of rings (size 3 to 8) (size 9 to 14) (size 15 to 20)
#    0.750    0.500    3.750    3.000    7.000    0.000 
#    0.000    0.000    5.500    0.000    0.000    0.000 
#    0.000    0.000    0.000    0.000    0.000    0.000 
#
# Total GULP energy -178717.792567 kJ/mol
# GULP energy per Si atom -5584.931018 kJ/mol
# Density = 2.402576 g / cm^3
# Si number density = 24.080565 Si / 1000 Ang^3
#
#
#
# Elastic Constant Matrix: (Units=GPa)
#
#
# Indices 1 2 3 4 5 6 
#
# 1 112.2082 5.4689 14.8718 0.0000 0.0000 0.0000
# 2 5.4689 27.4689 -6.5454 0.0000 0.0000 0.0000
# 3 14.8718 -6.5454 59.2711 0.0000 0.0000 0.0000
# 4 0.0000 0.0000 0.0000 5.5128 0.0000 0.0000
# 5 0.0000 0.0000 0.0000 0.0000 30.9327 0.0000
# 6 0.0000 0.0000 0.0000 0.0000 0.0000 24.7073
#
#
#
# Elastic Compliance Matrix: (Units=1/GPa)
#
#
# Indices 1 2 3 4 5 6 
#
# 1 0.009382 -0.002495 -0.002630 0.000000 0.000000 0.000000
# 2 -0.002495 0.038052 0.004828 0.000000 0.000000 0.000000
# 3 -0.002630 0.004828 0.018065 0.000000 0.000000 0.000000
# 4 0.000000 0.000000 0.000000 0.181396 0.000000 0.000000
# 5 0.000000 0.000000 0.000000 0.000000 0.032328 0.000000
# 6 0.000000 0.000000 0.000000 0.000000 0.000000 0.040474
#
#
# Mechanical properties :
#
#
# Convention : Reuss Voigt Hill
#
# Bulk Modulus (GPa) = 15.40675 25.17097 20.28886
# Shear Modulus (GPa) = 14.62310 24.57408 19.59859
#
# Velocity S-wave (km/s) = 2.46693 3.19798 2.85595
# Velocity P-wave (km/s) = 3.81133 4.91036 4.39533
#
# Compressibility (1/GPa) = 0.06490660
#
# Stress axis : x y z
#
# Youngs Moduli (GPa) = 106.58598 26.27987 55.35692
#
# Poissons Ratio (x) = 0.06556 0.14556
# Poissons Ratio (y) = 0.26588 -0.26727
# Poissons Ratio (z) = 0.28027 -0.12688
#
# Static dielectric constant tensor:
#      x y z
#    x 1.930670 0.000000 0.000000 
#    y 0.000000 1.979500 0.000000 
#    z 0.000000 0.000000 1.973590 
# 
# From -- ./inp_files/3169.got.cif
#   From: 2010.05.17/outbox.cif.g08.bks.cpg/sg19_2_cif.got.tgz:3169.got - 2010.06.03 22:46:19.
