data_PCOD9313487
_publ_section_title
;
Structure prediction by ZEFSAII (Michael W. Deem and Ramdas Pophale) SiO2 
 PCOD9313487
Probable space group: P 21 21 21
;
_chemical_formula_sum "Si O2"
_cell_formula_units_Z 28
_cell_length_a 7.255200
_cell_length_b 6.870421
_cell_length_c 20.177852
_cell_angle_alpha 90.000000
_cell_angle_beta 90.000000
_cell_angle_gamma 90.000000
_cell_volume 1005.790829
_symmetry_space_group_name_H-M "P 21 21 21"
_symmetry_group_IT_number 19
_symmetry_cell_setting 'orthorhombic'
loop_
_space_group_symop_operation_xyz
x,y,z
1/2-x,-y,1/2+z
1/2+x,1/2-y,-z
-x,1/2+y,1/2-z
loop_
_atom_site_type_symbol
_atom_site_label
_atom_site_fract_x
_atom_site_fract_y
_atom_site_fract_z
Si Si1 0.127091 0.940951 0.488306
Si Si2 0.648988 0.152920 0.637062
Si Si3 0.629175 0.703460 0.372469
Si Si4 0.076425 0.251924 0.644835
Si Si5 0.027777 0.368521 0.508828
Si Si6 0.483047 0.554688 0.654638
Si Si7 0.228156 0.287877 0.786568
O O1 0.998327 0.179908 0.348853
O O2 0.113957 0.787231 0.547460
O O3 0.004185 0.132036 0.503964
O O4 0.333507 0.024339 0.487643
O O5 0.618381 0.081965 0.561554
O O6 0.661134 0.973971 0.686644
O O7 0.853724 0.244447 0.642098
O O8 0.649479 0.469793 0.361255
O O9 0.438379 0.755508 0.337149
O O10 0.796458 0.822820 0.341410
O O11 0.129984 0.376949 0.579959
O O12 0.137071 0.325441 0.716093
O O13 0.068761 0.875445 0.415941
O O14 0.626931 0.615138 0.710951
#
# Coordination Sequence:
#
# PCOD9313487 Si02
#       7
#     4   4   4   4   4   4   4
#     4  10  22  40  74 117 163 214 281 342 418 491
#     4  10  23  45  81 117 168 213 285 341 420 506
#     4  10  25  47  74 115 167 218 281 344 418 508
#     4  10  22  46  82 115 168 225 279 346 438 495
#     4  10  18  43  74 115 164 216 270 350 413 499
#     4  11  24  48  77 121 165 215 283 342 420 504
#     4  11  26  49  84 110 171 219 277 357 417 509
#
# _framework density 27.838789999999999
#
# number of rings (size 3 to 8) (size 9 to 14) (size 15 to 20)
#    0.000    1.714    2.857    0.857    6.000    0.000 
#    5.143    8.571    0.000    0.000    0.000    0.000 
#    0.000    0.000    0.000    0.000    0.000    0.000 
#
# Total GULP energy -157239.176006 kJ/mol
# GULP energy per Si atom -5615.684857 kJ/mol
# Density = 2.777543 g / cm^3
# Si number density = 27.838790 Si / 1000 Ang^3
#
#
#
# Elastic Constant Matrix: (Units=GPa)
#
#
# Indices 1 2 3 4 5 6 
#
# 1 178.3679 63.3203 63.9645 0.0000 0.0000 0.0000
# 2 63.3203 101.5399 18.2871 0.0000 0.0000 0.0000
# 3 63.9645 18.2871 142.6531 0.0000 0.0000 0.0000
# 4 0.0000 0.0000 0.0000 38.5932 0.0000 0.0000
# 5 0.0000 0.0000 0.0000 0.0000 53.5214 0.0000
# 6 0.0000 0.0000 0.0000 0.0000 0.0000 53.5579
#
#
#
# Elastic Compliance Matrix: (Units=1/GPa)
#
#
# Indices 1 2 3 4 5 6 
#
# 1 0.008399 -0.004667 -0.003168 0.000000 0.000000 0.000000
# 2 -0.004667 0.012675 0.000468 0.000000 0.000000 0.000000
# 3 -0.003168 0.000468 0.008370 0.000000 0.000000 0.000000
# 4 0.000000 0.000000 0.000000 0.025911 0.000000 0.000000
# 5 0.000000 0.000000 0.000000 0.000000 0.018684 0.000000
# 6 0.000000 0.000000 0.000000 0.000000 0.000000 0.018671
#
#
# Mechanical properties :
#
#
# Convention : Reuss Voigt Hill
#
# Bulk Modulus (GPa) = 67.98090 79.30052 73.64071
# Shear Modulus (GPa) = 44.50425 47.60042 46.05234
#
# Velocity S-wave (km/s) = 4.00264 4.13953 4.07166
# Velocity P-wave (km/s) = 6.77008 7.16904 6.97241
#
# Compressibility (1/GPa) = 0.01471001
#
# Stress axis : x y z
#
# Youngs Moduli (GPa) = 119.05765 78.89807 119.46767
#
# Poissons Ratio (x) = 0.36824 0.37846
# Poissons Ratio (y) = 0.55567 -0.05591
# Poissons Ratio (z) = 0.37716 -0.03692
#
# Static dielectric constant tensor:
#      x y z
#    x 2.134440 0.000000 0.000000 
#    y 0.000000 2.202900 0.000000 
#    z 0.000000 0.000000 2.168600 
# 
# From -- ./inp_files/3662.got.cif
#   From: 2010.05.17/outbox.cif.g08.bks.cpg/sg19_2_cif.got.tgz:3662.got - 2010.06.03 22:46:19.
