data_PCOD9313670
_publ_section_title
;
Structure prediction by ZEFSAII (Michael W. Deem and Ramdas Pophale) SiO2 
 PCOD9313670
Probable space group: P 21 21 21
;
_chemical_formula_sum "Si O2"
_cell_formula_units_Z 24
_cell_length_a 9.218503
_cell_length_b 7.389732
_cell_length_c 15.028088
_cell_angle_alpha 90.000000
_cell_angle_beta 90.000000
_cell_angle_gamma 90.000000
_cell_volume 1023.747417
_symmetry_space_group_name_H-M "P 21 21 21"
_symmetry_group_IT_number 19
_symmetry_cell_setting 'orthorhombic'
loop_
_space_group_symop_operation_xyz
x,y,z
1/2-x,-y,1/2+z
1/2+x,1/2-y,-z
-x,1/2+y,1/2-z
loop_
_atom_site_type_symbol
_atom_site_label
_atom_site_fract_x
_atom_site_fract_y
_atom_site_fract_z
Si Si1 0.418669 0.480216 0.111748
Si Si2 0.744166 0.029807 0.676509
Si Si3 0.974430 0.467018 0.427691
Si Si4 0.611761 0.923484 0.852289
Si Si5 0.038383 0.142495 0.715068
Si Si6 0.331943 0.927356 0.749812
O O1 0.243390 0.471863 0.098700
O O2 0.441942 0.678825 0.156559
O O3 0.464022 0.339916 0.187857
O O4 0.529536 0.474015 0.029453
O O5 0.645626 0.013400 0.591341
O O6 0.704126 0.229527 0.713645
O O7 0.914930 0.026753 0.663781
O O8 0.685258 0.897594 0.753892
O O9 0.921727 0.261414 0.406159
O O10 0.898698 0.578941 0.349369
O O11 0.455058 0.000788 0.819528
O O12 0.186354 0.040268 0.736805
#
# Coordination Sequence:
#
# PCOD9313670 Si02
#       6
#     4   4   4   4   4   4
#     4  11  23  38  61  89 123 157 210 256 304 359
#     4   9  20  37  60  87 126 160 195 249 308 358
#     4  10  21  37  64  90 113 157 213 249 295 367
#     4   9  20  37  61  86 120 159 195 246 302 368
#     4  11  21  37  60  89 124 161 200 251 309 359
#     4  10  19  38  62  89 122 162 201 243 306 363
#
# _framework density 23.443282
#
# number of rings (size 3 to 8) (size 9 to 14) (size 15 to 20)
#    0.000    2.000    3.333    0.000    2.333    0.000 
#    0.000    1.667    7.333    0.000    0.000    0.000 
#    0.000    0.000    0.000    0.000    0.000    0.000 
#
# Total GULP energy -133702.775998 kJ/mol
# GULP energy per Si atom -5570.949000 kJ/mol
# Density = 2.338992 g / cm^3
# Si number density = 23.443282 Si / 1000 Ang^3
#
#
#
# Elastic Constant Matrix: (Units=GPa)
#
#
# Indices 1 2 3 4 5 6 
#
# 1 146.1476 19.0254 3.6830 0.0000 0.0000 0.0000
# 2 19.0254 43.7244 -6.3558 0.0000 0.0000 0.0000
# 3 3.6830 -6.3558 49.2880 0.0000 0.0000 0.0000
# 4 0.0000 0.0000 0.0000 16.0357 0.0000 0.0000
# 5 0.0000 0.0000 0.0000 0.0000 17.5338 0.0000
# 6 0.0000 0.0000 0.0000 0.0000 0.0000 29.8037
#
#
#
# Elastic Compliance Matrix: (Units=1/GPa)
#
#
# Indices 1 2 3 4 5 6 
#
# 1 0.007299 -0.003317 -0.000973 0.000000 0.000000 0.000000
# 2 -0.003317 0.024815 0.003448 0.000000 0.000000 0.000000
# 3 -0.000973 0.003448 0.020806 0.000000 0.000000 0.000000
# 4 0.000000 0.000000 0.000000 0.062361 0.000000 0.000000
# 5 0.000000 0.000000 0.000000 0.000000 0.057033 0.000000
# 6 0.000000 0.000000 0.000000 0.000000 0.000000 0.033553
#
#
# Mechanical properties :
#
#
# Convention : Reuss Voigt Hill
#
# Bulk Modulus (GPa) = 19.51793 30.20724 24.86258
# Shear Modulus (GPa) = 22.25881 27.52847 24.89364
#
# Velocity S-wave (km/s) = 3.08470 3.43046 3.26216
# Velocity P-wave (km/s) = 4.58594 5.34827 4.98171
#
# Compressibility (1/GPa) = 0.05123494
#
# Stress axis : x y z
#
# Youngs Moduli (GPa) = 137.00938 40.29794 48.06252
#
# Poissons Ratio (x) = 0.13368 0.04677
# Poissons Ratio (y) = 0.45450 -0.16571
# Poissons Ratio (z) = 0.13333 -0.13894
#
# Static dielectric constant tensor:
#      x y z
#    x 2.008100 0.000000 0.000000 
#    y 0.000000 1.972250 0.000000 
#    z 0.000000 0.000000 1.875740 
# 
# From -- ./inp_files/2824.got.cif
#   From: 2010.05.17/outbox.cif.g08.bks.cpg/sg19_2_cif.got.tgz:2824.got - 2010.06.03 22:46:19.
