data_PCOD9313885
_publ_section_title
;
Structure prediction by ZEFSAII (Michael W. Deem and Ramdas Pophale) SiO2 
 PCOD9313885
Probable space group: P 21 21 21
;
_chemical_formula_sum "Si O2"
_cell_formula_units_Z 20
_cell_length_a 9.457720
_cell_length_b 7.680010
_cell_length_c 11.009911
_cell_angle_alpha 90.000000
_cell_angle_beta 90.000000
_cell_angle_gamma 90.000000
_cell_volume 799.709115
_symmetry_space_group_name_H-M "P 21 21 21"
_symmetry_group_IT_number 19
_symmetry_cell_setting 'orthorhombic'
loop_
_space_group_symop_operation_xyz
x,y,z
1/2-x,-y,1/2+z
1/2+x,1/2-y,-z
-x,1/2+y,1/2-z
loop_
_atom_site_type_symbol
_atom_site_label
_atom_site_fract_x
_atom_site_fract_y
_atom_site_fract_z
Si Si1 0.449086 0.801041 0.781450
Si Si2 0.433961 0.546430 0.998114
Si Si3 0.720489 0.136569 0.278124
Si Si4 0.696170 0.772040 0.354638
Si Si5 0.683053 0.491087 0.170986
O O1 0.611401 0.847324 0.776564
O O2 0.365447 0.760300 0.655556
O O3 0.346613 0.950162 0.838116
O O4 0.439985 0.634108 0.868980
O O5 0.336163 0.666277 0.085105
O O6 0.363179 0.355441 0.022168
O O7 0.588053 0.544890 0.058447
O O8 0.663923 0.287939 0.193625
O O9 0.672532 0.936180 0.261672
O O10 0.635023 0.601299 0.290851
#
# Coordination Sequence:
#
# PCOD9313885 Si02
#       5
#     4   4   4   4   4
#     4  10  20  38  60  87 120 151 193 240 286 341
#     4  10  20  38  60  87 120 151 193 240 286 341
#     4  10  20  37  62  82 113 158 188 236 290 340
#     4   8  22  34  60  80 120 150 184 242 282 336
#     4  10  20  37  62  82 113 158 188 236 290 340
#
# _framework density 25.009093
#
# number of rings (size 3 to 8) (size 9 to 14) (size 15 to 20)
#    2.400    0.000    0.000    3.600    0.000    0.000 
#    0.000    4.000    0.000    0.000    0.000    0.000 
#    0.000    0.000    0.000    0.000    0.000    0.000 
#
# Total GULP energy -111494.950504 kJ/mol
# GULP energy per Si atom -5574.747525 kJ/mol
# Density = 2.495217 g / cm^3
# Si number density = 25.009093 Si / 1000 Ang^3
#
#
#
# Elastic Constant Matrix: (Units=GPa)
#
#
# Indices 1 2 3 4 5 6 
#
# 1 120.1003 18.2800 22.6457 0.0000 0.0000 0.0000
# 2 18.2800 86.4056 22.6174 0.0000 0.0000 0.0000
# 3 22.6457 22.6174 66.6694 0.0000 0.0000 0.0000
# 4 0.0000 0.0000 0.0000 40.9287 0.0000 0.0000
# 5 0.0000 0.0000 0.0000 0.0000 25.8898 0.0000
# 6 0.0000 0.0000 0.0000 0.0000 0.0000 24.2214
#
#
#
# Elastic Compliance Matrix: (Units=1/GPa)
#
#
# Indices 1 2 3 4 5 6 
#
# 1 0.009010 -0.001213 -0.002649 0.000000 0.000000 0.000000
# 2 -0.001213 0.012864 -0.003952 0.000000 0.000000 0.000000
# 3 -0.002649 -0.003952 0.017240 0.000000 0.000000 0.000000
# 4 0.000000 0.000000 0.000000 0.024433 0.000000 0.000000
# 5 0.000000 0.000000 0.000000 0.000000 0.038625 0.000000
# 6 0.000000 0.000000 0.000000 0.000000 0.000000 0.041286
#
#
# Mechanical properties :
#
#
# Convention : Reuss Voigt Hill
#
# Bulk Modulus (GPa) = 42.57772 44.47351 43.52561
# Shear Modulus (GPa) = 29.95517 32.18346 31.06931
#
# Velocity S-wave (km/s) = 3.46464 3.59119 3.52848
# Velocity P-wave (km/s) = 5.75037 5.91752 5.83455
#
# Compressibility (1/GPa) = 0.02348646
#
# Stress axis : x y z
#
# Youngs Moduli (GPa) = 110.98172 77.73360 58.00453
#
# Poissons Ratio (x) = 0.09428 0.15366
# Poissons Ratio (y) = 0.13460 0.22925
# Poissons Ratio (z) = 0.29401 0.30722
#
# Static dielectric constant tensor:
#      x y z
#    x 2.016170 0.000000 0.000000 
#    y 0.000000 2.030530 0.000000 
#    z 0.000000 0.000000 1.953700 
# 
# From -- ./inp_files/2653.got.cif
#   From: 2010.05.17/outbox.cif.g08.bks.cpg/sg19_2_cif.got.tgz:2653.got - 2010.06.03 22:46:19.
