data_PCOD9313894
_publ_section_title
;
Structure prediction by ZEFSAII (Michael W. Deem and Ramdas Pophale) SiO2 
 PCOD9313894
Probable space group: P 21 21 21
;
_chemical_formula_sum "Si O2"
_cell_formula_units_Z 24
_cell_length_a 4.871002
_cell_length_b 8.480459
_cell_length_c 23.450423
_cell_angle_alpha 90.000000
_cell_angle_beta 90.000000
_cell_angle_gamma 90.000000
_cell_volume 968.697876
_symmetry_space_group_name_H-M "P 21 21 21"
_symmetry_group_IT_number 19
_symmetry_cell_setting 'orthorhombic'
loop_
_space_group_symop_operation_xyz
x,y,z
1/2-x,-y,1/2+z
1/2+x,1/2-y,-z
-x,1/2+y,1/2-z
loop_
_atom_site_type_symbol
_atom_site_label
_atom_site_fract_x
_atom_site_fract_y
_atom_site_fract_z
Si Si1 0.120987 0.934795 0.081387
Si Si2 0.802619 0.652078 0.516878
Si Si3 0.400963 0.249059 0.863247
Si Si4 0.448521 0.566594 0.280577
Si Si5 0.865340 0.211138 0.636284
Si Si6 0.964101 0.543015 0.204992
O O1 0.208571 0.991323 0.018791
O O2 0.078062 0.100186 0.116217
O O3 0.822595 0.859695 0.085886
O O4 0.330262 0.816090 0.112155
O O5 0.610242 0.780774 0.485143
O O6 0.692668 0.656671 0.580522
O O7 0.131188 0.312295 0.830256
O O8 0.535950 0.127936 0.819717
O O9 0.349141 0.401769 0.307946
O O10 0.754731 0.544262 0.258352
O O11 0.249408 0.612240 0.227849
O O12 0.713310 0.367206 0.657195
#
# Coordination Sequence:
#
# PCOD9313894 Si02
#       6
#     4   4   4   4   4   4
#     4  10  21  40  62  86 118 159 199 248 312 367
#     4  10  20  37  63  90 113 147 202 252 293 351
#     4  10  23  40  64  91 119 159 210 254 295 361
#     4  11  22  38  58  84 121 163 202 247 303 362
#     4  11  22  39  59  85 123 161 196 249 316 368
#     4  12  24  38  58  90 122 159 205 252 299 363
#
# _framework density 24.775528999999999
#
# number of rings (size 3 to 8) (size 9 to 14) (size 15 to 20)
#    0.000    1.333    0.000    8.000    0.000    6.667 
#    0.000    1.667    0.000    0.000    0.000    0.000 
#    0.000    0.000    0.000    0.000    0.000    0.000 
#
# Total GULP energy -134221.894430 kJ/mol
# GULP energy per Si atom -5592.578935 kJ/mol
# Density = 2.471914 g / cm^3
# Si number density = 24.775529 Si / 1000 Ang^3
#
#
#
# Elastic Constant Matrix: (Units=GPa)
#
#
# Indices 1 2 3 4 5 6 
#
# 1 111.9781 1.6569 12.4739 0.0000 0.0000 0.0000
# 2 1.6569 26.9962 -1.9945 0.0000 0.0000 0.0000
# 3 12.4739 -1.9945 79.5828 0.0000 0.0000 0.0000
# 4 0.0000 0.0000 0.0000 22.3728 0.0000 0.0000
# 5 0.0000 0.0000 0.0000 0.0000 30.7878 0.0000
# 6 0.0000 0.0000 0.0000 0.0000 0.0000 23.4464
#
#
#
# Elastic Compliance Matrix: (Units=1/GPa)
#
#
# Indices 1 2 3 4 5 6 
#
# 1 0.009101 -0.000665 -0.001443 0.000000 0.000000 0.000000
# 2 -0.000665 0.037160 0.001036 0.000000 0.000000 0.000000
# 3 -0.001443 0.001036 0.012818 0.000000 0.000000 0.000000
# 4 0.000000 0.000000 0.000000 0.044697 0.000000 0.000000
# 5 0.000000 0.000000 0.000000 0.000000 0.032480 0.000000
# 6 0.000000 0.000000 0.000000 0.000000 0.000000 0.042651
#
#
# Mechanical properties :
#
#
# Convention : Reuss Voigt Hill
#
# Bulk Modulus (GPa) = 17.56462 26.98109 22.27285
# Shear Modulus (GPa) = 24.99631 29.08277 27.03954
#
# Velocity S-wave (km/s) = 3.17978 3.42987 3.30719
# Velocity P-wave (km/s) = 4.53721 5.15744 4.85723
#
# Compressibility (1/GPa) = 0.05693264
#
# Stress axis : x y z
#
# Youngs Moduli (GPa) = 109.87898 26.91092 78.01724
#
# Poissons Ratio (x) = 0.01790 0.11259
# Poissons Ratio (y) = 0.07309 -0.08079
# Poissons Ratio (z) = 0.15857 -0.02787
#
# Static dielectric constant tensor:
#      x y z
#    x 1.889070 0.000000 0.000000 
#    y 0.000000 1.987740 0.000000 
#    z 0.000000 0.000000 1.980240 
# 
# From -- ./inp_files/6875.got.cif
#   From: 2010.05.17/outbox.cif.g08.bks.cpg/sg19_4_cif.got.tgz:6875.got - 2010.06.03 22:46:19.
