data_PCOD9313222
_publ_section_title
;
Structure prediction by ZEFSAII (Michael W. Deem and Ramdas Pophale) SiO2 
 PCOD9313222
Probable space group: P 21 21 2
;
_chemical_formula_sum "Si O2"
_cell_formula_units_Z 20
_cell_length_a 14.199746
_cell_length_b 11.438710
_cell_length_c 4.801679
_cell_angle_alpha 90.000000
_cell_angle_beta 90.000000
_cell_angle_gamma 90.000000
_cell_volume 779.921242
_symmetry_space_group_name_H-M "P 21 21 2"
_symmetry_group_IT_number 18
_symmetry_cell_setting 'orthorhombic'
loop_
_space_group_symop_operation_xyz
x,y,z
-x,-y,z
1/2+x,1/2-y,-z
1/2-x,1/2+y,-z
loop_
_atom_site_type_symbol
_atom_site_label
_atom_site_fract_x
_atom_site_fract_y
_atom_site_fract_z
Si Si1 0.196994 0.571714 0.427192
Si Si2 0.500000 0.500000 0.153530
Si Si3 0.065846 0.251777 0.783535
Si Si4 0.703903 0.235237 0.725698
Si Si5 0.705010 0.526287 0.934813
Si Si6 0.500000 0.000000 0.360929
O O1 0.210662 0.692195 0.588414
O O2 0.238558 0.571835 0.118157
O O3 0.091981 0.525070 0.452153
O O4 0.266649 0.491086 0.615912
O O5 0.517431 0.372623 0.300665
O O6 0.594531 0.523788 0.979633
O O7 0.141796 0.283207 0.549459
O O8 0.012045 0.377320 0.808983
O O9 0.119592 0.222754 0.069508
O O10 0.751105 0.138243 0.917476
#
# Coordination Sequence:
#
# PCOD9313222 Si02
#       6
#     4   2   4   4   4   2
#     4  12  25  45  75 103 147 190 243 302 365 437
#     4  12  26  50  74 116 138 210 238 312 360 450
#     4  12  27  44  81 102 156 190 255 292 377 434
#     4  12  23  50  69 110 148 196 235 316 367 434
#     4  12  25  45  75 103 147 190 243 302 365 437
#     4  12  26  50  74 116 138 210 238 312 360 450
#
# _framework density 25.643616000000002
#
# number of rings (size 3 to 8) (size 9 to 14) (size 15 to 20)
#    0.000    0.000    8.000    1.200    0.000    6.400 
#    0.000    4.000    0.000    0.000    0.000    0.000 
#    0.000    0.000    0.000    0.000    0.000    0.000 
#
# Total GULP energy -111639.504195 kJ/mol
# GULP energy per Si atom -5581.975210 kJ/mol
# Density = 2.558525 g / cm^3
# Si number density = 25.643616 Si / 1000 Ang^3
#
#
#
# Elastic Constant Matrix: (Units=GPa)
#
#
# Indices 1 2 3 4 5 6 
#
# 1 148.7428 12.2356 19.7390 0.0000 0.0000 0.0000
# 2 12.2356 132.0211 -1.8159 0.0000 0.0000 0.0000
# 3 19.7390 -1.8159 89.8669 0.0000 0.0000 0.0000
# 4 0.0000 0.0000 0.0000 18.6708 0.0000 0.0000
# 5 0.0000 0.0000 0.0000 0.0000 9.2579 0.0000
# 6 0.0000 0.0000 0.0000 0.0000 0.0000 50.2702
#
#
#
# Elastic Compliance Matrix: (Units=1/GPa)
#
#
# Indices 1 2 3 4 5 6 
#
# 1 0.006983 -0.000668 -0.001547 0.000000 0.000000 0.000000
# 2 -0.000668 0.007641 0.000301 0.000000 0.000000 0.000000
# 3 -0.001547 0.000301 0.011474 0.000000 0.000000 0.000000
# 4 0.000000 0.000000 0.000000 0.053560 0.000000 0.000000
# 5 0.000000 0.000000 0.000000 0.000000 0.108015 0.000000
# 6 0.000000 0.000000 0.000000 0.000000 0.000000 0.019893
#
#
# Mechanical properties :
#
#
# Convention : Reuss Voigt Hill
#
# Bulk Modulus (GPa) = 44.90703 47.88313 46.39508
# Shear Modulus (GPa) = 22.85013 38.33792 30.59402
#
# Velocity S-wave (km/s) = 2.98831 3.87075 3.45780
# Velocity P-wave (km/s) = 5.42740 6.22013 5.83724
#
# Compressibility (1/GPa) = 0.02226823
#
# Stress axis : x y z
#
# Youngs Moduli (GPa) = 143.19767 130.87894 87.15714
#
# Poissons Ratio (x) = 0.08749 0.13487
# Poissons Ratio (y) = 0.09573 -0.02625
# Poissons Ratio (z) = 0.22158 -0.03942
#
# Static dielectric constant tensor:
#      x y z
#    x 1.960880 0.000000 0.000000 
#    y 0.000000 2.319740 0.000000 
#    z 0.000000 0.000000 1.892190 
# 
# From -- ./inp_files/995.got.cif
#   From: 2010.05.17/outbox.cif.g08.bks.cpg/sg18_1_cif.got.tgz:995.got - 2010.06.03 22:40:56.
