data_PCOD9313675
_publ_section_title
;
Structure prediction by ZEFSAII (Michael W. Deem and Ramdas Pophale) SiO2 
 PCOD9313675
Probable space group: P 21 21 21
;
_chemical_formula_sum "Si O2"
_cell_formula_units_Z 28
_cell_length_a 18.349607
_cell_length_b 13.571977
_cell_length_c 5.157068
_cell_angle_alpha 90.000000
_cell_angle_beta 90.000000
_cell_angle_gamma 90.000000
_cell_volume 1284.318505
_symmetry_space_group_name_H-M "P 21 21 21"
_symmetry_group_IT_number 19
_symmetry_cell_setting 'orthorhombic'
loop_
_space_group_symop_operation_xyz
x,y,z
1/2-x,-y,1/2+z
1/2+x,1/2-y,-z
-x,1/2+y,1/2-z
loop_
_atom_site_type_symbol
_atom_site_label
_atom_site_fract_x
_atom_site_fract_y
_atom_site_fract_z
Si Si1 0.764423 0.134280 0.023032
Si Si2 0.100095 0.636162 0.109749
Si Si3 0.643892 0.034033 0.274224
Si Si4 0.664373 0.702459 0.176188
Si Si5 0.509187 0.995089 0.571469
Si Si6 0.586729 0.520036 0.435377
Si Si7 0.266679 0.941774 0.100484
O O1 0.783567 0.221964 0.828607
O O2 0.790174 0.031449 0.891768
O O3 0.821793 0.145591 0.254264
O O4 0.682939 0.122980 0.127616
O O5 0.040518 0.609923 0.325213
O O6 0.105155 0.541086 0.924815
O O7 0.097445 0.734836 0.942856
O O8 0.582958 0.054042 0.491378
O O9 0.630086 0.619291 0.360034
O O10 0.714299 0.648488 0.963111
O O11 0.460343 0.991869 0.315712
O O12 0.461141 0.034885 0.808684
O O13 0.648496 0.436492 0.475633
O O14 0.237459 0.025202 0.898657
#
# Coordination Sequence:
#
# PCOD9313675 Si02
#       7
#     4   4   4   4   4   4   4
#     4  10  20  35  68  98 135 165 229 289 329 385
#     4  10  21  40  68  99 134 172 233 273 338 398
#     4  10  19  38  65 100 130 179 221 274 343 398
#     4  10  24  39  72 105 128 174 238 294 330 390
#     4  11  23  41  69  95 134 189 221 261 344 432
#     4  11  23  43  70  97 138 181 225 273 344 421
#     4  10  22  42  70 100 129 172 231 286 338 390
#
# _framework density 21.801447
#
# number of rings (size 3 to 8) (size 9 to 14) (size 15 to 20)
#    0.000    1.714    2.857    1.714    6.000    0.000 
#    0.000    0.000   15.714    0.000    0.000    0.000 
#    0.000    0.000    0.000    0.000    0.000    0.000 
#
# Total GULP energy -156293.217609 kJ/mol
# GULP energy per Si atom -5581.900629 kJ/mol
# Density = 2.175183 g / cm^3
# Si number density = 21.801447 Si / 1000 Ang^3
#
#
#
# Elastic Constant Matrix: (Units=GPa)
#
#
# Indices 1 2 3 4 5 6 
#
# 1 99.4387 39.2575 36.2795 0.0000 0.0000 0.0000
# 2 39.2575 58.0620 18.8136 0.0000 0.0000 0.0000
# 3 36.2795 18.8136 97.1268 0.0000 0.0000 0.0000
# 4 0.0000 0.0000 0.0000 25.3219 0.0000 0.0000
# 5 0.0000 0.0000 0.0000 0.0000 55.3288 0.0000
# 6 0.0000 0.0000 0.0000 0.0000 0.0000 10.7787
#
#
#
# Elastic Compliance Matrix: (Units=1/GPa)
#
#
# Indices 1 2 3 4 5 6 
#
# 1 0.014970 -0.008867 -0.003874 0.000000 0.000000 0.000000
# 2 -0.008867 0.023628 -0.001265 0.000000 0.000000 0.000000
# 3 -0.003874 -0.001265 0.011988 0.000000 0.000000 0.000000
# 4 0.000000 0.000000 0.000000 0.039492 0.000000 0.000000
# 5 0.000000 0.000000 0.000000 0.000000 0.018074 0.000000
# 6 0.000000 0.000000 0.000000 0.000000 0.000000 0.092776
#
#
# Mechanical properties :
#
#
# Convention : Reuss Voigt Hill
#
# Bulk Modulus (GPa) = 44.29751 49.25873 46.77812
# Shear Modulus (GPa) = 21.14489 28.97100 25.05795
#
# Velocity S-wave (km/s) = 3.11768 3.64930 3.39391
# Velocity P-wave (km/s) = 5.77257 6.35609 6.07134
#
# Compressibility (1/GPa) = 0.02257463
#
# Stress axis : x y z
#
# Youngs Moduli (GPa) = 66.79840 42.32306 83.41665
#
# Poissons Ratio (x) = 0.37526 0.32319
# Poissons Ratio (y) = 0.59227 0.10551
# Poissons Ratio (z) = 0.25880 0.05353
#
# Static dielectric constant tensor:
#      x y z
#    x 1.817230 0.000000 0.000000 
#    y 0.000000 1.824300 0.000000 
#    z 0.000000 0.000000 1.876870 
# 
# From -- ./inp_files/1936.got.cif
#   From: 2010.05.17/outbox.cif.g08.bks.cpg/sg19_1_cif.got.tgz:1936.got - 2010.06.03 22:46:19.
