data_PCOD9313777
_publ_section_title
;
Structure prediction by ZEFSAII (Michael W. Deem and Ramdas Pophale) SiO2 
 PCOD9313777
Probable space group: P 21 21 21
;
_chemical_formula_sum "Si O2"
_cell_formula_units_Z 32
_cell_length_a 19.267429
_cell_length_b 8.467460
_cell_length_c 7.760656
_cell_angle_alpha 90.000000
_cell_angle_beta 90.000000
_cell_angle_gamma 90.000000
_cell_volume 1266.121415
_symmetry_space_group_name_H-M "P 21 21 21"
_symmetry_group_IT_number 19
_symmetry_cell_setting 'orthorhombic'
loop_
_space_group_symop_operation_xyz
x,y,z
1/2-x,-y,1/2+z
1/2+x,1/2-y,-z
-x,1/2+y,1/2-z
loop_
_atom_site_type_symbol
_atom_site_label
_atom_site_fract_x
_atom_site_fract_y
_atom_site_fract_z
Si Si1 0.396375 0.073238 0.951494
Si Si2 0.793201 0.730245 0.367718
Si Si3 0.236417 0.113260 0.573793
Si Si4 0.022574 0.220776 0.520728
Si Si5 0.877238 0.239931 0.409915
Si Si6 0.388673 0.568859 0.808237
Si Si7 0.364291 0.683385 0.301715
Si Si8 0.646144 0.867413 0.367593
O O1 0.388795 0.156829 0.766006
O O2 0.391348 0.200450 0.105267
O O3 0.329954 0.959291 0.976402
O O4 0.462784 0.962378 0.977369
O O5 0.769363 0.550659 0.354702
O O6 0.821807 0.818734 0.201064
O O7 0.855896 0.751613 0.504853
O O8 0.725354 0.828788 0.418790
O O9 0.304843 0.204127 0.505105
O O10 0.202162 0.232437 0.710961
O O11 0.048422 0.313309 0.348007
O O12 0.068756 0.262833 0.689530
O O13 0.942456 0.262343 0.534062
O O14 0.881423 0.060880 0.339659
O O15 0.386747 0.469841 0.981312
O O16 0.357177 0.493515 0.287126
#
# Coordination Sequence:
#
# PCOD9313777 Si02
#       8
#     4   4   4   4   4   4   4   4
#     4   9  19  35  58  89 120 156 207 260 310 368
#     4  11  20  34  56  85 121 160 204 259 317 373
#     4  10  20  34  57  85 121 160 204 258 308 361
#     4  10  21  38  60  85 119 162 208 258 311 380
#     4  11  20  37  60  87 119 162 216 262 313 382
#     4  10  21  34  56  85 115 158 205 258 313 373
#     4  10  21  38  58  88 125 159 203 257 316 376
#     4   9  18  34  57  84 118 157 201 254 308 375
#
# _framework density 25.274038000000001
#
# number of rings (size 3 to 8) (size 9 to 14) (size 15 to 20)
#    0.000    2.000    0.000    5.250    0.000    2.000 
#    0.000   10.000    0.000    1.500    0.000    0.000 
#    0.000    0.000    0.000    0.000    0.000    0.000 
#
# Total GULP energy -178748.443133 kJ/mol
# GULP energy per Si atom -5585.888848 kJ/mol
# Density = 2.521651 g / cm^3
# Si number density = 25.274038 Si / 1000 Ang^3
#
#
#
# Elastic Constant Matrix: (Units=GPa)
#
#
# Indices 1 2 3 4 5 6 
#
# 1 101.8579 25.7220 1.2287 0.0000 0.0000 0.0000
# 2 25.7220 138.9079 19.9945 0.0000 0.0000 0.0000
# 3 1.2287 19.9945 71.0925 0.0000 0.0000 0.0000
# 4 0.0000 0.0000 0.0000 18.0897 0.0000 0.0000
# 5 0.0000 0.0000 0.0000 0.0000 14.5753 0.0000
# 6 0.0000 0.0000 0.0000 0.0000 0.0000 17.0532
#
#
#
# Elastic Compliance Matrix: (Units=1/GPa)
#
#
# Indices 1 2 3 4 5 6 
#
# 1 0.010309 -0.001963 0.000374 0.000000 0.000000 0.000000
# 2 -0.001963 0.007876 -0.002181 0.000000 0.000000 0.000000
# 3 0.000374 -0.002181 0.014673 0.000000 0.000000 0.000000
# 4 0.000000 0.000000 0.000000 0.055280 0.000000 0.000000
# 5 0.000000 0.000000 0.000000 0.000000 0.068609 0.000000
# 6 0.000000 0.000000 0.000000 0.000000 0.000000 0.058640
#
#
# Mechanical properties :
#
#
# Convention : Reuss Voigt Hill
#
# Bulk Modulus (GPa) = 39.49755 45.08318 42.29036
# Shear Modulus (GPa) = 21.61068 27.60453 24.60761
#
# Velocity S-wave (km/s) = 2.92730 3.30844 3.12369
# Velocity P-wave (km/s) = 5.20453 5.69832 5.45701
#
# Compressibility (1/GPa) = 0.02531803
#
# Stress axis : x y z
#
# Youngs Moduli (GPa) = 97.00514 126.96099 68.15150
#
# Poissons Ratio (x) = 0.24919 -0.02548
# Poissons Ratio (y) = 0.19039 0.14866
# Poissons Ratio (z) = -0.03626 0.27694
#
# Static dielectric constant tensor:
#      x y z
#    x 1.970290 0.000000 0.000000 
#    y 0.000000 2.007540 0.000000 
#    z 0.000000 0.000000 2.242480 
# 
# From -- ./inp_files/4314.got.cif
#   From: 2010.05.17/outbox.cif.g08.bks.cpg/sg19_3_cif.got.tgz:4314.got - 2010.06.03 22:46:19.
