data_PCOD9313025
_publ_section_title
;
Structure prediction by ZEFSAII (Michael W. Deem and Ramdas Pophale) SiO2 
 PCOD9313025
Probable space group: P 21 21 2
;
_chemical_formula_sum "Si O2"
_cell_formula_units_Z 32
_cell_length_a 23.680288
_cell_length_b 5.613928
_cell_length_c 11.848070
_cell_angle_alpha 90.000000
_cell_angle_beta 90.000000
_cell_angle_gamma 90.000000
_cell_volume 1575.075694
_symmetry_space_group_name_H-M "P 21 21 2"
_symmetry_group_IT_number 18
_symmetry_cell_setting 'orthorhombic'
loop_
_space_group_symop_operation_xyz
x,y,z
-x,-y,z
1/2+x,1/2-y,-z
1/2-x,1/2+y,-z
loop_
_atom_site_type_symbol
_atom_site_label
_atom_site_fract_x
_atom_site_fract_y
_atom_site_fract_z
Si Si1 0.142313 0.735126 0.739126
Si Si2 0.271068 0.520667 0.395202
Si Si3 0.559325 0.080307 0.420733
Si Si4 0.446557 0.633289 0.204230
Si Si5 0.341137 0.760366 0.576626
Si Si6 0.319402 0.748829 0.832290
Si Si7 0.751285 0.247315 0.179316
Si Si8 0.859720 0.620962 0.935532
O O1 0.199776 0.809146 0.676691
O O2 0.102109 0.584639 0.654276
O O3 0.152990 0.617938 0.861999
O O4 0.105773 0.967440 0.763955
O O5 0.310364 0.558466 0.502834
O O6 0.207095 0.465681 0.429058
O O7 0.270688 0.745353 0.309417
O O8 0.535995 0.252321 0.322331
O O9 0.600626 0.184936 0.514813
O O10 0.500000 0.000000 0.474239
O O11 0.500000 0.500000 0.155581
O O12 0.419918 0.814361 0.116908
O O13 0.346921 0.714913 0.709128
O O14 0.285623 0.496069 0.848550
O O15 0.283962 0.999751 0.830291
O O16 0.361729 0.818480 0.932963
O O17 0.696402 0.265328 0.101314
#
# Coordination Sequence:
#
# PCOD9313025 Si02
#       8
#     4   4   4   4   4   4   4   4
#     4  11  21  38  68  92 125 164 213 286 337 390
#     4  11  20  38  64 100 133 172 222 276 338 397
#     4  11  22  38  62  93 127 164 219 276 339 399
#     4  11  22  40  65  94 119 159 218 283 342 379
#     4  11  22  37  60  97 131 178 213 271 330 408
#     4  11  26  40  63  93 140 175 220 257 329 406
#     4  11  22  40  62  96 130 178 214 275 322 389
#     4  11  23  38  63  94 127 170 217 271 331 400
#
# _framework density 20.316483999999999
#
# number of rings (size 3 to 8) (size 9 to 14) (size 15 to 20)
#    0.000    1.000    3.750    4.500    1.750    1.000 
#    0.000    0.000    2.750    0.750    0.000    0.000 
#    0.000    0.000    0.000    0.000    0.000    0.000 
#
# Total GULP energy -178259.790339 kJ/mol
# GULP energy per Si atom -5570.618448 kJ/mol
# Density = 2.027024 g / cm^3
# Si number density = 20.316484 Si / 1000 Ang^3
#
#
#
# Elastic Constant Matrix: (Units=GPa)
#
#
# Indices 1 2 3 4 5 6 
#
# 1 84.7427 2.1808 24.8666 0.0000 0.0000 0.0000
# 2 2.1808 51.7569 1.0453 0.0000 0.0000 0.0000
# 3 24.8666 1.0453 99.8823 0.0000 0.0000 0.0000
# 4 0.0000 0.0000 0.0000 -170.3176 0.0000 0.0000
# 5 0.0000 0.0000 0.0000 0.0000 -2.0040 0.0000
# 6 0.0000 0.0000 0.0000 0.0000 0.0000 24.0328
#
#
#
# Elastic Compliance Matrix: (Units=1/GPa)
#
#
# Indices 1 2 3 4 5 6 
#
# 1 0.012742 -0.000473 -0.003167 0.000000 0.000000 0.000000
# 2 -0.000473 0.019343 -0.000085 0.000000 0.000000 0.000000
# 3 -0.003167 -0.000085 0.010801 0.000000 0.000000 0.000000
# 4 0.000000 0.000000 0.000000 -0.005871 0.000000 0.000000
# 5 0.000000 0.000000 0.000000 0.000000 -0.499010 0.000000
# 6 0.000000 0.000000 0.000000 0.000000 0.000000 0.041610
#
#
# Mechanical properties :
#
#
# Convention : Reuss Voigt Hill
#
# Bulk Modulus (GPa) = 28.21980 32.50749 30.36365
# Shear Modulus (GPa) = -12.46498 -15.77181 -14.11840
#
# Velocity S-wave (km/s) = -2.47966 -2.78925 -2.63900
# Velocity P-wave (km/s) = 2.39206 2.37951 2.38579
#
# Compressibility (1/GPa) = 0.03543611
#
# Stress axis : x y z
#
# Youngs Moduli (GPa) = 78.48063 51.69900 92.58232
#
# Poissons Ratio (x) = 0.02445 0.29324
# Poissons Ratio (y) = 0.03712 0.00784
# Poissons Ratio (z) = 0.24857 0.00438
#
# Static dielectric constant tensor:
#      x y z
#    x 1.716760 0.000000 0.000000 
#    y 0.000000 1.864850 0.000000 
#    z 0.000000 0.000000 1.814000 
# 
# From -- ./inp_files/6321.got.cif
#   From: 2010.05.17/outbox.cif.g08.bks.cpg/sg18_4_cif.got.tgz:6321.got - 2010.06.03 22:40:56.
