data_PCOD9313692
_publ_section_title
;
Structure prediction by ZEFSAII (Michael W. Deem and Ramdas Pophale) SiO2 
 PCOD9313692
Probable space group: P 21 21 21
;
_chemical_formula_sum "Si O2"
_cell_formula_units_Z 28
_cell_length_a 8.879397
_cell_length_b 5.796558
_cell_length_c 21.721563
_cell_angle_alpha 90.000000
_cell_angle_beta 90.000000
_cell_angle_gamma 90.000000
_cell_volume 1118.007538
_symmetry_space_group_name_H-M "P 21 21 21"
_symmetry_group_IT_number 19
_symmetry_cell_setting 'orthorhombic'
loop_
_space_group_symop_operation_xyz
x,y,z
1/2-x,-y,1/2+z
1/2+x,1/2-y,-z
-x,1/2+y,1/2-z
loop_
_atom_site_type_symbol
_atom_site_label
_atom_site_fract_x
_atom_site_fract_y
_atom_site_fract_z
Si Si1 0.559325 0.716234 0.276094
Si Si2 0.177125 0.516207 0.251016
Si Si3 0.336355 0.737586 0.369913
Si Si4 0.610203 0.263326 0.930790
Si Si5 0.833895 0.010085 0.014347
Si Si6 0.357363 0.884270 0.908799
Si Si7 0.580836 0.607801 0.826460
O O1 0.481375 0.961968 0.251815
O O2 0.730301 0.784408 0.261495
O O3 0.505741 0.704723 0.347018
O O4 0.001349 0.480589 0.264917
O O5 0.246478 0.649370 0.309515
O O6 0.189313 0.685672 0.192677
O O7 0.292874 0.001774 0.383224
O O8 0.271933 0.599565 0.428413
O O9 0.507914 0.411205 0.979124
O O10 0.647337 0.425111 0.873480
O O11 0.482481 0.081644 0.911310
O O12 0.750075 0.125470 0.957766
O O13 0.833568 0.735770 0.025158
O O14 0.435654 0.703812 0.863828
#
# Coordination Sequence:
#
# PCOD9313692 Si02
#       7
#     4   4   4   4   4   4   4
#     4  10  23  40  65  98 141 177 232 281 344 419
#     4  11  21  40  66  98 130 183 220 284 347 421
#     4  10  20  41  65  93 130 181 220 280 349 411
#     4  10  23  44  64  99 128 181 227 291 349 419
#     4  10  22  43  70  90 136 177 231 288 351 418
#     4  10  19  39  66  90 131 175 227 278 352 417
#     4  11  22  39  64  94 136 170 227 278 346 413
#
# _framework density 25.044556
#
# number of rings (size 3 to 8) (size 9 to 14) (size 15 to 20)
#    0.000    1.714    4.286    1.714    2.000    5.714 
#    5.143    0.000    0.000    0.000    0.000    0.000 
#    0.000    0.000    0.000    0.000    0.000    0.000 
#
# Total GULP energy -156392.737091 kJ/mol
# GULP energy per Si atom -5585.454896 kJ/mol
# Density = 2.498755 g / cm^3
# Si number density = 25.044556 Si / 1000 Ang^3
#
#
#
# Elastic Constant Matrix: (Units=GPa)
#
#
# Indices 1 2 3 4 5 6 
#
# 1 75.3426 13.5105 6.1872 0.0000 0.0000 0.0000
# 2 13.5105 72.1727 5.5644 0.0000 0.0000 0.0000
# 3 6.1872 5.5644 44.6952 0.0000 0.0000 0.0000
# 4 0.0000 0.0000 0.0000 35.2658 0.0000 0.0000
# 5 0.0000 0.0000 0.0000 0.0000 46.6991 0.0000
# 6 0.0000 0.0000 0.0000 0.0000 0.0000 43.8879
#
#
#
# Elastic Compliance Matrix: (Units=1/GPa)
#
#
# Indices 1 2 3 4 5 6 
#
# 1 0.013847 -0.002468 -0.001610 0.000000 0.000000 0.000000
# 2 -0.002468 0.014430 -0.001455 0.000000 0.000000 0.000000
# 3 -0.001610 -0.001455 0.022778 0.000000 0.000000 0.000000
# 4 0.000000 0.000000 0.000000 0.028356 0.000000 0.000000
# 5 0.000000 0.000000 0.000000 0.000000 0.021414 0.000000
# 6 0.000000 0.000000 0.000000 0.000000 0.000000 0.022785
#
#
# Mechanical properties :
#
#
# Convention : Reuss Voigt Hill
#
# Bulk Modulus (GPa) = 25.00629 26.97050 25.98839
# Shear Modulus (GPa) = 33.78262 36.30047 35.04155
#
# Velocity S-wave (km/s) = 3.67672 3.81128 3.74460
# Velocity P-wave (km/s) = 5.29441 5.49183 5.39402
#
# Compressibility (1/GPa) = 0.03998994
#
# Stress axis : x y z
#
# Youngs Moduli (GPa) = 72.21534 69.30088 43.90261
#
# Poissons Ratio (x) = 0.17104 0.07067
# Poissons Ratio (y) = 0.17823 0.06387
# Poissons Ratio (z) = 0.11624 0.10082
#
# Static dielectric constant tensor:
#      x y z
#    x 2.033740 0.000000 0.000000 
#    y 0.000000 2.124710 0.000000 
#    z 0.000000 0.000000 2.029300 
# 
# From -- ./inp_files/7338.got.cif
#   From: 2010.05.17/outbox.cif.g08.bks.cpg/sg19_4_cif.got.tgz:7338.got - 2010.06.03 22:46:19.
