data_PCOD9313040
_publ_section_title
;
Structure prediction by ZEFSAII (Michael W. Deem and Ramdas Pophale) SiO2 
 PCOD9313040
Probable space group: P 21 21 2
;
_chemical_formula_sum "Si O2"
_cell_formula_units_Z 32
_cell_length_a 10.947631
_cell_length_b 16.928353
_cell_length_c 8.188529
_cell_angle_alpha 90.000000
_cell_angle_beta 90.000000
_cell_angle_gamma 90.000000
_cell_volume 1517.542102
_symmetry_space_group_name_H-M "P 21 21 2"
_symmetry_group_IT_number 18
_symmetry_cell_setting 'orthorhombic'
loop_
_space_group_symop_operation_xyz
x,y,z
-x,-y,z
1/2+x,1/2-y,-z
1/2-x,1/2+y,-z
loop_
_atom_site_type_symbol
_atom_site_label
_atom_site_fract_x
_atom_site_fract_y
_atom_site_fract_z
Si Si1 0.374818 0.230394 0.134128
Si Si2 0.266134 0.738059 0.385812
Si Si3 0.908919 0.929810 0.189177
Si Si4 0.290758 0.845570 0.668166
Si Si5 0.305886 0.640501 0.106710
Si Si6 0.009221 0.759174 0.203175
Si Si7 0.866956 0.479755 0.299691
Si Si8 0.825569 0.393694 0.625937
O O1 0.322768 0.302868 0.240744
O O2 0.410565 0.157682 0.253134
O O3 0.259109 0.194072 0.032081
O O4 0.466219 0.253495 0.990492
O O5 0.296166 0.818248 0.479189
O O6 0.352850 0.698569 0.249800
O O7 0.136559 0.746827 0.295754
O O8 0.248988 0.673954 0.528173
O O9 0.775297 0.941002 0.269500
O O10 0.962645 0.846102 0.247566
O O11 0.893733 0.916533 0.994484
O O12 0.000000 0.000000 0.227928
O O13 0.412885 0.807107 0.745166
O O14 0.292489 0.938887 0.689205
O O15 0.205212 0.584525 0.193288
O O16 0.884049 0.444565 0.482307
O O17 0.000000 0.500000 0.230176
#
# Coordination Sequence:
#
# PCOD9313040 Si02
#       8
#     4   4   4   4   4   4   4   4
#     4   9  19  39  63  85 116 159 201 252 300 363
#     4   9  19  38  64  85 116 159 202 254 301 360
#     4  11  23  39  62  88 126 164 199 251 311 371
#     4  11  21  40  61  94 121 155 211 254 297 368
#     4   9  19  42  59  86 125 158 192 255 313 346
#     4  11  21  40  65  88 118 163 209 250 308 364
#     4  11  23  39  62  89 124 161 202 247 307 367
#     4   9  19  43  58  88 128 154 192 261 311 348
#
# _framework density 21.086728000000001
#
# number of rings (size 3 to 8) (size 9 to 14) (size 15 to 20)
#    0.000    2.000    3.750    2.250    3.500    0.000 
#    6.750    7.500    0.000    0.000    0.000    0.000 
#    0.000    0.000    0.000    0.000    0.000    0.000 
#
# Total GULP energy -178547.135652 kJ/mol
# GULP energy per Si atom -5579.597989 kJ/mol
# Density = 2.103873 g / cm^3
# Si number density = 21.086728 Si / 1000 Ang^3
#
#
#
# Elastic Constant Matrix: (Units=GPa)
#
#
# Indices 1 2 3 4 5 6 
#
# 1 43.7390 8.0540 13.0036 0.0000 0.0000 0.0000
# 2 8.0540 97.0145 18.3376 0.0000 0.0000 0.0000
# 3 13.0036 18.3376 91.5073 0.0000 0.0000 0.0000
# 4 0.0000 0.0000 0.0000 31.6691 0.0000 0.0000
# 5 0.0000 0.0000 0.0000 0.0000 37.7660 0.0000
# 6 0.0000 0.0000 0.0000 0.0000 0.0000 30.1881
#
#
#
# Elastic Compliance Matrix: (Units=1/GPa)
#
#
# Indices 1 2 3 4 5 6 
#
# 1 0.024054 -0.001404 -0.003137 0.000000 0.000000 0.000000
# 2 -0.001404 0.010796 -0.001964 0.000000 0.000000 0.000000
# 3 -0.003137 -0.001964 0.011767 0.000000 0.000000 0.000000
# 4 0.000000 0.000000 0.000000 0.031577 0.000000 0.000000
# 5 0.000000 0.000000 0.000000 0.000000 0.026479 0.000000
# 6 0.000000 0.000000 0.000000 0.000000 0.000000 0.033126
#
#
# Mechanical properties :
#
#
# Convention : Reuss Voigt Hill
#
# Bulk Modulus (GPa) = 29.75523 34.56125 32.15824
# Shear Modulus (GPa) = 30.86234 32.78234 31.82234
#
# Velocity S-wave (km/s) = 3.82984 3.94717 3.88895
# Velocity P-wave (km/s) = 5.80503 6.09912 5.95389
#
# Compressibility (1/GPa) = 0.03360753
#
# Stress axis : x y z
#
# Youngs Moduli (GPa) = 41.57313 92.63113 84.98058
#
# Poissons Ratio (x) = 0.13006 0.26657
# Poissons Ratio (y) = 0.05837 0.16689
# Poissons Ratio (z) = 0.13041 0.18191
#
# Static dielectric constant tensor:
#      x y z
#    x 1.817300 0.000000 0.000000 
#    y 0.000000 1.761550 0.000000 
#    z 0.000000 0.000000 1.793140 
# 
# From -- ./inp_files/4025.got.cif
#   From: 2010.05.17/outbox.cif.g08.bks.cpg/sg18_3_cif.got.tgz:4025.got - 2010.06.03 22:40:56.
