data_PCOD9313474
_publ_section_title
;
Structure prediction by ZEFSAII (Michael W. Deem and Ramdas Pophale) SiO2 
 PCOD9313474
Probable space group: P 21 21 21
;
_chemical_formula_sum "Si O2"
_cell_formula_units_Z 32
_cell_length_a 7.164554
_cell_length_b 8.572799
_cell_length_c 19.741156
_cell_angle_alpha 90.000000
_cell_angle_beta 90.000000
_cell_angle_gamma 90.000000
_cell_volume 1212.507356
_symmetry_space_group_name_H-M "P 21 21 21"
_symmetry_group_IT_number 19
_symmetry_cell_setting 'orthorhombic'
loop_
_space_group_symop_operation_xyz
x,y,z
1/2-x,-y,1/2+z
1/2+x,1/2-y,-z
-x,1/2+y,1/2-z
loop_
_atom_site_type_symbol
_atom_site_label
_atom_site_fract_x
_atom_site_fract_y
_atom_site_fract_z
Si Si1 0.311057 0.351726 0.007861
Si Si2 0.388076 0.377094 0.445592
Si Si3 0.260828 0.897598 0.148425
Si Si4 0.388016 0.043755 0.418997
Si Si5 0.472847 0.037418 0.259391
Si Si6 0.219789 0.313032 0.236009
Si Si7 0.445633 0.800509 0.610632
Si Si8 0.937874 0.706418 0.125879
O O1 0.497363 0.409233 0.045937
O O2 0.216502 0.228367 0.055878
O O3 0.166555 0.494267 0.999295
O O4 0.366556 0.299286 0.932426
O O5 0.557620 0.427252 0.397529
O O6 0.664009 0.440746 0.590507
O O7 0.197352 0.341215 0.405042
O O8 0.335740 0.908372 0.224980
O O9 0.155414 0.743185 0.122431
O O10 0.105889 0.031786 0.141477
O O11 0.108577 0.225320 0.294846
O O12 0.438618 0.198129 0.464158
O O13 0.454357 0.058341 0.340493
O O14 0.681532 0.975680 0.245819
O O15 0.395344 0.194346 0.223878
O O16 0.090358 0.321433 0.170556
#
# Coordination Sequence:
#
# PCOD9313474 Si02
#       8
#     4   4   4   4   4   4   4   4
#     4  12  23  45  66  99 147 189 237 279 345 420
#     4  10  22  42  68  97 133 182 233 286 341 412
#     4  11  20  41  71 102 137 180 226 292 363 412
#     4   9  21  42  66  96 134 182 237 285 342 415
#     4  10  18  38  69  99 135 182 220 298 356 413
#     4  10  20  40  69 102 138 175 239 290 358 420
#     4  11  24  39  66  98 144 184 231 283 343 425
#     4   9  20  43  67 101 132 174 231 291 348 415
#
# _framework density 26.391590999999998
#
# number of rings (size 3 to 8) (size 9 to 14) (size 15 to 20)
#    0.750    1.000    3.750    0.750    0.000    1.000 
#    2.250   10.000    0.000    0.000    0.000    0.000 
#    0.000    0.000    0.000    0.000    0.000    0.000 
#
# Total GULP energy -178720.435400 kJ/mol
# GULP energy per Si atom -5585.013606 kJ/mol
# Density = 2.633152 g / cm^3
# Si number density = 26.391591 Si / 1000 Ang^3
#
#
#
# Elastic Constant Matrix: (Units=GPa)
#
#
# Indices 1 2 3 4 5 6 
#
# 1 116.0259 21.4105 35.9728 0.0000 0.0000 0.0000
# 2 21.4105 34.1082 -2.6511 0.0000 0.0000 0.0000
# 3 35.9728 -2.6511 84.1169 0.0000 0.0000 0.0000
# 4 0.0000 0.0000 0.0000 30.3949 0.0000 0.0000
# 5 0.0000 0.0000 0.0000 0.0000 44.0859 0.0000
# 6 0.0000 0.0000 0.0000 0.0000 0.0000 36.3828
#
#
#
# Elastic Compliance Matrix: (Units=1/GPa)
#
#
# Indices 1 2 3 4 5 6 
#
# 1 0.011668 -0.007731 -0.005234 0.000000 0.000000 0.000000
# 2 -0.007731 0.034513 0.004394 0.000000 0.000000 0.000000
# 3 -0.005234 0.004394 0.014265 0.000000 0.000000 0.000000
# 4 0.000000 0.000000 0.000000 0.032900 0.000000 0.000000
# 5 0.000000 0.000000 0.000000 0.000000 0.022683 0.000000
# 6 0.000000 0.000000 0.000000 0.000000 0.000000 0.027485
#
#
# Mechanical properties :
#
#
# Convention : Reuss Voigt Hill
#
# Bulk Modulus (GPa) = 23.09226 38.19060 30.64143
# Shear Modulus (GPa) = 28.55664 34.14065 31.34865
#
# Velocity S-wave (km/s) = 3.29300 3.60059 3.45023
# Velocity P-wave (km/s) = 4.81947 5.63807 5.24477
#
# Compressibility (1/GPa) = 0.04330456
#
# Stress axis : x y z
#
# Youngs Moduli (GPa) = 85.70448 28.97462 70.10253
#
# Poissons Ratio (x) = 0.22400 0.36688
# Poissons Ratio (y) = 0.66259 -0.30803
# Poissons Ratio (z) = 0.44854 -0.12731
#
# Static dielectric constant tensor:
#      x y z
#    x 2.032950 0.000000 0.000000 
#    y 0.000000 2.108290 0.000000 
#    z 0.000000 0.000000 2.021780 
# 
# From -- ./inp_files/6678.got.cif
#   From: 2010.05.17/outbox.cif.g08.bks.cpg/sg19_4_cif.got.tgz:6678.got - 2010.06.03 22:46:19.
