data_PCOD9313661
_publ_section_title
;
Structure prediction by ZEFSAII (Michael W. Deem and Ramdas Pophale) SiO2 
 PCOD9313661
Probable space group: P 21 21 21
;
_chemical_formula_sum "Si O2"
_cell_formula_units_Z 28
_cell_length_a 13.768566
_cell_length_b 11.093727
_cell_length_c 7.030559
_cell_angle_alpha 90.000000
_cell_angle_beta 90.000000
_cell_angle_gamma 90.000000
_cell_volume 1073.880712
_symmetry_space_group_name_H-M "P 21 21 21"
_symmetry_group_IT_number 19
_symmetry_cell_setting 'orthorhombic'
loop_
_space_group_symop_operation_xyz
x,y,z
1/2-x,-y,1/2+z
1/2+x,1/2-y,-z
-x,1/2+y,1/2-z
loop_
_atom_site_type_symbol
_atom_site_label
_atom_site_fract_x
_atom_site_fract_y
_atom_site_fract_z
Si Si1 0.299641 0.330676 0.020483
Si Si2 0.109682 0.919984 0.084392
Si Si3 0.779419 0.907218 0.103588
Si Si4 0.046583 0.429831 0.105319
Si Si5 0.497912 0.818380 0.002566
Si Si6 0.471085 0.826434 0.554520
Si Si7 0.797894 0.700161 0.804577
O O1 0.252706 0.457713 0.954095
O O2 0.414116 0.335637 0.982622
O O3 0.247510 0.225755 0.903002
O O4 0.281994 0.332442 0.243914
O O5 0.059486 0.922164 0.294486
O O6 0.059617 0.804483 0.981544
O O7 0.223703 0.895622 0.101869
O O8 0.081413 0.049456 0.998953
O O9 0.881272 0.926174 0.214637
O O10 0.784583 0.826492 0.917373
O O11 0.055693 0.555389 0.994897
O O12 0.059326 0.307344 0.987507
O O13 0.458522 0.816830 0.784469
O O14 0.409017 0.828816 0.146936
#
# Coordination Sequence:
#
# PCOD9313661 Si02
#       7
#     4   4   4   4   4   4   4
#     4  12  23  38  70 103 134 186 250 295 353 439
#     4  10  19  37  69  93 134 189 229 289 370 417
#     4  12  23  38  70 103 134 186 250 295 353 439
#     4  10  19  41  67  93 136 189 227 289 377 423
#     4  10  19  37  69  93 134 189 229 289 370 417
#     4  10  19  41  67  93 136 189 227 289 377 423
#     4  12  22  42  68 104 140 182 250 310 360 424
#
# _framework density 26.073658999999999
#
# number of rings (size 3 to 8) (size 9 to 14) (size 15 to 20)
#    0.000    1.143   10.000    0.000    0.000    0.000 
#    2.571    1.429    0.000    0.000    0.000    0.000 
#    0.000    0.000    0.000    0.000    0.000    0.000 
#
# Total GULP energy -156738.310058 kJ/mol
# GULP energy per Si atom -5597.796788 kJ/mol
# Density = 2.601431 g / cm^3
# Si number density = 26.073659 Si / 1000 Ang^3
#
#
#
# Elastic Constant Matrix: (Units=GPa)
#
#
# Indices 1 2 3 4 5 6 
#
# 1 70.6899 41.2326 8.0726 0.0000 0.0000 0.0000
# 2 41.2326 205.8776 18.2587 0.0000 0.0000 0.0000
# 3 8.0726 18.2587 78.8213 0.0000 0.0000 0.0000
# 4 0.0000 0.0000 0.0000 21.9917 0.0000 0.0000
# 5 0.0000 0.0000 0.0000 0.0000 33.6432 0.0000
# 6 0.0000 0.0000 0.0000 0.0000 0.0000 43.3303
#
#
#
# Elastic Compliance Matrix: (Units=1/GPa)
#
#
# Indices 1 2 3 4 5 6 
#
# 1 0.016083 -0.003139 -0.000920 0.000000 0.000000 0.000000
# 2 -0.003139 0.005572 -0.000969 0.000000 0.000000 0.000000
# 3 -0.000920 -0.000969 0.013006 0.000000 0.000000 0.000000
# 4 0.000000 0.000000 0.000000 0.045472 0.000000 0.000000
# 5 0.000000 0.000000 0.000000 0.000000 0.029724 0.000000
# 6 0.000000 0.000000 0.000000 0.000000 0.000000 0.023079
#
#
# Mechanical properties :
#
#
# Convention : Reuss Voigt Hill
#
# Bulk Modulus (GPa) = 40.64513 54.50183 47.57348
# Shear Modulus (GPa) = 33.07053 38.98137 36.02595
#
# Velocity S-wave (km/s) = 3.56525 3.87078 3.72115
# Velocity P-wave (km/s) = 5.70705 6.39732 6.06202
#
# Compressibility (1/GPa) = 0.02460320
#
# Stress axis : x y z
#
# Youngs Moduli (GPa) = 62.17938 179.47021 76.88963
#
# Poissons Ratio (x) = 0.56342 0.07073
# Poissons Ratio (y) = 0.19520 0.07452
# Poissons Ratio (z) = 0.05720 0.17394
#
# Static dielectric constant tensor:
#      x y z
#    x 2.126050 0.000000 0.000000 
#    y 0.000000 2.045990 0.000000 
#    z 0.000000 0.000000 2.057050 
# 
# From -- ./inp_files/3888.got.cif
#   From: 2010.05.17/outbox.cif.g08.bks.cpg/sg19_2_cif.got.tgz:3888.got - 2010.06.03 22:46:19.
