data_PCOD9313085
_publ_section_title
;
Structure prediction by ZEFSAII (Michael W. Deem and Ramdas Pophale) SiO2 
 PCOD9313085
Probable space group: P 21 21 2
;
_chemical_formula_sum "Si O2"
_cell_formula_units_Z 32
_cell_length_a 13.899694
_cell_length_b 12.072976
_cell_length_c 8.402325
_cell_angle_alpha 90.000000
_cell_angle_beta 90.000000
_cell_angle_gamma 90.000000
_cell_volume 1409.999805
_symmetry_space_group_name_H-M "P 21 21 2"
_symmetry_group_IT_number 18
_symmetry_cell_setting 'orthorhombic'
loop_
_space_group_symop_operation_xyz
x,y,z
-x,-y,z
1/2+x,1/2-y,-z
1/2-x,1/2+y,-z
loop_
_atom_site_type_symbol
_atom_site_label
_atom_site_fract_x
_atom_site_fract_y
_atom_site_fract_z
Si Si1 0.069242 0.263414 0.498666
Si Si2 0.116158 0.651535 0.523571
Si Si3 0.102491 0.444249 0.994955
Si Si4 0.054019 0.114225 0.809258
Si Si5 0.220151 0.869148 0.513880
Si Si6 0.235199 0.540317 0.244652
Si Si7 0.243370 0.533644 0.759559
Si Si8 0.087893 0.196939 0.139375
O O1 0.043197 0.196401 0.659290
O O2 0.178796 0.305009 0.509325
O O3 0.056051 0.205480 0.325401
O O4 0.996161 0.366662 0.500838
O O5 0.136315 0.781237 0.503275
O O6 0.181872 0.595095 0.392189
O O7 0.160178 0.612057 0.688598
O O8 0.153550 0.528498 0.115310
O O9 0.099513 0.324547 0.080154
O O10 0.000000 0.500000 0.951498
O O11 0.182721 0.442684 0.857032
O O12 0.169579 0.100457 0.812125
O O13 0.025738 0.149957 0.989698
O O14 0.000000 0.000000 0.772707
O O15 0.227731 0.922867 0.687917
O O16 0.207503 0.965573 0.384018
O O17 0.320195 0.613854 0.843720
#
# Coordination Sequence:
#
# PCOD9313085 Si02
#       8
#     4   4   4   4   4   4   4   4
#     4  12  24  46  74 103 149 191 243 319 370 458
#     4  11  24  42  71 104 137 193 243 304 378 439
#     4  12  26  44  70 106 144 191 247 311 377 446
#     4  12  27  46  72 108 150 196 250 310 383 455
#     4  11  22  43  69  99 140 188 247 296 375 441
#     4  11  22  44  67  97 139 188 239 302 370 440
#     4  11  25  43  73 101 147 196 245 308 378 441
#     4  12  26  51  71 108 152 195 253 314 370 465
#
# _framework density 22.695039999999999
#
# number of rings (size 3 to 8) (size 9 to 14) (size 15 to 20)
#    0.000    0.500    5.000    3.000    3.500    2.500 
#    0.000    0.000    0.000    0.000    0.000    0.000 
#    0.000    0.000    0.000    0.000    0.000    0.000 
#
# Total GULP energy -178562.977179 kJ/mol
# GULP energy per Si atom -5580.093037 kJ/mol
# Density = 2.264338 g / cm^3
# Si number density = 22.695040 Si / 1000 Ang^3
#
#
#
# Elastic Constant Matrix: (Units=GPa)
#
#
# Indices 1 2 3 4 5 6 
#
# 1 57.5354 10.1753 7.3296 0.0000 0.0000 0.0000
# 2 10.1753 48.8077 11.4126 0.0000 0.0000 0.0000
# 3 7.3296 11.4126 102.0382 0.0000 0.0000 0.0000
# 4 0.0000 0.0000 0.0000 14.0546 0.0000 0.0000
# 5 0.0000 0.0000 0.0000 0.0000 15.8207 0.0000
# 6 0.0000 0.0000 0.0000 0.0000 0.0000 24.4887
#
#
#
# Elastic Compliance Matrix: (Units=1/GPa)
#
#
# Indices 1 2 3 4 5 6 
#
# 1 0.018127 -0.003568 -0.000903 0.000000 0.000000 0.000000
# 2 -0.003568 0.021741 -0.002175 0.000000 0.000000 0.000000
# 3 -0.000903 -0.002175 0.010108 0.000000 0.000000 0.000000
# 4 0.000000 0.000000 0.000000 0.071151 0.000000 0.000000
# 5 0.000000 0.000000 0.000000 0.000000 0.063208 0.000000
# 6 0.000000 0.000000 0.000000 0.000000 0.000000 0.040835
#
#
# Mechanical properties :
#
#
# Convention : Reuss Voigt Hill
#
# Bulk Modulus (GPa) = 27.26012 29.57959 28.41985
# Shear Modulus (GPa) = 19.94489 22.83705 21.39097
#
# Velocity S-wave (km/s) = 2.96771 3.17560 3.07341
# Velocity P-wave (km/s) = 4.87654 5.14856 5.01440
#
# Compressibility (1/GPa) = 0.03668363
#
# Stress axis : x y z
#
# Youngs Moduli (GPa) = 55.16748 45.99596 98.92735
#
# Poissons Ratio (x) = 0.16411 0.08933
# Poissons Ratio (y) = 0.19683 0.21520
# Poissons Ratio (z) = 0.04982 0.10006
#
# Static dielectric constant tensor:
#      x y z
#    x 1.792900 0.000000 0.000000 
#    y 0.000000 1.876160 0.000000 
#    z 0.000000 0.000000 1.937290 
# 
# From -- ./inp_files/4324.got.cif
#   From: 2010.05.17/outbox.cif.g08.bks.cpg/sg18_3_cif.got.tgz:4324.got - 2010.06.03 22:40:56.
