data_PCOD9313461
_publ_section_title
;
Structure prediction by ZEFSAII (Michael W. Deem and Ramdas Pophale) SiO2 
 PCOD9313461
Probable space group: P 21 21 21
;
_chemical_formula_sum "Si O2"
_cell_formula_units_Z 32
_cell_length_a 16.584490
_cell_length_b 9.090460
_cell_length_c 10.489540
_cell_angle_alpha 90.000000
_cell_angle_beta 90.000000
_cell_angle_gamma 90.000000
_cell_volume 1581.409795
_symmetry_space_group_name_H-M "P 21 21 21"
_symmetry_group_IT_number 19
_symmetry_cell_setting 'orthorhombic'
loop_
_space_group_symop_operation_xyz
x,y,z
1/2-x,-y,1/2+z
1/2+x,1/2-y,-z
-x,1/2+y,1/2-z
loop_
_atom_site_type_symbol
_atom_site_label
_atom_site_fract_x
_atom_site_fract_y
_atom_site_fract_z
Si Si1 0.138271 0.064175 0.186948
Si Si2 0.458203 0.492576 0.729982
Si Si3 0.132917 0.275695 0.404307
Si Si4 0.640182 0.751087 0.853175
Si Si5 0.014318 0.737102 0.919379
Si Si6 0.270714 0.525031 0.088709
Si Si7 0.373206 0.668485 0.506668
Si Si8 0.428174 0.530309 0.249862
O O1 0.170341 0.166568 0.300336
O O2 0.126476 0.167627 0.063975
O O3 0.051131 0.012501 0.237185
O O4 0.179340 0.907764 0.166148
O O5 0.414828 0.596784 0.830439
O O6 0.428672 0.323115 0.736532
O O7 0.432414 0.566379 0.595059
O O8 0.199694 0.360640 0.482692
O O9 0.065116 0.202026 0.494615
O O10 0.707519 0.875561 0.834652
O O11 0.592175 0.745888 0.988507
O O12 0.032933 0.608642 0.819693
O O13 0.988656 0.884787 0.844624
O O14 0.216813 0.395306 0.030550
O O15 0.348563 0.482887 0.170654
O O16 0.399454 0.641952 0.361940
#
# Coordination Sequence:
#
# PCOD9313461 Si02
#       8
#     4   4   4   4   4   4   4   4
#     4  11  20  35  62  95 117 153 210 270 306 356
#     4  10  18  36  66  89 118 159 202 259 314 370
#     4  10  21  40  63  89 124 160 219 250 320 373
#     4  11  21  38  60  95 128 157 206 261 326 356
#     4  11  22  40  64  92 126 168 202 279 299 386
#     4  10  24  42  61  85 125 181 198 253 317 398
#     4  10  22  37  63  87 125 164 212 254 316 386
#     4  11  24  42  65  90 127 166 221 252 326 377
#
# _framework density 20.235109999999999
#
# number of rings (size 3 to 8) (size 9 to 14) (size 15 to 20)
#    0.000    1.500    5.000    0.750    7.000    0.000 
#    2.250    2.500    0.000    0.000    0.000    0.000 
#    0.000    0.000    0.000    0.000    0.000    0.000 
#
# Total GULP energy -178478.962080 kJ/mol
# GULP energy per Si atom -5577.467565 kJ/mol
# Density = 2.018905 g / cm^3
# Si number density = 20.235110 Si / 1000 Ang^3
#
#
#
# Elastic Constant Matrix: (Units=GPa)
#
#
# Indices 1 2 3 4 5 6 
#
# 1 42.4478 3.0331 2.9873 0.0000 0.0000 0.0000
# 2 3.0331 83.3319 3.7336 0.0000 0.0000 0.0000
# 3 2.9873 3.7336 36.5042 0.0000 0.0000 0.0000
# 4 0.0000 0.0000 0.0000 20.6945 0.0000 0.0000
# 5 0.0000 0.0000 0.0000 0.0000 18.7049 0.0000
# 6 0.0000 0.0000 0.0000 0.0000 0.0000 9.3562
#
#
#
# Elastic Compliance Matrix: (Units=1/GPa)
#
#
# Indices 1 2 3 4 5 6 
#
# 1 0.023745 -0.000781 -0.001863 0.000000 0.000000 0.000000
# 2 -0.000781 0.012081 -0.001172 0.000000 0.000000 0.000000
# 3 -0.001863 -0.001172 0.027666 0.000000 0.000000 0.000000
# 4 0.000000 0.000000 0.000000 0.048322 0.000000 0.000000
# 5 0.000000 0.000000 0.000000 0.000000 0.053462 0.000000
# 6 0.000000 0.000000 0.000000 0.000000 0.000000 0.106881
#
#
# Mechanical properties :
#
#
# Convention : Reuss Voigt Hill
#
# Bulk Modulus (GPa) = 17.90153 20.19909 19.05031
# Shear Modulus (GPa) = 16.75550 19.91979 18.33764
#
# Velocity S-wave (km/s) = 2.88069 3.14095 3.01363
# Velocity P-wave (km/s) = 4.46436 4.81227 4.64157
#
# Compressibility (1/GPa) = 0.05586115
#
# Stress axis : x y z
#
# Youngs Moduli (GPa) = 42.11368 82.77372 36.14486
#
# Poissons Ratio (x) = 0.06463 0.06735
# Poissons Ratio (y) = 0.03288 0.04235
# Poissons Ratio (z) = 0.07847 0.09699
#
# Static dielectric constant tensor:
#      x y z
#    x 1.821100 0.000000 0.000000 
#    y 0.000000 1.763790 0.000000 
#    z 0.000000 0.000000 1.766190 
# 
# From -- ./inp_files/5400.got.cif
#   From: 2010.05.17/outbox.cif.g08.bks.cpg/sg19_3_cif.got.tgz:5400.got - 2010.06.03 22:46:19.
