data_PCOD9313289
_publ_section_title
;
Structure prediction by ZEFSAII (Michael W. Deem and Ramdas Pophale) SiO2 
 PCOD9313289
Probable space group: P 21 21 2
;
_chemical_formula_sum "Si O2"
_cell_formula_units_Z 20
_cell_length_a 9.000000
_cell_length_b 9.000000
_cell_length_c 12.000000
_cell_angle_alpha 90.000000
_cell_angle_beta 90.000000
_cell_angle_gamma 90.000000
_cell_volume 972.000000
_symmetry_space_group_name_H-M "P 21 21 2"
_symmetry_group_IT_number 18
_symmetry_cell_setting 'orthorhombic'
loop_
_space_group_symop_operation_xyz
x,y,z
-x,-y,z
1/2+x,1/2-y,-z
1/2-x,1/2+y,-z
loop_
_atom_site_type_symbol
_atom_site_label
_atom_site_fract_x
_atom_site_fract_y
_atom_site_fract_z
Si Si1 0.808963 0.175306 0.584368
Si Si2 0.687541 0.801843 0.851002
Si Si3 0.659851 0.324401 0.377972
Si Si4 0.325748 0.493956 0.981405
Si Si5 0.904923 0.850356 0.243846
O O1 0.755095 0.223106 0.461753
O O2 0.706803 0.274751 0.668258
O O3 0.985324 0.201734 0.599208
O O4 0.794892 0.997527 0.602635
O O5 0.802362 0.789859 0.749614
O O6 0.710627 0.670184 0.939829
O O7 0.527393 0.770158 0.795881
O O8 0.720029 0.949555 0.920899
O O9 0.500000 0.500000 0.017826
O O10 0.322021 0.592780 0.868025
O O11 0.000000 0.000000 0.282021
#
# Coordination Sequence:
#
# PCOD9313289 Si02
#       5
#     4   4   4   4   4
#     4  11  26  46  72 101 139 179 230 293 344 418
#     4  10  22  43  68 100 133 185 224 280 341 405
#     4  11  27  44  71 102 139 178 232 283 354 411
#     4   9  22  41  65  96 140 172 230 277 332 402
#     4   9  22  44  69  96 139 181 228 284 340 405
#
# _framework density 20.576132000000001
#
# number of rings (size 3 to 8) (size 9 to 14) (size 15 to 20)
#    0.000    2.400    0.000    1.200   14.000    4.800 
#    3.600    8.000    0.000    0.000    0.000    0.000 
#    0.000    0.000    0.000    0.000    0.000    0.000 
#
# Total GULP energy -111778.047611 kJ/mol
# GULP energy per Si atom -5588.902381 kJ/mol
# Density = 2.052930 g / cm^3
# Si number density = 20.576132 Si / 1000 Ang^3
#
#
#
# Elastic Constant Matrix: (Units=GPa)
#
#
# Indices 1 2 3 4 5 6 
#
# 1 81.3934 57.8016 46.1091 0.0000 0.0000 0.0000
# 2 57.8016 73.0137 29.4795 0.0000 0.0000 0.0000
# 3 46.1091 29.4795 73.7242 0.0000 0.0000 0.0000
# 4 0.0000 0.0000 0.0000 26.4791 0.0000 0.0000
# 5 0.0000 0.0000 0.0000 0.0000 26.3800 0.0000
# 6 0.0000 0.0000 0.0000 0.0000 0.0000 40.4288
#
#
#
# Elastic Compliance Matrix: (Units=1/GPa)
#
#
# Indices 1 2 3 4 5 6 
#
# 1 0.036701 -0.023597 -0.013519 0.000000 0.000000 0.000000
# 2 -0.023597 0.031504 0.002161 0.000000 0.000000 0.000000
# 3 -0.013519 0.002161 0.021155 0.000000 0.000000 0.000000
# 4 0.000000 0.000000 0.000000 0.037766 0.000000 0.000000
# 5 0.000000 0.000000 0.000000 0.000000 0.037908 0.000000
# 6 0.000000 0.000000 0.000000 0.000000 0.000000 0.024735
#
#
# Mechanical properties :
#
#
# Convention : Reuss Voigt Hill
#
# Bulk Modulus (GPa) = 51.41046 54.99019 53.20032
# Shear Modulus (GPa) = 18.78560 24.97366 21.87963
#
# Velocity S-wave (km/s) = 3.02483 3.48763 3.26444
# Velocity P-wave (km/s) = 6.10239 6.55754 6.33406
#
# Compressibility (1/GPa) = 0.01945130
#
# Stress axis : x y z
#
# Youngs Moduli (GPa) = 27.24691 31.74203 47.27008
#
# Poissons Ratio (x) = 0.74900 0.63903
# Poissons Ratio (y) = 0.64293 -0.10214
# Poissons Ratio (z) = 0.36834 -0.06859
#
# Static dielectric constant tensor:
#      x y z
#    x 1.716930 0.000000 0.000000 
#    y 0.000000 1.752470 0.000000 
#    z 0.000000 0.000000 1.719450 
# 
# From -- ./inp_files/5428.got.cif
#   From: 2010.05.17/outbox.ucp.g08.bks.cvg/sg18_3_cif.got.tgz:5428.got - 2010.06.11 13:13:23.
