data_PCOD9313457
_publ_section_title
;
Structure prediction by ZEFSAII (Michael W. Deem and Ramdas Pophale) SiO2 
 PCOD9313457
Probable space group: P 21 21 21
;
_chemical_formula_sum "Si O2"
_cell_formula_units_Z 32
_cell_length_a 5.041732
_cell_length_b 19.027033
_cell_length_c 13.650409
_cell_angle_alpha 90.000000
_cell_angle_beta 90.000000
_cell_angle_gamma 90.000000
_cell_volume 1309.472831
_symmetry_space_group_name_H-M "P 21 21 21"
_symmetry_group_IT_number 19
_symmetry_cell_setting 'orthorhombic'
loop_
_space_group_symop_operation_xyz
x,y,z
1/2-x,-y,1/2+z
1/2+x,1/2-y,-z
-x,1/2+y,1/2-z
loop_
_atom_site_type_symbol
_atom_site_label
_atom_site_fract_x
_atom_site_fract_y
_atom_site_fract_z
Si Si1 0.185868 0.911683 0.559752
Si Si2 0.995557 0.620911 0.630298
Si Si3 0.617820 0.755264 0.112004
Si Si4 0.577968 0.740984 0.436920
Si Si5 0.546971 0.364048 0.538896
Si Si6 0.715430 0.996916 0.924438
Si Si7 0.598687 0.676907 0.787823
Si Si8 0.887139 0.453045 0.405504
O O1 0.415384 0.891254 0.482876
O O2 0.096199 0.837752 0.603960
O O3 0.293773 0.971270 0.632395
O O4 0.975810 0.950919 0.487836
O O5 0.165131 0.692373 0.627536
O O6 0.742176 0.643112 0.693227
O O7 0.143883 0.548290 0.654289
O O8 0.695407 0.676193 0.080536
O O9 0.343724 0.778935 0.162596
O O10 0.853577 0.773147 0.187404
O O11 0.630175 0.802975 0.011896
O O12 0.775433 0.747666 0.529421
O O13 0.427239 0.424620 0.608897
O O14 0.632630 0.411640 0.446443
O O15 0.932008 0.968115 0.000920
O O16 0.491131 0.604443 0.836336
#
# Coordination Sequence:
#
# PCOD9313457 Si02
#       8
#     4   4   4   4   4   4   4   4
#     4   9  19  35  60  89 111 157 216 256 294 367
#     4  10  22  37  61  87 128 163 206 262 323 379
#     4  11  23  37  63  90 123 162 205 264 306 381
#     4  10  19  35  60  87 111 151 209 260 296 356
#     4  10  20  36  62  91 118 155 219 259 304 357
#     4  10  18  36  62  89 115 157 219 254 306 365
#     4  11  24  39  58  91 130 165 201 251 336 376
#     4   9  19  35  58  88 114 158 201 256 299 375
#
# _framework density 24.437314000000001
#
# number of rings (size 3 to 8) (size 9 to 14) (size 15 to 20)
#    0.000    2.000    2.500    1.500    3.500    0.000 
#    0.000    1.250    0.000    0.000    0.000    0.000 
#    0.000    0.000    0.000    0.000    0.000    0.000 
#
# Total GULP energy -178169.500844 kJ/mol
# GULP energy per Si atom -5567.796901 kJ/mol
# Density = 2.438169 g / cm^3
# Si number density = 24.437314 Si / 1000 Ang^3
#
#
#
# Elastic Constant Matrix: (Units=GPa)
#
#
# Indices 1 2 3 4 5 6 
#
# 1 94.8802 29.0157 2.9740 0.0000 0.0000 0.0000
# 2 29.0157 181.5119 7.2283 0.0000 0.0000 0.0000
# 3 2.9740 7.2283 20.1155 0.0000 0.0000 0.0000
# 4 0.0000 0.0000 0.0000 3.1504 0.0000 0.0000
# 5 0.0000 0.0000 0.0000 0.0000 15.2900 0.0000
# 6 0.0000 0.0000 0.0000 0.0000 0.0000 52.8420
#
#
#
# Elastic Compliance Matrix: (Units=1/GPa)
#
#
# Indices 1 2 3 4 5 6 
#
# 1 0.011102 -0.001734 -0.001018 0.000000 0.000000 0.000000
# 2 -0.001734 0.005860 -0.001849 0.000000 0.000000 0.000000
# 3 -0.001018 -0.001849 0.050528 0.000000 0.000000 0.000000
# 4 0.000000 0.000000 0.000000 0.317423 0.000000 0.000000
# 5 0.000000 0.000000 0.000000 0.000000 0.065402 0.000000
# 6 0.000000 0.000000 0.000000 0.000000 0.000000 0.018924
#
#
# Mechanical properties :
#
#
# Convention : Reuss Voigt Hill
#
# Bulk Modulus (GPa) = 17.15664 41.66039 29.40851
# Shear Modulus (GPa) = 10.04274 31.40911 20.72593
#
# Velocity S-wave (km/s) = 2.02941 3.58899 2.91542
# Velocity P-wave (km/s) = 3.53939 5.85315 4.83666
#
# Compressibility (1/GPa) = 0.05828648
#
# Stress axis : x y z
#
# Youngs Moduli (GPa) = 90.07510 170.64434 19.79100
#
# Poissons Ratio (x) = 0.29592 0.02015
# Poissons Ratio (y) = 0.15620 0.03660
# Poissons Ratio (z) = 0.09172 0.31559
#
# Static dielectric constant tensor:
#      x y z
#    x 2.076980 0.000000 0.000000 
#    y 0.000000 2.181330 0.000000 
#    z 0.000000 0.000000 2.029990 
# 
# From -- ./inp_files/1868.got.cif
#   From: 2010.05.17/outbox.cif.g08.bks.cpg/sg19_1_cif.got.tgz:1868.got - 2010.06.03 22:46:19.
