data_PCOD9313910
_publ_section_title
;
Structure prediction by ZEFSAII (Michael W. Deem and Ramdas Pophale) SiO2 
 PCOD9313910
Probable space group: P 21 21 21
;
_chemical_formula_sum "Si O2"
_cell_formula_units_Z 32
_cell_length_a 13.554084
_cell_length_b 18.415667
_cell_length_c 5.169108
_cell_angle_alpha 90.000000
_cell_angle_beta 90.000000
_cell_angle_gamma 90.000000
_cell_volume 1290.248112
_symmetry_space_group_name_H-M "P 21 21 21"
_symmetry_group_IT_number 19
_symmetry_cell_setting 'orthorhombic'
loop_
_space_group_symop_operation_xyz
x,y,z
1/2-x,-y,1/2+z
1/2+x,1/2-y,-z
-x,1/2+y,1/2-z
loop_
_atom_site_type_symbol
_atom_site_label
_atom_site_fract_x
_atom_site_fract_y
_atom_site_fract_z
Si Si1 0.605796 0.041846 0.600087
Si Si2 0.419308 0.021618 0.876183
Si Si3 0.526754 0.273604 0.248280
Si Si4 0.277773 0.830305 0.118628
Si Si5 0.267828 0.923076 0.609959
Si Si6 0.536251 0.924268 0.224075
Si Si7 0.706789 0.902796 0.864160
Si Si8 0.405192 0.260504 0.772006
O O1 0.515149 0.067529 0.781647
O O2 0.679090 0.095680 0.449521
O O3 0.546728 0.994966 0.392348
O O4 0.676092 0.980755 0.737995
O O5 0.338914 0.990900 0.672367
O O6 0.348171 0.056752 0.090365
O O7 0.472334 0.948503 0.979459
O O8 0.642358 0.268709 0.304356
O O9 0.510990 0.355822 0.141833
O O10 0.478350 0.271694 0.531001
O O11 0.463720 0.234308 0.027709
O O12 0.292400 0.893109 0.328122
O O13 0.170631 0.799683 0.176085
O O14 0.284401 0.862244 0.830807
O O15 0.644027 0.901459 0.127950
O O16 0.661702 0.834817 0.705221
#
# Coordination Sequence:
#
# PCOD9313910 Si02
#       8
#     4   4   4   4   4   4   4   4
#     4  11  20  38  64 104 140 176 222 292 359 421
#     4  11  26  40  68 104 137 184 227 294 363 427
#     4  11  22  44  72 102 129 183 245 278 343 421
#     4  12  26  47  73 102 139 192 238 298 349 419
#     4  12  26  46  71 105 144 184 237 292 357 431
#     4  10  20  37  66  96 136 177 226 281 342 430
#     4  10  21  37  64 100 134 177 231 282 352 414
#     4  11  25  45  72  99 137 183 240 291 339 413
#
# _framework density 24.801434
#
# number of rings (size 3 to 8) (size 9 to 14) (size 15 to 20)
#    0.000    1.000    3.750    3.000    5.250    0.000 
#    2.250    1.250    0.000    0.000    0.000    0.000 
#    0.000    0.000    0.000    0.000    0.000    0.000 
#
# Total GULP energy -178715.742128 kJ/mol
# GULP energy per Si atom -5584.866941 kJ/mol
# Density = 2.474499 g / cm^3
# Si number density = 24.801434 Si / 1000 Ang^3
#
#
#
# Elastic Constant Matrix: (Units=GPa)
#
#
# Indices 1 2 3 4 5 6 
#
# 1 140.9963 7.0098 18.0085 0.0000 0.0000 0.0000
# 2 7.0098 32.8569 4.8323 0.0000 0.0000 0.0000
# 3 18.0085 4.8323 61.0872 0.0000 0.0000 0.0000
# 4 0.0000 0.0000 0.0000 15.4759 0.0000 0.0000
# 5 0.0000 0.0000 0.0000 0.0000 41.3939 0.0000
# 6 0.0000 0.0000 0.0000 0.0000 0.0000 23.2545
#
#
#
# Elastic Compliance Matrix: (Units=1/GPa)
#
#
# Indices 1 2 3 4 5 6 
#
# 1 0.007422 -0.001277 -0.002087 0.000000 0.000000 0.000000
# 2 -0.001277 0.031013 -0.002077 0.000000 0.000000 0.000000
# 3 -0.002087 -0.002077 0.017150 0.000000 0.000000 0.000000
# 4 0.000000 0.000000 0.000000 0.064617 0.000000 0.000000
# 5 0.000000 0.000000 0.000000 0.000000 0.024158 0.000000
# 6 0.000000 0.000000 0.000000 0.000000 0.000000 0.043002
#
#
# Mechanical properties :
#
#
# Convention : Reuss Voigt Hill
#
# Bulk Modulus (GPa) = 22.36957 32.73795 27.55376
# Shear Modulus (GPa) = 23.45825 29.69750 26.57788
#
# Velocity S-wave (km/s) = 3.07879 3.46412 3.27712
# Velocity P-wave (km/s) = 4.65593 5.40637 5.04512
#
# Compressibility (1/GPa) = 0.04470359
#
# Stress axis : x y z
#
# Youngs Moduli (GPa) = 134.72680 32.24472 58.31033
#
# Poissons Ratio (x) = 0.04116 0.12170
# Poissons Ratio (y) = 0.17199 0.12111
# Poissons Ratio (z) = 0.28119 0.06697
#
# Static dielectric constant tensor:
#      x y z
#    x 2.028380 0.000000 0.000000 
#    y 0.000000 2.007880 0.000000 
#    z 0.000000 0.000000 2.017410 
# 
# From -- ./inp_files/1240.got.cif
#   From: 2010.05.17/outbox.cif.g08.bks.cpg/sg19_1_cif.got.tgz:1240.got - 2010.06.03 22:46:19.
