data_PCOD9313452
_publ_section_title
;
Structure prediction by ZEFSAII (Michael W. Deem and Ramdas Pophale) SiO2 
 PCOD9313452
Probable space group: P 21 21 21
;
_chemical_formula_sum "Si O2"
_cell_formula_units_Z 24
_cell_length_a 10.643248
_cell_length_b 9.339902
_cell_length_c 11.552223
_cell_angle_alpha 90.000000
_cell_angle_beta 90.000000
_cell_angle_gamma 90.000000
_cell_volume 1148.370599
_symmetry_space_group_name_H-M "P 21 21 21"
_symmetry_group_IT_number 19
_symmetry_cell_setting 'orthorhombic'
loop_
_space_group_symop_operation_xyz
x,y,z
1/2-x,-y,1/2+z
1/2+x,1/2-y,-z
-x,1/2+y,1/2-z
loop_
_atom_site_type_symbol
_atom_site_label
_atom_site_fract_x
_atom_site_fract_y
_atom_site_fract_z
Si Si1 0.383473 0.175798 0.159687
Si Si2 0.887395 0.821992 0.346432
Si Si3 0.867326 0.339879 0.565345
Si Si4 0.308084 0.609357 0.903504
Si Si5 0.957166 0.048798 0.537973
Si Si6 0.497393 0.397024 0.000137
O O1 0.247308 0.244324 0.132006
O O2 0.389285 0.152403 0.296766
O O3 0.425982 0.030334 0.096097
O O4 0.480908 0.293589 0.109749
O O5 0.884930 0.867311 0.213422
O O6 0.915788 0.959796 0.425284
O O7 0.987625 0.704052 0.388704
O O8 0.733811 0.263558 0.547320
O O9 0.887374 0.494239 0.512827
O O10 0.962626 0.218860 0.516316
O O11 0.168106 0.542941 0.879056
O O12 0.379505 0.502002 0.986703
#
# Coordination Sequence:
#
# PCOD9313452 Si02
#       6
#     4   4   4   4   4   4
#     4  10  18  36  59  86 113 144 200 241 277 350
#     4  10  21  37  60  84 118 155 195 236 287 346
#     4   9  20  34  57  85 110 154 191 236 288 332
#     4   9  21  39  57  82 120 152 188 236 289 348
#     4   9  19  35  58  82 111 157 182 244 293 323
#     4  11  21  37  61  85 118 154 192 239 292 341
#
# _framework density 20.899177999999999
#
# number of rings (size 3 to 8) (size 9 to 14) (size 15 to 20)
#    1.000    1.333    1.667    1.000    0.000    2.667 
#    0.000    5.000   11.000    0.000    0.000    0.000 
#    0.000    0.000    0.000    0.000    0.000    0.000 
#
# Total GULP energy -133626.943175 kJ/mol
# GULP energy per Si atom -5567.789299 kJ/mol
# Density = 2.085161 g / cm^3
# Si number density = 20.899178 Si / 1000 Ang^3
#
#
#
# Elastic Constant Matrix: (Units=GPa)
#
#
# Indices 1 2 3 4 5 6 
#
# 1 25.3908 -15.3687 0.2375 0.0000 0.0000 0.0000
# 2 -15.3687 84.6678 21.7566 0.0000 0.0000 0.0000
# 3 0.2375 21.7566 34.3562 0.0000 0.0000 0.0000
# 4 0.0000 0.0000 0.0000 22.5785 0.0000 0.0000
# 5 0.0000 0.0000 0.0000 0.0000 24.0532 0.0000
# 6 0.0000 0.0000 0.0000 0.0000 0.0000 26.7453
#
#
#
# Elastic Compliance Matrix: (Units=1/GPa)
#
#
# Indices 1 2 3 4 5 6 
#
# 1 0.045472 0.009955 -0.006618 0.000000 0.000000 0.000000
# 2 0.009955 0.016286 -0.010382 0.000000 0.000000 0.000000
# 3 -0.006618 -0.010382 0.035727 0.000000 0.000000 0.000000
# 4 0.000000 0.000000 0.000000 0.044290 0.000000 0.000000
# 5 0.000000 0.000000 0.000000 0.000000 0.041575 0.000000
# 6 0.000000 0.000000 0.000000 0.000000 0.000000 0.037390
#
#
# Mechanical properties :
#
#
# Convention : Reuss Voigt Hill
#
# Bulk Modulus (GPa) = 11.99142 17.51843 14.75493
# Shear Modulus (GPa) = 19.03837 23.86134 21.44985
#
# Velocity S-wave (km/s) = 3.02149 3.38262 3.20714
# Velocity P-wave (km/s) = 4.23353 4.86382 4.55958
#
# Compressibility (1/GPa) = 0.08339293
#
# Stress axis : x y z
#
# Youngs Moduli (GPa) = 21.99175 61.40407 27.98994
#
# Poissons Ratio (x) = -0.61125 0.18524
# Poissons Ratio (y) = -0.21892 0.29059
# Poissons Ratio (z) = 0.14555 0.63749
#
# Static dielectric constant tensor:
#      x y z
#    x 1.819680 0.000000 0.000000 
#    y 0.000000 1.751490 0.000000 
#    z 0.000000 0.000000 1.705700 
# 
# From -- ./inp_files/4924.got.cif
#   From: 2010.05.17/outbox.cif.g08.bks.cpg/sg19_3_cif.got.tgz:4924.got - 2010.06.03 22:46:19.
