data_PCOD9313589
_publ_section_title
;
Structure prediction by ZEFSAII (Michael W. Deem and Ramdas Pophale) SiO2 
 PCOD9313589
Probable space group: P 21 21 21
;
_chemical_formula_sum "Si O2"
_cell_formula_units_Z 28
_cell_length_a 9.877435
_cell_length_b 8.472505
_cell_length_c 18.961526
_cell_angle_alpha 90.000000
_cell_angle_beta 90.000000
_cell_angle_gamma 90.000000
_cell_volume 1586.825972
_symmetry_space_group_name_H-M "P 21 21 21"
_symmetry_group_IT_number 19
_symmetry_cell_setting 'orthorhombic'
loop_
_space_group_symop_operation_xyz
x,y,z
1/2-x,-y,1/2+z
1/2+x,1/2-y,-z
-x,1/2+y,1/2-z
loop_
_atom_site_type_symbol
_atom_site_label
_atom_site_fract_x
_atom_site_fract_y
_atom_site_fract_z
Si Si1 0.790432 0.849766 0.459191
Si Si2 0.406199 0.592400 0.693525
Si Si3 0.678400 0.757588 0.213091
Si Si4 0.003622 0.262796 0.929081
Si Si5 0.923728 0.597088 0.713219
Si Si6 0.165501 0.701611 0.286631
Si Si7 0.298003 0.484986 0.403895
O O1 0.851487 0.907784 0.385971
O O2 0.652985 0.755065 0.445720
O O3 0.401876 0.752735 0.498149
O O4 0.759277 0.991727 0.514569
O O5 0.309134 0.707108 0.739459
O O6 0.391273 0.421797 0.729665
O O7 0.555898 0.664555 0.696528
O O8 0.628235 0.580165 0.218878
O O9 0.559941 0.869386 0.243872
O O10 0.705044 0.817043 0.133529
O O11 0.043468 0.140663 0.868020
O O12 0.052392 0.434375 0.900821
O O13 0.804414 0.715240 0.737116
O O14 0.203857 0.599446 0.356127
#
# Coordination Sequence:
#
# PCOD9313589 Si02
#       7
#     4   4   4   4   4   4   4
#     4  10  19  35  62  82 113 154 191 236 294 349
#     4  11  21  36  62  84 121 153 194 235 291 347
#     4  11  21  37  61  87 114 153 198 246 283 345
#     4   9  19  35  59  82 112 154 187 235 291 349
#     4  11  21  36  62  85 113 149 199 241 290 337
#     4  10  21  38  56  90 115 153 190 240 287 347
#     4   8  20  35  58  82 118 144 193 239 282 338
#
# _framework density 17.645288000000001
#
# number of rings (size 3 to 8) (size 9 to 14) (size 15 to 20)
#    0.857    1.143    1.429    4.286    0.000    0.000 
#    0.000    0.000   18.857    0.000    0.000    0.000 
#    0.000    0.000    0.000    0.000    0.000    0.000 
#
# Total GULP energy -155974.163646 kJ/mol
# GULP energy per Si atom -5570.505845 kJ/mol
# Density = 1.760513 g / cm^3
# Si number density = 17.645288 Si / 1000 Ang^3
#
#
#
# Elastic Constant Matrix: (Units=GPa)
#
#
# Indices 1 2 3 4 5 6 
#
# 1 76.2729 -12.7735 11.0792 0.0000 0.0000 0.0000
# 2 -12.7735 31.0423 -0.4563 0.0000 0.0000 0.0000
# 3 11.0792 -0.4563 94.2480 0.0000 0.0000 0.0000
# 4 0.0000 0.0000 0.0000 15.3958 0.0000 0.0000
# 5 0.0000 0.0000 0.0000 0.0000 23.2283 0.0000
# 6 0.0000 0.0000 0.0000 0.0000 0.0000 21.5343
#
#
#
# Elastic Compliance Matrix: (Units=1/GPa)
#
#
# Indices 1 2 3 4 5 6 
#
# 1 0.014335 0.005874 -0.001657 0.000000 0.000000 0.000000
# 2 0.005874 0.034624 -0.000523 0.000000 0.000000 0.000000
# 3 -0.001657 -0.000523 0.010803 0.000000 0.000000 0.000000
# 4 0.000000 0.000000 0.000000 0.064953 0.000000 0.000000
# 5 0.000000 0.000000 0.000000 0.000000 0.043051 0.000000
# 6 0.000000 0.000000 0.000000 0.000000 0.000000 0.046438
#
#
# Mechanical properties :
#
#
# Convention : Reuss Voigt Hill
#
# Bulk Modulus (GPa) = 14.89182 21.91802 18.40492
# Shear Modulus (GPa) = 21.81530 25.61259 23.71394
#
# Velocity S-wave (km/s) = 3.51995 3.81402 3.66994
# Velocity P-wave (km/s) = 4.99780 5.64306 5.33020
#
# Compressibility (1/GPa) = 0.06715095
#
# Stress axis : x y z
#
# Youngs Moduli (GPa) = 69.75806 28.88198 92.57090
#
# Poissons Ratio (x) = -0.16966 0.15336
# Poissons Ratio (y) = -0.40979 0.04841
# Poissons Ratio (z) = 0.11557 0.01510
#
# Static dielectric constant tensor:
#      x y z
#    x 1.598250 0.000000 0.000000 
#    y 0.000000 1.592040 0.000000 
#    z 0.000000 0.000000 1.611450 
# 
# From -- ./inp_files/3071.got.cif
#   From: 2010.05.17/outbox.cif.g08.bks.cpg/sg19_2_cif.got.tgz:3071.got - 2010.06.03 22:46:19.
