data_PCOD9313599
_publ_section_title
;
Structure prediction by ZEFSAII (Michael W. Deem and Ramdas Pophale) SiO2 
 PCOD9313599
Probable space group: P 21 21 21
;
_chemical_formula_sum "Si O2"
_cell_formula_units_Z 20
_cell_length_a 5.054948
_cell_length_b 6.330207
_cell_length_c 23.432540
_cell_angle_alpha 90.000000
_cell_angle_beta 90.000000
_cell_angle_gamma 90.000000
_cell_volume 749.814736
_symmetry_space_group_name_H-M "P 21 21 21"
_symmetry_group_IT_number 19
_symmetry_cell_setting 'orthorhombic'
loop_
_space_group_symop_operation_xyz
x,y,z
1/2-x,-y,1/2+z
1/2+x,1/2-y,-z
-x,1/2+y,1/2-z
loop_
_atom_site_type_symbol
_atom_site_label
_atom_site_fract_x
_atom_site_fract_y
_atom_site_fract_z
Si Si1 0.194410 0.609595 0.118990
Si Si2 0.197282 0.396835 0.821988
Si Si3 0.196950 0.865274 0.219753
Si Si4 0.686559 0.372931 0.478609
Si Si5 0.693403 0.366465 0.075605
O O1 0.246488 0.833074 0.086949
O O2 0.403888 0.449694 0.091634
O O3 0.906742 0.526065 0.103628
O O4 0.253534 0.650443 0.184630
O O5 0.407159 0.569276 0.801077
O O6 0.907919 0.463361 0.801126
O O7 0.276866 0.188790 0.785842
O O8 0.221562 0.349364 0.889367
O O9 0.391680 0.291344 0.491055
O O10 0.747063 0.596437 0.508550
#
# Coordination Sequence:
#
# PCOD9313599 Si02
#       5
#     4   4   4   4   4
#     4  10  19  36  58  82 109 143 181 220 262 318
#     4  12  24  39  57  81 109 143 181 225 273 321
#     4  12  24  39  57  81 109 143 181 225 273 321
#     4   8  16  30  54  80 106 140 178 212 258 318
#     4  10  19  36  58  82 109 143 181 220 262 318
#
# _framework density 26.673252999999999
#
# number of rings (size 3 to 8) (size 9 to 14) (size 15 to 20)
#    0.000    1.600    0.000    6.000    0.000    0.000 
#    0.000    2.000    0.000    0.000    0.000    0.000 
#    0.000    0.000    0.000    0.000    0.000    0.000 
#
# Total GULP energy -112005.346069 kJ/mol
# GULP energy per Si atom -5600.267303 kJ/mol
# Density = 2.661254 g / cm^3
# Si number density = 26.673253 Si / 1000 Ang^3
#
#
#
# Elastic Constant Matrix: (Units=GPa)
#
#
# Indices 1 2 3 4 5 6 
#
# 1 92.7705 20.4777 13.0249 0.0000 0.0000 0.0000
# 2 20.4777 56.4093 20.2042 0.0000 0.0000 0.0000
# 3 13.0249 20.2042 75.4649 0.0000 0.0000 0.0000
# 4 0.0000 0.0000 0.0000 49.4462 0.0000 0.0000
# 5 0.0000 0.0000 0.0000 0.0000 25.9669 0.0000
# 6 0.0000 0.0000 0.0000 0.0000 0.0000 52.0298
#
#
#
# Elastic Compliance Matrix: (Units=1/GPa)
#
#
# Indices 1 2 3 4 5 6 
#
# 1 0.011784 -0.003926 -0.000983 0.000000 0.000000 0.000000
# 2 -0.003926 0.020916 -0.004922 0.000000 0.000000 0.000000
# 3 -0.000983 -0.004922 0.014739 0.000000 0.000000 0.000000
# 4 0.000000 0.000000 0.000000 0.020224 0.000000 0.000000
# 5 0.000000 0.000000 0.000000 0.000000 0.038511 0.000000
# 6 0.000000 0.000000 0.000000 0.000000 0.000000 0.019220
#
#
# Mechanical properties :
#
#
# Convention : Reuss Voigt Hill
#
# Bulk Modulus (GPa) = 36.00142 36.89536 36.44839
# Shear Modulus (GPa) = 32.40171 36.88444 34.64308
#
# Velocity S-wave (km/s) = 3.48913 3.72267 3.60779
# Velocity P-wave (km/s) = 5.45514 5.68683 5.57219
#
# Compressibility (1/GPa) = 0.02777669
#
# Stress axis : x y z
#
# Youngs Moduli (GPa) = 84.86204 47.81098 67.84889
#
# Poissons Ratio (x) = 0.18769 0.06668
# Poissons Ratio (y) = 0.33315 0.33396
# Poissons Ratio (z) = 0.08340 0.23533
#
# Static dielectric constant tensor:
#      x y z
#    x 1.994380 0.000000 0.000000 
#    y 0.000000 2.107660 0.000000 
#    z 0.000000 0.000000 2.061550 
# 
# From -- ./inp_files/145.got.cif
#   From: 2010.05.17/outbox.cif.g08.bks.cpg/sg19_1_cif.got.tgz:145.got - 2010.06.03 22:46:19.
