data_PCOD9313282
_publ_section_title
;
Structure prediction by ZEFSAII (Michael W. Deem and Ramdas Pophale) SiO2 
 PCOD9313282
Probable space group: P 21 21 2
;
_chemical_formula_sum "Si O2"
_cell_formula_units_Z 32
_cell_length_a 9.000000
_cell_length_b 15.000000
_cell_length_c 12.000000
_cell_angle_alpha 90.000000
_cell_angle_beta 90.000000
_cell_angle_gamma 90.000000
_cell_volume 1620.000000
_symmetry_space_group_name_H-M "P 21 21 2"
_symmetry_group_IT_number 18
_symmetry_cell_setting 'orthorhombic'
loop_
_space_group_symop_operation_xyz
x,y,z
-x,-y,z
1/2+x,1/2-y,-z
1/2-x,1/2+y,-z
loop_
_atom_site_type_symbol
_atom_site_label
_atom_site_fract_x
_atom_site_fract_y
_atom_site_fract_z
Si Si1 0.983860 0.239294 0.692693
Si Si2 0.678357 0.989726 0.489305
Si Si3 0.095503 0.707305 0.447350
Si Si4 0.742302 0.134885 0.309271
Si Si5 0.858382 0.838972 0.908687
Si Si6 0.345253 0.335807 0.935414
Si Si7 0.168972 0.477601 0.083807
Si Si8 0.813182 0.627558 0.315621
O O1 0.070911 0.333683 0.718012
O O2 0.074256 0.177844 0.783078
O O3 0.978849 0.247414 0.556960
O O4 0.813836 0.202427 0.708477
O O5 0.689799 0.882222 0.513803
O O6 0.500000 0.000000 0.483659
O O7 0.740434 0.042088 0.379511
O O8 0.733015 0.052632 0.591855
O O9 0.192380 0.783181 0.384977
O O10 0.963148 0.672538 0.365866
O O11 0.838250 0.134731 0.195240
O O12 0.739379 0.760201 0.935563
O O13 0.771345 0.933317 0.910906
O O14 0.995445 0.833811 0.998854
O O15 0.246081 0.407709 0.001133
O O16 0.158722 0.428039 0.203406
O O17 0.000000 0.500000 0.049494
#
# Coordination Sequence:
#
# PCOD9313282 Si02
#       8
#     4   4   4   4   4   4   4   4
#     4  11  21  41  68  99 138 186 225 290 349 417
#     4  10  20  40  66  99 137 182 233 284 354 428
#     4  11  22  43  68 102 147 182 233 294 352 433
#     4  11  24  42  70 101 142 187 231 291 362 427
#     4  11  26  47  74 102 143 184 243 293 356 424
#     4  11  26  45  70 104 140 188 237 299 358 430
#     4  12  26  48  74 103 135 188 245 301 355 419
#     4  11  23  39  69 103 136 180 237 285 356 414
#
# _framework density 19.753086
#
# number of rings (size 3 to 8) (size 9 to 14) (size 15 to 20)
#    0.000    1.000    5.000    2.250    8.750    0.500 
#    2.250    0.000    5.500    0.000    0.000    0.000 
#    0.000    0.000    0.000    0.000    0.000    0.000 
#
# Total GULP energy -178436.670737 kJ/mol
# GULP energy per Si atom -5576.145961 kJ/mol
# Density = 1.970813 g / cm^3
# Si number density = 19.753086 Si / 1000 Ang^3
#
#
#
# Elastic Constant Matrix: (Units=GPa)
#
#
# Indices 1 2 3 4 5 6 
#
# 1 97.8617 43.2915 24.5402 0.0000 0.0000 0.0000
# 2 43.2915 124.4965 47.2737 0.0000 0.0000 0.0000
# 3 24.5402 47.2737 119.3587 0.0000 0.0000 0.0000
# 4 0.0000 0.0000 0.0000 42.0352 0.0000 0.0000
# 5 0.0000 0.0000 0.0000 0.0000 36.3213 0.0000
# 6 0.0000 0.0000 0.0000 0.0000 0.0000 40.8097
#
#
#
# Elastic Compliance Matrix: (Units=1/GPa)
#
#
# Indices 1 2 3 4 5 6 
#
# 1 0.012171 -0.003863 -0.000972 0.000000 0.000000 0.000000
# 2 -0.003863 0.010680 -0.003436 0.000000 0.000000 0.000000
# 3 -0.000972 -0.003436 0.009939 0.000000 0.000000 0.000000
# 4 0.000000 0.000000 0.000000 0.023790 0.000000 0.000000
# 5 0.000000 0.000000 0.000000 0.000000 0.027532 0.000000
# 6 0.000000 0.000000 0.000000 0.000000 0.000000 0.024504
#
#
# Mechanical properties :
#
#
# Convention : Reuss Voigt Hill
#
# Bulk Modulus (GPa) = 61.54682 63.54750 62.54716
# Shear Modulus (GPa) = 38.29227 38.94069 38.61648
#
# Velocity S-wave (km/s) = 4.40767 4.44483 4.42629
# Velocity P-wave (km/s) = 7.55838 7.65394 7.60631
#
# Compressibility (1/GPa) = 0.01624779
#
# Stress axis : x y z
#
# Youngs Moduli (GPa) = 82.16058 93.62997 100.61536
#
# Poissons Ratio (x) = 0.36170 0.09784
# Poissons Ratio (y) = 0.31740 0.34570
# Poissons Ratio (z) = 0.07989 0.32170
#
# Static dielectric constant tensor:
#      x y z
#    x 1.717160 0.000000 0.000000 
#    y 0.000000 1.702880 0.000000 
#    z 0.000000 0.000000 1.721760 
# 
# From -- ./inp_files/5685.got.cif
#   From: 2010.05.17/outbox.ucp.g08.bks.cvg/sg18_3_cif.got.tgz:5685.got - 2010.06.11 13:13:23.
