data_PCOD9313368
_publ_section_title
;
Structure prediction by ZEFSAII (Michael W. Deem and Ramdas Pophale) SiO2 
 PCOD9313368
Probable space group: P 21 21 21
;
_chemical_formula_sum "Si O2"
_cell_formula_units_Z 32
_cell_length_a 13.422310
_cell_length_b 10.331717
_cell_length_c 8.466225
_cell_angle_alpha 90.000000
_cell_angle_beta 90.000000
_cell_angle_gamma 90.000000
_cell_volume 1174.058056
_symmetry_space_group_name_H-M "P 21 21 21"
_symmetry_group_IT_number 19
_symmetry_cell_setting 'orthorhombic'
loop_
_space_group_symop_operation_xyz
x,y,z
1/2-x,-y,1/2+z
1/2+x,1/2-y,-z
-x,1/2+y,1/2-z
loop_
_atom_site_type_symbol
_atom_site_label
_atom_site_fract_x
_atom_site_fract_y
_atom_site_fract_z
Si Si1 0.145848 0.069714 0.003489
Si Si2 0.659989 0.158156 0.493726
Si Si3 0.576698 0.049061 0.185502
Si Si4 0.859378 0.108362 0.158340
Si Si5 0.301340 0.913469 0.852353
Si Si6 0.561722 0.702332 0.878382
Si Si7 0.993927 0.964140 0.368208
Si Si8 0.955373 0.210371 0.862545
O O1 0.110610 0.924994 0.050285
O O2 0.189005 0.121374 0.168125
O O3 0.227482 0.034116 0.872732
O O4 0.061061 0.159566 0.931982
O O5 0.652325 0.112442 0.310444
O O6 0.719776 0.280916 0.556639
O O7 0.543668 0.207390 0.526725
O O8 0.687545 0.029841 0.598901
O O9 0.477723 0.143103 0.191632
O O10 0.565139 0.899377 0.232283
O O11 0.591072 0.046011 0.997770
O O12 0.853270 0.195224 0.319591
O O13 0.964128 0.046910 0.216354
O O14 0.871115 0.188522 0.996325
O O15 0.404741 0.970244 0.922667
O O16 0.517892 0.672669 0.703915
#
# Coordination Sequence:
#
# PCOD9313368 Si02
#       8
#     4   4   4   4   4   4   4   4
#     4  11  24  38  61  84 126 161 199 247 309 364
#     4  10  20  35  56  86 121 151 197 255 298 354
#     4  11  22  32  60  90 125 150 200 263 298 354
#     4  10  18  35  61  82 115 156 202 247 304 358
#     4  11  23  39  57  89 122 163 197 248 307 364
#     4  10  17  37  57  85 113 158 199 241 301 360
#     4  10  19  32  59  85 115 155 195 245 299 350
#     4  11  21  38  55  93 125 156 199 260 308 356
#
# _framework density 27.255894999999999
#
# number of rings (size 3 to 8) (size 9 to 14) (size 15 to 20)
#    0.000    1.500    7.500    0.750    5.250    0.000 
#    0.000    0.000    0.000    7.500    0.000    0.000 
#    0.000    0.000    0.000    0.000    0.000    0.000 
#
# Total GULP energy -178239.818081 kJ/mol
# GULP energy per Si atom -5569.994315 kJ/mol
# Density = 2.719386 g / cm^3
# Si number density = 27.255895 Si / 1000 Ang^3
#
#
#
# Elastic Constant Matrix: (Units=GPa)
#
#
# Indices 1 2 3 4 5 6 
#
# 1 39.8512 4.7656 9.1020 0.0000 0.0000 0.0000
# 2 4.7656 71.9251 -2.5912 0.0000 0.0000 0.0000
# 3 9.1020 -2.5912 85.7658 0.0000 0.0000 0.0000
# 4 0.0000 0.0000 0.0000 54.7245 0.0000 0.0000
# 5 0.0000 0.0000 0.0000 0.0000 20.5507 0.0000
# 6 0.0000 0.0000 0.0000 0.0000 0.0000 27.6596
#
#
#
# Elastic Compliance Matrix: (Units=1/GPa)
#
#
# Indices 1 2 3 4 5 6 
#
# 1 0.025953 -0.001821 -0.002809 0.000000 0.000000 0.000000
# 2 -0.001821 0.014046 0.000618 0.000000 0.000000 0.000000
# 3 -0.002809 0.000618 0.011976 0.000000 0.000000 0.000000
# 4 0.000000 0.000000 0.000000 0.018273 0.000000 0.000000
# 5 0.000000 0.000000 0.000000 0.000000 0.048660 0.000000
# 6 0.000000 0.000000 0.000000 0.000000 0.000000 0.036154
#
#
# Mechanical properties :
#
#
# Convention : Reuss Voigt Hill
#
# Bulk Modulus (GPa) = 22.75286 24.45499 23.60392
# Shear Modulus (GPa) = 28.13134 33.00468 30.56801
#
# Velocity S-wave (km/s) = 3.21615 3.48360 3.35254
# Velocity P-wave (km/s) = 4.70717 5.01722 4.86467
#
# Compressibility (1/GPa) = 0.04395053
#
# Stress axis : x y z
#
# Youngs Moduli (GPa) = 38.53164 71.19343 83.49715
#
# Poissons Ratio (x) = 0.12963 0.23457
# Poissons Ratio (y) = 0.07016 -0.05157
# Poissons Ratio (z) = 0.10825 -0.04397
#
# Static dielectric constant tensor:
#      x y z
#    x 2.274690 0.000000 0.000000 
#    y 0.000000 2.282080 0.000000 
#    z 0.000000 0.000000 2.193540 
# 
# From -- ./inp_files/4242.got.cif
#   From: 2010.05.17/outbox.cif.g08.bks.cpg/sg19_3_cif.got.tgz:4242.got - 2010.06.03 22:46:19.
