data_PCOD9313712
_publ_section_title
;
Structure prediction by ZEFSAII (Michael W. Deem and Ramdas Pophale) SiO2 
 PCOD9313712
Probable space group: P 21 21 21
;
_chemical_formula_sum "Si O2"
_cell_formula_units_Z 32
_cell_length_a 9.040543
_cell_length_b 7.712500
_cell_length_c 19.733188
_cell_angle_alpha 90.000000
_cell_angle_beta 90.000000
_cell_angle_gamma 90.000000
_cell_volume 1375.900241
_symmetry_space_group_name_H-M "P 21 21 21"
_symmetry_group_IT_number 19
_symmetry_cell_setting 'orthorhombic'
loop_
_space_group_symop_operation_xyz
x,y,z
1/2-x,-y,1/2+z
1/2+x,1/2-y,-z
-x,1/2+y,1/2-z
loop_
_atom_site_type_symbol
_atom_site_label
_atom_site_fract_x
_atom_site_fract_y
_atom_site_fract_z
Si Si1 0.428504 0.545127 0.532555
Si Si2 0.663963 0.468891 0.380481
Si Si3 0.306880 0.321817 0.289112
Si Si4 0.905242 0.265277 0.573215
Si Si5 0.703181 0.640103 0.741695
Si Si6 0.540020 0.187620 0.186571
Si Si7 0.784424 0.594045 0.509705
Si Si8 0.594109 0.000373 0.808393
O O1 0.387520 0.374192 0.487972
O O2 0.608892 0.577319 0.530571
O O3 0.344223 0.711426 0.500183
O O4 0.381488 0.516700 0.611099
O O5 0.563174 0.301246 0.397097
O O6 0.729942 0.452135 0.306734
O O7 0.560094 0.641235 0.377432
O O8 0.785601 0.504359 0.435606
O O9 0.286470 0.257445 0.365649
O O10 0.437960 0.223288 0.251021
O O11 0.372865 0.511766 0.301275
O O12 0.177784 0.351118 0.235199
O O13 0.889245 0.463475 0.551362
O O14 0.832724 0.671000 0.687149
O O15 0.576354 0.532259 0.707019
O O16 0.643557 0.819301 0.774713
#
# Coordination Sequence:
#
# PCOD9313712 Si02
#       8
#     4   4   4   4   4   4   4   4
#     4  11  27  49  68 113 143 193 251 295 366 442
#     4  10  22  45  71 100 139 182 249 293 359 431
#     4  10  22  42  69 104 134 186 235 296 356 419
#     4  10  23  48  74 101 141 199 251 295 354 438
#     4  11  24  42  66 103 137 187 221 301 365 430
#     4  10  19  40  68  98 132 177 232 283 344 424
#     4  11  26  45  75  98 143 197 235 305 358 438
#     4  11  27  41  67 107 147 181 230 306 372 414
#
# _framework density 23.257498999999999
#
# number of rings (size 3 to 8) (size 9 to 14) (size 15 to 20)
#    0.000    1.500    2.500    1.500    5.250    7.000 
#    6.750    0.000    0.000    0.000    0.000    0.000 
#    0.000    0.000    0.000    0.000    0.000    0.000 
#
# Total GULP energy -178697.705046 kJ/mol
# GULP energy per Si atom -5584.303283 kJ/mol
# Density = 2.320456 g / cm^3
# Si number density = 23.257499 Si / 1000 Ang^3
#
#
#
# Elastic Constant Matrix: (Units=GPa)
#
#
# Indices 1 2 3 4 5 6 
#
# 1 56.8871 28.0418 36.2882 0.0000 0.0000 0.0000
# 2 28.0418 97.0465 31.3587 0.0000 0.0000 0.0000
# 3 36.2882 31.3587 98.4051 0.0000 0.0000 0.0000
# 4 0.0000 0.0000 0.0000 41.0752 0.0000 0.0000
# 5 0.0000 0.0000 0.0000 0.0000 28.8120 0.0000
# 6 0.0000 0.0000 0.0000 0.0000 0.0000 36.8073
#
#
#
# Elastic Compliance Matrix: (Units=1/GPa)
#
#
# Indices 1 2 3 4 5 6 
#
# 1 0.024761 -0.004687 -0.007637 0.000000 0.000000 0.000000
# 2 -0.004687 0.012374 -0.002215 0.000000 0.000000 0.000000
# 3 -0.007637 -0.002215 0.013684 0.000000 0.000000 0.000000
# 4 0.000000 0.000000 0.000000 0.024346 0.000000 0.000000
# 5 0.000000 0.000000 0.000000 0.000000 0.034708 0.000000
# 6 0.000000 0.000000 0.000000 0.000000 0.000000 0.027169
#
#
# Mechanical properties :
#
#
# Convention : Reuss Voigt Hill
#
# Bulk Modulus (GPa) = 45.99575 49.30178 47.64877
# Shear Modulus (GPa) = 28.84060 31.78223 30.31141
#
# Velocity S-wave (km/s) = 3.52526 3.70068 3.61404
# Velocity P-wave (km/s) = 6.03238 6.28524 6.16011
#
# Compressibility (1/GPa) = 0.02174114
#
# Stress axis : x y z
#
# Youngs Moduli (GPa) = 40.38637 80.81239 73.07646
#
# Poissons Ratio (x) = 0.37875 0.55811
# Poissons Ratio (y) = 0.18928 0.16186
# Poissons Ratio (z) = 0.30844 0.17900
#
# Static dielectric constant tensor:
#      x y z
#    x 1.919980 0.000000 0.000000 
#    y 0.000000 1.909770 0.000000 
#    z 0.000000 0.000000 1.895400 
# 
# From -- ./inp_files/7062.got.cif
#   From: 2010.05.17/outbox.cif.g08.bks.cpg/sg19_4_cif.got.tgz:7062.got - 2010.06.03 22:46:19.
