data_PCOD9313514
_publ_section_title
;
Structure prediction by ZEFSAII (Michael W. Deem and Ramdas Pophale) SiO2 
 PCOD9313514
Probable space group: P 21 21 21
;
_chemical_formula_sum "Si O2"
_cell_formula_units_Z 32
_cell_length_a 22.763032
_cell_length_b 14.043441
_cell_length_c 5.524081
_cell_angle_alpha 90.000000
_cell_angle_beta 90.000000
_cell_angle_gamma 90.000000
_cell_volume 1765.890137
_symmetry_space_group_name_H-M "P 21 21 21"
_symmetry_group_IT_number 19
_symmetry_cell_setting 'orthorhombic'
loop_
_space_group_symop_operation_xyz
x,y,z
1/2-x,-y,1/2+z
1/2+x,1/2-y,-z
-x,1/2+y,1/2-z
loop_
_atom_site_type_symbol
_atom_site_label
_atom_site_fract_x
_atom_site_fract_y
_atom_site_fract_z
Si Si1 0.755070 0.054750 0.053694
Si Si2 0.008743 0.191289 0.352605
Si Si3 0.623510 0.893407 0.342810
Si Si4 0.629683 0.073112 0.008307
Si Si5 0.905354 0.327190 0.837649
Si Si6 0.458817 0.726714 0.346152
Si Si7 0.463620 0.496109 0.826952
Si Si8 0.575795 0.631063 0.846104
O O1 0.819597 0.097568 0.016592
O O2 0.751661 0.976975 0.833582
O O3 0.695639 0.112378 0.990068
O O4 0.043002 0.213869 0.598926
O O5 0.985260 0.084325 0.359169
O O6 0.952683 0.262509 0.346776
O O7 0.042553 0.214686 0.099990
O O8 0.615126 0.781662 0.306185
O O9 0.563460 0.934138 0.457335
O O10 0.635051 0.967235 0.124221
O O11 0.590138 0.145200 0.161288
O O12 0.591049 0.058212 0.768336
O O13 0.888387 0.380641 0.592567
O O14 0.976942 0.323318 0.847360
O O15 0.889751 0.374045 0.093937
O O16 0.519525 0.562216 0.864505
#
# Coordination Sequence:
#
# PCOD9313514 Si02
#       8
#     4   4   4   4   4   4   4   4
#     4  10  22  34  48  74 104 136 192 214 236 314
#     4  10  20  32  46  74  97 129 171 207 247 319
#     4  11  21  33  52  72 104 147 173 212 261 308
#     4  11  21  33  52  72 104 147 173 212 261 308
#     4  10  19  33  46  69 100 129 165 215 246 299
#     4  10  19  33  46  69 100 129 165 215 246 299
#     4  12  20  32  56  70 104 150 166 206 278 308
#     4  10  20  32  46  74  97 129 171 207 247 319
#
# _framework density 18.121174
#
# number of rings (size 3 to 8) (size 9 to 14) (size 15 to 20)
#    0.000    1.500    6.250    3.000    0.000    0.000 
#    0.000    0.000    0.000    0.000    0.000    0.000 
#    0.000    4.000    0.000    0.250    0.000    0.000 
#
# Total GULP energy -178163.933050 kJ/mol
# GULP energy per Si atom -5567.622908 kJ/mol
# Density = 1.807993 g / cm^3
# Si number density = 18.121174 Si / 1000 Ang^3
#
#
#
# Elastic Constant Matrix: (Units=GPa)
#
#
# Indices 1 2 3 4 5 6 
#
# 1 37.1716 24.4727 9.4319 0.0000 0.0000 0.0000
# 2 24.4727 23.8287 5.9788 0.0000 0.0000 0.0000
# 3 9.4319 5.9788 127.8366 0.0000 0.0000 0.0000
# 4 0.0000 0.0000 0.0000 19.7231 0.0000 0.0000
# 5 0.0000 0.0000 0.0000 0.0000 13.2903 0.0000
# 6 0.0000 0.0000 0.0000 0.0000 0.0000 15.1736
#
#
#
# Elastic Compliance Matrix: (Units=1/GPa)
#
#
# Indices 1 2 3 4 5 6 
#
# 1 0.083670 -0.085385 -0.002180 0.000000 0.000000 0.000000
# 2 -0.085385 0.129599 0.000239 0.000000 0.000000 0.000000
# 3 -0.002180 0.000239 0.007972 0.000000 0.000000 0.000000
# 4 0.000000 0.000000 0.000000 0.050702 0.000000 0.000000
# 5 0.000000 0.000000 0.000000 0.000000 0.075243 0.000000
# 6 0.000000 0.000000 0.000000 0.000000 0.000000 0.065904
#
#
# Mechanical properties :
#
#
# Convention : Reuss Voigt Hill
#
# Bulk Modulus (GPa) = 21.46429 29.84488 25.65458
# Shear Modulus (GPa) = 8.28813 19.56762 13.92788
#
# Velocity S-wave (km/s) = 2.14095 3.28963 2.77537
# Velocity P-wave (km/s) = 4.24053 5.56186 4.94552
#
# Compressibility (1/GPa) = 0.04658901
#
# Stress axis : x y z
#
# Youngs Moduli (GPa) = 11.95166 7.71612 125.43649
#
# Poissons Ratio (x) = 0.65884 0.27344
# Poissons Ratio (y) = 1.02049 -0.02992
# Poissons Ratio (z) = 0.02605 -0.00184
#
# Static dielectric constant tensor:
#      x y z
#    x 1.624310 0.000000 0.000000 
#    y 0.000000 1.628290 0.000000 
#    z 0.000000 0.000000 1.789920 
# 
# From -- ./inp_files/1303.got.cif
#   From: 2010.05.17/outbox.cif.g08.bks.cpg/sg19_1_cif.got.tgz:1303.got - 2010.06.03 22:46:19.
