data_PCOD9313831
_publ_section_title
;
Structure prediction by ZEFSAII (Michael W. Deem and Ramdas Pophale) SiO2 
 PCOD9313831
Probable space group: P 21 21 21
;
_chemical_formula_sum "Si O2"
_cell_formula_units_Z 32
_cell_length_a 10.158522
_cell_length_b 8.121585
_cell_length_c 20.335209
_cell_angle_alpha 90.000000
_cell_angle_beta 90.000000
_cell_angle_gamma 90.000000
_cell_volume 1677.721847
_symmetry_space_group_name_H-M "P 21 21 21"
_symmetry_group_IT_number 19
_symmetry_cell_setting 'orthorhombic'
loop_
_space_group_symop_operation_xyz
x,y,z
1/2-x,-y,1/2+z
1/2+x,1/2-y,-z
-x,1/2+y,1/2-z
loop_
_atom_site_type_symbol
_atom_site_label
_atom_site_fract_x
_atom_site_fract_y
_atom_site_fract_z
Si Si1 0.889099 0.574050 0.928618
Si Si2 0.606490 0.356185 0.283227
Si Si3 0.598393 0.523530 0.780397
Si Si4 0.898636 0.027201 0.821816
Si Si5 0.094094 0.497107 0.034173
Si Si6 0.600762 0.148424 0.825606
Si Si7 0.088480 0.881244 0.076994
Si Si8 0.106863 0.463182 0.531724
O O1 0.930590 0.556488 0.852545
O O2 0.733328 0.538372 0.930716
O O3 0.893074 0.767305 0.950004
O O4 0.985571 0.478305 0.977477
O O5 0.752856 0.417936 0.265004
O O6 0.607817 0.164388 0.301777
O O7 0.502705 0.389019 0.226176
O O8 0.594839 0.336260 0.803773
O O9 0.501125 0.551920 0.720326
O O10 0.553962 0.619794 0.846134
O O11 0.934385 0.044514 0.899045
O O12 0.750638 0.091940 0.814589
O O13 0.068690 0.387242 0.098286
O O14 0.090664 0.689918 0.055899
O O15 0.246626 0.476216 0.013871
O O16 0.989406 0.977109 0.029701
#
# Coordination Sequence:
#
# PCOD9313831 Si02
#       8
#     4   4   4   4   4   4   4   4
#     4   8  16  30  51  75 103 137 174 211 256 313
#     4  10  20  36  56  82 111 143 180 220 264 318
#     4  11  22  37  55  78 107 142 180 225 272 318
#     4  10  20  36  56  82 111 143 180 220 264 318
#     4   9  17  33  53  75 102 136 175 216 259 315
#     4  11  22  37  55  78 107 142 180 225 272 318
#     4   9  17  33  53  75 102 136 175 216 259 315
#     4   8  16  30  51  75 103 137 174 211 256 313
#
# _framework density 19.073485000000002
#
# number of rings (size 3 to 8) (size 9 to 14) (size 15 to 20)
#    0.000    2.500    0.000    4.500    0.000    2.000 
#    0.000   11.250    0.000    0.000    0.000    0.000 
#    0.000    0.000    0.000    0.000    0.000    0.000 
#
# Total GULP energy -178533.482107 kJ/mol
# GULP energy per Si atom -5579.171316 kJ/mol
# Density = 1.903007 g / cm^3
# Si number density = 19.073485 Si / 1000 Ang^3
#
#
#
# Elastic Constant Matrix: (Units=GPa)
#
#
# Indices 1 2 3 4 5 6 
#
# 1 36.8147 -13.4405 32.3328 0.0000 0.0000 0.0000
# 2 -13.4405 24.4025 -19.1840 0.0000 0.0000 0.0000
# 3 32.3328 -19.1840 53.0405 0.0000 0.0000 0.0000
# 4 0.0000 0.0000 0.0000 19.2595 0.0000 0.0000
# 5 0.0000 0.0000 0.0000 0.0000 -1.0716 0.0000
# 6 0.0000 0.0000 0.0000 0.0000 0.0000 15.8330
#
#
#
# Elastic Compliance Matrix: (Units=1/GPa)
#
#
# Indices 1 2 3 4 5 6 
#
# 1 0.059065 0.005906 -0.033869 0.000000 0.000000 0.000000
# 2 0.005906 0.057852 0.017324 0.000000 0.000000 0.000000
# 3 -0.033869 0.017324 0.045766 0.000000 0.000000 0.000000
# 4 0.000000 0.000000 0.000000 0.051922 0.000000 0.000000
# 5 0.000000 0.000000 0.000000 0.000000 -0.933203 0.000000
# 6 0.000000 0.000000 0.000000 0.000000 0.000000 0.063159
#
#
# Mechanical properties :
#
#
# Convention : Reuss Voigt Hill
#
# Bulk Modulus (GPa) = 7.07197 12.63046 9.85121
# Shear Modulus (GPa) = -8.51752 14.44081 2.96164
#
# Velocity S-wave (km/s) = -2.11550 2.75456 1.24745
# Velocity P-wave (km/s) = 1.50044 4.09306 2.69275
#
# Compressibility (1/GPa) = 0.14140341
#
# Stress axis : x y z
#
# Youngs Moduli (GPa) = 16.93040 17.28563 21.85039
#
# Poissons Ratio (x) = -0.10209 0.74006
# Poissons Ratio (y) = -0.09999 -0.37854
# Poissons Ratio (z) = 0.57342 -0.29946
#
# Static dielectric constant tensor:
#      x y z
#    x 1.640500 0.000000 0.000000 
#    y 0.000000 1.718950 0.000000 
#    z 0.000000 0.000000 1.659350 
# 
# From -- ./inp_files/3198.got.cif
#   From: 2010.05.17/outbox.cif.g08.bks.cpg/sg19_2_cif.got.tgz:3198.got - 2010.06.03 22:46:19.
