data_PCOD9313225
_publ_section_title
;
Structure prediction by ZEFSAII (Michael W. Deem and Ramdas Pophale) SiO2 
 PCOD9313225
Probable space group: P 21 21 2
;
_chemical_formula_sum "Si O2"
_cell_formula_units_Z 22
_cell_length_a 13.989246
_cell_length_b 8.982482
_cell_length_c 8.686262
_cell_angle_alpha 90.000000
_cell_angle_beta 90.000000
_cell_angle_gamma 90.000000
_cell_volume 1091.499617
_symmetry_space_group_name_H-M "P 21 21 2"
_symmetry_group_IT_number 18
_symmetry_cell_setting 'orthorhombic'
loop_
_space_group_symop_operation_xyz
x,y,z
-x,-y,z
1/2+x,1/2-y,-z
1/2-x,1/2+y,-z
loop_
_atom_site_type_symbol
_atom_site_label
_atom_site_fract_x
_atom_site_fract_y
_atom_site_fract_z
Si Si1 0.885289 0.510615 0.324705
Si Si2 0.500000 0.000000 0.136245
Si Si3 0.711973 0.758507 0.873066
Si Si4 0.838440 0.817603 0.167803
Si Si5 0.309101 0.978409 0.330664
Si Si6 0.020778 0.843291 0.994799
O O1 0.849957 0.377517 0.218117
O O2 0.849460 0.653750 0.233618
O O3 0.836661 0.515424 0.491776
O O4 0.000000 0.500000 0.340702
O O5 0.595447 0.984844 0.235925
O O6 0.497167 0.831002 0.058440
O O7 0.773000 0.675198 0.743452
O O8 0.781107 0.819076 0.006141
O O9 0.632094 0.659030 0.959672
O O10 0.776699 0.910964 0.287848
O O11 0.946662 0.864761 0.134595
O O12 0.000000 0.000000 0.900512
#
# Coordination Sequence:
#
# PCOD9313225 Si02
#       6
#     4   2   4   4   4   4
#     4  12  26  45  71 101 141 191 230 294 375 436
#     4  12  24  42  74 104 144 198 234 300 366 416
#     4  12  24  42  71 100 136 183 242 294 353 425
#     4  12  24  42  71 100 136 183 242 294 353 425
#     4  12  25  45  67 101 147 185 239 294 365 436
#     4  12  24  41  69 111 139 180 254 304 344 419
#
# _framework density 20.155757000000001
#
# number of rings (size 3 to 8) (size 9 to 14) (size 15 to 20)
#    0.000    0.000    8.182    3.273    0.000    0.000 
#    0.000    0.000    0.000    0.000    0.000    0.000 
#    0.000    0.000    0.000    0.000    0.000    0.000 
#
# Total GULP energy -122676.732453 kJ/mol
# GULP energy per Si atom -5576.215112 kJ/mol
# Density = 2.010988 g / cm^3
# Si number density = 20.155757 Si / 1000 Ang^3
#
#
#
# Elastic Constant Matrix: (Units=GPa)
#
#
# Indices 1 2 3 4 5 6 
#
# 1 108.9105 19.1837 36.7945 0.0000 0.0000 0.0000
# 2 19.1837 106.1262 39.8600 0.0000 0.0000 0.0000
# 3 36.7945 39.8600 103.8330 0.0000 0.0000 0.0000
# 4 0.0000 0.0000 0.0000 58.0115 0.0000 0.0000
# 5 0.0000 0.0000 0.0000 0.0000 79.1599 0.0000
# 6 0.0000 0.0000 0.0000 0.0000 0.0000 41.4803
#
#
#
# Elastic Compliance Matrix: (Units=1/GPa)
#
#
# Indices 1 2 3 4 5 6 
#
# 1 0.010461 -0.000583 -0.003483 0.000000 0.000000 0.000000
# 2 -0.000583 0.011043 -0.004033 0.000000 0.000000 0.000000
# 3 -0.003483 -0.004033 0.012413 0.000000 0.000000 0.000000
# 4 0.000000 0.000000 0.000000 0.017238 0.000000 0.000000
# 5 0.000000 0.000000 0.000000 0.000000 0.012633 0.000000
# 6 0.000000 0.000000 0.000000 0.000000 0.000000 0.024108
#
#
# Mechanical properties :
#
#
# Convention : Reuss Voigt Hill
#
# Bulk Modulus (GPa) = 56.43392 56.72734 56.58063
# Shear Modulus (GPa) = 45.45458 50.59910 48.02684
#
# Velocity S-wave (km/s) = 4.75401 5.01583 4.88667
# Velocity P-wave (km/s) = 7.62849 7.85814 7.74416
#
# Compressibility (1/GPa) = 0.01771984
#
# Stress axis : x y z
#
# Youngs Moduli (GPa) = 95.59009 90.55757 80.55860
#
# Poissons Ratio (x) = 0.05277 0.28062
# Poissons Ratio (y) = 0.05570 0.32486
# Poissons Ratio (z) = 0.33298 0.36519
#
# Static dielectric constant tensor:
#      x y z
#    x 1.666330 0.000000 0.000000 
#    y 0.000000 0.729490 0.000000 
#    z 0.000000 0.000000 1.681600 
# 
# From -- ./inp_files/4142.got.cif
#   From: 2010.05.17/outbox.cif.g08.bks.cpg/sg18_3_cif.got.tgz:4142.got - 2010.06.03 22:40:56.
