data_PCOD9313357
_publ_section_title
;
Structure prediction by ZEFSAII (Michael W. Deem and Ramdas Pophale) SiO2 
 PCOD9313357
Probable space group: P 21 21 21
;
_chemical_formula_sum "Si O2"
_cell_formula_units_Z 24
_cell_length_a 7.963162
_cell_length_b 9.311803
_cell_length_c 12.709802
_cell_angle_alpha 90.000000
_cell_angle_beta 90.000000
_cell_angle_gamma 90.000000
_cell_volume 942.449559
_symmetry_space_group_name_H-M "P 21 21 21"
_symmetry_group_IT_number 19
_symmetry_cell_setting 'orthorhombic'
loop_
_space_group_symop_operation_xyz
x,y,z
1/2-x,-y,1/2+z
1/2+x,1/2-y,-z
-x,1/2+y,1/2-z
loop_
_atom_site_type_symbol
_atom_site_label
_atom_site_fract_x
_atom_site_fract_y
_atom_site_fract_z
Si Si1 0.681334 0.425597 0.013385
Si Si2 0.317308 0.592305 0.176966
Si Si3 0.881520 0.060402 0.133432
Si Si4 0.516810 0.341474 0.223443
Si Si5 0.013017 0.302900 0.471948
Si Si6 0.982458 0.001845 0.556678
O O1 0.649618 0.376309 0.132048
O O2 0.646434 0.599031 0.008319
O O3 0.535824 0.374601 0.932432
O O4 0.868283 0.396715 0.975447
O O5 0.155357 0.616562 0.249755
O O6 0.352953 0.422085 0.178880
O O7 0.464150 0.677049 0.243553
O O8 0.353285 0.652976 0.062561
O O9 0.701415 0.065278 0.073046
O O10 0.924835 0.888340 0.131069
O O11 0.538197 0.419356 0.335523
O O12 0.983045 0.134580 0.474038
#
# Coordination Sequence:
#
# PCOD9313357 Si02
#       6
#     4   4   4   4   4   4
#     4   9  19  34  51  83 111 139 189 232 276 322
#     4   9  17  36  58  80 112 149 184 225 285 328
#     4   9  19  32  55  80 107 146 183 231 279 326
#     4   9  19  36  58  81 115 150 184 234 277 335
#     4   8  17  32  56  78 109 145 183 231 271 330
#     4  10  17  34  56  80 110 149 189 225 278 335
#
# _framework density 25.465555999999999
#
# number of rings (size 3 to 8) (size 9 to 14) (size 15 to 20)
#    1.000    2.000    0.000    1.000    0.000    1.333 
#    9.000    0.000    0.000    0.000    0.000    0.000 
#    0.000    0.000    0.000    0.000    0.000    0.000 
#
# Total GULP energy -133639.591354 kJ/mol
# GULP energy per Si atom -5568.316306 kJ/mol
# Density = 2.540759 g / cm^3
# Si number density = 25.465556 Si / 1000 Ang^3
#
#
#
# Elastic Constant Matrix: (Units=GPa)
#
#
# Indices 1 2 3 4 5 6 
#
# 1 112.3101 17.2539 18.2785 0.0000 0.0000 0.0000
# 2 17.2539 80.9800 -2.6729 0.0000 0.0000 0.0000
# 3 18.2785 -2.6729 59.8383 0.0000 0.0000 0.0000
# 4 0.0000 0.0000 0.0000 27.5025 0.0000 0.0000
# 5 0.0000 0.0000 0.0000 0.0000 18.3927 0.0000
# 6 0.0000 0.0000 0.0000 0.0000 0.0000 23.2242
#
#
#
# Elastic Compliance Matrix: (Units=1/GPa)
#
#
# Indices 1 2 3 4 5 6 
#
# 1 0.009738 -0.002176 -0.003072 0.000000 0.000000 0.000000
# 2 -0.002176 0.012853 0.001239 0.000000 0.000000 0.000000
# 3 -0.003072 0.001239 0.017705 0.000000 0.000000 0.000000
# 4 0.000000 0.000000 0.000000 0.036360 0.000000 0.000000
# 5 0.000000 0.000000 0.000000 0.000000 0.054369 0.000000
# 6 0.000000 0.000000 0.000000 0.000000 0.000000 0.043059
#
#
# Mechanical properties :
#
#
# Convention : Reuss Voigt Hill
#
# Bulk Modulus (GPa) = 30.98044 35.42750 33.20397
# Shear Modulus (GPa) = 25.92514 28.50849 27.21681
#
# Velocity S-wave (km/s) = 3.19415 3.34951 3.27275
# Velocity P-wave (km/s) = 5.07892 5.37597 5.22956
#
# Compressibility (1/GPa) = 0.03227843
#
# Stress axis : x y z
#
# Youngs Moduli (GPa) = 102.68840 77.80102 56.47999
#
# Poissons Ratio (x) = 0.16931 0.17350
# Poissons Ratio (y) = 0.22348 -0.06997
# Poissons Ratio (z) = 0.31545 -0.09639
#
# Static dielectric constant tensor:
#      x y z
#    x 2.084170 0.000000 0.000000 
#    y 0.000000 2.050070 0.000000 
#    z 0.000000 0.000000 2.048980 
# 
# From -- ./inp_files/5856.got.cif
#   From: 2010.05.17/outbox.cif.g08.bks.cpg/sg19_3_cif.got.tgz:5856.got - 2010.06.03 22:46:19.
