data_PCOD9313865
_publ_section_title
;
Structure prediction by ZEFSAII (Michael W. Deem and Ramdas Pophale) SiO2 
 PCOD9313865
Probable space group: P 21 21 21
;
_chemical_formula_sum "Si O2"
_cell_formula_units_Z 32
_cell_length_a 12.128406
_cell_length_b 7.684987
_cell_length_c 13.851889
_cell_angle_alpha 90.000000
_cell_angle_beta 90.000000
_cell_angle_gamma 90.000000
_cell_volume 1291.088065
_symmetry_space_group_name_H-M "P 21 21 21"
_symmetry_group_IT_number 19
_symmetry_cell_setting 'orthorhombic'
loop_
_space_group_symop_operation_xyz
x,y,z
1/2-x,-y,1/2+z
1/2+x,1/2-y,-z
-x,1/2+y,1/2-z
loop_
_atom_site_type_symbol
_atom_site_label
_atom_site_fract_x
_atom_site_fract_y
_atom_site_fract_z
Si Si1 0.771876 0.431297 0.320377
Si Si2 0.558618 0.351245 0.439174
Si Si3 0.731252 0.824358 0.386455
Si Si4 0.921378 0.037089 0.720349
Si Si5 0.622698 0.356110 0.157685
Si Si6 0.031610 0.743362 0.491777
Si Si7 0.947797 0.917221 0.326911
Si Si8 0.015739 0.288503 0.362471
O O1 0.672611 0.335853 0.379975
O O2 0.766379 0.627737 0.360394
O O3 0.737736 0.416638 0.206324
O O4 0.890765 0.352571 0.344244
O O5 0.453551 0.339324 0.368689
O O6 0.547070 0.553729 0.474125
O O7 0.550723 0.217485 0.526888
O O8 0.664692 0.886027 0.293581
O O9 0.647684 0.835779 0.475356
O O10 0.840815 0.937289 0.394362
O O11 0.034862 0.031862 0.781092
O O12 0.888547 0.846544 0.686650
O O13 0.570874 0.347128 0.049213
O O14 0.010578 0.757202 0.378214
O O15 0.912601 0.884650 0.217655
O O16 0.019237 0.087776 0.331408
#
# Coordination Sequence:
#
# PCOD9313865 Si02
#       8
#     4   4   4   4   4   4   4   4
#     4  10  20  37  58  83 112 147 185 229 280 332
#     4   8  18  36  58  81 110 144 186 231 275 327
#     4  10  20  37  58  83 112 147 185 229 280 332
#     4   9  16  31  55  84 111 140 178 226 275 326
#     4   9  16  31  55  84 111 140 178 226 275 326
#     4   8  18  36  58  81 110 144 186 231 275 327
#     4  11  23  40  57  80 113 149 185 228 275 329
#     4  11  23  40  57  80 113 149 185 228 275 329
#
# _framework density 24.785297
#
# number of rings (size 3 to 8) (size 9 to 14) (size 15 to 20)
#    0.000    2.500    0.000    3.750    0.000    2.000 
#    0.000   20.000    0.000    0.000    0.000    0.000 
#    0.000    0.000    0.000    0.000    0.000    0.000 
#
# Total GULP energy -178755.126620 kJ/mol
# GULP energy per Si atom -5586.097707 kJ/mol
# Density = 2.472888 g / cm^3
# Si number density = 24.785297 Si / 1000 Ang^3
#
#
#
# Elastic Constant Matrix: (Units=GPa)
#
#
# Indices 1 2 3 4 5 6 
#
# 1 91.7871 9.5254 -0.5814 0.0000 0.0000 0.0000
# 2 9.5254 52.4737 24.8236 0.0000 0.0000 0.0000
# 3 -0.5814 24.8236 55.8129 0.0000 0.0000 0.0000
# 4 0.0000 0.0000 0.0000 29.9411 0.0000 0.0000
# 5 0.0000 0.0000 0.0000 0.0000 29.1218 0.0000
# 6 0.0000 0.0000 0.0000 0.0000 0.0000 28.5689
#
#
#
# Elastic Compliance Matrix: (Units=1/GPa)
#
#
# Indices 1 2 3 4 5 6 
#
# 1 0.011177 -0.002639 0.001290 0.000000 0.000000 0.000000
# 2 -0.002639 0.024759 -0.011039 0.000000 0.000000 0.000000
# 3 0.001290 -0.011039 0.022840 0.000000 0.000000 0.000000
# 4 0.000000 0.000000 0.000000 0.033399 0.000000 0.000000
# 5 0.000000 0.000000 0.000000 0.000000 0.034338 0.000000
# 6 0.000000 0.000000 0.000000 0.000000 0.000000 0.035003
#
#
# Mechanical properties :
#
#
# Convention : Reuss Voigt Hill
#
# Bulk Modulus (GPa) = 29.41240 29.73432 29.57336
# Shear Modulus (GPa) = 25.30034 28.61344 26.95689
#
# Velocity S-wave (km/s) = 3.19843 3.40141 3.30148
# Velocity P-wave (km/s) = 5.05298 5.23917 5.14692
#
# Compressibility (1/GPa) = 0.03399926
#
# Stress axis : x y z
#
# Youngs Moduli (GPa) = 89.47064 40.39002 43.78226
#
# Poissons Ratio (x) = 0.10660 -0.05649
# Poissons Ratio (y) = 0.23614 0.48332
# Poissons Ratio (z) = -0.11544 0.44587
#
# Static dielectric constant tensor:
#      x y z
#    x 1.993390 0.000000 0.000000 
#    y 0.000000 1.964260 0.000000 
#    z 0.000000 0.000000 2.027320 
# 
# From -- ./inp_files/6128.got.cif
#   From: 2010.05.17/outbox.cif.g08.bks.cpg/sg19_4_cif.got.tgz:6128.got - 2010.06.03 22:46:19.
