data_PCOD9313114
_publ_section_title
;
Structure prediction by ZEFSAII (Michael W. Deem and Ramdas Pophale) SiO2 
 PCOD9313114
Probable space group: P 21 21 2
;
_chemical_formula_sum "Si O2"
_cell_formula_units_Z 18
_cell_length_a 8.231662
_cell_length_b 13.805567
_cell_length_c 5.683663
_cell_angle_alpha 90.000000
_cell_angle_beta 90.000000
_cell_angle_gamma 90.000000
_cell_volume 645.907157
_symmetry_space_group_name_H-M "P 21 21 2"
_symmetry_group_IT_number 18
_symmetry_cell_setting 'orthorhombic'
loop_
_space_group_symop_operation_xyz
x,y,z
-x,-y,z
1/2+x,1/2-y,-z
1/2-x,1/2+y,-z
loop_
_atom_site_type_symbol
_atom_site_label
_atom_site_fract_x
_atom_site_fract_y
_atom_site_fract_z
Si Si1 0.513048 0.835553 0.464370
Si Si2 0.932625 0.135160 0.105615
Si Si3 0.336538 0.365892 0.379314
Si Si4 0.725935 0.850677 0.861161
Si Si5 0.500000 0.000000 0.104592
O O1 0.546641 0.729166 0.366198
O O2 0.352644 0.835117 0.626032
O O3 0.686504 0.864348 0.580571
O O4 0.452926 0.912618 0.275875
O O5 0.892011 0.092749 0.365132
O O6 0.849004 0.242046 0.116150
O O7 0.119525 0.146950 0.031652
O O8 0.866765 0.082268 0.869428
O O9 0.621902 0.940822 0.947819
#
# Coordination Sequence:
#
# PCOD9313114 Si02
#       5
#     4   4   4   4   2
#     4  11  25  43  74 103 145 186 242 288 363 421
#     4  11  23  43  77 106 137 189 246 288 341 438
#     4  11  23  43  77 106 137 189 246 288 341 438
#     4  11  25  43  74 103 145 186 242 288 363 421
#     4  12  26  44  70 106 144 186 220 316 358 420
#
# _framework density 27.867778000000001
#
# number of rings (size 3 to 8) (size 9 to 14) (size 15 to 20)
#    0.000    0.889    2.222    6.000    6.222    0.000 
#    0.000    1.111    0.000    0.000    0.000    0.000 
#    0.000    0.000    0.000    0.000    0.000    0.000 
#
# Total GULP energy -100442.065434 kJ/mol
# GULP energy per Si atom -5580.114746 kJ/mol
# Density = 2.780435 g / cm^3
# Si number density = 27.867778 Si / 1000 Ang^3
#
#
#
# Elastic Constant Matrix: (Units=GPa)
#
#
# Indices 1 2 3 4 5 6 
#
# 1 84.4060 35.4704 11.5326 0.0000 0.0000 0.0000
# 2 35.4704 90.7642 20.5525 0.0000 0.0000 0.0000
# 3 11.5326 20.5525 200.3886 0.0000 0.0000 0.0000
# 4 0.0000 0.0000 0.0000 22.3060 0.0000 0.0000
# 5 0.0000 0.0000 0.0000 0.0000 7.0766 0.0000
# 6 0.0000 0.0000 0.0000 0.0000 0.0000 40.6323
#
#
#
# Elastic Compliance Matrix: (Units=1/GPa)
#
#
# Indices 1 2 3 4 5 6 
#
# 1 0.014188 -0.005487 -0.000254 0.000000 0.000000 0.000000
# 2 -0.005487 0.013402 -0.001059 0.000000 0.000000 0.000000
# 3 -0.000254 -0.001059 0.005113 0.000000 0.000000 0.000000
# 4 0.000000 0.000000 0.000000 0.044831 0.000000 0.000000
# 5 0.000000 0.000000 0.000000 0.000000 0.141310 0.000000
# 6 0.000000 0.000000 0.000000 0.000000 0.000000 0.024611
#
#
# Mechanical properties :
#
#
# Convention : Reuss Voigt Hill
#
# Bulk Modulus (GPa) = 52.34538 56.74110 54.54324
# Shear Modulus (GPa) = 18.98089 34.53652 26.75871
#
# Velocity S-wave (km/s) = 2.61263 3.52419 3.10207
# Velocity P-wave (km/s) = 5.28445 6.07988 5.69606
#
# Compressibility (1/GPa) = 0.01910388
#
# Stress axis : x y z
#
# Youngs Moduli (GPa) = 70.48164 74.61751 195.56099
#
# Poissons Ratio (x) = 0.40944 0.04963
# Poissons Ratio (y) = 0.38675 0.20704
# Poissons Ratio (z) = 0.01789 0.07900
#
# Static dielectric constant tensor:
#      x y z
#    x 2.326570 0.000000 0.000000 
#    y 0.000000 2.070580 0.000000 
#    z 0.000000 0.000000 2.367360 
# 
# From -- ./inp_files/477.got.cif
#   From: 2010.05.17/outbox.cif.g08.bks.cpg/sg18_1_cif.got.tgz:477.got - 2010.06.03 22:40:56.
