data_PCOD9313709
_publ_section_title
;
Structure prediction by ZEFSAII (Michael W. Deem and Ramdas Pophale) SiO2 
 PCOD9313709
Probable space group: P 21 21 21
;
_chemical_formula_sum "Si O2"
_cell_formula_units_Z 32
_cell_length_a 13.425183
_cell_length_b 11.045861
_cell_length_c 9.569266
_cell_angle_alpha 90.000000
_cell_angle_beta 90.000000
_cell_angle_gamma 90.000000
_cell_volume 1419.052343
_symmetry_space_group_name_H-M "P 21 21 21"
_symmetry_group_IT_number 19
_symmetry_cell_setting 'orthorhombic'
loop_
_space_group_symop_operation_xyz
x,y,z
1/2-x,-y,1/2+z
1/2+x,1/2-y,-z
-x,1/2+y,1/2-z
loop_
_atom_site_type_symbol
_atom_site_label
_atom_site_fract_x
_atom_site_fract_y
_atom_site_fract_z
Si Si1 0.721823 0.375065 0.841946
Si Si2 0.137505 0.963922 0.405311
Si Si3 0.373513 0.608621 0.992144
Si Si4 0.927969 0.840756 0.399758
Si Si5 0.638093 0.088735 0.205988
Si Si6 0.670020 0.816289 0.145447
Si Si7 0.137982 0.567829 0.280759
Si Si8 0.998596 0.687806 0.070327
O O1 0.686243 0.484840 0.739264
O O2 0.627170 0.288184 0.877607
O O3 0.793714 0.288228 0.748613
O O4 0.781520 0.417815 0.981039
O O5 0.045969 0.870356 0.378223
O O6 0.079727 0.082475 0.467259
O O7 0.260499 0.646104 0.958946
O O8 0.388199 0.474219 0.936424
O O9 0.439380 0.692869 0.895564
O O10 0.404697 0.633924 0.148821
O O11 0.912369 0.870810 0.564691
O O12 0.863842 0.945973 0.317534
O O13 0.754064 0.125833 0.208993
O O14 0.641229 0.942982 0.216897
O O15 0.577869 0.784585 0.048523
O O16 0.057616 0.646076 0.204983
#
# Coordination Sequence:
#
# PCOD9313709 Si02
#       8
#     4   4   4   4   4   4   4   4
#     4  12  27  55  74 114 157 197 257 323 380 460
#     4  11  27  53  76 107 161 197 254 319 384 453
#     4  11  22  39  70 104 139 192 244 308 376 436
#     4  11  23  48  77 110 147 201 254 306 382 478
#     4  11  20  39  71 110 141 182 249 314 365 434
#     4  11  22  42  71 103 149 187 251 307 373 457
#     4  10  19  40  66  98 143 184 241 308 359 446
#     4  11  22  44  67 102 147 194 250 297 383 458
#
# _framework density 22.550260999999999
#
# number of rings (size 3 to 8) (size 9 to 14) (size 15 to 20)
#    0.000    1.000    7.500    0.750    1.750    1.000 
#   15.750    0.000    0.000    0.000    0.000    0.000 
#    0.000    0.000    0.000    0.000    0.000    0.000 
#
# Total GULP energy -178732.778131 kJ/mol
# GULP energy per Si atom -5585.399317 kJ/mol
# Density = 2.249894 g / cm^3
# Si number density = 22.550261 Si / 1000 Ang^3
#
#
#
# Elastic Constant Matrix: (Units=GPa)
#
#
# Indices 1 2 3 4 5 6 
#
# 1 123.3445 55.4504 45.1720 0.0000 0.0000 0.0000
# 2 55.4504 63.2585 49.5118 0.0000 0.0000 0.0000
# 3 45.1720 49.5118 118.9717 0.0000 0.0000 0.0000
# 4 0.0000 0.0000 0.0000 215.6344 0.0000 0.0000
# 5 0.0000 0.0000 0.0000 0.0000 40.2906 0.0000
# 6 0.0000 0.0000 0.0000 0.0000 0.0000 26.9257
#
#
#
# Elastic Compliance Matrix: (Units=1/GPa)
#
#
# Indices 1 2 3 4 5 6 
#
# 1 0.013387 -0.011503 -0.000296 0.000000 0.000000 0.000000
# 2 -0.011503 0.033329 -0.009503 0.000000 0.000000 0.000000
# 3 -0.000296 -0.009503 0.012472 0.000000 0.000000 0.000000
# 4 0.000000 0.000000 0.000000 0.004637 0.000000 0.000000
# 5 0.000000 0.000000 0.000000 0.000000 0.024820 0.000000
# 6 0.000000 0.000000 0.000000 0.000000 0.000000 0.037139
#
#
# Mechanical properties :
#
#
# Convention : Reuss Voigt Hill
#
# Bulk Modulus (GPa) = 60.29457 67.31589 63.80523
# Shear Modulus (GPa) = 28.74936 66.93283 47.84109
#
# Velocity S-wave (km/s) = 3.57445 5.45399 4.61101
# Velocity P-wave (km/s) = 6.62054 8.34133 7.53025
#
# Compressibility (1/GPa) = 0.01658524
#
# Stress axis : x y z
#
# Youngs Moduli (GPa) = 74.69940 30.00363 80.17726
#
# Poissons Ratio (x) = 0.34514 0.02370
# Poissons Ratio (y) = 0.85928 0.76191
# Poissons Ratio (z) = 0.02208 0.28512
#
# Static dielectric constant tensor:
#      x y z
#    x 1.738610 0.000000 0.000000 
#    y 0.000000 1.876610 0.000000 
#    z 0.000000 0.000000 1.890310 
# 
# From -- ./inp_files/3915.got.cif
#   From: 2010.05.17/outbox.cif.g08.bks.cpg/sg19_2_cif.got.tgz:3915.got - 2010.06.03 22:46:19.
