data_PCOD9313811
_publ_section_title
;
Structure prediction by ZEFSAII (Michael W. Deem and Ramdas Pophale) SiO2 
 PCOD9313811
Probable space group: P 21 21 21
;
_chemical_formula_sum "Si O2"
_cell_formula_units_Z 32
_cell_length_a 8.303848
_cell_length_b 15.720173
_cell_length_c 12.397058
_cell_angle_alpha 90.000000
_cell_angle_beta 90.000000
_cell_angle_gamma 90.000000
_cell_volume 1618.286254
_symmetry_space_group_name_H-M "P 21 21 21"
_symmetry_group_IT_number 19
_symmetry_cell_setting 'orthorhombic'
loop_
_space_group_symop_operation_xyz
x,y,z
1/2-x,-y,1/2+z
1/2+x,1/2-y,-z
-x,1/2+y,1/2-z
loop_
_atom_site_type_symbol
_atom_site_label
_atom_site_fract_x
_atom_site_fract_y
_atom_site_fract_z
Si Si1 0.232176 0.999431 0.830864
Si Si2 0.164499 0.307710 0.220786
Si Si3 0.641435 0.375685 0.483386
Si Si4 0.165850 0.283321 0.789283
Si Si5 0.483680 0.394778 0.260724
Si Si6 0.618650 0.662775 0.586439
Si Si7 0.403017 0.252772 0.609989
Si Si8 0.157231 0.865373 0.660977
O O1 0.289846 0.942695 0.930655
O O2 0.240625 0.941918 0.724387
O O3 0.334677 0.085698 0.833483
O O4 0.051156 0.037786 0.825811
O O5 0.294455 0.378736 0.252154
O O6 0.256390 0.218826 0.206192
O O7 0.068980 0.323703 0.109533
O O8 0.030969 0.294531 0.312961
O O9 0.556090 0.416818 0.378409
O O10 0.504500 0.315300 0.535011
O O11 0.791141 0.315307 0.450641
O O12 0.285328 0.248799 0.882448
O O13 0.280201 0.303198 0.688339
O O14 0.064811 0.197423 0.762517
O O15 0.033558 0.354320 0.813627
O O16 0.667424 0.634607 0.467582
#
# Coordination Sequence:
#
# PCOD9313811 Si02
#       8
#     4   4   4   4   4   4   4   4
#     4  11  23  39  57  89 124 167 195 257 309 369
#     4  10  20  40  62  92 117 160 209 262 297 374
#     4  11  21  37  63  88 122 162 204 247 315 362
#     4   8  19  36  59  88 117 152 204 254 295 366
#     4   9  20  39  58  83 125 157 195 252 315 352
#     4  10  21  38  62  88 127 162 202 252 321 364
#     4  10  20  35  61  94 115 151 207 260 300 364
#     4  11  20  38  64  86 119 165 210 254 304 369
#
# _framework density 19.774004000000001
#
# number of rings (size 3 to 8) (size 9 to 14) (size 15 to 20)
#    0.000    2.000    1.250    3.000    3.500    0.000 
#    2.250    1.250    0.000    0.000    0.000    0.000 
#    0.000    0.000    0.000    0.000    0.000    0.000 
#
# Total GULP energy -178377.325565 kJ/mol
# GULP energy per Si atom -5574.291424 kJ/mol
# Density = 1.972900 g / cm^3
# Si number density = 19.774004 Si / 1000 Ang^3
#
#
#
# Elastic Constant Matrix: (Units=GPa)
#
#
# Indices 1 2 3 4 5 6 
#
# 1 104.5048 20.4013 23.9630 0.0000 0.0000 0.0000
# 2 20.4013 41.8951 3.1854 0.0000 0.0000 0.0000
# 3 23.9630 3.1854 45.8914 0.0000 0.0000 0.0000
# 4 0.0000 0.0000 0.0000 28.4103 0.0000 0.0000
# 5 0.0000 0.0000 0.0000 0.0000 34.3192 0.0000
# 6 0.0000 0.0000 0.0000 0.0000 0.0000 24.4218
#
#
#
# Elastic Compliance Matrix: (Units=1/GPa)
#
#
# Indices 1 2 3 4 5 6 
#
# 1 0.011966 -0.005381 -0.005875 0.000000 0.000000 0.000000
# 2 -0.005381 0.026415 0.000976 0.000000 0.000000 0.000000
# 3 -0.005875 0.000976 0.024791 0.000000 0.000000 0.000000
# 4 0.000000 0.000000 0.000000 0.035198 0.000000 0.000000
# 5 0.000000 0.000000 0.000000 0.000000 0.029138 0.000000
# 6 0.000000 0.000000 0.000000 0.000000 0.000000 0.040947
#
#
# Mechanical properties :
#
#
# Convention : Reuss Voigt Hill
#
# Bulk Modulus (GPa) = 23.46698 31.93229 27.69964
# Shear Modulus (GPa) = 24.60399 27.07972 25.84185
#
# Velocity S-wave (km/s) = 3.53123 3.70464 3.61897
# Velocity P-wave (km/s) = 5.34036 5.87221 5.61259
#
# Compressibility (1/GPa) = 0.04261307
#
# Stress axis : x y z
#
# Youngs Moduli (GPa) = 83.56693 37.85719 40.33795
#
# Poissons Ratio (x) = 0.20369 0.23699
# Poissons Ratio (y) = 0.44963 -0.03937
# Poissons Ratio (z) = 0.49096 -0.03695
#
# Static dielectric constant tensor:
#      x y z
#    x 1.711010 0.000000 0.000000 
#    y 0.000000 1.693580 0.000000 
#    z 0.000000 0.000000 1.739490 
# 
# From -- ./inp_files/4728.got.cif
#   From: 2010.05.17/outbox.cif.g08.bks.cpg/sg19_3_cif.got.tgz:4728.got - 2010.06.03 22:46:19.
