data_PCOD9313858
_publ_section_title
;
Structure prediction by ZEFSAII (Michael W. Deem and Ramdas Pophale) SiO2 
 PCOD9313858
Probable space group: P 21 21 21
;
_chemical_formula_sum "Si O2"
_cell_formula_units_Z 28
_cell_length_a 10.731033
_cell_length_b 4.920784
_cell_length_c 20.532071
_cell_angle_alpha 90.000000
_cell_angle_beta 90.000000
_cell_angle_gamma 90.000000
_cell_volume 1084.197970
_symmetry_space_group_name_H-M "P 21 21 21"
_symmetry_group_IT_number 19
_symmetry_cell_setting 'orthorhombic'
loop_
_space_group_symop_operation_xyz
x,y,z
1/2-x,-y,1/2+z
1/2+x,1/2-y,-z
-x,1/2+y,1/2-z
loop_
_atom_site_type_symbol
_atom_site_label
_atom_site_fract_x
_atom_site_fract_y
_atom_site_fract_z
Si Si1 0.917658 0.984593 0.096719
Si Si2 0.750979 0.292571 0.697207
Si Si3 0.559747 0.514057 0.784747
Si Si4 0.319300 0.895575 0.422312
Si Si5 0.320715 0.742856 0.022614
Si Si6 0.927481 0.962587 0.767936
Si Si7 0.098866 0.747942 0.593759
O O1 0.861747 0.777795 0.149605
O O2 0.930735 0.819049 0.030252
O O3 0.038423 0.061962 0.139005
O O4 0.804824 0.202676 0.085146
O O5 0.696633 0.440947 0.759656
O O6 0.836792 0.455324 0.647457
O O7 0.811779 0.015787 0.720809
O O8 0.467676 0.312839 0.744156
O O9 0.454802 0.762928 0.432917
O O10 0.283713 0.116587 0.477567
O O11 0.306399 0.447058 0.053563
O O12 0.358290 0.948010 0.079419
O O13 0.969380 0.654097 0.767645
O O14 0.901946 0.112343 0.835595
#
# Coordination Sequence:
#
# PCOD9313858 Si02
#       7
#     4   4   4   4   4   4   4
#     4  10  21  43  70 100 135 186 226 279 339 428
#     4  10  22  39  69 103 131 182 218 281 344 411
#     4  10  20  36  62  97 135 163 222 276 327 397
#     4  11  22  46  76  92 139 189 233 271 360 420
#     4  11  26  45  68 102 135 183 243 280 340 413
#     4  12  25  44  70 104 137 178 230 282 351 412
#     4  12  26  45  71 102 140 179 234 301 333 419
#
# _framework density 25.825541000000001
#
# number of rings (size 3 to 8) (size 9 to 14) (size 15 to 20)
#    0.000    1.143    4.286    1.714    4.000    0.000 
#    2.571    1.429    0.000    0.000    0.000    0.000 
#    0.000    0.000    0.000    0.000    0.000    0.000 
#
# Total GULP energy -156320.231608 kJ/mol
# GULP energy per Si atom -5582.865415 kJ/mol
# Density = 2.576676 g / cm^3
# Si number density = 25.825541 Si / 1000 Ang^3
#
#
#
# Elastic Constant Matrix: (Units=GPa)
#
#
# Indices 1 2 3 4 5 6 
#
# 1 48.4295 8.0282 -3.6518 0.0000 0.0000 0.0000
# 2 8.0282 86.8295 0.6286 0.0000 0.0000 0.0000
# 3 -3.6518 0.6286 90.2177 0.0000 0.0000 0.0000
# 4 0.0000 0.0000 0.0000 39.2348 0.0000 0.0000
# 5 0.0000 0.0000 0.0000 0.0000 28.3146 0.0000
# 6 0.0000 0.0000 0.0000 0.0000 0.0000 25.1701
#
#
#
# Elastic Compliance Matrix: (Units=1/GPa)
#
#
# Indices 1 2 3 4 5 6 
#
# 1 0.021037 -0.001951 0.000865 0.000000 0.000000 0.000000
# 2 -0.001951 0.011698 -0.000160 0.000000 0.000000 0.000000
# 3 0.000865 -0.000160 0.011120 0.000000 0.000000 0.000000
# 4 0.000000 0.000000 0.000000 0.025488 0.000000 0.000000
# 5 0.000000 0.000000 0.000000 0.000000 0.035318 0.000000
# 6 0.000000 0.000000 0.000000 0.000000 0.000000 0.039730
#
#
# Mechanical properties :
#
#
# Convention : Reuss Voigt Hill
#
# Bulk Modulus (GPa) = 24.17638 26.16519 25.17078
# Shear Modulus (GPa) = 31.11932 33.24201 32.18066
#
# Velocity S-wave (km/s) = 3.47505 3.59162 3.53381
# Velocity P-wave (km/s) = 5.04807 5.23002 5.13985
#
# Compressibility (1/GPa) = 0.04136269
#
# Stress axis : x y z
#
# Youngs Moduli (GPa) = 47.53464 85.48173 89.92451
#
# Poissons Ratio (x) = 0.16681 -0.07780
# Poissons Ratio (y) = 0.09276 0.01443
# Poissons Ratio (z) = -0.04112 0.01372
#
# Static dielectric constant tensor:
#      x y z
#    x 2.188200 0.000000 0.000000 
#    y 0.000000 2.026380 0.000000 
#    z 0.000000 0.000000 2.114060 
# 
# From -- ./inp_files/7136.got.cif
#   From: 2010.05.17/outbox.cif.g08.bks.cpg/sg19_4_cif.got.tgz:7136.got - 2010.06.03 22:46:19.
