data_PCOD9313955
_publ_section_title
;
Structure prediction by ZEFSAII (Michael W. Deem and Ramdas Pophale) SiO2 
 PCOD9313955
Probable space group: P 21 21 21
;
_chemical_formula_sum "Si O2"
_cell_formula_units_Z 28
_cell_length_a 7.668740
_cell_length_b 19.252248
_cell_length_c 8.421688
_cell_angle_alpha 90.000000
_cell_angle_beta 90.000000
_cell_angle_gamma 90.000000
_cell_volume 1243.382095
_symmetry_space_group_name_H-M "P 21 21 21"
_symmetry_group_IT_number 19
_symmetry_cell_setting 'orthorhombic'
loop_
_space_group_symop_operation_xyz
x,y,z
1/2-x,-y,1/2+z
1/2+x,1/2-y,-z
-x,1/2+y,1/2-z
loop_
_atom_site_type_symbol
_atom_site_label
_atom_site_fract_x
_atom_site_fract_y
_atom_site_fract_z
Si Si1 0.340747 0.331601 0.473640
Si Si2 0.426173 0.759109 0.777046
Si Si3 0.848525 0.591845 0.365015
Si Si4 0.971090 0.665377 0.650742
Si Si5 0.161153 0.304952 0.970876
Si Si6 0.835585 0.031071 0.338411
Si Si7 0.032937 0.449550 0.871112
O O1 0.194518 0.286067 0.390697
O O2 0.418400 0.287403 0.617811
O O3 0.481431 0.346089 0.333562
O O4 0.286202 0.404489 0.547969
O O5 0.335524 0.829856 0.709460
O O6 0.458723 0.710806 0.624911
O O7 0.877545 0.604770 0.552236
O O8 0.671269 0.550168 0.335669
O O9 0.017692 0.556789 0.286028
O O10 0.859503 0.735557 0.631588
O O11 0.150700 0.679087 0.549394
O O12 0.096449 0.369704 0.870240
O O13 0.660051 0.009643 0.248251
O O14 0.921748 0.974727 0.452029
#
# Coordination Sequence:
#
# PCOD9313955 Si02
#       7
#     4   4   4   4   4   4   4
#     4  10  22  38  62  97 139 163 214 279 329 394
#     4   9  21  36  63  98 129 167 212 271 341 384
#     4  10  23  47  65  97 131 170 227 277 331 399
#     4  10  20  38  68 100 135 167 219 278 340 393
#     4  10  20  38  64  96 132 171 217 267 329 401
#     4  11  28  44  65  96 133 177 227 279 319 409
#     4  12  26  45  71  90 135 183 224 273 335 388
#
# _framework density 22.519223
#
# number of rings (size 3 to 8) (size 9 to 14) (size 15 to 20)
#    0.000    1.714    1.429    2.571    8.000    3.429 
#    0.000    2.857    0.000    0.000    0.000    0.000 
#    0.000    0.000    0.000    0.000    0.000    0.000 
#
# Total GULP energy -156557.128709 kJ/mol
# GULP energy per Si atom -5591.326025 kJ/mol
# Density = 2.246797 g / cm^3
# Si number density = 22.519223 Si / 1000 Ang^3
#
#
#
# Elastic Constant Matrix: (Units=GPa)
#
#
# Indices 1 2 3 4 5 6 
#
# 1 74.3908 11.6249 13.2702 0.0000 0.0000 0.0000
# 2 11.6249 39.3030 11.3004 0.0000 0.0000 0.0000
# 3 13.2702 11.3004 80.1322 0.0000 0.0000 0.0000
# 4 0.0000 0.0000 0.0000 38.2568 0.0000 0.0000
# 5 0.0000 0.0000 0.0000 0.0000 38.5216 0.0000
# 6 0.0000 0.0000 0.0000 0.0000 0.0000 20.6846
#
#
#
# Elastic Compliance Matrix: (Units=1/GPa)
#
#
# Indices 1 2 3 4 5 6 
#
# 1 0.014353 -0.003712 -0.001853 0.000000 0.000000 0.000000
# 2 -0.003712 0.027479 -0.003260 0.000000 0.000000 0.000000
# 3 -0.001853 -0.003260 0.013246 0.000000 0.000000 0.000000
# 4 0.000000 0.000000 0.000000 0.026139 0.000000 0.000000
# 5 0.000000 0.000000 0.000000 0.000000 0.025959 0.000000
# 6 0.000000 0.000000 0.000000 0.000000 0.000000 0.048345
#
#
# Mechanical properties :
#
#
# Convention : Reuss Voigt Hill
#
# Bulk Modulus (GPa) = 26.71955 29.57967 28.14961
# Shear Modulus (GPa) = 26.93244 30.00129 28.46686
#
# Velocity S-wave (km/s) = 3.46204 3.65396 3.55930
# Velocity P-wave (km/s) = 5.27939 5.56469 5.42391
#
# Compressibility (1/GPa) = 0.03742578
#
# Stress axis : x y z
#
# Youngs Moduli (GPa) = 69.67047 36.39167 75.49399
#
# Poissons Ratio (x) = 0.13510 0.13992
# Poissons Ratio (y) = 0.25865 0.24613
# Poissons Ratio (z) = 0.12913 0.11865
#
# Static dielectric constant tensor:
#      x y z
#    x 1.862530 0.000000 0.000000 
#    y 0.000000 1.829360 0.000000 
#    z 0.000000 0.000000 1.829800 
# 
# From -- ./inp_files/2986.got.cif
#   From: 2010.05.17/outbox.cif.g08.bks.cpg/sg19_2_cif.got.tgz:2986.got - 2010.06.03 22:46:19.
