data_PCOD9313810
_publ_section_title
;
Structure prediction by ZEFSAII (Michael W. Deem and Ramdas Pophale) SiO2 
 PCOD9313810
Probable space group: P 21 21 21
;
_chemical_formula_sum "Si O2"
_cell_formula_units_Z 20
_cell_length_a 15.573966
_cell_length_b 5.022072
_cell_length_c 11.695311
_cell_angle_alpha 90.000000
_cell_angle_beta 90.000000
_cell_angle_gamma 90.000000
_cell_volume 914.732126
_symmetry_space_group_name_H-M "P 21 21 21"
_symmetry_group_IT_number 19
_symmetry_cell_setting 'orthorhombic'
loop_
_space_group_symop_operation_xyz
x,y,z
1/2-x,-y,1/2+z
1/2+x,1/2-y,-z
-x,1/2+y,1/2-z
loop_
_atom_site_type_symbol
_atom_site_label
_atom_site_fract_x
_atom_site_fract_y
_atom_site_fract_z
Si Si1 0.096534 0.950686 0.672624
Si Si2 0.884816 0.090615 0.254800
Si Si3 0.552311 0.766529 0.096548
Si Si4 0.054922 0.090377 0.118640
Si Si5 0.312570 0.527213 0.255776
O O1 0.158895 0.186413 0.711268
O O2 0.031252 0.050422 0.576078
O O3 0.153969 0.687635 0.661560
O O4 0.963463 0.385680 0.717057
O O5 0.915168 0.889841 0.356147
O O6 0.788237 0.019175 0.224105
O O7 0.955621 0.058477 0.156101
O O8 0.892416 0.393684 0.297233
O O9 0.635231 0.941097 0.130222
O O10 0.567224 0.541319 0.003926
#
# Coordination Sequence:
#
# PCOD9313810 Si02
#       5
#     4   4   4   4   4
#     4  10  20  35  61  84 122 148 181 257 291 340
#     4  10  22  43  56  87 117 165 192 250 277 362
#     4  10  21  38  61  90 117 156 194 239 302 351
#     4  10  23  39  65  77 125 160 199 229 307 348
#     4  10  20  37  59  84 121 147 194 247 289 335
#
# _framework density 21.864324
#
# number of rings (size 3 to 8) (size 9 to 14) (size 15 to 20)
#    1.200    0.800    2.000    1.200    2.800    0.000 
#    7.200    0.000    0.000    0.000    0.000    0.000 
#    0.000    0.000    0.000    0.000    0.000    0.000 
#
# Total GULP energy -111591.762555 kJ/mol
# GULP energy per Si atom -5579.588128 kJ/mol
# Density = 2.181456 g / cm^3
# Si number density = 21.864324 Si / 1000 Ang^3
#
#
#
# Elastic Constant Matrix: (Units=GPa)
#
#
# Indices 1 2 3 4 5 6 
#
# 1 137.4964 16.6301 1.6637 0.0000 0.0000 0.0000
# 2 16.6301 97.7398 -11.6330 0.0000 0.0000 0.0000
# 3 1.6637 -11.6330 20.6188 0.0000 0.0000 0.0000
# 4 0.0000 0.0000 0.0000 17.1567 0.0000 0.0000
# 5 0.0000 0.0000 0.0000 0.0000 7.8746 0.0000
# 6 0.0000 0.0000 0.0000 0.0000 0.0000 27.1185
#
#
#
# Elastic Compliance Matrix: (Units=1/GPa)
#
#
# Indices 1 2 3 4 5 6 
#
# 1 0.007464 -0.001438 -0.001414 0.000000 0.000000 0.000000
# 2 -0.001438 0.011245 0.006460 0.000000 0.000000 0.000000
# 3 -0.001414 0.006460 0.052258 0.000000 0.000000 0.000000
# 4 0.000000 0.000000 0.000000 0.058286 0.000000 0.000000
# 5 0.000000 0.000000 0.000000 0.000000 0.126990 0.000000
# 6 0.000000 0.000000 0.000000 0.000000 0.000000 0.036875
#
#
# Mechanical properties :
#
#
# Convention : Reuss Voigt Hill
#
# Bulk Modulus (GPa) = 12.79032 29.90851 21.34941
# Shear Modulus (GPa) = 16.02752 27.04290 21.53521
#
# Velocity S-wave (km/s) = 2.71042 3.52070 3.14179
# Velocity P-wave (km/s) = 3.95698 5.49872 4.79029
#
# Compressibility (1/GPa) = 0.07818416
#
# Stress axis : x y z
#
# Youngs Moduli (GPa) = 133.97686 88.92938 19.13566
#
# Poissons Ratio (x) = 0.12790 0.02705
# Poissons Ratio (y) = 0.19269 -0.12362
# Poissons Ratio (z) = 0.18940 -0.57452
#
# Static dielectric constant tensor:
#      x y z
#    x 1.781540 0.000000 0.000000 
#    y 0.000000 1.843680 0.000000 
#    z 0.000000 0.000000 1.848170 
# 
# From -- ./inp_files/843.got.cif
#   From: 2010.05.17/outbox.cif.g08.bks.cpg/sg19_1_cif.got.tgz:843.got - 2010.06.03 22:46:19.
