data_PCOD9313422
_publ_section_title
;
Structure prediction by ZEFSAII (Michael W. Deem and Ramdas Pophale) SiO2 
 PCOD9313422
Probable space group: P 21 21 21
;
_chemical_formula_sum "Si O2"
_cell_formula_units_Z 32
_cell_length_a 8.052055
_cell_length_b 17.565458
_cell_length_c 11.717513
_cell_angle_alpha 90.000000
_cell_angle_beta 90.000000
_cell_angle_gamma 90.000000
_cell_volume 1657.302001
_symmetry_space_group_name_H-M "P 21 21 21"
_symmetry_group_IT_number 19
_symmetry_cell_setting 'orthorhombic'
loop_
_space_group_symop_operation_xyz
x,y,z
1/2-x,-y,1/2+z
1/2+x,1/2-y,-z
-x,1/2+y,1/2-z
loop_
_atom_site_type_symbol
_atom_site_label
_atom_site_fract_x
_atom_site_fract_y
_atom_site_fract_z
Si Si1 0.750155 0.158883 0.204514
Si Si2 0.485130 0.790917 0.245356
Si Si3 0.553619 0.058973 0.387192
Si Si4 0.669872 0.043592 0.004234
Si Si5 0.196948 0.367281 0.213436
Si Si6 0.995799 0.736518 0.160081
Si Si7 0.488665 0.452084 0.315099
Si Si8 0.835264 0.305536 0.545651
O O1 0.644784 0.236787 0.193411
O O2 0.671173 0.113325 0.311045
O O3 0.731042 0.105089 0.096541
O O4 0.933189 0.183081 0.241604
O O5 0.641728 0.816562 0.324108
O O6 0.419283 0.871398 0.195445
O O7 0.567879 0.744409 0.141487
O O8 0.424565 0.112669 0.453154
O O9 0.675511 0.008761 0.464777
O O10 0.466138 0.005747 0.291449
O O11 0.523833 0.995555 0.065620
O O12 0.616091 0.089290 0.891399
O O13 0.079965 0.312526 0.284577
O O14 0.294445 0.428185 0.292226
O O15 0.853343 0.695425 0.087105
O O16 0.139714 0.762000 0.073122
#
# Coordination Sequence:
#
# PCOD9313422 Si02
#       8
#     4   4   4   4   4   4   4   4
#     4  10  21  33  57  84 112 147 199 231 284 347
#     4   8  17  34  53  82 104 149 189 238 270 346
#     4   9  18  34  56  81 108 148 190 231 285 345
#     4  10  18  33  58  84 114 161 178 235 296 347
#     4   8  18  33  54  83 114 144 194 235 279 341
#     4  11  21  35  55  88 110 144 196 245 272 343
#     4   8  16  31  57  78 109 148 198 222 280 351
#     4  10  19  33  60  76 111 145 188 239 292 316
#
# _framework density 19.308489000000002
#
# number of rings (size 3 to 8) (size 9 to 14) (size 15 to 20)
#    0.750    2.000    0.000    2.250    1.750    1.000 
#    0.000    0.000   13.750    1.500    0.000    0.000 
#    0.000    0.000    0.000    0.000    0.000    0.000 
#
# Total GULP energy -178225.019420 kJ/mol
# GULP energy per Si atom -5569.531857 kJ/mol
# Density = 1.926454 g / cm^3
# Si number density = 19.308489 Si / 1000 Ang^3
#
#
#
# Elastic Constant Matrix: (Units=GPa)
#
#
# Indices 1 2 3 4 5 6 
#
# 1 21.8952 9.0444 -0.9165 0.0000 0.0000 0.0000
# 2 9.0444 92.3945 19.8662 0.0000 0.0000 0.0000
# 3 -0.9165 19.8662 45.4441 0.0000 0.0000 0.0000
# 4 0.0000 0.0000 0.0000 29.6903 0.0000 0.0000
# 5 0.0000 0.0000 0.0000 0.0000 14.9412 0.0000
# 6 0.0000 0.0000 0.0000 0.0000 0.0000 30.8923
#
#
#
# Elastic Compliance Matrix: (Units=1/GPa)
#
#
# Indices 1 2 3 4 5 6 
#
# 1 0.048051 -0.005422 0.003339 0.000000 0.000000 0.000000
# 2 -0.005422 0.012558 -0.005599 0.000000 0.000000 0.000000
# 3 0.003339 -0.005599 0.024520 0.000000 0.000000 0.000000
# 4 0.000000 0.000000 0.000000 0.033681 0.000000 0.000000
# 5 0.000000 0.000000 0.000000 0.000000 0.066929 0.000000
# 6 0.000000 0.000000 0.000000 0.000000 0.000000 0.032371
#
#
# Mechanical properties :
#
#
# Convention : Reuss Voigt Hill
#
# Bulk Modulus (GPa) = 14.33358 23.96909 19.15134
# Shear Modulus (GPa) = 19.47584 23.88740 21.68162
#
# Velocity S-wave (km/s) = 3.17940 3.52112 3.35461
# Velocity P-wave (km/s) = 4.57358 5.38254 4.99447
#
# Compressibility (1/GPa) = 0.06976622
#
# Stress axis : x y z
#
# Youngs Moduli (GPa) = 20.81104 79.63208 40.78295
#
# Poissons Ratio (x) = 0.43174 -0.13618
# Poissons Ratio (y) = 0.11283 0.22835
# Poissons Ratio (z) = -0.06949 0.44586
#
# Static dielectric constant tensor:
#      x y z
#    x 1.678280 0.000000 0.000000 
#    y 0.000000 1.711560 0.000000 
#    z 0.000000 0.000000 1.668320 
# 
# From -- ./inp_files/4828.got.cif
#   From: 2010.05.17/outbox.cif.g08.bks.cpg/sg19_3_cif.got.tgz:4828.got - 2010.06.03 22:46:19.
