data_PCOD9313224
_publ_section_title
;
Structure prediction by ZEFSAII (Michael W. Deem and Ramdas Pophale) SiO2 
 PCOD9313224
Probable space group: P 21 21 2
;
_chemical_formula_sum "Si O2"
_cell_formula_units_Z 16
_cell_length_a 9.450851
_cell_length_b 5.025611
_cell_length_c 13.895801
_cell_angle_alpha 90.000000
_cell_angle_beta 90.000000
_cell_angle_gamma 90.000000
_cell_volume 659.999143
_symmetry_space_group_name_H-M "P 21 21 2"
_symmetry_group_IT_number 18
_symmetry_cell_setting 'orthorhombic'
loop_
_space_group_symop_operation_xyz
x,y,z
-x,-y,z
1/2+x,1/2-y,-z
1/2-x,1/2+y,-z
loop_
_atom_site_type_symbol
_atom_site_label
_atom_site_fract_x
_atom_site_fract_y
_atom_site_fract_z
Si Si1 0.327976 0.468856 0.956871
Si Si2 0.151643 0.432692 0.776408
Si Si3 0.297458 0.450421 0.346310
Si Si4 0.079821 0.746146 0.454967
O O1 0.500000 0.500000 0.965994
O O2 0.273847 0.370148 0.852416
O O3 0.254907 0.249031 0.026544
O O4 0.201133 0.685397 0.714816
O O5 0.000000 0.500000 0.824904
O O6 0.117557 0.184894 0.706435
O O7 0.152495 0.603080 0.365909
O O8 0.337007 0.377254 0.456023
O O9 0.000000 0.500000 0.504084
O O10 0.000000 0.000000 0.414917
#
# Coordination Sequence:
#
# PCOD9313224 Si02
#       4
#     4   4   4   4
#     4  12  27  51  80 111 146 185 232 290 363 437
#     4  12  25  43  71 104 141 184 236 293 353 425
#     4  12  25  41  64  97 136 186 239 290 351 415
#     4  12  24  41  64  92 135 189 243 297 351 409
#
# _framework density 24.242453000000001
#
# number of rings (size 3 to 8) (size 9 to 14) (size 15 to 20)
#    0.000    0.000    0.000   12.750    0.000    3.000 
#    0.000    0.000    0.000    0.000    0.000    0.000 
#    0.000    0.000    0.000    0.000    0.000    0.000 
#
# Total GULP energy -89403.179744 kJ/mol
# GULP energy per Si atom -5587.698734 kJ/mol
# Density = 2.418728 g / cm^3
# Si number density = 24.242453 Si / 1000 Ang^3
#
#
#
# Elastic Constant Matrix: (Units=GPa)
#
#
# Indices 1 2 3 4 5 6 
#
# 1 154.5655 50.0415 30.8087 0.0000 0.0000 0.0000
# 2 50.0415 180.8439 21.9193 0.0000 0.0000 0.0000
# 3 30.8087 21.9193 66.7184 0.0000 0.0000 0.0000
# 4 0.0000 0.0000 0.0000 43.1829 0.0000 0.0000
# 5 0.0000 0.0000 0.0000 0.0000 28.8177 0.0000
# 6 0.0000 0.0000 0.0000 0.0000 0.0000 48.8400
#
#
#
# Elastic Compliance Matrix: (Units=1/GPa)
#
#
# Indices 1 2 3 4 5 6 
#
# 1 0.007624 -0.001753 -0.002945 0.000000 0.000000 0.000000
# 2 -0.001753 0.006162 -0.001215 0.000000 0.000000 0.000000
# 3 -0.002945 -0.001215 0.016747 0.000000 0.000000 0.000000
# 4 0.000000 0.000000 0.000000 0.023157 0.000000 0.000000
# 5 0.000000 0.000000 0.000000 0.000000 0.034701 0.000000
# 6 0.000000 0.000000 0.000000 0.000000 0.000000 0.020475
#
#
# Mechanical properties :
#
#
# Convention : Reuss Voigt Hill
#
# Bulk Modulus (GPa) = 53.45221 67.51854 60.48538
# Shear Modulus (GPa) = 39.39240 44.12532 41.75886
#
# Velocity S-wave (km/s) = 4.03542 4.27097 4.15487
# Velocity P-wave (km/s) = 6.61889 7.22727 6.92976
#
# Compressibility (1/GPa) = 0.01870830
#
# Stress axis : x y z
#
# Youngs Moduli (GPa) = 131.16152 162.28732 59.71087
#
# Poissons Ratio (x) = 0.28445 0.17584
# Poissons Ratio (y) = 0.22990 0.07255
# Poissons Ratio (z) = 0.38624 0.19718
#
# Static dielectric constant tensor:
#      x y z
#    x 2.204020 0.000000 0.000000 
#    y 0.000000 1.963070 0.000000 
#    z 0.000000 0.000000 1.934160 
# 
# From -- ./inp_files/6589.got.cif
#   From: 2010.05.17/outbox.cif.g08.bks.cpg/sg18_4_cif.got.tgz:6589.got - 2010.06.03 22:40:56.
