data_PCOD9313734
_publ_section_title
;
Structure prediction by ZEFSAII (Michael W. Deem and Ramdas Pophale) SiO2 
 PCOD9313734
Probable space group: P 21 21 21
;
_chemical_formula_sum "Si O2"
_cell_formula_units_Z 24
_cell_length_a 12.786448
_cell_length_b 6.506542
_cell_length_c 14.619411
_cell_angle_alpha 90.000000
_cell_angle_beta 90.000000
_cell_angle_gamma 90.000000
_cell_volume 1216.270099
_symmetry_space_group_name_H-M "P 21 21 21"
_symmetry_group_IT_number 19
_symmetry_cell_setting 'orthorhombic'
loop_
_space_group_symop_operation_xyz
x,y,z
1/2-x,-y,1/2+z
1/2+x,1/2-y,-z
-x,1/2+y,1/2-z
loop_
_atom_site_type_symbol
_atom_site_label
_atom_site_fract_x
_atom_site_fract_y
_atom_site_fract_z
Si Si1 0.786383 0.736287 0.112446
Si Si2 0.657181 0.849963 0.281700
Si Si3 0.718063 0.015180 0.943718
Si Si4 0.372271 0.901131 0.464965
Si Si5 0.500147 0.556382 0.358728
Si Si6 0.988483 0.216389 0.460297
O O1 0.751634 0.808260 0.212193
O O2 0.712881 0.543391 0.085555
O O3 0.908577 0.696982 0.100163
O O4 0.757442 0.909918 0.037128
O O5 0.695934 0.988593 0.365199
O O6 0.609460 0.640496 0.322108
O O7 0.566205 0.952931 0.221595
O O8 0.612556 0.894950 0.917608
O O9 0.686708 0.249091 0.965692
O O10 0.435701 0.752573 0.396938
O O11 0.453052 0.052869 0.515468
O O12 0.509355 0.399925 0.443263
#
# Coordination Sequence:
#
# PCOD9313734 Si02
#       6
#     4   4   4   4   4   4
#     4  11  22  42  64  92 130 171 212 266 325 386
#     4  12  23  41  65  99 130 165 224 270 320 388
#     4  10  23  42  62  95 128 171 216 262 326 384
#     4  10  19  44  64  89 127 168 211 267 331 371
#     4  11  23  40  66  99 124 163 221 274 319 381
#     4  10  22  43  65  88 131 176 214 267 329 382
#
# _framework density 19.73246
#
# number of rings (size 3 to 8) (size 9 to 14) (size 15 to 20)
#    0.000    1.333    5.000    3.000    2.333    1.333 
#    9.000    0.000    0.000    0.000    0.000    0.000 
#    0.000    0.000    0.000    0.000    0.000    0.000 
#
# Total GULP energy -134154.582225 kJ/mol
# GULP energy per Si atom -5589.774259 kJ/mol
# Density = 1.968755 g / cm^3
# Si number density = 19.732460 Si / 1000 Ang^3
#
#
#
# Elastic Constant Matrix: (Units=GPa)
#
#
# Indices 1 2 3 4 5 6 
#
# 1 47.2220 -6.5341 13.1067 0.0000 0.0000 0.0000
# 2 -6.5341 70.3375 8.1051 0.0000 0.0000 0.0000
# 3 13.1067 8.1051 48.2201 0.0000 0.0000 0.0000
# 4 0.0000 0.0000 0.0000 1.4053 0.0000 0.0000
# 5 0.0000 0.0000 0.0000 0.0000 33.8848 0.0000
# 6 0.0000 0.0000 0.0000 0.0000 0.0000 22.9221
#
#
#
# Elastic Compliance Matrix: (Units=1/GPa)
#
#
# Indices 1 2 3 4 5 6 
#
# 1 0.023500 0.002977 -0.006888 0.000000 0.000000 0.000000
# 2 0.002977 0.014875 -0.003309 0.000000 0.000000 0.000000
# 3 -0.006888 -0.003309 0.023167 0.000000 0.000000 0.000000
# 4 0.000000 0.000000 0.000000 0.711597 0.000000 0.000000
# 5 0.000000 0.000000 0.000000 0.000000 0.029512 0.000000
# 6 0.000000 0.000000 0.000000 0.000000 0.000000 0.043626
#
#
# Mechanical properties :
#
#
# Convention : Reuss Voigt Hill
#
# Bulk Modulus (GPa) = 21.23102 21.68167 21.45634
# Shear Modulus (GPa) = 5.70504 21.71589 13.71047
#
# Velocity S-wave (km/s) = 1.70220 3.32100 2.63880
# Velocity P-wave (km/s) = 3.82702 5.07120 4.49239
#
# Compressibility (1/GPa) = 0.04710089
#
# Stress axis : x y z
#
# Youngs Moduli (GPa) = 42.55273 67.22662 43.16533
#
# Poissons Ratio (x) = -0.20012 0.29732
# Poissons Ratio (y) = -0.12667 0.14285
# Poissons Ratio (z) = 0.29310 0.22248
#
# Static dielectric constant tensor:
#      x y z
#    x 1.705060 0.000000 0.000000 
#    y 0.000000 1.697480 0.000000 
#    z 0.000000 0.000000 1.673350 
# 
# From -- ./inp_files/879.got.cif
#   From: 2010.05.17/outbox.cif.g08.bks.cpg/sg19_1_cif.got.tgz:879.got - 2010.06.03 22:46:19.
