data_PCOD9313867
_publ_section_title
;
Structure prediction by ZEFSAII (Michael W. Deem and Ramdas Pophale) SiO2 
 PCOD9313867
Probable space group: P 21 21 21
;
_chemical_formula_sum "Si O2"
_cell_formula_units_Z 24
_cell_length_a 7.923841
_cell_length_b 5.183401
_cell_length_c 20.775796
_cell_angle_alpha 90.000000
_cell_angle_beta 90.000000
_cell_angle_gamma 90.000000
_cell_volume 853.312746
_symmetry_space_group_name_H-M "P 21 21 21"
_symmetry_group_IT_number 19
_symmetry_cell_setting 'orthorhombic'
loop_
_space_group_symop_operation_xyz
x,y,z
1/2-x,-y,1/2+z
1/2+x,1/2-y,-z
-x,1/2+y,1/2-z
loop_
_atom_site_type_symbol
_atom_site_label
_atom_site_fract_x
_atom_site_fract_y
_atom_site_fract_z
Si Si1 0.907197 0.554623 0.475725
Si Si2 0.807034 0.704142 0.070607
Si Si3 0.844972 0.121958 0.903249
Si Si4 0.088844 0.842175 0.322489
Si Si5 0.770283 0.840165 0.247641
Si Si6 0.507114 0.374787 0.344431
O O1 0.752441 0.374339 0.499484
O O2 0.822389 0.798254 0.442065
O O3 0.031634 0.388478 0.431420
O O4 0.600410 0.640297 0.357691
O O5 0.486853 0.382697 0.039613
O O6 0.649415 0.837270 0.106048
O O7 0.849049 0.440496 0.108464
O O8 0.870811 0.860664 0.862785
O O9 0.888454 0.867320 0.310738
O O10 0.148956 0.566826 0.297394
O O11 0.176992 0.057289 0.277412
O O12 0.575467 0.863673 0.226253
#
# Coordination Sequence:
#
# PCOD9313867 Si02
#       6
#     4   4   4   4   4   4
#     4  11  22  38  59  87 127 171 207 252 300 362
#     4  10  21  37  58  87 125 165 210 251 303 363
#     4  11  23  37  57  84 120 162 205 246 300 363
#     4   9  18  31  54  88 120 156 200 253 306 361
#     4   9  16  32  56  85 121 153 196 255 311 360
#     4  10  20  37  58  87 119 157 204 255 308 365
#
# _framework density 28.125681
#
# number of rings (size 3 to 8) (size 9 to 14) (size 15 to 20)
#    0.000    2.000    0.000    6.000    0.000    4.000 
#    0.000    0.000    0.000    0.000    0.000   32.667 
#    0.000    8.000    0.000    0.167    0.000    0.000 
#
# Total GULP energy -134635.978318 kJ/mol
# GULP energy per Si atom -5609.832430 kJ/mol
# Density = 2.806167 g / cm^3
# Si number density = 28.125681 Si / 1000 Ang^3
#
#
#
# Elastic Constant Matrix: (Units=GPa)
#
#
# Indices 1 2 3 4 5 6 
#
# 1 107.5532 21.9946 1.8473 0.0000 0.0000 0.0000
# 2 21.9946 103.8273 11.4167 0.0000 0.0000 0.0000
# 3 1.8473 11.4167 50.0483 0.0000 0.0000 0.0000
# 4 0.0000 0.0000 0.0000 38.8338 0.0000 0.0000
# 5 0.0000 0.0000 0.0000 0.0000 35.9097 0.0000
# 6 0.0000 0.0000 0.0000 0.0000 0.0000 73.0627
#
#
#
# Elastic Compliance Matrix: (Units=1/GPa)
#
#
# Indices 1 2 3 4 5 6 
#
# 1 0.009719 -0.002071 0.000114 0.000000 0.000000 0.000000
# 2 -0.002071 0.010321 -0.002278 0.000000 0.000000 0.000000
# 3 0.000114 -0.002278 0.020496 0.000000 0.000000 0.000000
# 4 0.000000 0.000000 0.000000 0.025751 0.000000 0.000000
# 5 0.000000 0.000000 0.000000 0.000000 0.027848 0.000000
# 6 0.000000 0.000000 0.000000 0.000000 0.000000 0.013687
#
#
# Mechanical properties :
#
#
# Convention : Reuss Voigt Hill
#
# Bulk Modulus (GPa) = 31.18650 36.88288 34.03469
# Shear Modulus (GPa) = 39.37603 44.63924 42.00764
#
# Velocity S-wave (km/s) = 3.74572 3.98821 3.86886
# Velocity P-wave (km/s) = 5.46073 5.86087 5.66433
#
# Compressibility (1/GPa) = 0.03206516
#
# Stress axis : x y z
#
# Youngs Moduli (GPa) = 102.88718 96.89303 48.78975
#
# Poissons Ratio (x) = 0.20071 -0.00555
# Poissons Ratio (y) = 0.21313 0.11113
# Poissons Ratio (z) = -0.01171 0.22071
#
# Static dielectric constant tensor:
#      x y z
#    x 2.202550 0.000000 0.000000 
#    y 0.000000 2.080270 0.000000 
#    z 0.000000 0.000000 2.273340 
# 
# From -- ./inp_files/7471.got.cif
#   From: 2010.05.17/outbox.cif.g08.bks.cpg/sg19_4_cif.got.tgz:7471.got - 2010.06.03 22:46:19.
