data_PCOD9313189
_publ_section_title
;
Structure prediction by ZEFSAII (Michael W. Deem and Ramdas Pophale) SiO2 
 PCOD9313189
Probable space group: P 21 21 2
;
_chemical_formula_sum "Si O2"
_cell_formula_units_Z 18
_cell_length_a 8.633198
_cell_length_b 7.583998
_cell_length_c 11.292903
_cell_angle_alpha 90.000000
_cell_angle_beta 90.000000
_cell_angle_gamma 90.000000
_cell_volume 739.393297
_symmetry_space_group_name_H-M "P 21 21 2"
_symmetry_group_IT_number 18
_symmetry_cell_setting 'orthorhombic'
loop_
_space_group_symop_operation_xyz
x,y,z
-x,-y,z
1/2+x,1/2-y,-z
1/2-x,1/2+y,-z
loop_
_atom_site_type_symbol
_atom_site_label
_atom_site_fract_x
_atom_site_fract_y
_atom_site_fract_z
Si Si1 0.500000 0.500000 0.685022
Si Si2 0.270001 0.131530 0.880710
Si Si3 0.099387 0.663321 0.463662
Si Si4 0.124192 0.239707 0.126696
Si Si5 0.913418 0.820655 0.656627
O O1 0.564657 0.657136 0.605716
O O2 0.625197 0.402982 0.768960
O O3 0.443170 0.208618 0.886766
O O4 0.173521 0.227197 0.777363
O O5 0.287344 0.923656 0.850301
O O6 0.188085 0.157252 0.006058
O O7 0.280428 0.638563 0.441724
O O8 0.000000 0.500000 0.412438
O O9 0.036311 0.691732 0.595771
O O10 0.000000 0.000000 0.682856
#
# Coordination Sequence:
#
# PCOD9313189 Si02
#       5
#     2   4   4   4   4
#     4  12  24  48  78 114 160 214 264 340 392 486
#     4  11  26  49  76 123 160 222 266 346 406 502
#     4  12  27  51  79 116 160 219 275 338 416 487
#     4  11  25  48  79 113 170 208 280 330 421 478
#     4  12  27  51  80 115 164 213 273 340 411 496
#
# _framework density 24.344283999999998
#
# number of rings (size 3 to 8) (size 9 to 14) (size 15 to 20)
#    0.000    0.444    3.333    4.000    4.667    0.000 
#    4.000    0.000    0.000    0.000    0.000    0.000 
#    0.000    0.000    0.000    0.000    0.000    0.000 
#
# Total GULP energy -100878.412245 kJ/mol
# GULP energy per Si atom -5604.356236 kJ/mol
# Density = 2.428888 g / cm^3
# Si number density = 24.344284 Si / 1000 Ang^3
#
#
#
# Elastic Constant Matrix: (Units=GPa)
#
#
# Indices 1 2 3 4 5 6 
#
# 1 93.1431 7.7509 38.4452 0.0000 0.0000 0.0000
# 2 7.7509 130.8757 27.2935 0.0000 0.0000 0.0000
# 3 38.4452 27.2935 113.1868 0.0000 0.0000 0.0000
# 4 0.0000 0.0000 0.0000 32.7984 0.0000 0.0000
# 5 0.0000 0.0000 0.0000 0.0000 48.4245 0.0000
# 6 0.0000 0.0000 0.0000 0.0000 0.0000 39.6242
#
#
#
# Elastic Compliance Matrix: (Units=1/GPa)
#
#
# Indices 1 2 3 4 5 6 
#
# 1 0.012490 0.000153 -0.004279 0.000000 0.000000 0.000000
# 2 0.000153 0.008047 -0.001992 0.000000 0.000000 0.000000
# 3 -0.004279 -0.001992 0.010769 0.000000 0.000000 0.000000
# 4 0.000000 0.000000 0.000000 0.030489 0.000000 0.000000
# 5 0.000000 0.000000 0.000000 0.000000 0.020651 0.000000
# 6 0.000000 0.000000 0.000000 0.000000 0.000000 0.025237
#
#
# Mechanical properties :
#
#
# Convention : Reuss Voigt Hill
#
# Bulk Modulus (GPa) = 52.44305 53.79829 53.12067
# Shear Modulus (GPa) = 39.59565 41.75048 40.67307
#
# Velocity S-wave (km/s) = 4.03735 4.14575 4.09191
# Velocity P-wave (km/s) = 6.58199 6.71292 6.64777
#
# Compressibility (1/GPa) = 0.01906830
#
# Stress axis : x y z
#
# Youngs Moduli (GPa) = 80.06616 124.26540 92.86068
#
# Poissons Ratio (x) = -0.01898 0.39736
# Poissons Ratio (y) = -0.01223 0.18501
# Poissons Ratio (z) = 0.34261 0.24758
#
# Static dielectric constant tensor:
#      x y z
#    x 1.931160 0.000000 0.000000 
#    y 0.000000 1.930700 0.000000 
#    z 0.000000 0.000000 1.939450 
# 
# From -- ./inp_files/5429.got.cif
#   From: 2010.05.17/outbox.cif.g08.bks.cpg/sg18_3_cif.got.tgz:5429.got - 2010.06.03 22:40:56.
