data_PCOD9313088
_publ_section_title
;
Structure prediction by ZEFSAII (Michael W. Deem and Ramdas Pophale) SiO2 
 PCOD9313088
Probable space group: P 21 21 2
;
_chemical_formula_sum "Si O2"
_cell_formula_units_Z 32
_cell_length_a 7.996828
_cell_length_b 15.795772
_cell_length_c 11.586949
_cell_angle_alpha 90.000000
_cell_angle_beta 90.000000
_cell_angle_gamma 90.000000
_cell_volume 1463.617882
_symmetry_space_group_name_H-M "P 21 21 2"
_symmetry_group_IT_number 18
_symmetry_cell_setting 'orthorhombic'
loop_
_space_group_symop_operation_xyz
x,y,z
-x,-y,z
1/2+x,1/2-y,-z
1/2-x,1/2+y,-z
loop_
_atom_site_type_symbol
_atom_site_label
_atom_site_fract_x
_atom_site_fract_y
_atom_site_fract_z
Si Si1 0.935141 0.404809 0.213784
Si Si2 0.099906 0.587503 0.487000
Si Si3 0.872851 0.769575 0.210865
Si Si4 0.891504 0.081596 0.279075
Si Si5 0.469158 0.238483 0.351236
Si Si6 0.319358 0.181417 0.992089
Si Si7 0.481941 0.587357 0.478936
Si Si8 0.157872 0.327203 0.863787
O O1 0.065981 0.327065 0.195913
O O2 0.000000 0.500000 0.195050
O O3 0.888394 0.399206 0.348691
O O4 0.800395 0.382978 0.114445
O O5 0.292835 0.588685 0.527451
O O6 0.000000 0.500000 0.507609
O O7 0.012331 0.664779 0.553572
O O8 0.014111 0.829211 0.262849
O O9 0.712549 0.768283 0.293441
O O10 0.816105 0.815227 0.092966
O O11 0.883562 0.079085 0.417776
O O12 0.731579 0.088929 0.196277
O O13 0.000000 0.000000 0.245703
O O14 0.488288 0.328766 0.409078
O O15 0.599272 0.226582 0.247388
O O16 0.295679 0.274693 0.935555
O O17 0.495337 0.163505 0.055730
O O18 0.500000 0.500000 0.408414
#
# Coordination Sequence:
#
# PCOD9313088 Si02
#       8
#     4   4   4   4   4   4   4   4
#     4  11  24  41  70  97 140 180 229 285 351 411
#     4  11  26  43  69 102 140 186 232 286 343 424
#     4  11  23  45  66  99 135 178 236 293 336 419
#     4  11  24  41  66  98 141 176 223 284 350 399
#     4  11  26  40  72  97 134 187 234 273 357 411
#     4  11  22  44  70  94 133 174 233 285 348 401
#     4  11  26  42  63  99 144 180 229 287 337 416
#     4  11  23  42  72  97 130 181 223 291 340 413
#
# _framework density 21.863630000000001
#
# number of rings (size 3 to 8) (size 9 to 14) (size 15 to 20)
#    0.000    1.000    3.750    1.500    8.750    1.000 
#    0.000    2.500    0.000    0.000    0.000    0.000 
#    0.000    0.000    0.000    0.000    0.000    0.000 
#
# Total GULP energy -178648.844456 kJ/mol
# GULP energy per Si atom -5582.776389 kJ/mol
# Density = 2.181387 g / cm^3
# Si number density = 21.863630 Si / 1000 Ang^3
#
#
#
# Elastic Constant Matrix: (Units=GPa)
#
#
# Indices 1 2 3 4 5 6 
#
# 1 63.0718 13.8397 14.3952 0.0000 0.0000 0.0000
# 2 13.8397 127.8767 49.2655 0.0000 0.0000 0.0000
# 3 14.3952 49.2655 104.1930 0.0000 0.0000 0.0000
# 4 0.0000 0.0000 0.0000 15.5673 0.0000 0.0000
# 5 0.0000 0.0000 0.0000 0.0000 9.1563 0.0000
# 6 0.0000 0.0000 0.0000 0.0000 0.0000 24.2808
#
#
#
# Elastic Compliance Matrix: (Units=1/GPa)
#
#
# Indices 1 2 3 4 5 6 
#
# 1 0.016499 -0.001110 -0.001755 0.000000 0.000000 0.000000
# 2 -0.001110 0.009636 -0.004403 0.000000 0.000000 0.000000
# 3 -0.001755 -0.004403 0.011922 0.000000 0.000000 0.000000
# 4 0.000000 0.000000 0.000000 0.064237 0.000000 0.000000
# 5 0.000000 0.000000 0.000000 0.000000 0.109215 0.000000
# 6 0.000000 0.000000 0.000000 0.000000 0.000000 0.041185
#
#
# Mechanical properties :
#
#
# Convention : Reuss Voigt Hill
#
# Bulk Modulus (GPa) = 42.51283 50.01582 46.26432
# Shear Modulus (GPa) = 18.17722 24.31029 21.24376
#
# Velocity S-wave (km/s) = 2.88651 3.33814 3.12051
# Velocity P-wave (km/s) = 5.53137 6.14683 5.84720
#
# Compressibility (1/GPa) = 0.02352231
#
# Stress axis : x y z
#
# Youngs Moduli (GPa) = 60.61000 103.77270 83.87894
#
# Poissons Ratio (x) = 0.11514 0.14719
# Poissons Ratio (y) = 0.06725 0.36933
# Poissons Ratio (z) = 0.10636 0.45692
#
# Static dielectric constant tensor:
#      x y z
#    x 1.856960 0.000000 0.000000 
#    y 0.000000 1.793540 0.000000 
#    z 0.000000 0.000000 1.839670 
# 
# From -- ./inp_files/5682.got.cif
#   From: 2010.05.17/outbox.cif.g08.bks.cpg/sg18_3_cif.got.tgz:5682.got - 2010.06.03 22:40:56.
