data_PCOD9313423
_publ_section_title
;
Structure prediction by ZEFSAII (Michael W. Deem and Ramdas Pophale) SiO2 
 PCOD9313423
Probable space group: P 21 21 21
;
_chemical_formula_sum "Si O2"
_cell_formula_units_Z 32
_cell_length_a 7.659686
_cell_length_b 17.362161
_cell_length_c 11.781580
_cell_angle_alpha 90.000000
_cell_angle_beta 90.000000
_cell_angle_gamma 90.000000
_cell_volume 1566.817026
_symmetry_space_group_name_H-M "P 21 21 21"
_symmetry_group_IT_number 19
_symmetry_cell_setting 'orthorhombic'
loop_
_space_group_symop_operation_xyz
x,y,z
1/2-x,-y,1/2+z
1/2+x,1/2-y,-z
-x,1/2+y,1/2-z
loop_
_atom_site_type_symbol
_atom_site_label
_atom_site_fract_x
_atom_site_fract_y
_atom_site_fract_z
Si Si1 0.680568 0.329147 0.005896
Si Si2 0.998719 0.607415 0.198517
Si Si3 0.249169 0.667191 0.767531
Si Si4 0.432933 0.240729 0.831175
Si Si5 0.867929 0.340483 0.781962
Si Si6 0.376646 0.428843 0.055404
Si Si7 0.307950 0.573436 0.336481
Si Si8 0.168893 0.566652 0.972656
O O1 0.754803 0.291319 0.118966
O O2 0.574889 0.406940 0.029338
O O3 0.549231 0.273945 0.935920
O O4 0.836104 0.343043 0.917619
O O5 0.075073 0.689502 0.241965
O O6 0.128288 0.552155 0.270753
O O7 0.795237 0.611328 0.230364
O O8 0.033733 0.592278 0.067675
O O9 0.449415 0.676820 0.729162
O O10 0.161007 0.751952 0.755638
O O11 0.167674 0.609604 0.674638
O O12 0.233038 0.635565 0.894130
O O13 0.057179 0.376704 0.764795
O O14 0.261351 0.388596 0.954398
O O15 0.320663 0.517242 0.037088
O O16 0.401632 0.497072 0.383660
#
# Coordination Sequence:
#
# PCOD9313423 Si02
#       8
#     4   4   4   4   4   4   4   4
#     4  10  18  33  58  99 123 151 213 277 326 365
#     4  10  21  41  62  92 128 169 211 268 328 389
#     4  10  21  38  61  93 125 167 217 266 320 394
#     4  10  20  32  62  95 126 160 214 281 322 377
#     4  10  21  37  65  99 122 158 224 276 319 373
#     4  10  20  34  66  89 120 165 208 261 323 384
#     4  10  21  39  66  90 121 172 209 275 321 381
#     4  10  22  42  64  83 135 182 208 254 341 407
#
# _framework density 20.423570999999999
#
# number of rings (size 3 to 8) (size 9 to 14) (size 15 to 20)
#    0.750    1.500    2.500    3.000    3.500    0.000 
#    4.500    3.750    5.500    0.000    0.000    0.000 
#    0.000    0.000    0.000    0.000    0.000    0.000 
#
# Total GULP energy -178252.684908 kJ/mol
# GULP energy per Si atom -5570.396403 kJ/mol
# Density = 2.037709 g / cm^3
# Si number density = 20.423571 Si / 1000 Ang^3
#
#
#
# Elastic Constant Matrix: (Units=GPa)
#
#
# Indices 1 2 3 4 5 6 
#
# 1 71.9745 16.8903 16.5372 0.0000 0.0000 0.0000
# 2 16.8903 41.7840 19.2088 0.0000 0.0000 0.0000
# 3 16.5372 19.2088 74.7609 0.0000 0.0000 0.0000
# 4 0.0000 0.0000 0.0000 21.6419 0.0000 0.0000
# 5 0.0000 0.0000 0.0000 0.0000 21.7501 0.0000
# 6 0.0000 0.0000 0.0000 0.0000 0.0000 14.1722
#
#
#
# Elastic Compliance Matrix: (Units=1/GPa)
#
#
# Indices 1 2 3 4 5 6 
#
# 1 0.015630 -0.005362 -0.002080 0.000000 0.000000 0.000000
# 2 -0.005362 0.028978 -0.006259 0.000000 0.000000 0.000000
# 3 -0.002080 -0.006259 0.015444 0.000000 0.000000 0.000000
# 4 0.000000 0.000000 0.000000 0.046207 0.000000 0.000000
# 5 0.000000 0.000000 0.000000 0.000000 0.045977 0.000000
# 6 0.000000 0.000000 0.000000 0.000000 0.000000 0.070561
#
#
# Mechanical properties :
#
#
# Convention : Reuss Voigt Hill
#
# Bulk Modulus (GPa) = 30.62807 32.64355 31.63581
# Shear Modulus (GPa) = 19.15110 20.57169 19.86140
#
# Velocity S-wave (km/s) = 3.06550 3.17717 3.12184
# Velocity P-wave (km/s) = 5.24964 5.42929 5.34022
#
# Compressibility (1/GPa) = 0.03264979
#
# Stress axis : x y z
#
# Youngs Moduli (GPa) = 63.97972 34.50938 64.74897
#
# Poissons Ratio (x) = 0.18504 0.13466
# Poissons Ratio (y) = 0.34306 0.40529
# Poissons Ratio (z) = 0.13306 0.21601
#
# Static dielectric constant tensor:
#      x y z
#    x 1.764370 0.000000 0.000000 
#    y 0.000000 1.802180 0.000000 
#    z 0.000000 0.000000 1.738320 
# 
# From -- ./inp_files/4855.got.cif
#   From: 2010.05.17/outbox.cif.g08.bks.cpg/sg19_3_cif.got.tgz:4855.got - 2010.06.03 22:46:19.
