data_PCOD9313783
_publ_section_title
;
Structure prediction by ZEFSAII (Michael W. Deem and Ramdas Pophale) SiO2 
 PCOD9313783
Probable space group: P 21 21 21
;
_chemical_formula_sum "Si O2"
_cell_formula_units_Z 32
_cell_length_a 8.543179
_cell_length_b 8.296845
_cell_length_c 19.566034
_cell_angle_alpha 90.000000
_cell_angle_beta 90.000000
_cell_angle_gamma 90.000000
_cell_volume 1386.868508
_symmetry_space_group_name_H-M "P 21 21 21"
_symmetry_group_IT_number 19
_symmetry_cell_setting 'orthorhombic'
loop_
_space_group_symop_operation_xyz
x,y,z
1/2-x,-y,1/2+z
1/2+x,1/2-y,-z
-x,1/2+y,1/2-z
loop_
_atom_site_type_symbol
_atom_site_label
_atom_site_fract_x
_atom_site_fract_y
_atom_site_fract_z
Si Si1 0.825567 0.567417 0.461535
Si Si2 0.701876 0.868156 0.792778
Si Si3 0.654759 0.318461 0.718370
Si Si4 0.355518 0.578152 0.901283
Si Si5 0.896161 0.878535 0.656588
Si Si6 0.293013 0.299229 0.141918
Si Si7 0.108615 0.152775 0.620519
Si Si8 0.832758 0.385258 0.591119
O O1 0.796205 0.739463 0.426071
O O2 0.674707 0.465736 0.436414
O O3 0.830213 0.537043 0.541954
O O4 0.983610 0.486176 0.431564
O O5 0.761068 0.020058 0.836067
O O6 0.519014 0.886198 0.779312
O O7 0.801804 0.841799 0.724791
O O8 0.741638 0.715898 0.839523
O O9 0.638397 0.147207 0.677154
O O10 0.724275 0.299887 0.793165
O O11 0.767454 0.416757 0.667192
O O12 0.229268 0.434209 0.900115
O O13 0.281997 0.739166 0.936047
O O14 0.024500 0.745663 0.638368
O O15 0.995716 0.044034 0.667515
O O16 0.000882 0.299093 0.595165
#
# Coordination Sequence:
#
# PCOD9313783 Si02
#       8
#     4   4   4   4   4   4   4   4
#     4  11  20  37  60  90 115 156 206 255 299 356
#     4  12  20  36  57  84 122 158 198 247 312 366
#     4  10  21  38  58  86 123 156 204 246 300 361
#     4   9  18  37  57  88 113 153 202 249 299 342
#     4  10  20  36  57  83 122 153 207 245 298 364
#     4  11  24  36  59  92 122 158 199 255 309 364
#     4  10  20  34  59  83 114 161 201 255 297 362
#     4   9  19  36  59  86 115 153 211 254 290 355
#
# _framework density 23.073564999999999
#
# number of rings (size 3 to 8) (size 9 to 14) (size 15 to 20)
#    0.750    1.000    2.500    3.000    0.000    0.000 
#    0.000    5.000    0.000    0.000    0.000    0.000 
#    0.000    0.000    0.000    0.000    0.000    0.000 
#
# Total GULP energy -178707.260442 kJ/mol
# GULP energy per Si atom -5584.601889 kJ/mol
# Density = 2.302105 g / cm^3
# Si number density = 23.073565 Si / 1000 Ang^3
#
#
#
# Elastic Constant Matrix: (Units=GPa)
#
#
# Indices 1 2 3 4 5 6 
#
# 1 117.3435 27.9254 6.3349 0.0000 0.0000 0.0000
# 2 27.9254 34.5047 18.6109 0.0000 0.0000 0.0000
# 3 6.3349 18.6109 33.2328 0.0000 0.0000 0.0000
# 4 0.0000 0.0000 0.0000 18.0933 0.0000 0.0000
# 5 0.0000 0.0000 0.0000 0.0000 20.9348 0.0000
# 6 0.0000 0.0000 0.0000 0.0000 0.0000 24.2180
#
#
#
# Elastic Compliance Matrix: (Units=1/GPa)
#
#
# Indices 1 2 3 4 5 6 
#
# 1 0.010934 -0.011068 0.004114 0.000000 0.000000 0.000000
# 2 -0.011068 0.052728 -0.027419 0.000000 0.000000 0.000000
# 3 0.004114 -0.027419 0.044661 0.000000 0.000000 0.000000
# 4 0.000000 0.000000 0.000000 0.055269 0.000000 0.000000
# 5 0.000000 0.000000 0.000000 0.000000 0.047767 0.000000
# 6 0.000000 0.000000 0.000000 0.000000 0.000000 0.041292
#
#
# Mechanical properties :
#
#
# Convention : Reuss Voigt Hill
#
# Bulk Modulus (GPa) = 25.26662 32.31371 28.79016
# Shear Modulus (GPa) = 14.94368 21.46320 18.20344
#
# Velocity S-wave (km/s) = 2.54766 3.05324 2.81184
# Velocity P-wave (km/s) = 4.43039 5.14439 4.80068
#
# Compressibility (1/GPa) = 0.03957792
#
# Stress axis : x y z
#
# Youngs Moduli (GPa) = 91.45913 18.96524 22.39066
#
# Poissons Ratio (x) = 0.20991 -0.09212
# Poissons Ratio (y) = 1.01227 0.61392
# Poissons Ratio (z) = -0.37627 0.52000
#
# Static dielectric constant tensor:
#      x y z
#    x 1.849510 0.000000 0.000000 
#    y 0.000000 1.924560 0.000000 
#    z 0.000000 0.000000 1.873410 
# 
# From -- ./inp_files/7048.got.cif
#   From: 2010.05.17/outbox.cif.g08.bks.cpg/sg19_4_cif.got.tgz:7048.got - 2010.06.03 22:46:19.
