data_PCOD9313666
_publ_section_title
;
Structure prediction by ZEFSAII (Michael W. Deem and Ramdas Pophale) SiO2 
 PCOD9313666
Probable space group: P 21 21 21
;
_chemical_formula_sum "Si O2"
_cell_formula_units_Z 32
_cell_length_a 12.986466
_cell_length_b 6.598032
_cell_length_c 14.920763
_cell_angle_alpha 90.000000
_cell_angle_beta 90.000000
_cell_angle_gamma 90.000000
_cell_volume 1278.487342
_symmetry_space_group_name_H-M "P 21 21 21"
_symmetry_group_IT_number 19
_symmetry_cell_setting 'orthorhombic'
loop_
_space_group_symop_operation_xyz
x,y,z
1/2-x,-y,1/2+z
1/2+x,1/2-y,-z
-x,1/2+y,1/2-z
loop_
_atom_site_type_symbol
_atom_site_label
_atom_site_fract_x
_atom_site_fract_y
_atom_site_fract_z
Si Si1 0.042100 0.064664 0.141840
Si Si2 0.834674 0.322736 0.118661
Si Si3 0.645451 0.846714 0.439693
Si Si4 0.499230 0.478192 0.374249
Si Si5 0.047255 0.921696 0.961578
Si Si6 0.357264 0.930862 0.280627
Si Si7 0.382032 0.758377 0.820735
Si Si8 0.689352 0.910998 0.242382
O O1 0.947513 0.224813 0.133568
O O2 0.110971 0.138739 0.222923
O O3 0.989590 0.849788 0.163739
O O4 0.099154 0.018336 0.048918
O O5 0.750292 0.321215 0.198401
O O6 0.854396 0.565460 0.110263
O O7 0.792490 0.230496 0.025767
O O8 0.566308 0.659258 0.416440
O O9 0.697963 0.931365 0.349658
O O10 0.572813 0.026884 0.474579
O O11 0.449436 0.317656 0.443199
O O12 0.578168 0.366241 0.306032
O O13 0.403747 0.528382 0.307137
O O14 0.082174 0.044684 0.874014
O O15 0.338434 0.171141 0.263688
O O16 0.294923 0.587565 0.813044
#
# Coordination Sequence:
#
# PCOD9313666 Si02
#       8
#     4   4   4   4   4   4   4   4
#     4  11  23  39  60  82 115 161 203 246 298 357
#     4  10  22  39  58  89 117 156 203 242 302 360
#     4  10  20  35  59  85 120 150 192 248 294 358
#     4  10  19  38  60  88 118 154 187 245 317 349
#     4  10  21  35  58  87 115 151 194 243 291 359
#     4   9  19  36  61  86 119 154 189 246 307 360
#     4  11  22  41  60  80 118 160 204 250 296 361
#     4   9  20  35  60  89 114 154 198 244 301 362
#
# _framework density 25.029578000000001
#
# number of rings (size 3 to 8) (size 9 to 14) (size 15 to 20)
#    0.000    2.000    2.500    0.750    1.750    2.000 
#    0.000    0.000    0.000    1.500    0.000    0.000 
#    0.000    0.000    0.000    0.000    0.000    0.000 
#
# Total GULP energy -178686.330223 kJ/mol
# GULP energy per Si atom -5583.947819 kJ/mol
# Density = 2.497261 g / cm^3
# Si number density = 25.029578 Si / 1000 Ang^3
#
#
#
# Elastic Constant Matrix: (Units=GPa)
#
#
# Indices 1 2 3 4 5 6 
#
# 1 52.8388 -5.5964 4.4829 0.0000 0.0000 0.0000
# 2 -5.5964 53.2217 -5.3885 0.0000 0.0000 0.0000
# 3 4.4829 -5.3885 99.4598 0.0000 0.0000 0.0000
# 4 0.0000 0.0000 0.0000 34.8860 0.0000 0.0000
# 5 0.0000 0.0000 0.0000 0.0000 25.1611 0.0000
# 6 0.0000 0.0000 0.0000 0.0000 0.0000 36.8811
#
#
#
# Elastic Compliance Matrix: (Units=1/GPa)
#
#
# Indices 1 2 3 4 5 6 
#
# 1 0.019196 0.001942 -0.000760 0.000000 0.000000 0.000000
# 2 0.001942 0.019089 0.000947 0.000000 0.000000 0.000000
# 3 -0.000760 0.000947 0.010140 0.000000 0.000000 0.000000
# 4 0.000000 0.000000 0.000000 0.028665 0.000000 0.000000
# 5 0.000000 0.000000 0.000000 0.000000 0.039744 0.000000
# 6 0.000000 0.000000 0.000000 0.000000 0.000000 0.027114
#
#
# Mechanical properties :
#
#
# Convention : Reuss Voigt Hill
#
# Bulk Modulus (GPa) = 18.98210 21.39071 20.18640
# Shear Modulus (GPa) = 31.79618 33.52047 32.65833
#
# Velocity S-wave (km/s) = 3.56806 3.66353 3.61611
# Velocity P-wave (km/s) = 4.95732 5.14392 5.05148
#
# Compressibility (1/GPa) = 0.05268122
#
# Stress axis : x y z
#
# Youngs Moduli (GPa) = 52.09523 52.38528 98.62074
#
# Poissons Ratio (x) = -0.10171 0.07495
# Poissons Ratio (y) = -0.10114 -0.09336
# Poissons Ratio (z) = 0.03959 -0.04959
#
# Static dielectric constant tensor:
#      x y z
#    x 1.975580 0.000000 0.000000 
#    y 0.000000 2.075310 0.000000 
#    z 0.000000 0.000000 2.032020 
# 
# From -- ./inp_files/6103.got.cif
#   From: 2010.05.17/outbox.cif.g08.bks.cpg/sg19_4_cif.got.tgz:6103.got - 2010.06.03 22:46:19.
