data_PCOD9313312
_publ_section_title
;
Structure prediction by ZEFSAII (Michael W. Deem and Ramdas Pophale) SiO2 
 PCOD9313312
Probable space group: P 21 21 21
;
_chemical_formula_sum "Si O2"
_cell_formula_units_Z 20
_cell_length_a 7.137363
_cell_length_b 5.038253
_cell_length_c 22.652554
_cell_angle_alpha 90.000000
_cell_angle_beta 90.000000
_cell_angle_gamma 90.000000
_cell_volume 814.582230
_symmetry_space_group_name_H-M "P 21 21 21"
_symmetry_group_IT_number 19
_symmetry_cell_setting 'orthorhombic'
loop_
_space_group_symop_operation_xyz
x,y,z
1/2-x,-y,1/2+z
1/2+x,1/2-y,-z
-x,1/2+y,1/2-z
loop_
_atom_site_type_symbol
_atom_site_label
_atom_site_fract_x
_atom_site_fract_y
_atom_site_fract_z
Si Si1 0.747940 0.199554 0.280171
Si Si2 0.781927 0.707817 0.347925
Si Si3 0.392491 0.949119 0.329674
Si Si4 0.148949 0.878014 0.953891
Si Si5 0.756211 0.870448 0.474991
O O1 0.824162 0.414342 0.326581
O O2 0.524469 0.156748 0.294218
O O3 0.748905 0.307399 0.214375
O O4 0.833181 0.916981 0.296745
O O5 0.851394 0.799334 0.412077
O O6 0.553163 0.739402 0.350622
O O7 0.301798 0.093315 0.385286
O O8 0.156762 0.586535 0.980930
O O9 0.264653 0.091813 0.991752
O O10 0.938595 0.988141 0.959610
#
# Coordination Sequence:
#
# PCOD9313312 Si02
#       5
#     4   4   4   4   4
#     4  10  16  29  50  80 114 140 175 251 301 327
#     4   9  18  29  50  74 112 138 189 219 296 336
#     4   9  19  28  53  81 117 135 187 245 303 317
#     4  11  24  37  60  85 124 150 201 233 299 345
#     4  11  23  39  57  86 117 163 192 244 281 361
#
# _framework density 24.552464000000001
#
# number of rings (size 3 to 8) (size 9 to 14) (size 15 to 20)
#    1.200    0.800    2.000    2.400    5.600    0.000 
#    0.000    0.000    0.000    0.000    0.000   28.000 
#    0.000    0.000    0.000    0.000    0.000    0.000 
#
# Total GULP energy -111698.200765 kJ/mol
# GULP energy per Si atom -5584.910038 kJ/mol
# Density = 2.449658 g / cm^3
# Si number density = 24.552464 Si / 1000 Ang^3
#
#
#
# Elastic Constant Matrix: (Units=GPa)
#
#
# Indices 1 2 3 4 5 6 
#
# 1 44.3625 0.4050 7.1728 0.0000 0.0000 0.0000
# 2 0.4050 96.1487 3.1133 0.0000 0.0000 0.0000
# 3 7.1728 3.1133 139.3541 0.0000 0.0000 0.0000
# 4 0.0000 0.0000 0.0000 31.0164 0.0000 0.0000
# 5 0.0000 0.0000 0.0000 0.0000 12.7579 0.0000
# 6 0.0000 0.0000 0.0000 0.0000 0.0000 -118.8822
#
#
#
# Elastic Compliance Matrix: (Units=1/GPa)
#
#
# Indices 1 2 3 4 5 6 
#
# 1 0.022731 -0.000058 -0.001169 0.000000 0.000000 0.000000
# 2 -0.000058 0.010408 -0.000230 0.000000 0.000000 0.000000
# 3 -0.001169 -0.000230 0.007241 0.000000 0.000000 0.000000
# 4 0.000000 0.000000 0.000000 0.032241 0.000000 0.000000
# 5 0.000000 0.000000 0.000000 0.000000 0.078383 0.000000
# 6 0.000000 0.000000 0.000000 0.000000 0.000000 -0.008412
#
#
# Mechanical properties :
#
#
# Convention : Reuss Voigt Hill
#
# Bulk Modulus (GPa) = 26.68930 33.47194 30.08062
# Shear Modulus (GPa) = 31.64671 2.92339 17.28505
#
# Velocity S-wave (km/s) = 3.59408 1.09236 2.65619
# Velocity P-wave (km/s) = 5.30256 3.90556 4.65674
#
# Compressibility (1/GPa) = 0.03746820
#
# Stress axis : x y z
#
# Youngs Moduli (GPa) = 43.99271 96.07782 138.09778
#
# Poissons Ratio (x) = 0.00556 0.16140
# Poissons Ratio (y) = 0.00255 0.03170
# Poissons Ratio (z) = 0.05141 0.02205
#
# Static dielectric constant tensor:
#      x y z
#    x 2.055160 0.000000 0.000000 
#    y 0.000000 2.097840 0.000000 
#    z 0.000000 0.000000 2.030910 
# 
# From -- ./inp_files/6983.got.cif
#   From: 2010.05.17/outbox.cif.g08.bks.cpg/sg19_4_cif.got.tgz:6983.got - 2010.06.03 22:46:19.
