data_PCOD9313201
_publ_section_title
;
Structure prediction by ZEFSAII (Michael W. Deem and Ramdas Pophale) SiO2 
 PCOD9313201
Probable space group: P 21 21 2
;
_chemical_formula_sum "Si O2"
_cell_formula_units_Z 18
_cell_length_a 8.921090
_cell_length_b 7.962523
_cell_length_c 11.273478
_cell_angle_alpha 90.000000
_cell_angle_beta 90.000000
_cell_angle_gamma 90.000000
_cell_volume 800.804569
_symmetry_space_group_name_H-M "P 21 21 2"
_symmetry_group_IT_number 18
_symmetry_cell_setting 'orthorhombic'
loop_
_space_group_symop_operation_xyz
x,y,z
-x,-y,z
1/2+x,1/2-y,-z
1/2-x,1/2+y,-z
loop_
_atom_site_type_symbol
_atom_site_label
_atom_site_fract_x
_atom_site_fract_y
_atom_site_fract_z
Si Si1 0.000000 0.000000 0.232731
Si Si2 0.929069 0.672795 0.389313
Si Si3 0.047715 0.741833 0.890919
Si Si4 0.243506 0.427448 0.956277
Si Si5 0.925329 0.183235 0.621792
O O1 0.960671 0.837134 0.310311
O O2 0.139875 0.946278 0.151412
O O3 0.750851 0.658614 0.399879
O O4 0.000000 0.500000 0.340073
O O5 0.003421 0.708678 0.516630
O O6 0.139875 0.590409 0.950705
O O7 0.048246 0.732170 0.749447
O O8 0.879200 0.720828 0.938235
O O9 0.150912 0.897763 0.930304
O O10 0.000000 0.000000 0.623162
#
# Coordination Sequence:
#
# PCOD9313201 Si02
#       5
#     2   4   4   4   4
#     4  12  26  52  76 112 160 214 264 332 390 476
#     4  12  29  49  80 116 158 212 268 324 401 473
#     4  11  27  46  78 110 155 207 259 324 391 472
#     4  11  26  49  74 111 154 200 266 323 393 466
#     4  12  28  50  79 114 158 209 263 329 397 479
#
# _framework density 22.477392999999999
#
# number of rings (size 3 to 8) (size 9 to 14) (size 15 to 20)
#    0.000    0.444    3.333    2.667   14.000    0.000 
#    0.000    0.000    0.000    0.000    0.000    0.000 
#    0.000    0.000    0.000    0.000    0.000    0.000 
#
# Total GULP energy -100758.779875 kJ/mol
# GULP energy per Si atom -5597.709993 kJ/mol
# Density = 2.242623 g / cm^3
# Si number density = 22.477393 Si / 1000 Ang^3
#
#
#
# Elastic Constant Matrix: (Units=GPa)
#
#
# Indices 1 2 3 4 5 6 
#
# 1 211.0526 37.1031 40.3564 0.0000 0.0000 0.0000
# 2 37.1031 95.6629 -12.3708 0.0000 0.0000 0.0000
# 3 40.3564 -12.3708 64.7050 0.0000 0.0000 0.0000
# 4 0.0000 0.0000 0.0000 15.5920 0.0000 0.0000
# 5 0.0000 0.0000 0.0000 0.0000 21.5860 0.0000
# 6 0.0000 0.0000 0.0000 0.0000 0.0000 42.1501
#
#
#
# Elastic Compliance Matrix: (Units=1/GPa)
#
#
# Indices 1 2 3 4 5 6 
#
# 1 0.006084 -0.002923 -0.004354 0.000000 0.000000 0.000000
# 2 -0.002923 0.012122 0.004141 0.000000 0.000000 0.000000
# 3 -0.004354 0.004141 0.018962 0.000000 0.000000 0.000000
# 4 0.000000 0.000000 0.000000 0.064136 0.000000 0.000000
# 5 0.000000 0.000000 0.000000 0.000000 0.046326 0.000000
# 6 0.000000 0.000000 0.000000 0.000000 0.000000 0.023725
#
#
# Mechanical properties :
#
#
# Convention : Reuss Voigt Hill
#
# Bulk Modulus (GPa) = 32.36567 55.73308 44.04938
# Shear Modulus (GPa) = 26.60620 36.28774 31.44697
#
# Velocity S-wave (km/s) = 3.44421 4.02233 3.74444
# Velocity P-wave (km/s) = 5.49975 6.81331 6.19146
#
# Compressibility (1/GPa) = 0.03089694
#
# Stress axis : x y z
#
# Youngs Moduli (GPa) = 164.35217 82.49131 52.73760
#
# Poissons Ratio (x) = 0.24111 0.22960
# Poissons Ratio (y) = 0.48038 -0.21837
# Poissons Ratio (z) = 0.71554 -0.34157
#
# Static dielectric constant tensor:
#      x y z
#    x 1.760780 0.000000 0.000000 
#    y 0.000000 1.926690 0.000000 
#    z 0.000000 0.000000 1.796710 
# 
# From -- ./inp_files/5357.got.cif
#   From: 2010.05.17/outbox.cif.g08.bks.cpg/sg18_3_cif.got.tgz:5357.got - 2010.06.03 22:40:56.
