data_PCOD9313654
_publ_section_title
;
Structure prediction by ZEFSAII (Michael W. Deem and Ramdas Pophale) SiO2 
 PCOD9313654
Probable space group: P 21 21 21
;
_chemical_formula_sum "Si O2"
_cell_formula_units_Z 28
_cell_length_a 12.150881
_cell_length_b 11.374042
_cell_length_c 9.706317
_cell_angle_alpha 90.000000
_cell_angle_beta 90.000000
_cell_angle_gamma 90.000000
_cell_volume 1341.457958
_symmetry_space_group_name_H-M "P 21 21 21"
_symmetry_group_IT_number 19
_symmetry_cell_setting 'orthorhombic'
loop_
_space_group_symop_operation_xyz
x,y,z
1/2-x,-y,1/2+z
1/2+x,1/2-y,-z
-x,1/2+y,1/2-z
loop_
_atom_site_type_symbol
_atom_site_label
_atom_site_fract_x
_atom_site_fract_y
_atom_site_fract_z
Si Si1 0.211041 0.576503 0.157083
Si Si2 0.957528 0.956971 0.948283
Si Si3 0.583183 0.157513 0.901537
Si Si4 0.926209 0.218308 0.560567
Si Si5 0.538145 0.517451 0.359358
Si Si6 0.199508 0.789658 0.658326
Si Si7 0.902327 0.170754 0.100509
O O1 0.329411 0.553057 0.093373
O O2 0.140849 0.456075 0.165232
O O3 0.201259 0.635227 0.306685
O O4 0.150722 0.665203 0.055479
O O5 0.012789 0.986697 0.802281
O O6 0.007729 0.832044 0.986979
O O7 0.971633 0.053655 0.066637
O O8 0.675435 0.258298 0.878779
O O9 0.474255 0.221094 0.842908
O O10 0.543504 0.104671 0.051590
O O11 0.849169 0.250894 0.692780
O O12 0.013415 0.113919 0.591252
O O13 0.658009 0.577540 0.371318
O O14 0.135151 0.710048 0.549312
#
# Coordination Sequence:
#
# PCOD9313654 Si02
#       7
#     4   4   4   4   4   4   4
#     4  11  24  38  63  86 121 160 196 242 306 353
#     4  11  22  39  65  86 122 159 204 239 297 364
#     4  10  21  38  64  85 123 152 200 248 297 351
#     4  10  22  39  59  90 121 153 199 247 292 355
#     4   9  19  38  59  91 114 158 199 248 287 356
#     4  10  19  37  64  84 115 158 198 237 298 355
#     4  11  23  37  62  92 116 154 202 247 291 352
#
# _framework density 20.872812
#
# number of rings (size 3 to 8) (size 9 to 14) (size 15 to 20)
#    0.000    1.714    2.857    0.857    6.000    0.000 
#    2.571    0.000    6.286    0.000    0.000    0.000 
#    0.000    0.000    0.000    0.000    0.000    0.000 
#
# Total GULP energy -155996.868389 kJ/mol
# GULP energy per Si atom -5571.316728 kJ/mol
# Density = 2.082530 g / cm^3
# Si number density = 20.872812 Si / 1000 Ang^3
#
#
#
# Elastic Constant Matrix: (Units=GPa)
#
#
# Indices 1 2 3 4 5 6 
#
# 1 39.8183 4.5624 -12.4827 0.0000 0.0000 0.0000
# 2 4.5624 46.4814 3.4054 0.0000 0.0000 0.0000
# 3 -12.4827 3.4054 35.4270 0.0000 0.0000 0.0000
# 4 0.0000 0.0000 0.0000 13.5668 0.0000 0.0000
# 5 0.0000 0.0000 0.0000 0.0000 13.9130 0.0000
# 6 0.0000 0.0000 0.0000 0.0000 0.0000 29.9749
#
#
#
# Elastic Compliance Matrix: (Units=1/GPa)
#
#
# Indices 1 2 3 4 5 6 
#
# 1 0.028818 -0.003598 0.010500 0.000000 0.000000 0.000000
# 2 -0.003598 0.022116 -0.003394 0.000000 0.000000 0.000000
# 3 0.010500 -0.003394 0.032253 0.000000 0.000000 0.000000
# 4 0.000000 0.000000 0.000000 0.073709 0.000000 0.000000
# 5 0.000000 0.000000 0.000000 0.000000 0.071875 0.000000
# 6 0.000000 0.000000 0.000000 0.000000 0.000000 0.033361
#
#
# Mechanical properties :
#
#
# Convention : Reuss Voigt Hill
#
# Bulk Modulus (GPa) = 11.08608 12.52187 11.80398
# Shear Modulus (GPa) = 17.53258 19.90705 18.71982
#
# Velocity S-wave (km/s) = 2.90137 3.09160 2.99800
# Velocity P-wave (km/s) = 4.06777 4.33084 4.20136
#
# Compressibility (1/GPa) = 0.09020324
#
# Stress axis : x y z
#
# Youngs Moduli (GPa) = 34.70069 45.21664 31.00503
#
# Poissons Ratio (x) = 0.16268 -0.32555
# Poissons Ratio (y) = 0.12485 0.10522
# Poissons Ratio (z) = -0.36435 0.15344
#
# Static dielectric constant tensor:
#      x y z
#    x 1.775620 0.000000 0.000000 
#    y 0.000000 1.814430 0.000000 
#    z 0.000000 0.000000 1.737590 
# 
# From -- ./inp_files/3469.got.cif
#   From: 2010.05.17/outbox.cif.g08.bks.cpg/sg19_2_cif.got.tgz:3469.got - 2010.06.03 22:46:19.
