data_PCOD9313307
_publ_section_title
;
Structure prediction by ZEFSAII (Michael W. Deem and Ramdas Pophale) SiO2 
 PCOD9313307
Probable space group: P 21 21 21
;
_chemical_formula_sum "Si O2"
_cell_formula_units_Z 20
_cell_length_a 4.968938
_cell_length_b 20.734975
_cell_length_c 7.261261
_cell_angle_alpha 90.000000
_cell_angle_beta 90.000000
_cell_angle_gamma 90.000000
_cell_volume 748.133568
_symmetry_space_group_name_H-M "P 21 21 21"
_symmetry_group_IT_number 19
_symmetry_cell_setting 'orthorhombic'
loop_
_space_group_symop_operation_xyz
x,y,z
1/2-x,-y,1/2+z
1/2+x,1/2-y,-z
-x,1/2+y,1/2-z
loop_
_atom_site_type_symbol
_atom_site_label
_atom_site_fract_x
_atom_site_fract_y
_atom_site_fract_z
Si Si1 0.085301 0.923987 0.270218
Si Si2 0.614602 0.991015 0.117686
Si Si3 0.642500 0.274416 0.605225
Si Si4 0.667656 0.670537 0.450203
Si Si5 0.647321 0.882147 0.738058
O O1 0.114171 0.849999 0.339725
O O2 0.982602 0.964158 0.448849
O O3 0.357669 0.955376 0.199590
O O4 0.854770 0.938365 0.120764
O O5 0.731901 0.047777 0.248600
O O6 0.919541 0.268264 0.495993
O O7 0.701404 0.270453 0.829485
O O8 0.505743 0.345754 0.597468
O O9 0.388608 0.660815 0.342385
O O10 0.901077 0.617402 0.406578
#
# Coordination Sequence:
#
# PCOD9313307 Si02
#       5
#     4   4   4   4   4
#     4  11  21  34  52  74 106 151 179 211 259 309
#     4  11  21  34  52  74 106 151 179 211 259 309
#     4  10  16  26  46  70 100 136 166 212 278 316
#     4   9  17  29  44  67 102 134 166 211 260 303
#     4   9  17  29  44  67 102 134 166 211 260 303
#
# _framework density 26.733194000000001
#
# number of rings (size 3 to 8) (size 9 to 14) (size 15 to 20)
#    1.200    0.800    2.000    6.000    0.000    0.000 
#    0.000    0.000    0.000    0.000    0.000    0.000 
#    0.000    9.600   17.600    0.000    0.000    0.000 
#
# Total GULP energy -111395.329350 kJ/mol
# GULP energy per Si atom -5569.766467 kJ/mol
# Density = 2.667235 g / cm^3
# Si number density = 26.733194 Si / 1000 Ang^3
#
#
#
# Elastic Constant Matrix: (Units=GPa)
#
#
# Indices 1 2 3 4 5 6 
#
# 1 150.9996 4.6238 -2.9573 0.0000 0.0000 0.0000
# 2 4.6238 44.0389 33.0811 0.0000 0.0000 0.0000
# 3 -2.9573 33.0811 42.6648 0.0000 0.0000 0.0000
# 4 0.0000 0.0000 0.0000 38.7158 0.0000 0.0000
# 5 0.0000 0.0000 0.0000 0.0000 13.6193 0.0000
# 6 0.0000 0.0000 0.0000 0.0000 0.0000 39.4962
#
#
#
# Elastic Compliance Matrix: (Units=1/GPa)
#
#
# Indices 1 2 3 4 5 6 
#
# 1 0.006748 -0.002538 0.002436 0.000000 0.000000 0.000000
# 2 -0.002538 0.055336 -0.043082 0.000000 0.000000 0.000000
# 3 0.002436 -0.043082 0.057012 0.000000 0.000000 0.000000
# 4 0.000000 0.000000 0.000000 0.025829 0.000000 0.000000
# 5 0.000000 0.000000 0.000000 0.000000 0.073425 0.000000
# 6 0.000000 0.000000 0.000000 0.000000 0.000000 0.025319
#
#
# Mechanical properties :
#
#
# Convention : Reuss Voigt Hill
#
# Bulk Modulus (GPa) = 30.55567 34.13317 32.34442
# Shear Modulus (GPa) = 14.66504 31.89663 23.28084
#
# Velocity S-wave (km/s) = 2.34470 3.45794 2.95423
# Velocity P-wave (km/s) = 4.33415 5.36087 4.87462
#
# Compressibility (1/GPa) = 0.03272715
#
# Stress axis : x y z
#
# Youngs Moduli (GPa) = 148.19294 18.07145 17.54018
#
# Poissons Ratio (x) = 0.04587 -0.04272
# Poissons Ratio (y) = 0.37614 0.75566
# Poissons Ratio (z) = -0.36097 0.77855
#
# Static dielectric constant tensor:
#      x y z
#    x 2.020590 0.000000 0.000000 
#    y 0.000000 2.203810 0.000000 
#    z 0.000000 0.000000 2.199250 
# 
# From -- ./inp_files/2448.got.cif
#   From: 2010.05.17/outbox.cif.g08.bks.cpg/sg19_2_cif.got.tgz:2448.got - 2010.06.03 22:46:19.
