data_PCOD9313095
_publ_section_title
;
Structure prediction by ZEFSAII (Michael W. Deem and Ramdas Pophale) SiO2 
 PCOD9313095
Probable space group: P 21 21 2
;
_chemical_formula_sum "Si O2"
_cell_formula_units_Z 24
_cell_length_a 11.688568
_cell_length_b 7.423717
_cell_length_c 11.979976
_cell_angle_alpha 90.000000
_cell_angle_beta 90.000000
_cell_angle_gamma 90.000000
_cell_volume 1039.533917
_symmetry_space_group_name_H-M "P 21 21 2"
_symmetry_group_IT_number 18
_symmetry_cell_setting 'orthorhombic'
loop_
_space_group_symop_operation_xyz
x,y,z
-x,-y,z
1/2+x,1/2-y,-z
1/2-x,1/2+y,-z
loop_
_atom_site_type_symbol
_atom_site_label
_atom_site_fract_x
_atom_site_fract_y
_atom_site_fract_z
Si Si1 0.457877 0.815144 0.866020
Si Si2 0.791176 0.140577 0.769467
Si Si3 0.496065 0.298489 0.098227
Si Si4 0.838589 0.714208 0.722695
Si Si5 0.407051 0.340638 0.671070
Si Si6 0.541907 0.709200 0.426863
O O1 0.338853 0.819958 0.801451
O O2 0.553039 0.777235 0.774398
O O3 0.500000 0.000000 0.921842
O O4 0.462392 0.686451 0.972165
O O5 0.854227 0.223150 0.660869
O O6 0.863293 0.228949 0.873279
O O7 0.798684 0.923705 0.743453
O O8 0.500000 0.500000 0.150892
O O9 0.584921 0.177778 0.167635
O O10 0.723665 0.606717 0.695792
O O11 0.929235 0.695194 0.621890
O O12 0.500000 0.500000 0.670445
O O13 0.418262 0.244752 0.551216
O O14 0.500000 0.500000 0.428979
#
# Coordination Sequence:
#
# PCOD9313095 Si02
#       6
#     4   4   4   4   4   4
#     4  12  24  37  58  91 124 157 206 258 310 363
#     4   9  19  39  63  86 120 159 203 251 309 370
#     4   9  21  40  64  85 113 167 206 252 312 362
#     4   9  18  40  64  85 121 159 208 249 307 381
#     4  11  23  38  59  93 123 157 205 254 310 366
#     4   8  18  37  64  88 116 167 205 248 308 365
#
# _framework density 23.08727
#
# number of rings (size 3 to 8) (size 9 to 14) (size 15 to 20)
#    0.000    2.333    1.667    2.500    4.667    0.000 
#    3.000    0.000    0.000    0.000    0.000    0.000 
#    0.000    0.000    0.000    0.000    0.000    0.000 
#
# Total GULP energy -133762.246172 kJ/mol
# GULP energy per Si atom -5573.426924 kJ/mol
# Density = 2.303472 g / cm^3
# Si number density = 23.087270 Si / 1000 Ang^3
#
#
#
# Elastic Constant Matrix: (Units=GPa)
#
#
# Indices 1 2 3 4 5 6 
#
# 1 167.9391 20.5843 45.9447 0.0000 0.0000 0.0000
# 2 20.5843 37.3646 -8.3431 0.0000 0.0000 0.0000
# 3 45.9447 -8.3431 112.2319 0.0000 0.0000 0.0000
# 4 0.0000 0.0000 0.0000 -4.8831 0.0000 0.0000
# 5 0.0000 0.0000 0.0000 0.0000 15.2187 0.0000
# 6 0.0000 0.0000 0.0000 0.0000 0.0000 33.0769
#
#
#
# Elastic Compliance Matrix: (Units=1/GPa)
#
#
# Indices 1 2 3 4 5 6 
#
# 1 0.007493 -0.004894 -0.003431 0.000000 0.000000 0.000000
# 2 -0.004894 0.030412 0.004264 0.000000 0.000000 0.000000
# 3 -0.003431 0.004264 0.010632 0.000000 0.000000 0.000000
# 4 0.000000 0.000000 0.000000 -0.204788 0.000000 0.000000
# 5 0.000000 0.000000 0.000000 0.000000 0.065709 0.000000
# 6 0.000000 0.000000 0.000000 0.000000 0.000000 0.030233
#
#
# Mechanical properties :
#
#
# Convention : Reuss Voigt Hill
#
# Bulk Modulus (GPa) = 24.74379 48.21195 36.47787
# Shear Modulus (GPa) = -129.14590 25.97247 -51.58671
#
# Velocity S-wave (km/s) = -7.48729 3.35770 -4.73210
# Velocity P-wave (km/s) = 8.00033 5.99666 3.74469
#
# Compressibility (1/GPa) = 0.04041417
#
# Stress axis : x y z
#
# Youngs Moduli (GPa) = 133.45511 32.88213 94.05744
#
# Poissons Ratio (x) = 0.16093 0.32274
# Poissons Ratio (y) = 0.65315 -0.40109
# Poissons Ratio (z) = 0.45793 -0.14022
#
# Static dielectric constant tensor:
#      x y z
#    x 1.881810 0.000000 0.000000 
#    y 0.000000 2.132780 0.000000 
#    z 0.000000 0.000000 1.838520 
# 
# From -- ./inp_files/5516.got.cif
#   From: 2010.05.17/outbox.cif.g08.bks.cpg/sg18_3_cif.got.tgz:5516.got - 2010.06.03 22:40:56.
