data_PCOD9313426
_publ_section_title
;
Structure prediction by ZEFSAII (Michael W. Deem and Ramdas Pophale) SiO2 
 PCOD9313426
Probable space group: P 21 21 21
;
_chemical_formula_sum "Si O2"
_cell_formula_units_Z 28
_cell_length_a 11.117623
_cell_length_b 14.596775
_cell_length_c 6.579484
_cell_angle_alpha 90.000000
_cell_angle_beta 90.000000
_cell_angle_gamma 90.000000
_cell_volume 1067.728148
_symmetry_space_group_name_H-M "P 21 21 21"
_symmetry_group_IT_number 19
_symmetry_cell_setting 'orthorhombic'
loop_
_space_group_symop_operation_xyz
x,y,z
1/2-x,-y,1/2+z
1/2+x,1/2-y,-z
-x,1/2+y,1/2-z
loop_
_atom_site_type_symbol
_atom_site_label
_atom_site_fract_x
_atom_site_fract_y
_atom_site_fract_z
Si Si1 0.865258 0.391848 0.918645
Si Si2 0.141873 0.530258 0.598419
Si Si3 0.179196 0.628994 0.991670
Si Si4 0.820252 0.578378 0.084010
Si Si5 0.444496 0.084123 0.513600
Si Si6 0.257396 0.717391 0.590362
Si Si7 0.481232 0.768790 0.788358
O O1 0.884928 0.480906 0.054239
O O2 0.738048 0.413066 0.806550
O O3 0.954829 0.390727 0.728083
O O4 0.836396 0.291143 0.000953
O O5 0.111865 0.562746 0.827471
O O6 0.216922 0.436957 0.576010
O O7 0.228403 0.613581 0.526784
O O8 0.020011 0.510016 0.473418
O O9 0.224415 0.707329 0.833356
O O10 0.104725 0.676802 0.168501
O O11 0.698541 0.584129 0.951698
O O12 0.903256 0.665731 0.059956
O O13 0.501902 0.165335 0.638379
O O14 0.395113 0.753037 0.589995
#
# Coordination Sequence:
#
# PCOD9313426 Si02
#       7
#     4   4   4   4   4   4   4
#     4   9  18  37  55  84 114 151 194 247 296 362
#     4  10  20  38  60  90 118 159 206 247 302 363
#     4  10  20  36  63  85 120 157 200 250 297 359
#     4   9  21  34  59  85 115 154 201 248 299 364
#     4  10  18  33  63  82 115 156 199 245 297 363
#     4   9  20  36  59  84 120 153 203 239 294 370
#     4  11  17  38  61  86 112 162 201 236 297 375
#
# _framework density 26.223904999999998
#
# number of rings (size 3 to 8) (size 9 to 14) (size 15 to 20)
#    1.714    0.571    2.857    0.857    0.000    0.000 
#   10.286    1.429    3.143    0.000    0.000    0.000 
#    0.000    0.000    0.000    0.000    0.000    0.000 
#
# Total GULP energy -155924.930285 kJ/mol
# GULP energy per Si atom -5568.747510 kJ/mol
# Density = 2.616422 g / cm^3
# Si number density = 26.223905 Si / 1000 Ang^3
#
#
#
# Elastic Constant Matrix: (Units=GPa)
#
#
# Indices 1 2 3 4 5 6 
#
# 1 70.1832 23.6064 8.6745 0.0000 0.0000 0.0000
# 2 23.6064 131.6816 19.1446 0.0000 0.0000 0.0000
# 3 8.6745 19.1446 62.6298 0.0000 0.0000 0.0000
# 4 0.0000 0.0000 0.0000 51.4813 0.0000 0.0000
# 5 0.0000 0.0000 0.0000 0.0000 16.8198 0.0000
# 6 0.0000 0.0000 0.0000 0.0000 0.0000 51.0320
#
#
#
# Elastic Compliance Matrix: (Units=1/GPa)
#
#
# Indices 1 2 3 4 5 6 
#
# 1 0.015269 -0.002543 -0.001338 0.000000 0.000000 0.000000
# 2 -0.002543 0.008371 -0.002207 0.000000 0.000000 0.000000
# 3 -0.001338 -0.002207 0.016827 0.000000 0.000000 0.000000
# 4 0.000000 0.000000 0.000000 0.019425 0.000000 0.000000
# 5 0.000000 0.000000 0.000000 0.000000 0.059454 0.000000
# 6 0.000000 0.000000 0.000000 0.000000 0.000000 0.019596
#
#
# Mechanical properties :
#
#
# Convention : Reuss Voigt Hill
#
# Bulk Modulus (GPa) = 35.34501 40.81616 38.08058
# Shear Modulus (GPa) = 31.14397 38.07122 34.60759
#
# Velocity S-wave (km/s) = 3.44992 3.81435 3.63670
# Velocity P-wave (km/s) = 5.42003 5.91585 5.67336
#
# Compressibility (1/GPa) = 0.02829254
#
# Stress axis : x y z
#
# Youngs Moduli (GPa) = 65.49203 119.46401 59.42971
#
# Poissons Ratio (x) = 0.30377 0.07949
# Poissons Ratio (y) = 0.16653 0.13114
# Poissons Ratio (z) = 0.08760 0.26360
#
# Static dielectric constant tensor:
#      x y z
#    x 2.116420 0.000000 0.000000 
#    y 0.000000 2.047720 0.000000 
#    z 0.000000 0.000000 2.090040 
# 
# From -- ./inp_files/5017.got.cif
#   From: 2010.05.17/outbox.cif.g08.bks.cpg/sg19_3_cif.got.tgz:5017.got - 2010.06.03 22:46:19.
