data_PCOD9313899
_publ_section_title
;
Structure prediction by ZEFSAII (Michael W. Deem and Ramdas Pophale) SiO2 
 PCOD9313899
Probable space group: P 21 21 21
;
_chemical_formula_sum "Si O2"
_cell_formula_units_Z 32
_cell_length_a 11.951204
_cell_length_b 7.278572
_cell_length_c 14.965160
_cell_angle_alpha 90.000000
_cell_angle_beta 90.000000
_cell_angle_gamma 90.000000
_cell_volume 1301.784831
_symmetry_space_group_name_H-M "P 21 21 21"
_symmetry_group_IT_number 19
_symmetry_cell_setting 'orthorhombic'
loop_
_space_group_symop_operation_xyz
x,y,z
1/2-x,-y,1/2+z
1/2+x,1/2-y,-z
-x,1/2+y,1/2-z
loop_
_atom_site_type_symbol
_atom_site_label
_atom_site_fract_x
_atom_site_fract_y
_atom_site_fract_z
Si Si1 0.332042 0.150704 0.302043
Si Si2 0.528370 0.786992 0.593768
Si Si3 0.050709 0.958354 0.565688
Si Si4 0.332261 0.612938 0.909093
Si Si5 0.271807 0.561672 0.113229
Si Si6 0.023738 0.618327 0.109974
Si Si7 0.962602 0.010055 0.763094
Si Si8 0.215578 0.123780 0.129269
O O1 0.275224 0.278153 0.374561
O O2 0.424453 0.998365 0.322401
O O3 0.409478 0.289153 0.244369
O O4 0.239701 0.081086 0.232806
O O5 0.536940 0.730931 0.489257
O O6 0.513424 0.587822 0.640765
O O7 0.413413 0.898959 0.605099
O O8 0.636586 0.905310 0.619933
O O9 0.185083 0.980104 0.576458
O O10 0.991596 0.972480 0.659983
O O11 0.992319 0.098933 0.497615
O O12 0.433683 0.730312 0.867183
O O13 0.320360 0.605168 0.015795
O O14 0.365433 0.603395 0.187391
O O15 0.239320 0.343308 0.114418
O O16 0.152160 0.655366 0.131416
#
# Coordination Sequence:
#
# PCOD9313899 Si02
#       8
#     4   4   4   4   4   4   4   4
#     4  10  24  43  65  95 130 172 223 273 328 396
#     4   9  21  40  65  92 130 174 213 274 335 393
#     4   9  18  38  64  90 123 173 220 263 327 388
#     4  12  23  41  67 101 128 173 218 272 338 392
#     4  10  20  37  63  92 131 167 219 277 321 392
#     4   9  22  40  62  98 132 167 222 271 325 401
#     4  10  22  41  66  91 130 177 212 278 325 378
#     4   9  18  42  62  87 130 167 221 272 321 398
#
# _framework density 24.581634000000001
#
# number of rings (size 3 to 8) (size 9 to 14) (size 15 to 20)
#    0.750    1.500    1.250    0.750    3.500    1.000 
#   11.250    0.000    0.000    0.000    0.000    0.000 
#    0.000    0.000    0.000    0.000    0.000    0.000 
#
# Total GULP energy -178507.644104 kJ/mol
# GULP energy per Si atom -5578.363878 kJ/mol
# Density = 2.452568 g / cm^3
# Si number density = 24.581634 Si / 1000 Ang^3
#
#
#
# Elastic Constant Matrix: (Units=GPa)
#
#
# Indices 1 2 3 4 5 6 
#
# 1 71.3853 12.2358 9.0583 0.0000 0.0000 0.0000
# 2 12.2358 43.9955 1.4597 0.0000 0.0000 0.0000
# 3 9.0583 1.4597 26.8236 0.0000 0.0000 0.0000
# 4 0.0000 0.0000 0.0000 13.4916 0.0000 0.0000
# 5 0.0000 0.0000 0.0000 0.0000 33.9946 0.0000
# 6 0.0000 0.0000 0.0000 0.0000 0.0000 42.6447
#
#
#
# Elastic Compliance Matrix: (Units=1/GPa)
#
#
# Indices 1 2 3 4 5 6 
#
# 1 0.015341 -0.004102 -0.004957 0.000000 0.000000 0.000000
# 2 -0.004102 0.023868 0.000086 0.000000 0.000000 0.000000
# 3 -0.004957 0.000086 0.038950 0.000000 0.000000 0.000000
# 4 0.000000 0.000000 0.000000 0.074120 0.000000 0.000000
# 5 0.000000 0.000000 0.000000 0.000000 0.029416 0.000000
# 6 0.000000 0.000000 0.000000 0.000000 0.000000 0.023450
#
#
# Mechanical properties :
#
#
# Convention : Reuss Voigt Hill
#
# Bulk Modulus (GPa) = 16.60788 20.85689 18.73239
# Shear Modulus (GPa) = 20.56251 25.98955 23.27603
#
# Velocity S-wave (km/s) = 2.89537 3.25510 3.08049
# Velocity P-wave (km/s) = 4.23656 4.75718 4.50440
#
# Compressibility (1/GPa) = 0.06021239
#
# Stress axis : x y z
#
# Youngs Moduli (GPa) = 65.18638 41.89790 25.67399
#
# Poissons Ratio (x) = 0.17186 0.12727
# Poissons Ratio (y) = 0.26739 -0.00222
# Poissons Ratio (z) = 0.32315 -0.00362
#
# Static dielectric constant tensor:
#      x y z
#    x 2.069920 0.000000 0.000000 
#    y 0.000000 2.156920 0.000000 
#    z 0.000000 0.000000 1.944730 
# 
# From -- ./inp_files/6180.got.cif
#   From: 2010.05.17/outbox.cif.g08.bks.cpg/sg19_4_cif.got.tgz:6180.got - 2010.06.03 22:46:19.
