data_PCOD9313756
_publ_section_title
;
Structure prediction by ZEFSAII (Michael W. Deem and Ramdas Pophale) SiO2 
 PCOD9313756
Probable space group: P 21 21 21
;
_chemical_formula_sum "Si O2"
_cell_formula_units_Z 32
_cell_length_a 13.614193
_cell_length_b 8.038223
_cell_length_c 12.322953
_cell_angle_alpha 90.000000
_cell_angle_beta 90.000000
_cell_angle_gamma 90.000000
_cell_volume 1348.549044
_symmetry_space_group_name_H-M "P 21 21 21"
_symmetry_group_IT_number 19
_symmetry_cell_setting 'orthorhombic'
loop_
_space_group_symop_operation_xyz
x,y,z
1/2-x,-y,1/2+z
1/2+x,1/2-y,-z
-x,1/2+y,1/2-z
loop_
_atom_site_type_symbol
_atom_site_label
_atom_site_fract_x
_atom_site_fract_y
_atom_site_fract_z
Si Si1 0.435725 0.353354 0.997177
Si Si2 0.108826 0.896335 0.962879
Si Si3 0.104158 0.951250 0.622842
Si Si4 0.326950 0.921138 0.901196
Si Si5 0.681272 0.042880 0.683974
Si Si6 0.608996 0.153273 0.903088
Si Si7 0.890720 0.032332 0.629367
Si Si8 0.816441 0.490605 0.324695
O O1 0.513919 0.486684 0.043715
O O2 0.362055 0.431526 0.911552
O O3 0.502330 0.225968 0.928593
O O4 0.386162 0.242711 0.090429
O O5 0.097437 0.726886 0.897838
O O6 0.130972 0.868299 0.091244
O O7 0.214300 0.972418 0.927602
O O8 0.198577 0.020768 0.684612
O O9 0.110215 0.050848 0.508417
O O10 0.996143 0.971648 0.671501
O O11 0.324816 0.729346 0.865441
O O12 0.360310 0.017393 0.794399
O O13 0.622895 0.041053 0.796825
O O14 0.795927 0.004594 0.703409
O O15 0.666634 0.324202 0.874376
O O16 0.634258 0.059626 0.014883
#
# Coordination Sequence:
#
# PCOD9313756 Si02
#       8
#     4   4   4   4   4   4   4   4
#     4  10  20  33  54  79 107 141 177 221 268 314
#     4   9  19  34  52  76 107 138 176 219 263 316
#     4  10  20  35  56  79 107 141 176 219 268 322
#     4   9  19  36  56  77 104 139 179 219 265 315
#     4  10  20  35  55  79 109 142 178 224 268 315
#     4   9  20  34  53  80 106 138 179 221 265 312
#     4  10  20  35  54  80 110 142 178 217 265 322
#     4   9  18  36  56  76 104 139 177 224 270 314
#
# _framework density 23.729208
#
# number of rings (size 3 to 8) (size 9 to 14) (size 15 to 20)
#    0.000    2.500    0.000    1.500    0.000    9.000 
#    0.000    5.000    0.000    1.500    0.000    0.000 
#    0.000    0.000    0.000    0.000    0.000    0.000 
#
# Total GULP energy -178767.511056 kJ/mol
# GULP energy per Si atom -5586.484721 kJ/mol
# Density = 2.367520 g / cm^3
# Si number density = 23.729208 Si / 1000 Ang^3
#
#
#
# Elastic Constant Matrix: (Units=GPa)
#
#
# Indices 1 2 3 4 5 6 
#
# 1 83.1750 9.0210 5.0598 0.0000 0.0000 0.0000
# 2 9.0210 36.2141 9.0210 0.0000 0.0000 0.0000
# 3 5.0598 9.0210 45.9593 0.0000 0.0000 0.0000
# 4 0.0000 0.0000 0.0000 8.7106 0.0000 0.0000
# 5 0.0000 0.0000 0.0000 0.0000 12.8520 0.0000
# 6 0.0000 0.0000 0.0000 0.0000 0.0000 20.6168
#
#
#
# Elastic Compliance Matrix: (Units=1/GPa)
#
#
# Indices 1 2 3 4 5 6 
#
# 1 0.012384 -0.002886 -0.000797 0.000000 0.000000 0.000000
# 2 -0.002886 0.029706 -0.005513 0.000000 0.000000 0.000000
# 3 -0.000797 -0.005513 0.022928 0.000000 0.000000 0.000000
# 4 0.000000 0.000000 0.000000 0.114802 0.000000 0.000000
# 5 0.000000 0.000000 0.000000 0.000000 0.077809 0.000000
# 6 0.000000 0.000000 0.000000 0.000000 0.000000 0.048504
#
#
# Mechanical properties :
#
#
# Convention : Reuss Voigt Hill
#
# Bulk Modulus (GPa) = 21.44734 23.50579 22.47657
# Shear Modulus (GPa) = 14.70292 17.91898 16.31095
#
# Velocity S-wave (km/s) = 2.49190 2.75097 2.62464
# Velocity P-wave (km/s) = 4.16382 4.47413 4.32176
#
# Compressibility (1/GPa) = 0.04662583
#
# Stress axis : x y z
#
# Youngs Moduli (GPa) = 80.74683 33.66335 43.61440
#
# Poissons Ratio (x) = 0.09717 0.03476
# Poissons Ratio (y) = 0.23307 0.24044
# Poissons Ratio (z) = 0.06435 0.18558
#
# Static dielectric constant tensor:
#      x y z
#    x 1.908310 0.000000 0.000000 
#    y 0.000000 1.925300 0.000000 
#    z 0.000000 0.000000 1.922700 
# 
# From -- ./inp_files/3957.got.cif
#   From: 2010.05.17/outbox.cif.g08.bks.cpg/sg19_2_cif.got.tgz:3957.got - 2010.06.03 22:46:19.
