data_PCOD9313771
_publ_section_title
;
Structure prediction by ZEFSAII (Michael W. Deem and Ramdas Pophale) SiO2 
 PCOD9313771
Probable space group: P 21 21 21
;
_chemical_formula_sum "Si O2"
_cell_formula_units_Z 32
_cell_length_a 15.643401
_cell_length_b 8.646314
_cell_length_c 11.972937
_cell_angle_alpha 90.000000
_cell_angle_beta 90.000000
_cell_angle_gamma 90.000000
_cell_volume 1619.432604
_symmetry_space_group_name_H-M "P 21 21 21"
_symmetry_group_IT_number 19
_symmetry_cell_setting 'orthorhombic'
loop_
_space_group_symop_operation_xyz
x,y,z
1/2-x,-y,1/2+z
1/2+x,1/2-y,-z
-x,1/2+y,1/2-z
loop_
_atom_site_type_symbol
_atom_site_label
_atom_site_fract_x
_atom_site_fract_y
_atom_site_fract_z
Si Si1 0.119023 0.573607 0.960954
Si Si2 0.792907 0.219328 0.218988
Si Si3 0.167616 0.062258 0.889711
Si Si4 0.597878 0.624593 0.902978
Si Si5 0.008438 0.277644 0.908342
Si Si6 0.714616 0.999767 0.397901
Si Si7 0.654338 0.729323 0.257548
Si Si8 0.425016 0.449658 0.928143
O O1 0.055806 0.433778 0.939809
O O2 0.141521 0.653142 0.844457
O O3 0.082406 0.710020 0.038142
O O4 0.204704 0.515467 0.021086
O O5 0.741635 0.311344 0.123928
O O6 0.847884 0.338617 0.293213
O O7 0.728687 0.127358 0.301307
O O8 0.857598 0.095638 0.166166
O O9 0.185079 0.930028 0.797302
O O10 0.078438 0.151806 0.868697
O O11 0.153008 0.978022 0.008729
O O12 0.506055 0.545959 0.886377
O O13 0.936377 0.301461 0.815898
O O14 0.963297 0.205674 0.017167
O O15 0.709922 0.827946 0.345191
O O16 0.628575 0.026321 0.469947
#
# Coordination Sequence:
#
# PCOD9313771 Si02
#       8
#     4   4   4   4   4   4   4   4
#     4  10  20  38  58  83 116 153 197 248 296 355
#     4  11  23  40  63  87 116 160 198 241 304 359
#     4  10  21  37  58  87 122 153 196 250 292 355
#     4   9  23  42  59  87 122 155 198 248 298 356
#     4  10  20  34  58  85 115 154 196 243 298 354
#     4  10  21  37  59  84 114 155 200 241 297 356
#     4  10  20  34  55  85 116 155 198 246 298 350
#     4  10  22  40  58  84 119 153 195 247 295 355
#
# _framework density 19.760007999999999
#
# number of rings (size 3 to 8) (size 9 to 14) (size 15 to 20)
#    0.000    2.000    0.000    3.000    0.000   11.000 
#    0.000    7.500    0.000    0.000    0.000    0.000 
#    0.000    0.000    0.000    0.000    0.000    0.000 
#
# Total GULP energy -178695.927157 kJ/mol
# GULP energy per Si atom -5584.247724 kJ/mol
# Density = 1.971503 g / cm^3
# Si number density = 19.760008 Si / 1000 Ang^3
#
#
#
# Elastic Constant Matrix: (Units=GPa)
#
#
# Indices 1 2 3 4 5 6 
#
# 1 60.6728 32.9563 13.0764 0.0000 0.0000 0.0000
# 2 32.9563 72.6576 8.6907 0.0000 0.0000 0.0000
# 3 13.0764 8.6907 20.0614 0.0000 0.0000 0.0000
# 4 0.0000 0.0000 0.0000 20.0158 0.0000 0.0000
# 5 0.0000 0.0000 0.0000 0.0000 36.1189 0.0000
# 6 0.0000 0.0000 0.0000 0.0000 0.0000 32.9487
#
#
#
# Elastic Compliance Matrix: (Units=1/GPa)
#
#
# Indices 1 2 3 4 5 6 
#
# 1 0.024191 -0.009583 -0.011617 0.000000 0.000000 0.000000
# 2 -0.009583 0.018312 -0.001686 0.000000 0.000000 0.000000
# 3 -0.011617 -0.001686 0.058150 0.000000 0.000000 0.000000
# 4 0.000000 0.000000 0.000000 0.049960 0.000000 0.000000
# 5 0.000000 0.000000 0.000000 0.000000 0.027686 0.000000
# 6 0.000000 0.000000 0.000000 0.000000 0.000000 0.030350
#
#
# Mechanical properties :
#
#
# Convention : Reuss Voigt Hill
#
# Bulk Modulus (GPa) = 18.22158 29.20430 23.71294
# Shear Modulus (GPa) = 18.33419 24.39455 21.36437
#
# Velocity S-wave (km/s) = 3.04936 3.51742 3.29172
# Velocity P-wave (km/s) = 4.65183 5.59534 5.14526
#
# Compressibility (1/GPa) = 0.05487999
#
# Stress axis : x y z
#
# Youngs Moduli (GPa) = 41.33784 54.61006 17.19705
#
# Poissons Ratio (x) = 0.52334 0.19977
# Poissons Ratio (y) = 0.39615 0.02900
# Poissons Ratio (z) = 0.48021 0.09208
#
# Static dielectric constant tensor:
#      x y z
#    x 1.674820 0.000000 0.000000 
#    y 0.000000 1.665880 0.000000 
#    z 0.000000 0.000000 1.713640 
# 
# From -- ./inp_files/3942.got.cif
#   From: 2010.05.17/outbox.cif.g08.bks.cpg/sg19_2_cif.got.tgz:3942.got - 2010.06.03 22:46:19.
