data_PCOD9313622
_publ_section_title
;
Structure prediction by ZEFSAII (Michael W. Deem and Ramdas Pophale) SiO2 
 PCOD9313622
Probable space group: P 21 21 21
;
_chemical_formula_sum "Si O2"
_cell_formula_units_Z 28
_cell_length_a 9.266845
_cell_length_b 18.362518
_cell_length_c 8.132441
_cell_angle_alpha 90.000000
_cell_angle_beta 90.000000
_cell_angle_gamma 90.000000
_cell_volume 1383.837371
_symmetry_space_group_name_H-M "P 21 21 21"
_symmetry_group_IT_number 19
_symmetry_cell_setting 'orthorhombic'
loop_
_space_group_symop_operation_xyz
x,y,z
1/2-x,-y,1/2+z
1/2+x,1/2-y,-z
-x,1/2+y,1/2-z
loop_
_atom_site_type_symbol
_atom_site_label
_atom_site_fract_x
_atom_site_fract_y
_atom_site_fract_z
Si Si1 0.941506 0.835131 0.846632
Si Si2 0.041375 0.725994 0.306762
Si Si3 0.148703 0.873652 0.123368
Si Si4 0.910084 0.958971 0.294185
Si Si5 0.301703 0.426319 0.468376
Si Si6 0.328474 0.680432 0.499077
Si Si7 0.543957 0.331242 0.457355
O O1 0.807862 0.879877 0.920800
O O2 0.934088 0.839439 0.652444
O O3 0.928721 0.750581 0.895824
O O4 0.079289 0.865114 0.942534
O O5 0.106452 0.799559 0.222176
O O6 0.170472 0.694352 0.420320
O O7 0.901264 0.750231 0.411102
O O8 0.990258 0.676651 0.152724
O O9 0.318037 0.877207 0.096949
O O10 0.064122 0.937406 0.218251
O O11 0.842870 0.886440 0.376378
O O12 0.904746 0.022791 0.424610
O O13 0.797485 0.975333 0.148157
O O14 0.402447 0.367404 0.379679
#
# Coordination Sequence:
#
# PCOD9313622 Si02
#       7
#     4   4   4   4   4   4   4
#     4  10  19  36  62  89 124 160 204 257 307 366
#     4  10  22  33  58  92 127 161 201 258 310 364
#     4   9  20  38  57  87 123 158 202 257 309 364
#     4  10  24  40  61  87 122 165 207 251 309 380
#     4  11  22  41  65  87 122 167 213 255 308 382
#     4  11  21  36  57  93 128 159 211 257 308 373
#     4  11  20  38  62  91 122 160 206 259 317 363
#
# _framework density 20.233592999999999
#
# number of rings (size 3 to 8) (size 9 to 14) (size 15 to 20)
#    0.000    1.714    2.857    2.571    4.000    0.000 
#    0.000    4.286    0.000    0.000    0.000    0.000 
#    0.000    0.000    0.000    0.000    0.000    0.000 
#
# Total GULP energy -156238.167938 kJ/mol
# GULP energy per Si atom -5579.934569 kJ/mol
# Density = 2.018754 g / cm^3
# Si number density = 20.233593 Si / 1000 Ang^3
#
#
#
# Elastic Constant Matrix: (Units=GPa)
#
#
# Indices 1 2 3 4 5 6 
#
# 1 47.0321 -1.9408 21.4212 0.0000 0.0000 0.0000
# 2 -1.9408 30.3512 -4.2306 0.0000 0.0000 0.0000
# 3 21.4212 -4.2306 55.2497 0.0000 0.0000 0.0000
# 4 0.0000 0.0000 0.0000 28.8415 0.0000 0.0000
# 5 0.0000 0.0000 0.0000 0.0000 32.3689 0.0000
# 6 0.0000 0.0000 0.0000 0.0000 0.0000 9.7093
#
#
#
# Elastic Compliance Matrix: (Units=1/GPa)
#
#
# Indices 1 2 3 4 5 6 
#
# 1 0.025824 0.000258 -0.009993 0.000000 0.000000 0.000000
# 2 0.000258 0.033306 0.002450 0.000000 0.000000 0.000000
# 3 -0.009993 0.002450 0.022162 0.000000 0.000000 0.000000
# 4 0.000000 0.000000 0.000000 0.034672 0.000000 0.000000
# 5 0.000000 0.000000 0.000000 0.000000 0.030894 0.000000
# 6 0.000000 0.000000 0.000000 0.000000 0.000000 0.102994
#
#
# Mechanical properties :
#
#
# Convention : Reuss Voigt Hill
#
# Bulk Modulus (GPa) = 14.98732 18.12585 16.55658
# Shear Modulus (GPa) = 17.44227 22.00950 19.72588
#
# Velocity S-wave (km/s) = 2.93925 3.30171 3.12574
# Velocity P-wave (km/s) = 4.35225 4.84900 4.60733
#
# Compressibility (1/GPa) = 0.06672308
#
# Stress axis : x y z
#
# Youngs Moduli (GPa) = 38.72376 30.02492 45.12319
#
# Poissons Ratio (x) = -0.00776 0.45090
# Poissons Ratio (y) = -0.01001 -0.11056
# Poissons Ratio (z) = 0.38695 -0.07356
#
# Static dielectric constant tensor:
#      x y z
#    x 1.699670 0.000000 0.000000 
#    y 0.000000 1.733170 0.000000 
#    z 0.000000 0.000000 1.739230 
# 
# From -- ./inp_files/2939.got.cif
#   From: 2010.05.17/outbox.cif.g08.bks.cpg/sg19_2_cif.got.tgz:2939.got - 2010.06.03 22:46:19.
