data_PCOD9313260
_publ_section_title
;
Structure prediction by ZEFSAII (Michael W. Deem and Ramdas Pophale) SiO2 
 PCOD9313260
Probable space group: P 21 21 2
;
_chemical_formula_sum "Si O2"
_cell_formula_units_Z 16
_cell_length_a 8.226522
_cell_length_b 9.322424
_cell_length_c 8.495556
_cell_angle_alpha 90.000000
_cell_angle_beta 90.000000
_cell_angle_gamma 90.000000
_cell_volume 651.533757
_symmetry_space_group_name_H-M "P 21 21 2"
_symmetry_group_IT_number 18
_symmetry_cell_setting 'orthorhombic'
loop_
_space_group_symop_operation_xyz
x,y,z
-x,-y,z
1/2+x,1/2-y,-z
1/2-x,1/2+y,-z
loop_
_atom_site_type_symbol
_atom_site_label
_atom_site_fract_x
_atom_site_fract_y
_atom_site_fract_z
Si Si1 0.500000 0.500000 0.120709
Si Si2 0.000000 0.500000 0.120719
Si Si3 0.322201 0.751921 0.314782
Si Si4 0.069781 0.256982 0.324747
Si Si5 0.260616 0.021766 0.122897
O O1 0.419062 0.625432 0.225235
O O2 0.635008 0.554638 0.996519
O O3 0.109785 0.402865 0.232803
O O4 0.112711 0.589824 0.001043
O O5 0.379280 0.755637 0.494731
O O6 0.348065 0.903166 0.228638
O O7 0.125996 0.742509 0.316904
O O8 0.161607 0.130540 0.232349
#
# Coordination Sequence:
#
# PCOD9313260 Si02
#       5
#     2   2   4   4   4
#     4  12  26  54  84 118 164 218 280 340 410 494
#     4  12  30  50  84 120 164 220 278 342 410 490
#     4  12  30  50  84 118 168 219 271 345 415 498
#     4  12  30  52  80 121 169 217 275 336 423 493
#     4  12  28  54  83 119 162 219 277 341 410 494
#
# _framework density 24.557438999999999
#
# number of rings (size 3 to 8) (size 9 to 14) (size 15 to 20)
#    0.000    0.000    5.000    1.500   14.000    0.000 
#    0.000    0.000    0.000    0.000    0.000    0.000 
#    0.000    0.000    0.000    0.000    0.000    0.000 
#
# Total GULP energy -89567.007992 kJ/mol
# GULP energy per Si atom -5597.937999 kJ/mol
# Density = 2.450154 g / cm^3
# Si number density = 24.557439 Si / 1000 Ang^3
#
#
#
# Elastic Constant Matrix: (Units=GPa)
#
#
# Indices 1 2 3 4 5 6 
#
# 1 71.0014 55.7522 80.0272 0.0000 0.0000 0.0000
# 2 55.7522 183.2501 120.8517 0.0000 0.0000 0.0000
# 3 80.0272 120.8517 265.4696 0.0000 0.0000 0.0000
# 4 0.0000 0.0000 0.0000 42.4567 0.0000 0.0000
# 5 0.0000 0.0000 0.0000 0.0000 58.1299 0.0000
# 6 0.0000 0.0000 0.0000 0.0000 0.0000 50.3578
#
#
#
# Elastic Compliance Matrix: (Units=1/GPa)
#
#
# Indices 1 2 3 4 5 6 
#
# 1 0.022745 -0.003427 -0.005297 0.000000 0.000000 0.000000
# 2 -0.003427 0.008315 -0.002752 0.000000 0.000000 0.000000
# 3 -0.005297 -0.002752 0.006616 0.000000 0.000000 0.000000
# 4 0.000000 0.000000 0.000000 0.023553 0.000000 0.000000
# 5 0.000000 0.000000 0.000000 0.000000 0.017203 0.000000
# 6 0.000000 0.000000 0.000000 0.000000 0.000000 0.019858
#
#
# Mechanical properties :
#
#
# Convention : Reuss Voigt Hill
#
# Bulk Modulus (GPa) = 67.91193 114.77594 91.34393
# Shear Modulus (GPa) = 39.63552 47.72821 43.68186
#
# Velocity S-wave (km/s) = 4.02181 4.41334 4.22211
# Velocity P-wave (km/s) = 7.02004 8.53283 7.81314
#
# Compressibility (1/GPa) = 0.01472495
#
# Stress axis : x y z
#
# Youngs Moduli (GPa) = 43.96573 120.27054 151.13954
#
# Poissons Ratio (x) = 0.41216 0.80051
# Poissons Ratio (y) = 0.15067 0.41594
# Poissons Ratio (z) = 0.23287 0.33099
#
# Static dielectric constant tensor:
#      x y z
#    x 2.259840 0.000000 0.000000 
#    y 0.000000 1.958650 0.000000 
#    z 0.000000 0.000000 1.854330 
# 
# From -- ./inp_files/2793.got.cif
#   From: 2010.05.17/outbox.cif.g08.bks.cpg/sg18_2_cif.got.tgz:2793.got - 2010.06.03 22:40:56.
