data_PCOD9313683
_publ_section_title
;
Structure prediction by ZEFSAII (Michael W. Deem and Ramdas Pophale) SiO2 
 PCOD9313683
Probable space group: P 21 21 21
;
_chemical_formula_sum "Si O2"
_cell_formula_units_Z 32
_cell_length_a 20.768028
_cell_length_b 9.143267
_cell_length_c 8.310674
_cell_angle_alpha 90.000000
_cell_angle_beta 90.000000
_cell_angle_gamma 90.000000
_cell_volume 1578.094149
_symmetry_space_group_name_H-M "P 21 21 21"
_symmetry_group_IT_number 19
_symmetry_cell_setting 'orthorhombic'
loop_
_space_group_symop_operation_xyz
x,y,z
1/2-x,-y,1/2+z
1/2+x,1/2-y,-z
-x,1/2+y,1/2-z
loop_
_atom_site_type_symbol
_atom_site_label
_atom_site_fract_x
_atom_site_fract_y
_atom_site_fract_z
Si Si1 0.127968 0.266661 0.283491
Si Si2 0.584466 0.292379 0.355417
Si Si3 0.193295 0.004484 0.569670
Si Si4 0.973279 0.955536 0.399912
Si Si5 0.601762 0.764354 0.026093
Si Si6 0.233224 0.782163 0.841334
Si Si7 0.988728 0.417811 0.766579
Si Si8 0.891360 0.456400 0.242755
O O1 0.090785 0.229945 0.451038
O O2 0.084929 0.373654 0.183048
O O3 0.201313 0.310618 0.320231
O O4 0.133420 0.111727 0.192416
O O5 0.652425 0.375267 0.326893
O O6 0.534641 0.413590 0.283381
O O7 0.559097 0.135132 0.295441
O O8 0.216648 0.875417 0.682634
O O9 0.146160 0.942525 0.427933
O O10 0.247435 0.096777 0.476363
O O11 0.006675 0.869249 0.547385
O O12 0.032041 0.976710 0.278965
O O13 0.942693 0.102047 0.472389
O O14 0.669800 0.804296 0.106259
O O15 0.562106 0.663395 0.151772
O O16 0.617850 0.673109 0.866044
#
# Coordination Sequence:
#
# PCOD9313683 Si02
#       8
#     4   4   4   4   4   4   4   4
#     4  10  23  42  60  88 129 167 212 264 316 391
#     4  10  21  40  58  93 124 157 204 268 327 370
#     4  10  19  39  61  94 121 164 222 272 302 379
#     4  12  23  40  60  92 130 163 206 269 335 388
#     4  12  23  39  63  95 127 172 210 270 328 391
#     4  10  20  38  63  86 125 167 224 262 308 389
#     4  12  21  39  62  94 127 158 209 268 321 388
#     4  10  20  39  63  92 121 160 215 269 323 376
#
# _framework density 20.277623999999999
#
# number of rings (size 3 to 8) (size 9 to 14) (size 15 to 20)
#    0.000    1.500    5.000    3.000    1.750    1.000 
#    2.250    3.750    0.000    0.000    0.000    0.000 
#    0.000    0.000    0.000    0.000    0.000    0.000 
#
# Total GULP energy -178180.044102 kJ/mol
# GULP energy per Si atom -5568.126378 kJ/mol
# Density = 2.023147 g / cm^3
# Si number density = 20.277624 Si / 1000 Ang^3
#
#
#
# Elastic Constant Matrix: (Units=GPa)
#
#
# Indices 1 2 3 4 5 6 
#
# 1 101.7710 20.5942 31.9879 0.0000 0.0000 0.0000
# 2 20.5942 38.7058 24.7092 0.0000 0.0000 0.0000
# 3 31.9879 24.7092 41.8708 0.0000 0.0000 0.0000
# 4 0.0000 0.0000 0.0000 22.0787 0.0000 0.0000
# 5 0.0000 0.0000 0.0000 0.0000 39.6473 0.0000
# 6 0.0000 0.0000 0.0000 0.0000 0.0000 31.0799
#
#
#
# Elastic Compliance Matrix: (Units=1/GPa)
#
#
# Indices 1 2 3 4 5 6 
#
# 1 0.012952 -0.000922 -0.009350 0.000000 0.000000 0.000000
# 2 -0.000922 0.041518 -0.023797 0.000000 0.000000 0.000000
# 3 -0.009350 -0.023797 0.045070 0.000000 0.000000 0.000000
# 4 0.000000 0.000000 0.000000 0.045292 0.000000 0.000000
# 5 0.000000 0.000000 0.000000 0.000000 0.025222 0.000000
# 6 0.000000 0.000000 0.000000 0.000000 0.000000 0.032175
#
#
# Mechanical properties :
#
#
# Convention : Reuss Voigt Hill
#
# Bulk Modulus (GPa) = 31.84624 37.43670 34.64147
# Shear Modulus (GPa) = 17.80409 25.56493 21.68451
#
# Velocity S-wave (km/s) = 2.96635 3.55455 3.27369
# Velocity P-wave (km/s) = 5.24133 5.94547 5.60447
#
# Compressibility (1/GPa) = 0.03140089
#
# Stress axis : x y z
#
# Youngs Moduli (GPa) = 77.21106 24.08598 22.18786
#
# Poissons Ratio (x) = 0.02220 0.20747
# Poissons Ratio (y) = 0.07118 0.52800
# Poissons Ratio (z) = 0.72196 0.57317
#
# Static dielectric constant tensor:
#      x y z
#    x 1.782350 0.000000 0.000000 
#    y 0.000000 1.746440 0.000000 
#    z 0.000000 0.000000 1.750530 
# 
# From -- ./inp_files/4322.got.cif
#   From: 2010.05.17/outbox.cif.g08.bks.cpg/sg19_3_cif.got.tgz:4322.got - 2010.06.03 22:46:19.
