data_PCOD9313124
_publ_section_title
;
Structure prediction by ZEFSAII (Michael W. Deem and Ramdas Pophale) SiO2 
 PCOD9313124
Probable space group: P 21 21 2
;
_chemical_formula_sum "Si O2"
_cell_formula_units_Z 24
_cell_length_a 9.756564
_cell_length_b 17.254332
_cell_length_c 6.712210
_cell_angle_alpha 90.000000
_cell_angle_beta 90.000000
_cell_angle_gamma 90.000000
_cell_volume 1129.953531
_symmetry_space_group_name_H-M "P 21 21 2"
_symmetry_group_IT_number 18
_symmetry_cell_setting 'orthorhombic'
loop_
_space_group_symop_operation_xyz
x,y,z
-x,-y,z
1/2+x,1/2-y,-z
1/2-x,1/2+y,-z
loop_
_atom_site_type_symbol
_atom_site_label
_atom_site_fract_x
_atom_site_fract_y
_atom_site_fract_z
Si Si1 0.500000 0.500000 0.944327
Si Si2 0.030533 0.253194 0.514267
Si Si3 0.652500 0.087141 0.514401
Si Si4 0.500000 0.000000 0.840662
Si Si5 0.273331 0.217071 0.273813
Si Si6 0.793627 0.460686 0.813273
Si Si7 0.089665 0.862989 0.769774
O O1 0.541060 0.572895 0.079886
O O2 0.633143 0.478440 0.821614
O O3 0.102420 0.332691 0.584321
O O4 0.114111 0.230335 0.318521
O O5 0.867240 0.268960 0.525834
O O6 0.037229 0.178356 0.658007
O O7 0.802020 0.100254 0.612883
O O8 0.652041 0.015594 0.363143
O O9 0.548382 0.068731 0.695129
O O10 0.627609 0.982382 0.984245
O O11 0.307706 0.131055 0.211361
O O12 0.329519 0.288110 0.140465
#
# Coordination Sequence:
#
# PCOD9313124 Si02
#       7
#     2   4   4   2   4   4   4
#     4  12  26  46  68 112 142 184 240 296 354 428
#     4   9  20  41  69  98 134 184 235 277 355 416
#     4  11  23  45  74  99 143 185 233 293 349 427
#     4  12  24  46  72 100 146 180 234 298 344 432
#     4   9  21  41  64 105 133 182 231 285 349 418
#     4  12  27  44  74 111 136 188 245 286 362 430
#     4   9  23  45  66 102 141 179 233 289 352 410
#
# _framework density 21.239811
#
# number of rings (size 3 to 8) (size 9 to 14) (size 15 to 20)
#    1.000    0.667    1.667    2.500    4.667    1.333 
#    9.000    0.000    0.000    0.000    0.000    0.000 
#    0.000    0.000    0.000    0.000    0.000    0.000 
#
# Total GULP energy -133694.290422 kJ/mol
# GULP energy per Si atom -5570.595434 kJ/mol
# Density = 2.119147 g / cm^3
# Si number density = 21.239811 Si / 1000 Ang^3
#
#
#
# Elastic Constant Matrix: (Units=GPa)
#
#
# Indices 1 2 3 4 5 6 
#
# 1 92.3750 8.1416 20.1658 0.0000 0.0000 0.0000
# 2 8.1416 134.0656 31.1851 0.0000 0.0000 0.0000
# 3 20.1658 31.1851 41.9801 0.0000 0.0000 0.0000
# 4 0.0000 0.0000 0.0000 15.1175 0.0000 0.0000
# 5 0.0000 0.0000 0.0000 0.0000 16.2399 0.0000
# 6 0.0000 0.0000 0.0000 0.0000 0.0000 38.7402
#
#
#
# Elastic Compliance Matrix: (Units=1/GPa)
#
#
# Indices 1 2 3 4 5 6 
#
# 1 0.012156 0.000750 -0.006396 0.000000 0.000000 0.000000
# 2 0.000750 0.009063 -0.007093 0.000000 0.000000 0.000000
# 3 -0.006396 -0.007093 0.032162 0.000000 0.000000 0.000000
# 4 0.000000 0.000000 0.000000 0.066148 0.000000 0.000000
# 5 0.000000 0.000000 0.000000 0.000000 0.061577 0.000000
# 6 0.000000 0.000000 0.000000 0.000000 0.000000 0.025813
#
#
# Mechanical properties :
#
#
# Convention : Reuss Voigt Hill
#
# Bulk Modulus (GPa) = 35.83882 43.04508 39.44195
# Shear Modulus (GPa) = 20.68690 27.94807 24.31748
#
# Velocity S-wave (km/s) = 3.12423 3.63138 3.38731
# Velocity P-wave (km/s) = 5.47033 6.15571 5.82311
#
# Compressibility (1/GPa) = 0.02790270
#
# Stress axis : x y z
#
# Youngs Moduli (GPa) = 82.26626 110.33400 31.09236
#
# Poissons Ratio (x) = -0.08271 0.19887
# Poissons Ratio (y) = -0.06167 0.22053
# Poissons Ratio (z) = 0.52618 0.78258
#
# Static dielectric constant tensor:
#      x y z
#    x 1.627120 0.000000 0.000000 
#    y 0.000000 1.782380 0.000000 
#    z 0.000000 0.000000 1.776430 
# 
# From -- ./inp_files/1142.got.cif
#   From: 2010.05.17/outbox.cif.g08.bks.cpg/sg18_1_cif.got.tgz:1142.got - 2010.06.03 22:40:56.
