data_PCOD9313715
_publ_section_title
;
Structure prediction by ZEFSAII (Michael W. Deem and Ramdas Pophale) SiO2 
 PCOD9313715
Probable space group: P 21 21 21
;
_chemical_formula_sum "Si O2"
_cell_formula_units_Z 28
_cell_length_a 16.315375
_cell_length_b 12.756230
_cell_length_c 5.524290
_cell_angle_alpha 90.000000
_cell_angle_beta 90.000000
_cell_angle_gamma 90.000000
_cell_volume 1149.730018
_symmetry_space_group_name_H-M "P 21 21 21"
_symmetry_group_IT_number 19
_symmetry_cell_setting 'orthorhombic'
loop_
_space_group_symop_operation_xyz
x,y,z
1/2-x,-y,1/2+z
1/2+x,1/2-y,-z
-x,1/2+y,1/2-z
loop_
_atom_site_type_symbol
_atom_site_label
_atom_site_fract_x
_atom_site_fract_y
_atom_site_fract_z
Si Si1 0.100949 0.872707 0.538837
Si Si2 0.658887 0.768365 0.086142
Si Si3 0.517135 0.808166 0.707704
Si Si4 0.214390 0.364135 0.740488
Si Si5 0.632916 0.948462 0.480024
Si Si6 0.369000 0.904141 0.921731
Si Si7 0.213751 0.151517 0.927220
O O1 0.132638 0.843996 0.807837
O O2 0.030473 0.790297 0.469253
O O3 0.187960 0.853104 0.401526
O O4 0.079896 0.989276 0.465153
O O5 0.650629 0.852428 0.299688
O O6 0.590849 0.796040 0.893544
O O7 0.747278 0.792596 0.973997
O O8 0.542872 0.917152 0.575630
O O9 0.433969 0.814942 0.853294
O O10 0.143899 0.440965 0.650554
O O11 0.290646 0.436946 0.831179
O O12 0.190722 0.275494 0.934461
O O13 0.313133 0.904638 0.677688
O O14 0.326092 0.892651 0.182444
#
# Coordination Sequence:
#
# PCOD9313715 Si02
#       7
#     4   4   4   4   4   4   4
#     4  11  24  47  77  96 142 195 240 300 373 425
#     4  10  19  40  72  97 143 182 241 280 374 429
#     4  10  25  46  69 102 143 197 235 304 369 448
#     4  11  20  36  69 109 138 183 238 306 348 428
#     4  10  20  36  68  99 145 183 236 281 376 423
#     4  12  30  47  71 108 144 185 255 297 369 430
#     4  12  26  46  72 107 143 187 249 308 343 433
#
# _framework density 24.353542000000001
#
# number of rings (size 3 to 8) (size 9 to 14) (size 15 to 20)
#    0.000    1.143    5.714    1.714    6.000    1.143 
#    2.571    0.000    0.000    0.000    0.000    0.000 
#    0.000    0.000    0.000    0.000    0.000    0.000 
#
# Total GULP energy -156272.788259 kJ/mol
# GULP energy per Si atom -5581.171009 kJ/mol
# Density = 2.429811 g / cm^3
# Si number density = 24.353542 Si / 1000 Ang^3
#
#
#
# Elastic Constant Matrix: (Units=GPa)
#
#
# Indices 1 2 3 4 5 6 
#
# 1 24.6443 -18.0345 -6.4978 0.0000 0.0000 0.0000
# 2 -18.0345 74.0439 -2.9510 0.0000 0.0000 0.0000
# 3 -6.4978 -2.9510 62.3642 0.0000 0.0000 0.0000
# 4 0.0000 0.0000 0.0000 33.5171 0.0000 0.0000
# 5 0.0000 0.0000 0.0000 0.0000 14.0924 0.0000
# 6 0.0000 0.0000 0.0000 0.0000 0.0000 23.0239
#
#
#
# Elastic Compliance Matrix: (Units=1/GPa)
#
#
# Indices 1 2 3 4 5 6 
#
# 1 0.051506 0.012783 0.005971 0.000000 0.000000 0.000000
# 2 0.012783 0.016704 0.002122 0.000000 0.000000 0.000000
# 3 0.005971 0.002122 0.016757 0.000000 0.000000 0.000000
# 4 0.000000 0.000000 0.000000 0.029836 0.000000 0.000000
# 5 0.000000 0.000000 0.000000 0.000000 0.070960 0.000000
# 6 0.000000 0.000000 0.000000 0.000000 0.000000 0.043433
#
#
# Mechanical properties :
#
#
# Convention : Reuss Voigt Hill
#
# Bulk Modulus (GPa) = 7.89136 11.78731 9.83934
# Shear Modulus (GPa) = 21.76914 26.69573 24.23244
#
# Velocity S-wave (km/s) = 2.99303 3.31444 3.15783
# Velocity P-wave (km/s) = 3.89765 4.41565 4.16471
#
# Compressibility (1/GPa) = 0.12672086
#
# Stress axis : x y z
#
# Youngs Moduli (GPa) = 19.41512 59.86734 59.67504
#
# Poissons Ratio (x) = -0.76529 -0.35634
# Poissons Ratio (y) = -0.24819 -0.12665
# Poissons Ratio (z) = -0.11594 -0.12706
#
# Static dielectric constant tensor:
#      x y z
#    x 1.917850 0.000000 0.000000 
#    y 0.000000 2.003490 0.000000 
#    z 0.000000 0.000000 2.023770 
# 
# From -- ./inp_files/1741.got.cif
#   From: 2010.05.17/outbox.cif.g08.bks.cpg/sg19_1_cif.got.tgz:1741.got - 2010.06.03 22:46:19.
