data_PCOD9313872
_publ_section_title
;
Structure prediction by ZEFSAII (Michael W. Deem and Ramdas Pophale) SiO2 
 PCOD9313872
Probable space group: P 21 21 21
;
_chemical_formula_sum "Si O2"
_cell_formula_units_Z 32
_cell_length_a 6.029818
_cell_length_b 8.377719
_cell_length_c 26.162406
_cell_angle_alpha 90.000000
_cell_angle_beta 90.000000
_cell_angle_gamma 90.000000
_cell_volume 1321.623263
_symmetry_space_group_name_H-M "P 21 21 21"
_symmetry_group_IT_number 19
_symmetry_cell_setting 'orthorhombic'
loop_
_space_group_symop_operation_xyz
x,y,z
1/2-x,-y,1/2+z
1/2+x,1/2-y,-z
-x,1/2+y,1/2-z
loop_
_atom_site_type_symbol
_atom_site_label
_atom_site_fract_x
_atom_site_fract_y
_atom_site_fract_z
Si Si1 0.785092 0.872947 0.527275
Si Si2 0.609484 0.087632 0.188589
Si Si3 0.379781 0.937279 0.099247
Si Si4 0.199582 0.919275 0.785925
Si Si5 0.073874 0.390787 0.256132
Si Si6 0.101619 0.226127 0.077776
Si Si7 0.887876 0.100608 0.844019
Si Si8 0.378010 0.693915 0.018681
O O1 0.660551 0.778083 0.571961
O O2 0.840232 0.754282 0.481593
O O3 0.981099 0.966767 0.555684
O O4 0.644605 0.012374 0.499513
O O5 0.504033 0.948450 0.153158
O O6 0.475860 0.109431 0.241091
O O7 0.852682 0.032737 0.205367
O O8 0.547035 0.245688 0.158579
O O9 0.350583 0.761765 0.076306
O O10 0.167385 0.054043 0.101161
O O11 0.332826 0.074780 0.765820
O O12 0.059307 0.955823 0.836506
O O13 0.372924 0.773696 0.785330
O O14 0.231889 0.396844 0.206325
O O15 0.221998 0.364601 0.109507
O O16 0.138797 0.764126 0.995615
#
# Coordination Sequence:
#
# PCOD9313872 Si02
#       8
#     4   4   4   4   4   4   4   4
#     4  11  22  37  61  86 122 158 212 260 321 375
#     4   9  20  37  60  85 115 156 205 245 304 369
#     4  10  21  38  61  86 119 164 207 258 313 385
#     4  10  20  37  59  88 120 157 193 257 305 381
#     4  10  20  37  60  86 119 153 199 247 318 369
#     4  11  21  38  59  88 118 159 205 257 318 380
#     4   9  21  37  59  83 117 154 199 253 303 374
#     4  10  21  39  61  86 122 167 210 267 318 377
#
# _framework density 24.21265
#
# number of rings (size 3 to 8) (size 9 to 14) (size 15 to 20)
#    0.000    2.000    2.500    0.750    0.000    7.000 
#    0.000    0.000    5.500    0.000    0.000    0.000 
#    0.000    0.000    0.000    0.000    0.000    0.000 
#
# Total GULP energy -178268.966861 kJ/mol
# GULP energy per Si atom -5570.905214 kJ/mol
# Density = 2.415754 g / cm^3
# Si number density = 24.212650 Si / 1000 Ang^3
#
#
#
# Elastic Constant Matrix: (Units=GPa)
#
#
# Indices 1 2 3 4 5 6 
#
# 1 69.2023 28.7988 22.4856 0.0000 0.0000 0.0000
# 2 28.7988 66.7510 3.7738 0.0000 0.0000 0.0000
# 3 22.4856 3.7738 56.0124 0.0000 0.0000 0.0000
# 4 0.0000 0.0000 0.0000 27.9838 0.0000 0.0000
# 5 0.0000 0.0000 0.0000 0.0000 41.4195 0.0000
# 6 0.0000 0.0000 0.0000 0.0000 0.0000 26.0215
#
#
#
# Elastic Compliance Matrix: (Units=1/GPa)
#
#
# Indices 1 2 3 4 5 6 
#
# 1 0.020416 -0.008377 -0.007631 0.000000 0.000000 0.000000
# 2 -0.008377 0.018475 0.002118 0.000000 0.000000 0.000000
# 3 -0.007631 0.002118 0.020774 0.000000 0.000000 0.000000
# 4 0.000000 0.000000 0.000000 0.035735 0.000000 0.000000
# 5 0.000000 0.000000 0.000000 0.000000 0.024143 0.000000
# 6 0.000000 0.000000 0.000000 0.000000 0.000000 0.038430
#
#
# Mechanical properties :
#
#
# Convention : Reuss Voigt Hill
#
# Bulk Modulus (GPa) = 31.36267 33.56468 32.46367
# Shear Modulus (GPa) = 25.46055 28.21213 26.83634
#
# Velocity S-wave (km/s) = 3.24626 3.41718 3.33282
# Velocity P-wave (km/s) = 5.19924 5.42789 5.31480
#
# Compressibility (1/GPa) = 0.03188504
#
# Stress axis : x y z
#
# Youngs Moduli (GPa) = 48.98097 54.12615 48.13696
#
# Poissons Ratio (x) = 0.45340 0.36735
# Poissons Ratio (y) = 0.41030 -0.10195
# Poissons Ratio (z) = 0.37380 -0.11464
#
# Static dielectric constant tensor:
#      x y z
#    x 2.012570 0.000000 0.000000 
#    y 0.000000 2.000950 0.000000 
#    z 0.000000 0.000000 1.948860 
# 
# From -- ./inp_files/2494.got.cif
#   From: 2010.05.17/outbox.cif.g08.bks.cpg/sg19_2_cif.got.tgz:2494.got - 2010.06.03 22:46:19.
