data_PCOD9313856
_publ_section_title
;
Structure prediction by ZEFSAII (Michael W. Deem and Ramdas Pophale) SiO2 
 PCOD9313856
Probable space group: P 21 21 21
;
_chemical_formula_sum "Si O2"
_cell_formula_units_Z 32
_cell_length_a 17.536438
_cell_length_b 9.131709
_cell_length_c 9.948751
_cell_angle_alpha 90.000000
_cell_angle_beta 90.000000
_cell_angle_gamma 90.000000
_cell_volume 1593.169593
_symmetry_space_group_name_H-M "P 21 21 21"
_symmetry_group_IT_number 19
_symmetry_cell_setting 'orthorhombic'
loop_
_space_group_symop_operation_xyz
x,y,z
1/2-x,-y,1/2+z
1/2+x,1/2-y,-z
-x,1/2+y,1/2-z
loop_
_atom_site_type_symbol
_atom_site_label
_atom_site_fract_x
_atom_site_fract_y
_atom_site_fract_z
Si Si1 0.354208 0.329127 0.213204
Si Si2 0.725955 0.694341 0.534760
Si Si3 0.761408 0.874407 0.778195
Si Si4 0.628127 0.442971 0.926202
Si Si5 0.495725 0.995210 0.356560
Si Si6 0.414314 0.798617 0.147241
Si Si7 0.195746 0.759110 0.981000
Si Si8 0.847829 0.609328 0.123722
O O1 0.299856 0.469207 0.233860
O O2 0.431647 0.388330 0.150233
O O3 0.364330 0.264232 0.362080
O O4 0.313934 0.223902 0.107215
O O5 0.720356 0.824832 0.642029
O O6 0.815075 0.665641 0.505043
O O7 0.686668 0.551541 0.597099
O O8 0.830058 0.757945 0.808178
O O9 0.707755 0.866344 0.909253
O O10 0.550558 0.469933 0.006413
O O11 0.673578 0.597076 0.934737
O O12 0.620712 0.388686 0.774129
O O13 0.441461 0.935105 0.237217
O O14 0.530248 0.157818 0.338727
O O15 0.407002 0.847866 0.992518
O O16 0.274808 0.786167 0.901254
#
# Coordination Sequence:
#
# PCOD9313856 Si02
#       8
#     4   4   4   4   4   4   4   4
#     4  11  23  37  61  93 132 168 208 261 329 378
#     4  11  21  38  66  95 120 165 217 266 310 380
#     4  10  20  39  61  94 125 161 208 268 315 374
#     4  11  21  39  65  88 121 167 215 262 314 380
#     4  11  24  42  63  91 129 173 209 264 322 394
#     4  10  23  41  64  89 129 164 214 259 318 388
#     4  10  20  36  62  91 119 155 209 265 314 369
#     4  10  22  38  62  91 119 159 214 271 310 371
#
# _framework density 20.085744999999999
#
# number of rings (size 3 to 8) (size 9 to 14) (size 15 to 20)
#    0.000    1.500    3.750    1.500    3.500    0.000 
#    2.250    0.000    0.000    0.000    0.000    0.000 
#    0.000    0.000    0.000    0.000    0.000    0.000 
#
# Total GULP energy -178717.067505 kJ/mol
# GULP energy per Si atom -5584.908360 kJ/mol
# Density = 2.004003 g / cm^3
# Si number density = 20.085745 Si / 1000 Ang^3
#
#
#
# Elastic Constant Matrix: (Units=GPa)
#
#
# Indices 1 2 3 4 5 6 
#
# 1 44.0027 1.8149 10.7262 0.0000 0.0000 0.0000
# 2 1.8149 19.2988 19.8365 0.0000 0.0000 0.0000
# 3 10.7262 19.8365 125.3943 0.0000 0.0000 0.0000
# 4 0.0000 0.0000 0.0000 27.1550 0.0000 0.0000
# 5 0.0000 0.0000 0.0000 0.0000 23.4804 0.0000
# 6 0.0000 0.0000 0.0000 0.0000 0.0000 24.4013
#
#
#
# Elastic Compliance Matrix: (Units=1/GPa)
#
#
# Indices 1 2 3 4 5 6 
#
# 1 0.023210 -0.000170 -0.001959 0.000000 0.000000 0.000000
# 2 -0.000170 0.061879 -0.009774 0.000000 0.000000 0.000000
# 3 -0.001959 -0.009774 0.009689 0.000000 0.000000 0.000000
# 4 0.000000 0.000000 0.000000 0.036826 0.000000 0.000000
# 5 0.000000 0.000000 0.000000 0.000000 0.042589 0.000000
# 6 0.000000 0.000000 0.000000 0.000000 0.000000 0.040981
#
#
# Mechanical properties :
#
#
# Convention : Reuss Voigt Hill
#
# Bulk Modulus (GPa) = 14.08983 28.16122 21.12552
# Shear Modulus (GPa) = 19.03770 25.42855 22.23313
#
# Velocity S-wave (km/s) = 3.08201 3.56195 3.33064
# Velocity P-wave (km/s) = 4.43792 5.56485 5.03303
#
# Compressibility (1/GPa) = 0.07097316
#
# Stress axis : x y z
#
# Youngs Moduli (GPa) = 43.08433 16.16050 103.21396
#
# Poissons Ratio (x) = 0.00274 0.20215
# Poissons Ratio (y) = 0.00731 1.00885
# Poissons Ratio (z) = 0.08438 0.15796
#
# Static dielectric constant tensor:
#      x y z
#    x 1.711930 0.000000 0.000000 
#    y 0.000000 1.707540 0.000000 
#    z 0.000000 0.000000 1.705550 
# 
# From -- ./inp_files/4318.got.cif
#   From: 2010.05.17/outbox.cif.g08.bks.cpg/sg19_3_cif.got.tgz:4318.got - 2010.06.03 22:46:19.
