data_PCOD9313557
_publ_section_title
;
Structure prediction by ZEFSAII (Michael W. Deem and Ramdas Pophale) SiO2 
 PCOD9313557
Probable space group: P 21 21 21
;
_chemical_formula_sum "Si O2"
_cell_formula_units_Z 28
_cell_length_a 4.997594
_cell_length_b 27.259064
_cell_length_c 9.539087
_cell_angle_alpha 90.000000
_cell_angle_beta 90.000000
_cell_angle_gamma 90.000000
_cell_volume 1299.507291
_symmetry_space_group_name_H-M "P 21 21 21"
_symmetry_group_IT_number 19
_symmetry_cell_setting 'orthorhombic'
loop_
_space_group_symop_operation_xyz
x,y,z
1/2-x,-y,1/2+z
1/2+x,1/2-y,-z
-x,1/2+y,1/2-z
loop_
_atom_site_type_symbol
_atom_site_label
_atom_site_fract_x
_atom_site_fract_y
_atom_site_fract_z
Si Si1 0.992482 0.221842 0.030072
Si Si2 0.733947 0.621619 0.472726
Si Si3 0.851681 0.227240 0.335893
Si Si4 0.793058 0.971106 0.783674
Si Si5 0.217384 0.090772 0.345741
Si Si6 0.756911 0.060849 0.969467
Si Si7 0.149052 0.815336 0.989824
O O1 0.140060 0.172862 0.980900
O O2 0.247161 0.257394 0.061403
O O3 0.835863 0.213297 0.175261
O O4 0.727893 0.619180 0.302139
O O5 0.444000 0.607006 0.529093
O O6 0.941275 0.579925 0.520881
O O7 0.143500 0.212677 0.388980
O O8 0.816280 0.285252 0.366044
O O9 0.642525 0.196157 0.427572
O O10 0.579206 0.930663 0.836054
O O11 0.800892 0.967592 0.615576
O O12 0.078137 0.954435 0.844170
O O13 0.717112 0.024029 0.841875
O O14 0.276639 0.127989 0.472140
#
# Coordination Sequence:
#
# PCOD9313557 Si02
#       7
#     4   4   4   4   4   4   4
#     4  12  24  38  58  85 122 159 203 244 283 355
#     4  10  21  37  61  81 111 156 199 229 279 357
#     4  10  21  35  56  83 116 151 191 245 297 328
#     4  10  21  36  59  88 115 147 190 244 291 351
#     4  10  19  34  61  87 109 146 197 238 283 348
#     4  10  21  39  60  86 113 150 194 237 298 349
#     4  10  19  35  59  84 112 147 194 251 289 338
#
# _framework density 21.546626
#
# number of rings (size 3 to 8) (size 9 to 14) (size 15 to 20)
#    0.000    1.714    1.429    3.429    4.000    0.000 
#    0.000    4.286    0.000    0.000    0.000    0.000 
#    0.000    0.000    0.000    0.000    0.000    0.000 
#
# Total GULP energy -156347.909337 kJ/mol
# GULP energy per Si atom -5583.853905 kJ/mol
# Density = 2.149759 g / cm^3
# Si number density = 21.546626 Si / 1000 Ang^3
#
#
#
# Elastic Constant Matrix: (Units=GPa)
#
#
# Indices 1 2 3 4 5 6 
#
# 1 55.5301 -9.0684 1.2534 0.0000 0.0000 0.0000
# 2 -9.0684 41.7699 3.4979 0.0000 0.0000 0.0000
# 3 1.2534 3.4979 13.7221 0.0000 0.0000 0.0000
# 4 0.0000 0.0000 0.0000 22.6857 0.0000 0.0000
# 5 0.0000 0.0000 0.0000 0.0000 16.3850 0.0000
# 6 0.0000 0.0000 0.0000 0.0000 0.0000 -28.1949
#
#
#
# Elastic Compliance Matrix: (Units=1/GPa)
#
#
# Indices 1 2 3 4 5 6 
#
# 1 0.018776 0.004312 -0.002814 0.000000 0.000000 0.000000
# 2 0.004312 0.025453 -0.006882 0.000000 0.000000 0.000000
# 3 -0.002814 -0.006882 0.074886 0.000000 0.000000 0.000000
# 4 0.000000 0.000000 0.000000 0.044081 0.000000 0.000000
# 5 0.000000 0.000000 0.000000 0.000000 0.061031 0.000000
# 6 0.000000 0.000000 0.000000 0.000000 0.000000 -0.035467
#
#
# Mechanical properties :
#
#
# Convention : Reuss Voigt Hill
#
# Bulk Modulus (GPa) = 9.22960 11.37642 10.30301
# Shear Modulus (GPa) = 21.21842 9.86445 15.54144
#
# Velocity S-wave (km/s) = 3.14151 2.14199 2.68860
# Velocity P-wave (km/s) = 4.17751 3.37770 3.79871
#
# Compressibility (1/GPa) = 0.10834709
#
# Stress axis : x y z
#
# Youngs Moduli (GPa) = 53.25963 39.28784 13.35355
#
# Poissons Ratio (x) = -0.16941 0.03758
# Poissons Ratio (y) = -0.22966 0.09190
# Poissons Ratio (z) = 0.14988 0.27038
#
# Static dielectric constant tensor:
#      x y z
#    x 1.755110 0.000000 0.000000 
#    y 0.000000 1.819590 0.000000 
#    z 0.000000 0.000000 1.801720 
# 
# From -- ./inp_files/2240.got.cif
#   From: 2010.05.17/outbox.cif.g08.bks.cpg/sg19_2_cif.got.tgz:2240.got - 2010.06.03 22:46:19.
