data_PCOD9313194
_publ_section_title
;
Structure prediction by ZEFSAII (Michael W. Deem and Ramdas Pophale) SiO2 
 PCOD9313194
Probable space group: P 21 21 2
;
_chemical_formula_sum "Si O2"
_cell_formula_units_Z 14
_cell_length_a 7.931666
_cell_length_b 8.528846
_cell_length_c 8.011057
_cell_angle_alpha 90.000000
_cell_angle_beta 90.000000
_cell_angle_gamma 90.000000
_cell_volume 541.931646
_symmetry_space_group_name_H-M "P 21 21 2"
_symmetry_group_IT_number 18
_symmetry_cell_setting 'orthorhombic'
loop_
_space_group_symop_operation_xyz
x,y,z
-x,-y,z
1/2+x,1/2-y,-z
1/2-x,1/2+y,-z
loop_
_atom_site_type_symbol
_atom_site_label
_atom_site_fract_x
_atom_site_fract_y
_atom_site_fract_z
Si Si1 0.315456 0.699786 0.448310
Si Si2 0.263271 0.572251 0.124152
Si Si3 0.421018 0.739725 0.824602
Si Si4 0.500000 0.000000 0.454686
O O1 0.377034 0.611013 0.284521
O O2 0.385654 0.681832 0.636010
O O3 0.126857 0.627861 0.464555
O O4 0.356283 0.878947 0.393203
O O5 0.189477 0.398773 0.147804
O O6 0.107355 0.697367 0.131946
O O7 0.356456 0.610340 0.953462
#
# Coordination Sequence:
#
# PCOD9313194 Si02
#       4
#     4   4   4   2
#     4  12  24  54  76 114 152 218 252 334 384 478
#     4  11  26  47  71 106 151 200 262 320 388 464
#     4  11  26  47  71 106 151 200 262 320 388 464
#     4  12  28  48  86 108 164 210 268 324 390 472
#
# _framework density 25.833518000000002
#
# number of rings (size 3 to 8) (size 9 to 14) (size 15 to 20)
#    0.000    0.571    5.714    0.000    8.000    2.286 
#    0.000    0.000    0.000    0.000    0.000    0.000 
#    0.000    0.000    0.000    0.000    0.000    0.000 
#
# Total GULP energy -77986.141676 kJ/mol
# GULP energy per Si atom -5570.438691 kJ/mol
# Density = 2.577472 g / cm^3
# Si number density = 25.833518 Si / 1000 Ang^3
#
#
#
# Elastic Constant Matrix: (Units=GPa)
#
#
# Indices 1 2 3 4 5 6 
#
# 1 84.2868 80.7943 32.2214 0.0000 0.0000 0.0000
# 2 80.7943 131.0545 33.2122 0.0000 0.0000 0.0000
# 3 32.2214 33.2122 197.1289 0.0000 0.0000 0.0000
# 4 0.0000 0.0000 0.0000 54.1425 0.0000 0.0000
# 5 0.0000 0.0000 0.0000 0.0000 -11.0005 0.0000
# 6 0.0000 0.0000 0.0000 0.0000 0.0000 79.9389
#
#
#
# Elastic Compliance Matrix: (Units=1/GPa)
#
#
# Indices 1 2 3 4 5 6 
#
# 1 0.029633 -0.017801 -0.001844 0.000000 0.000000 0.000000
# 2 -0.017801 0.018664 -0.000235 0.000000 0.000000 0.000000
# 3 -0.001844 -0.000235 0.005414 0.000000 0.000000 0.000000
# 4 0.000000 0.000000 0.000000 0.018470 0.000000 0.000000
# 5 0.000000 0.000000 0.000000 0.000000 -0.090905 0.000000
# 6 0.000000 0.000000 0.000000 0.000000 0.000000 0.012510
#
#
# Mechanical properties :
#
#
# Convention : Reuss Voigt Hill
#
# Bulk Modulus (GPa) = 71.68421 78.32513 75.00467
# Shear Modulus (GPa) = 130.90399 42.36565 86.63482
#
# Velocity S-wave (km/s) = 7.12616 4.05402 5.79729
# Velocity P-wave (km/s) = 9.77335 7.23177 8.59700
#
# Compressibility (1/GPa) = 0.01395007
#
# Stress axis : x y z
#
# Youngs Moduli (GPa) = 33.74645 53.57871 184.71030
#
# Poissons Ratio (x) = 0.95375 0.34069
# Poissons Ratio (y) = 0.60072 0.04339
# Poissons Ratio (z) = 0.06224 0.01259
#
# Static dielectric constant tensor:
#      x y z
#    x 2.164670 0.000000 0.000000 
#    y 0.000000 2.026670 0.000000 
#    z 0.000000 0.000000 2.152700 
# 
# From -- ./inp_files/2714.got.cif
#   From: 2010.05.17/outbox.cif.g08.bks.cpg/sg18_2_cif.got.tgz:2714.got - 2010.06.03 22:40:56.
