data_PCOD9313437
_publ_section_title
;
Structure prediction by ZEFSAII (Michael W. Deem and Ramdas Pophale) SiO2 
 PCOD9313437
Probable space group: P 21 21 21
;
_chemical_formula_sum "Si O2"
_cell_formula_units_Z 28
_cell_length_a 9.254185
_cell_length_b 9.521283
_cell_length_c 16.052934
_cell_angle_alpha 90.000000
_cell_angle_beta 90.000000
_cell_angle_gamma 90.000000
_cell_volume 1414.451535
_symmetry_space_group_name_H-M "P 21 21 21"
_symmetry_group_IT_number 19
_symmetry_cell_setting 'orthorhombic'
loop_
_space_group_symop_operation_xyz
x,y,z
1/2-x,-y,1/2+z
1/2+x,1/2-y,-z
-x,1/2+y,1/2-z
loop_
_atom_site_type_symbol
_atom_site_label
_atom_site_fract_x
_atom_site_fract_y
_atom_site_fract_z
Si Si1 0.418161 0.513655 0.570170
Si Si2 0.459838 0.348296 0.723134
Si Si3 0.444231 0.647724 0.913927
Si Si4 0.232526 0.783911 0.033070
Si Si5 0.227180 0.511647 0.803696
Si Si6 0.926776 0.489185 0.895513
Si Si7 0.785909 0.747763 0.331572
O O1 0.496981 0.472928 0.657361
O O2 0.318263 0.375196 0.554606
O O3 0.517059 0.535650 0.490024
O O4 0.327770 0.650877 0.592233
O O5 0.478303 0.208462 0.668476
O O6 0.298816 0.383245 0.753532
O O7 0.573733 0.334134 0.797051
O O8 0.580309 0.631930 0.975917
O O9 0.337657 0.529105 0.881611
O O10 0.334578 0.761980 0.953108
O O11 0.331552 0.868832 0.097743
O O12 0.237111 0.648233 0.743608
O O13 0.067823 0.500956 0.838524
O O14 0.830736 0.363661 0.860745
#
# Coordination Sequence:
#
# PCOD9313437 Si02
#       7
#     4   4   4   4   4   4   4
#     4  10  22  42  65  92 131 166 219 270 325 388
#     4   9  19  40  63  83 125 176 202 253 329 399
#     4  10  18  34  61  90 117 166 213 260 306 392
#     4  11  19  37  65  94 120 165 220 261 317 382
#     4  10  21  39  62  90 132 167 211 267 328 391
#     4  12  23  41  67  96 126 168 223 273 320 386
#     4  10  24  41  63  97 129 168 212 268 337 386
#
# _framework density 19.795658
#
# number of rings (size 3 to 8) (size 9 to 14) (size 15 to 20)
#    0.000    1.714    4.286    0.857    0.000    5.714 
#    2.571    1.429    0.000    0.000    0.000    0.000 
#    0.000    0.000    0.000    0.000    0.000    0.000 
#
# Total GULP energy -155937.247925 kJ/mol
# GULP energy per Si atom -5569.187426 kJ/mol
# Density = 1.975060 g / cm^3
# Si number density = 19.795658 Si / 1000 Ang^3
#
#
#
# Elastic Constant Matrix: (Units=GPa)
#
#
# Indices 1 2 3 4 5 6 
#
# 1 119.3664 50.6447 39.9480 0.0000 0.0000 0.0000
# 2 50.6447 71.1082 27.5150 0.0000 0.0000 0.0000
# 3 39.9480 27.5150 64.8383 0.0000 0.0000 0.0000
# 4 0.0000 0.0000 0.0000 22.5948 0.0000 0.0000
# 5 0.0000 0.0000 0.0000 0.0000 36.8539 0.0000
# 6 0.0000 0.0000 0.0000 0.0000 0.0000 35.9122
#
#
#
# Elastic Compliance Matrix: (Units=1/GPa)
#
#
# Indices 1 2 3 4 5 6 
#
# 1 0.013218 -0.007493 -0.004964 0.000000 0.000000 0.000000
# 2 -0.007493 0.021074 -0.004326 0.000000 0.000000 0.000000
# 3 -0.004964 -0.004326 0.020317 0.000000 0.000000 0.000000
# 4 0.000000 0.000000 0.000000 0.044258 0.000000 0.000000
# 5 0.000000 0.000000 0.000000 0.000000 0.027134 0.000000
# 6 0.000000 0.000000 0.000000 0.000000 0.000000 0.027846
#
#
# Mechanical properties :
#
#
# Convention : Reuss Voigt Hill
#
# Bulk Modulus (GPa) = 47.52359 54.61424 51.06892
# Shear Modulus (GPa) = 25.71636 28.21919 26.96778
#
# Velocity S-wave (km/s) = 3.60820 3.77971 3.69495
# Velocity P-wave (km/s) = 6.43568 6.83353 6.63759
#
# Compressibility (1/GPa) = 0.02104218
#
# Stress axis : x y z
#
# Youngs Moduli (GPa) = 75.65346 47.45162 49.21919
#
# Poissons Ratio (x) = 0.35558 0.24432
# Poissons Ratio (y) = 0.56691 0.21293
# Poissons Ratio (z) = 0.37554 0.20529
#
# Static dielectric constant tensor:
#      x y z
#    x 1.726650 0.000000 0.000000 
#    y 0.000000 1.728640 0.000000 
#    z 0.000000 0.000000 1.767460 
# 
# From -- ./inp_files/6610.got.cif
#   From: 2010.05.17/outbox.cif.g08.bks.cpg/sg19_4_cif.got.tgz:6610.got - 2010.06.03 22:46:19.
