data_PCOD9313485
_publ_section_title
;
Structure prediction by ZEFSAII (Michael W. Deem and Ramdas Pophale) SiO2 
 PCOD9313485
Probable space group: P 21 21 21
;
_chemical_formula_sum "Si O2"
_cell_formula_units_Z 28
_cell_length_a 11.764820
_cell_length_b 9.509894
_cell_length_c 12.417287
_cell_angle_alpha 90.000000
_cell_angle_beta 90.000000
_cell_angle_gamma 90.000000
_cell_volume 1389.273277
_symmetry_space_group_name_H-M "P 21 21 21"
_symmetry_group_IT_number 19
_symmetry_cell_setting 'orthorhombic'
loop_
_space_group_symop_operation_xyz
x,y,z
1/2-x,-y,1/2+z
1/2+x,1/2-y,-z
-x,1/2+y,1/2-z
loop_
_atom_site_type_symbol
_atom_site_label
_atom_site_fract_x
_atom_site_fract_y
_atom_site_fract_z
Si Si1 0.090342 0.519711 0.255861
Si Si2 0.710116 0.024447 0.086225
Si Si3 0.503881 0.911293 0.376918
Si Si4 0.696104 0.786452 0.917274
Si Si5 0.120452 0.027901 0.097402
Si Si6 0.417230 0.663763 0.228538
Si Si7 0.734090 0.193620 0.879065
O O1 0.169006 0.554505 0.358643
O O2 0.106003 0.635886 0.162312
O O3 0.151734 0.380673 0.208016
O O4 0.964189 0.508727 0.301089
O O5 0.622124 0.051851 0.180843
O O6 0.689410 0.136722 0.993055
O O7 0.703574 0.874534 0.027635
O O8 0.448395 0.803431 0.292794
O O9 0.637294 0.865136 0.376068
O O10 0.449548 0.909850 0.495640
O O11 0.492424 0.073304 0.338075
O O12 0.667786 0.624671 0.931722
O O13 0.814257 0.804799 0.852960
O O14 0.218351 0.140072 0.125741
#
# Coordination Sequence:
#
# PCOD9313485 Si02
#       7
#     4   4   4   4   4   4   4
#     4  10  20  42  66  85 128 173 209 259 327 377
#     4  10  18  43  64  86 127 170 206 261 324 383
#     4  12  25  41  69  93 131 172 212 270 324 387
#     4  10  23  41  64  93 128 168 216 266 314 385
#     4  12  24  39  65 100 126 165 227 261 315 387
#     4  11  24  43  65  94 128 170 216 261 329 381
#     4  11  22  41  63  93 128 172 208 268 325 374
#
# _framework density 20.154423000000001
#
# number of rings (size 3 to 8) (size 9 to 14) (size 15 to 20)
#    0.000    1.143    7.143    0.857    4.000    0.000 
#    0.000    0.000    0.000    0.000    0.000    0.000 
#    0.000    0.000    0.000    0.000    0.000    0.000 
#
# Total GULP energy -156223.528370 kJ/mol
# GULP energy per Si atom -5579.411727 kJ/mol
# Density = 2.010855 g / cm^3
# Si number density = 20.154423 Si / 1000 Ang^3
#
#
#
# Elastic Constant Matrix: (Units=GPa)
#
#
# Indices 1 2 3 4 5 6 
#
# 1 29.8708 23.7634 21.8218 0.0000 0.0000 0.0000
# 2 23.7634 118.4950 12.6592 0.0000 0.0000 0.0000
# 3 21.8218 12.6592 61.9624 0.0000 0.0000 0.0000
# 4 0.0000 0.0000 0.0000 27.5316 0.0000 0.0000
# 5 0.0000 0.0000 0.0000 0.0000 11.6813 0.0000
# 6 0.0000 0.0000 0.0000 0.0000 0.0000 25.2421
#
#
#
# Elastic Compliance Matrix: (Units=1/GPa)
#
#
# Indices 1 2 3 4 5 6 
#
# 1 0.052714 -0.008780 -0.016771 0.000000 0.000000 0.000000
# 2 -0.008780 0.010090 0.001031 0.000000 0.000000 0.000000
# 3 -0.016771 0.001031 0.021835 0.000000 0.000000 0.000000
# 4 0.000000 0.000000 0.000000 0.036322 0.000000 0.000000
# 5 0.000000 0.000000 0.000000 0.000000 0.085607 0.000000
# 6 0.000000 0.000000 0.000000 0.000000 0.000000 0.039616
#
#
# Mechanical properties :
#
#
# Convention : Reuss Voigt Hill
#
# Bulk Modulus (GPa) = 28.09123 36.31299 32.20211
# Shear Modulus (GPa) = 16.28190 23.02992 19.65591
#
# Velocity S-wave (km/s) = 2.84537 3.38401 3.12631
# Velocity P-wave (km/s) = 4.97625 5.77280 5.38926
#
# Compressibility (1/GPa) = 0.03559830
#
# Stress axis : x y z
#
# Youngs Moduli (GPa) = 18.97027 99.11006 45.79887
#
# Poissons Ratio (x) = 0.87016 0.76809
# Poissons Ratio (y) = 0.16655 -0.04720
# Poissons Ratio (z) = 0.31815 -0.10215
#
# Static dielectric constant tensor:
#      x y z
#    x 1.727240 0.000000 0.000000 
#    y 0.000000 1.717140 0.000000 
#    z 0.000000 0.000000 1.735020 
# 
# From -- ./inp_files/4595.got.cif
#   From: 2010.05.17/outbox.cif.g08.bks.cpg/sg19_3_cif.got.tgz:4595.got - 2010.06.03 22:46:19.
