data_PCOD9313469
_publ_section_title
;
Structure prediction by ZEFSAII (Michael W. Deem and Ramdas Pophale) SiO2 
 PCOD9313469
Probable space group: P 21 21 21
;
_chemical_formula_sum "Si O2"
_cell_formula_units_Z 28
_cell_length_a 8.211937
_cell_length_b 13.966676
_cell_length_c 9.748369
_cell_angle_alpha 90.000000
_cell_angle_beta 90.000000
_cell_angle_gamma 90.000000
_cell_volume 1118.074203
_symmetry_space_group_name_H-M "P 21 21 21"
_symmetry_group_IT_number 19
_symmetry_cell_setting 'orthorhombic'
loop_
_space_group_symop_operation_xyz
x,y,z
1/2-x,-y,1/2+z
1/2+x,1/2-y,-z
-x,1/2+y,1/2-z
loop_
_atom_site_type_symbol
_atom_site_label
_atom_site_fract_x
_atom_site_fract_y
_atom_site_fract_z
Si Si1 0.494909 0.842021 0.188281
Si Si2 0.721082 0.500811 0.157889
Si Si3 0.696107 0.983242 0.054742
Si Si4 0.321924 0.654223 0.632888
Si Si5 0.548404 0.470030 0.893302
Si Si6 0.027405 0.356926 0.776824
Si Si7 0.081807 0.744305 0.455342
O O1 0.670968 0.833827 0.265981
O O2 0.417007 0.736589 0.191452
O O3 0.375810 0.910961 0.274097
O O4 0.563684 0.898407 0.056722
O O5 0.886364 0.515364 0.240817
O O6 0.615541 0.594086 0.192477
O O7 0.701077 0.489147 0.995212
O O8 0.646310 0.056721 0.178834
O O9 0.888998 0.964841 0.074429
O O10 0.678635 0.046768 0.919609
O O11 0.499050 0.695568 0.667368
O O12 0.264965 0.717875 0.498095
O O13 0.490141 0.362337 0.930878
O O14 0.952576 0.316229 0.917780
#
# Coordination Sequence:
#
# PCOD9313469 Si02
#       7
#     4   4   4   4   4   4   4
#     4  10  18  38  58  86 120 161 204 261 316 367
#     4  11  22  39  62  87 132 163 208 261 320 369
#     4   9  19  34  57  86 121 157 205 258 312 373
#     4   9  16  31  54  83 112 147 203 258 296 351
#     4  11  21  40  57  93 131 164 210 266 304 378
#     4   9  18  36  64  87 109 165 209 263 303 363
#     4   9  16  32  58  84 109 147 211 257 285 339
#
# _framework density 25.043063
#
# number of rings (size 3 to 8) (size 9 to 14) (size 15 to 20)
#    0.000    2.286    4.286    1.714    0.000    0.000 
#   10.286    2.857    0.000    0.000    0.000    0.000 
#    0.000    0.000    0.000    0.000    0.000    0.000 
#
# Total GULP energy -155996.265549 kJ/mol
# GULP energy per Si atom -5571.295198 kJ/mol
# Density = 2.498606 g / cm^3
# Si number density = 25.043063 Si / 1000 Ang^3
#
#
#
# Elastic Constant Matrix: (Units=GPa)
#
#
# Indices 1 2 3 4 5 6 
#
# 1 64.4394 15.3385 35.6743 0.0000 0.0000 0.0000
# 2 15.3385 91.1365 8.0870 0.0000 0.0000 0.0000
# 3 35.6743 8.0870 42.3196 0.0000 0.0000 0.0000
# 4 0.0000 0.0000 0.0000 32.0758 0.0000 0.0000
# 5 0.0000 0.0000 0.0000 0.0000 34.4005 0.0000
# 6 0.0000 0.0000 0.0000 0.0000 0.0000 43.2547
#
#
#
# Elastic Compliance Matrix: (Units=1/GPa)
#
#
# Indices 1 2 3 4 5 6 
#
# 1 0.029801 -0.002834 -0.024580 0.000000 0.000000 0.000000
# 2 -0.002834 0.011431 0.000205 0.000000 0.000000 0.000000
# 3 -0.024580 0.000205 0.044311 0.000000 0.000000 0.000000
# 4 0.000000 0.000000 0.000000 0.031176 0.000000 0.000000
# 5 0.000000 0.000000 0.000000 0.000000 0.029069 0.000000
# 6 0.000000 0.000000 0.000000 0.000000 0.000000 0.023119
#
#
# Mechanical properties :
#
#
# Convention : Reuss Voigt Hill
#
# Bulk Modulus (GPa) = 32.12917 35.12169 33.62543
# Shear Modulus (GPa) = 21.39493 31.19922 26.29708
#
# Velocity S-wave (km/s) = 2.92606 3.53345 3.24400
# Velocity P-wave (km/s) = 4.92678 5.54094 5.24286
#
# Compressibility (1/GPa) = 0.03112436
#
# Stress axis : x y z
#
# Youngs Moduli (GPa) = 33.55626 87.47820 22.56797
#
# Poissons Ratio (x) = 0.24795 0.55471
# Poissons Ratio (y) = 0.09511 -0.00462
# Poissons Ratio (z) = 0.82480 -0.01792
#
# Static dielectric constant tensor:
#      x y z
#    x 2.035200 0.000000 0.000000 
#    y 0.000000 2.043970 0.000000 
#    z 0.000000 0.000000 2.068290 
# 
# From -- ./inp_files/3532.got.cif
#   From: 2010.05.17/outbox.cif.g08.bks.cpg/sg19_2_cif.got.tgz:3532.got - 2010.06.03 22:46:19.
