data_PCOD9313738
_publ_section_title
;
Structure prediction by ZEFSAII (Michael W. Deem and Ramdas Pophale) SiO2 
 PCOD9313738
Probable space group: P 21 21 21
;
_chemical_formula_sum "Si O2"
_cell_formula_units_Z 24
_cell_length_a 8.315553
_cell_length_b 6.899742
_cell_length_c 15.302875
_cell_angle_alpha 90.000000
_cell_angle_beta 90.000000
_cell_angle_gamma 90.000000
_cell_volume 878.005059
_symmetry_space_group_name_H-M "P 21 21 21"
_symmetry_group_IT_number 19
_symmetry_cell_setting 'orthorhombic'
loop_
_space_group_symop_operation_xyz
x,y,z
1/2-x,-y,1/2+z
1/2+x,1/2-y,-z
-x,1/2+y,1/2-z
loop_
_atom_site_type_symbol
_atom_site_label
_atom_site_fract_x
_atom_site_fract_y
_atom_site_fract_z
Si Si1 0.641104 0.378318 0.887460
Si Si2 0.821050 0.166254 0.407527
Si Si3 0.304456 0.428863 0.928418
Si Si4 0.654140 0.308247 0.678254
Si Si5 0.002606 0.265122 0.676990
Si Si6 0.983417 0.318479 0.876628
O O1 0.658736 0.602450 0.914444
O O2 0.474400 0.319815 0.931278
O O3 0.634427 0.351662 0.781633
O O4 0.807303 0.274387 0.914135
O O5 0.753215 0.076765 0.496395
O O6 0.672647 0.135305 0.341495
O O7 0.997597 0.106580 0.371742
O O8 0.336506 0.577728 0.845575
O O9 0.157903 0.283669 0.914897
O O10 0.835773 0.368962 0.650956
O O11 0.014222 0.054383 0.632599
O O12 0.986688 0.235569 0.779501
#
# Coordination Sequence:
#
# PCOD9313738 Si02
#       6
#     4   4   4   4   4   4
#     4   9  19  32  48  75 110 142 172 218 276 330
#     4  10  20  30  53  82 106 133 183 237 267 311
#     4  10  20  30  53  82 106 133 183 237 267 311
#     4   9  19  32  48  75 110 142 172 218 276 330
#     4   9  18  32  51  78 106 141 180 222 271 331
#     4   9  18  32  51  78 106 141 180 222 271 331
#
# _framework density 27.334695
#
# number of rings (size 3 to 8) (size 9 to 14) (size 15 to 20)
#    0.000    2.667    0.000    1.000   14.000    0.000 
#    0.000    0.000    0.000    0.000   34.667    9.333 
#    0.000    0.000    0.000    0.000    0.000    0.000 
#
# Total GULP energy -134195.968525 kJ/mol
# GULP energy per Si atom -5591.498689 kJ/mol
# Density = 2.727248 g / cm^3
# Si number density = 27.334695 Si / 1000 Ang^3
#
#
#
# Elastic Constant Matrix: (Units=GPa)
#
#
# Indices 1 2 3 4 5 6 
#
# 1 324.6695 18.6467 60.3229 0.0000 0.0000 0.0000
# 2 18.6467 115.3324 30.6621 0.0000 0.0000 0.0000
# 3 60.3229 30.6621 91.7775 0.0000 0.0000 0.0000
# 4 0.0000 0.0000 0.0000 102.4965 0.0000 0.0000
# 5 0.0000 0.0000 0.0000 0.0000 62.8742 0.0000
# 6 0.0000 0.0000 0.0000 0.0000 0.0000 29.1727
#
#
#
# Elastic Compliance Matrix: (Units=1/GPa)
#
#
# Indices 1 2 3 4 5 6 
#
# 1 0.003509 0.000050 -0.002323 0.000000 0.000000 0.000000
# 2 0.000050 0.009517 -0.003212 0.000000 0.000000 0.000000
# 3 -0.002323 -0.003212 0.013496 0.000000 0.000000 0.000000
# 4 0.000000 0.000000 0.000000 0.009756 0.000000 0.000000
# 5 0.000000 0.000000 0.000000 0.000000 0.015905 0.000000
# 6 0.000000 0.000000 0.000000 0.000000 0.000000 0.034279
#
#
# Mechanical properties :
#
#
# Convention : Reuss Voigt Hill
#
# Bulk Modulus (GPa) = 64.30466 83.44920 73.87693
# Shear Modulus (GPa) = 48.72572 67.05186 57.88879
#
# Velocity S-wave (km/s) = 4.22662 4.95814 4.60692
# Velocity P-wave (km/s) = 6.88441 7.96069 7.44203
#
# Compressibility (1/GPa) = 0.01555097
#
# Stress axis : x y z
#
# Youngs Moduli (GPa) = 284.99921 105.08043 74.09576
#
# Poissons Ratio (x) = -0.00529 0.17213
# Poissons Ratio (y) = -0.01434 0.23803
# Poissons Ratio (z) = 0.66206 0.33757
#
# Static dielectric constant tensor:
#      x y z
#    x 2.168890 0.000000 0.000000 
#    y 0.000000 2.150740 0.000000 
#    z 0.000000 0.000000 2.074210 
# 
# From -- ./inp_files/2781.got.cif
#   From: 2010.05.17/outbox.cif.g08.bks.cpg/sg19_2_cif.got.tgz:2781.got - 2010.06.03 22:46:19.
