data_PCOD9313953
_publ_section_title
;
Structure prediction by ZEFSAII (Michael W. Deem and Ramdas Pophale) SiO2 
 PCOD9313953
Probable space group: P 21 21 21
;
_chemical_formula_sum "Si O2"
_cell_formula_units_Z 28
_cell_length_a 8.690054
_cell_length_b 5.513510
_cell_length_c 24.323701
_cell_angle_alpha 90.000000
_cell_angle_beta 90.000000
_cell_angle_gamma 90.000000
_cell_volume 1165.414180
_symmetry_space_group_name_H-M "P 21 21 21"
_symmetry_group_IT_number 19
_symmetry_cell_setting 'orthorhombic'
loop_
_space_group_symop_operation_xyz
x,y,z
1/2-x,-y,1/2+z
1/2+x,1/2-y,-z
-x,1/2+y,1/2-z
loop_
_atom_site_type_symbol
_atom_site_label
_atom_site_fract_x
_atom_site_fract_y
_atom_site_fract_z
Si Si1 0.137398 0.059363 0.566590
Si Si2 0.616768 0.900845 0.912280
Si Si3 0.852637 0.289579 0.039046
Si Si4 0.153459 0.706397 0.660816
Si Si5 0.872305 0.938351 0.129319
Si Si6 0.456026 0.786718 0.720377
Si Si7 0.889896 0.401566 0.611194
O O1 0.140429 0.958785 0.628483
O O2 0.289389 0.209047 0.552285
O O3 0.145517 0.830944 0.525824
O O4 0.996552 0.245859 0.569412
O O5 0.512228 0.080956 0.945726
O O6 0.508016 0.754500 0.871211
O O7 0.739409 0.038266 0.876451
O O8 0.853874 0.026547 0.066129
O O9 0.718479 0.428259 0.073142
O O10 0.271238 0.754918 0.710900
O O11 0.989892 0.566738 0.653881
O O12 0.938500 0.157797 0.165879
O O13 0.717181 0.794538 0.142879
O O14 0.514536 0.535455 0.746264
#
# Coordination Sequence:
#
# PCOD9313953 Si02
#       7
#     4   4   4   4   4   4   4
#     4  11  22  38  64 100 144 196 243 289 368 449
#     4  10  20  38  64  92 140 182 244 289 359 418
#     4  11  22  38  64 100 144 196 243 289 368 449
#     4  11  23  44  69 102 140 184 239 314 363 449
#     4  11  23  44  69 102 140 184 239 314 363 449
#     4  12  27  48  85 110 134 195 268 319 382 446
#     4  10  25  40  67  98 154 189 232 302 387 420
#
# _framework density 24.025794000000001
#
# number of rings (size 3 to 8) (size 9 to 14) (size 15 to 20)
#    0.000    1.143    2.857    2.571    4.000    9.143 
#    0.000    0.000    6.286    0.000    0.000    0.000 
#    0.000    0.000    0.000    0.000    0.000    0.000 
#
# Total GULP energy -156368.431136 kJ/mol
# GULP energy per Si atom -5584.586826 kJ/mol
# Density = 2.397111 g / cm^3
# Si number density = 24.025794 Si / 1000 Ang^3
#
#
#
# Elastic Constant Matrix: (Units=GPa)
#
#
# Indices 1 2 3 4 5 6 
#
# 1 120.0335 24.4562 2.0735 0.0000 0.0000 0.0000
# 2 24.4562 78.4971 6.7117 0.0000 0.0000 0.0000
# 3 2.0735 6.7117 42.7017 0.0000 0.0000 0.0000
# 4 0.0000 0.0000 0.0000 24.6205 0.0000 0.0000
# 5 0.0000 0.0000 0.0000 0.0000 20.1554 0.0000
# 6 0.0000 0.0000 0.0000 0.0000 0.0000 47.6219
#
#
#
# Elastic Compliance Matrix: (Units=1/GPa)
#
#
# Indices 1 2 3 4 5 6 
#
# 1 0.008896 -0.002772 0.000004 0.000000 0.000000 0.000000
# 2 -0.002772 0.013777 -0.002031 0.000000 0.000000 0.000000
# 3 0.000004 -0.002031 0.023737 0.000000 0.000000 0.000000
# 4 0.000000 0.000000 0.000000 0.040617 0.000000 0.000000
# 5 0.000000 0.000000 0.000000 0.000000 0.049615 0.000000
# 6 0.000000 0.000000 0.000000 0.000000 0.000000 0.020999
#
#
# Mechanical properties :
#
#
# Convention : Reuss Voigt Hill
#
# Bulk Modulus (GPa) = 27.16524 34.19058 30.67791
# Shear Modulus (GPa) = 27.85396 32.34561 30.09978
#
# Velocity S-wave (km/s) = 3.40860 3.67316 3.54335
# Velocity P-wave (km/s) = 5.17905 5.67901 5.43478
#
# Compressibility (1/GPa) = 0.03681175
#
# Stress axis : x y z
#
# Youngs Moduli (GPa) = 112.41395 72.58719 42.12787
#
# Poissons Ratio (x) = 0.20120 -0.00016
# Poissons Ratio (y) = 0.31159 0.08555
# Poissons Ratio (z) = -0.00042 0.14741
#
# Static dielectric constant tensor:
#      x y z
#    x 1.956830 0.000000 0.000000 
#    y 0.000000 1.912860 0.000000 
#    z 0.000000 0.000000 2.031550 
# 
# From -- ./inp_files/2152.got.cif
#   From: 2010.05.17/outbox.cif.g08.bks.cpg/sg19_2_cif.got.tgz:2152.got - 2010.06.03 22:46:19.
