data_PCOD9313746
_publ_section_title
;
Structure prediction by ZEFSAII (Michael W. Deem and Ramdas Pophale) SiO2 
 PCOD9313746
Probable space group: P 21 21 21
;
_chemical_formula_sum "Si O2"
_cell_formula_units_Z 32
_cell_length_a 18.699523
_cell_length_b 8.961286
_cell_length_c 7.706044
_cell_angle_alpha 90.000000
_cell_angle_beta 90.000000
_cell_angle_gamma 90.000000
_cell_volume 1291.315461
_symmetry_space_group_name_H-M "P 21 21 21"
_symmetry_group_IT_number 19
_symmetry_cell_setting 'orthorhombic'
loop_
_space_group_symop_operation_xyz
x,y,z
1/2-x,-y,1/2+z
1/2+x,1/2-y,-z
-x,1/2+y,1/2-z
loop_
_atom_site_type_symbol
_atom_site_label
_atom_site_fract_x
_atom_site_fract_y
_atom_site_fract_z
Si Si1 0.654176 0.231370 0.427901
Si Si2 0.260883 0.004879 0.016509
Si Si3 0.739145 0.004862 0.016357
Si Si4 0.000010 0.110528 0.163160
Si Si5 0.149994 0.745563 0.344772
Si Si6 0.150014 0.245576 0.155342
Si Si7 0.654204 0.731362 0.071979
Si Si8 0.500010 0.716588 0.011504
O O1 0.697276 0.378105 0.373989
O O2 0.706400 0.093420 0.398929
O O3 0.647824 0.238836 0.637669
O O4 0.572123 0.219755 0.374353
O O5 0.206423 0.906600 0.899097
O O6 0.207667 0.122372 0.102330
O O7 0.322916 0.099389 0.923643
O O8 0.697313 0.878087 0.125878
O O9 0.677105 0.099375 0.923521
O O10 0.792365 0.122347 0.102182
O O11 0.072311 0.188945 0.097281
O O12 0.927719 0.188952 0.097226
O O13 0.999998 0.145630 0.372096
O O14 0.000008 0.937402 0.103543
O O15 0.147831 0.761154 0.137782
O O16 0.572158 0.719757 0.125594
#
# Coordination Sequence:
#
# PCOD9313746 Si02
#       8
#     4   4   4   4   4   4   4   4
#     4  10  20  34  53  78 110 134 170 215 259 313
#     4  10  20  32  50  80 104 142 172 200 266 314
#     4  10  20  32  50  80 104 142 172 200 266 314
#     4  10  20  32  52  78 107 136 164 218 277 312
#     4  10  20  34  53  78 110 134 170 215 259 313
#     4  10  20  34  53  78 110 134 170 215 259 313
#     4  10  20  34  53  78 110 134 170 215 259 313
#     4  10  20  32  52  78 107 136 164 218 277 312
#
# _framework density 24.780933999999998
#
# number of rings (size 3 to 8) (size 9 to 14) (size 15 to 20)
#    0.000    2.000    2.500    1.500   10.500    0.000 
#    0.000    0.000    0.000    0.000    0.000  122.500 
#    0.000    0.000    0.000    0.000    0.000    0.000 
#
# Total GULP energy -179035.919585 kJ/mol
# GULP energy per Si atom -5594.872487 kJ/mol
# Density = 2.472453 g / cm^3
# Si number density = 24.780934 Si / 1000 Ang^3
#
#
#
# Elastic Constant Matrix: (Units=GPa)
#
#
# Indices 1 2 3 4 5 6 
#
# 1 202.2155 41.6814 17.2351 0.0000 0.0000 0.0000
# 2 41.6814 151.4305 26.3870 0.0000 0.0000 0.0000
# 3 17.2351 26.3870 30.6620 0.0000 0.0000 0.0000
# 4 0.0000 0.0000 0.0000 24.9621 0.0000 0.0000
# 5 0.0000 0.0000 0.0000 0.0000 23.1065 0.0000
# 6 0.0000 0.0000 0.0000 0.0000 0.0000 41.1593
#
#
#
# Elastic Compliance Matrix: (Units=1/GPa)
#
#
# Indices 1 2 3 4 5 6 
#
# 1 0.005350 -0.001116 -0.002047 0.000000 0.000000 0.000000
# 2 -0.001116 0.008001 -0.006259 0.000000 0.000000 0.000000
# 3 -0.002047 -0.006259 0.039150 0.000000 0.000000 0.000000
# 4 0.000000 0.000000 0.000000 0.040061 0.000000 0.000000
# 5 0.000000 0.000000 0.000000 0.000000 0.043278 0.000000
# 6 0.000000 0.000000 0.000000 0.000000 0.000000 0.024296
#
#
# Mechanical properties :
#
#
# Convention : Reuss Voigt Hill
#
# Bulk Modulus (GPa) = 29.70992 61.65721 45.68356
# Shear Modulus (GPa) = 26.28843 37.77921 32.03382
#
# Velocity S-wave (km/s) = 3.26058 3.90876 3.59929
# Velocity P-wave (km/s) = 5.11764 6.73098 5.97897
#
# Compressibility (1/GPa) = 0.03365880
#
# Stress axis : x y z
#
# Youngs Moduli (GPa) = 186.92731 124.97824 25.54269
#
# Poissons Ratio (x) = 0.13946 0.05228
# Poissons Ratio (y) = 0.20858 0.15986
# Poissons Ratio (z) = 0.38260 0.78219
#
# Static dielectric constant tensor:
#      x y z
#    x 1.989830 0.000000 0.000000 
#    y 0.000000 1.934350 0.000000 
#    z 0.000000 0.000000 2.010540 
# 
# From -- ./inp_files/3729.got.cif
#   From: 2010.05.17/outbox.cif.g08.bks.cpg/sg19_2_cif.got.tgz:3729.got - 2010.06.03 22:46:19.
