data_PCOD9313375
_publ_section_title
;
Structure prediction by ZEFSAII (Michael W. Deem and Ramdas Pophale) SiO2 
 PCOD9313375
Probable space group: P 21 21 21
;
_chemical_formula_sum "Si O2"
_cell_formula_units_Z 32
_cell_length_a 6.822061
_cell_length_b 7.035871
_cell_length_c 23.349676
_cell_angle_alpha 90.000000
_cell_angle_beta 90.000000
_cell_angle_gamma 90.000000
_cell_volume 1120.764394
_symmetry_space_group_name_H-M "P 21 21 21"
_symmetry_group_IT_number 19
_symmetry_cell_setting 'orthorhombic'
loop_
_space_group_symop_operation_xyz
x,y,z
1/2-x,-y,1/2+z
1/2+x,1/2-y,-z
-x,1/2+y,1/2-z
loop_
_atom_site_type_symbol
_atom_site_label
_atom_site_fract_x
_atom_site_fract_y
_atom_site_fract_z
Si Si1 0.768697 0.254945 0.232808
Si Si2 0.582826 0.377234 0.943382
Si Si3 0.811439 0.136149 0.769648
Si Si4 0.839180 0.496005 0.329721
Si Si5 0.123356 0.556691 0.601882
Si Si6 0.714365 0.481546 0.627363
Si Si7 0.989822 0.166204 0.598035
Si Si8 0.425031 0.023196 0.990164
O O1 0.805757 0.671727 0.285962
O O2 0.537757 0.307261 0.241812
O O3 0.232182 0.527496 0.272505
O O4 0.844152 0.395064 0.182163
O O5 0.518485 0.466918 0.883438
O O6 0.438678 0.249998 0.979845
O O7 0.735427 0.215255 0.921427
O O8 0.709357 0.514104 0.983204
O O9 0.623049 0.684658 0.790839
O O10 0.823808 0.033051 0.831447
O O11 0.629523 0.459482 0.361955
O O12 0.118436 0.347341 0.575843
O O13 0.893610 0.612744 0.602632
O O14 0.567881 0.447521 0.574724
O O15 0.825097 0.279861 0.634362
O O16 0.934160 0.053190 0.540302
#
# Coordination Sequence:
#
# PCOD9313375 Si02
#       8
#     4   4   4   4   4   4   4   4
#     4  11  17  31  55  87 124 157 212 262 309 374
#     4  10  22  37  61  86 124 169 206 268 313 389
#     4  10  18  27  55  88 117 161 197 259 308 361
#     4  10  19  35  56  88 122 162 207 251 329 369
#     4   8  17  34  55  92 114 153 208 250 314 366
#     4   9  21  35  59  94 125 163 213 270 322 376
#     4   9  20  35  62  86 123 160 212 266 317 381
#     4  11  22  40  61  89 127 169 217 266 328 382
#
# _framework density 28.551943000000001
#
# number of rings (size 3 to 8) (size 9 to 14) (size 15 to 20)
#    0.750    1.500    2.500    0.750    1.750    1.000 
#    0.000    0.000    5.500    0.000    0.000    0.000 
#    0.000    0.000    0.000    0.000    0.000    0.000 
#
# Total GULP energy -178850.782823 kJ/mol
# GULP energy per Si atom -5589.086963 kJ/mol
# Density = 2.848696 g / cm^3
# Si number density = 28.551943 Si / 1000 Ang^3
#
#
#
# Elastic Constant Matrix: (Units=GPa)
#
#
# Indices 1 2 3 4 5 6 
#
# 1 57.8423 22.2166 12.2595 0.0000 0.0000 0.0000
# 2 22.2166 123.2435 27.4921 0.0000 0.0000 0.0000
# 3 12.2595 27.4921 134.5829 0.0000 0.0000 0.0000
# 4 0.0000 0.0000 0.0000 48.7604 0.0000 0.0000
# 5 0.0000 0.0000 0.0000 0.0000 35.2252 0.0000
# 6 0.0000 0.0000 0.0000 0.0000 0.0000 54.9780
#
#
#
# Elastic Compliance Matrix: (Units=1/GPa)
#
#
# Indices 1 2 3 4 5 6 
#
# 1 0.018719 -0.003137 -0.001064 0.000000 0.000000 0.000000
# 2 -0.003137 0.009027 -0.001558 0.000000 0.000000 0.000000
# 3 -0.001064 -0.001558 0.007846 0.000000 0.000000 0.000000
# 4 0.000000 0.000000 0.000000 0.020508 0.000000 0.000000
# 5 0.000000 0.000000 0.000000 0.000000 0.028389 0.000000
# 6 0.000000 0.000000 0.000000 0.000000 0.000000 0.018189
#
#
# Mechanical properties :
#
#
# Convention : Reuss Voigt Hill
#
# Bulk Modulus (GPa) = 41.54124 48.84499 45.19311
# Shear Modulus (GPa) = 40.90946 44.70609 42.80778
#
# Velocity S-wave (km/s) = 3.78935 3.96129 3.87627
# Velocity P-wave (km/s) = 5.80745 6.16984 5.99139
#
# Compressibility (1/GPa) = 0.02407247
#
# Stress axis : x y z
#
# Youngs Moduli (GPa) = 53.42216 110.77746 127.45941
#
# Poissons Ratio (x) = 0.34750 0.13566
# Poissons Ratio (y) = 0.16758 0.19862
# Poissons Ratio (z) = 0.05686 0.17262
#
# Static dielectric constant tensor:
#      x y z
#    x 2.335790 0.000000 0.000000 
#    y 0.000000 2.212140 0.000000 
#    z 0.000000 0.000000 2.287750 
# 
# From -- ./inp_files/7490.got.cif
#   From: 2010.05.17/outbox.cif.g08.bks.cpg/sg19_4_cif.got.tgz:7490.got - 2010.06.03 22:46:19.
