data_PCOD9313770
_publ_section_title
;
Structure prediction by ZEFSAII (Michael W. Deem and Ramdas Pophale) SiO2 
 PCOD9313770
Probable space group: P 21 21 21
;
_chemical_formula_sum "Si O2"
_cell_formula_units_Z 28
_cell_length_a 5.650094
_cell_length_b 7.721085
_cell_length_c 24.765651
_cell_angle_alpha 90.000000
_cell_angle_beta 90.000000
_cell_angle_gamma 90.000000
_cell_volume 1080.397959
_symmetry_space_group_name_H-M "P 21 21 21"
_symmetry_group_IT_number 19
_symmetry_cell_setting 'orthorhombic'
loop_
_space_group_symop_operation_xyz
x,y,z
1/2-x,-y,1/2+z
1/2+x,1/2-y,-z
-x,1/2+y,1/2-z
loop_
_atom_site_type_symbol
_atom_site_label
_atom_site_fract_x
_atom_site_fract_y
_atom_site_fract_z
Si Si1 0.740159 0.879374 0.556167
Si Si2 0.249764 0.635781 0.816286
Si Si3 0.754567 0.479831 0.987344
Si Si4 0.456405 0.160643 0.415965
Si Si5 0.046873 0.321987 0.755828
Si Si6 0.144811 0.674345 0.149599
Si Si7 0.248976 0.874119 0.350768
O O1 0.739835 0.706371 0.518516
O O2 0.988109 0.979584 0.542280
O O3 0.494198 0.975183 0.544286
O O4 0.712805 0.802589 0.616298
O O5 0.091227 0.481470 0.795106
O O6 0.151214 0.708190 0.872647
O O7 0.523177 0.646475 0.830536
O O8 0.211016 0.770326 0.765953
O O9 0.701776 0.629424 0.031729
O O10 0.735189 0.196405 0.409380
O O11 0.447001 0.972392 0.386080
O O12 0.183623 0.357722 0.700217
O O13 0.164835 0.168783 0.791065
O O14 0.967934 0.509704 0.147350
#
# Coordination Sequence:
#
# PCOD9313770 Si02
#       7
#     4   4   4   4   4   4   4
#     4   9  19  31  54  88 118 153 196 248 309 355
#     4  10  21  35  55  80 112 149 197 236 301 354
#     4   9  18  32  55  85 121 149 195 251 303 365
#     4   9  20  34  57  83 115 149 193 245 305 361
#     4  11  21  38  55  82 118 155 199 249 300 370
#     4  10  20  34  55  84 114 156 191 244 304 363
#     4  10  21  34  57  84 120 153 201 251 302 366
#
# _framework density 25.916378999999999
#
# number of rings (size 3 to 8) (size 9 to 14) (size 15 to 20)
#    0.000    2.286    0.000    3.429   12.000    1.143 
#    0.000    0.000    0.000    1.714    0.000    0.000 
#    0.000    0.000    0.000    0.000    0.000    0.000 
#
# Total GULP energy -156135.383792 kJ/mol
# GULP energy per Si atom -5576.263707 kJ/mol
# Density = 2.585739 g / cm^3
# Si number density = 25.916379 Si / 1000 Ang^3
#
#
#
# Elastic Constant Matrix: (Units=GPa)
#
#
# Indices 1 2 3 4 5 6 
#
# 1 101.4149 8.9977 27.5646 0.0000 0.0000 0.0000
# 2 8.9977 58.9611 14.0233 0.0000 0.0000 0.0000
# 3 27.5646 14.0233 102.6110 0.0000 0.0000 0.0000
# 4 0.0000 0.0000 0.0000 52.6728 0.0000 0.0000
# 5 0.0000 0.0000 0.0000 0.0000 27.7849 0.0000
# 6 0.0000 0.0000 0.0000 0.0000 0.0000 34.0227
#
#
#
# Elastic Compliance Matrix: (Units=1/GPa)
#
#
# Indices 1 2 3 4 5 6 
#
# 1 0.010692 -0.000980 -0.002738 0.000000 0.000000 0.000000
# 2 -0.000980 0.017620 -0.002145 0.000000 0.000000 0.000000
# 3 -0.002738 -0.002145 0.010774 0.000000 0.000000 0.000000
# 4 0.000000 0.000000 0.000000 0.018985 0.000000 0.000000
# 5 0.000000 0.000000 0.000000 0.000000 0.035991 0.000000
# 6 0.000000 0.000000 0.000000 0.000000 0.000000 0.029392
#
#
# Mechanical properties :
#
#
# Convention : Reuss Voigt Hill
#
# Bulk Modulus (GPa) = 36.55029 40.46201 38.50615
# Shear Modulus (GPa) = 34.64998 37.05617 35.85307
#
# Velocity S-wave (km/s) = 3.66046 3.78542 3.72346
# Velocity P-wave (km/s) = 5.65677 5.89511 5.77717
#
# Compressibility (1/GPa) = 0.02735956
#
# Stress axis : x y z
#
# Youngs Moduli (GPa) = 93.53053 56.75354 92.81434
#
# Poissons Ratio (x) = 0.05564 0.25414
# Poissons Ratio (y) = 0.09169 0.19906
# Poissons Ratio (z) = 0.25610 0.12172
#
# Static dielectric constant tensor:
#      x y z
#    x 2.239870 0.000000 0.000000 
#    y 0.000000 2.213040 0.000000 
#    z 0.000000 0.000000 2.050670 
# 
# From -- ./inp_files/604.got.cif
#   From: 2010.05.17/outbox.cif.g08.bks.cpg/sg19_1_cif.got.tgz:604.got - 2010.06.03 22:46:19.
