data_PCOD9313896
_publ_section_title
;
Structure prediction by ZEFSAII (Michael W. Deem and Ramdas Pophale) SiO2 
 PCOD9313896
Probable space group: P 21 21 21
;
_chemical_formula_sum "Si O2"
_cell_formula_units_Z 32
_cell_length_a 12.109508
_cell_length_b 15.006451
_cell_length_c 8.689790
_cell_angle_alpha 90.000000
_cell_angle_beta 90.000000
_cell_angle_gamma 90.000000
_cell_volume 1579.115056
_symmetry_space_group_name_H-M "P 21 21 21"
_symmetry_group_IT_number 19
_symmetry_cell_setting 'orthorhombic'
loop_
_space_group_symop_operation_xyz
x,y,z
1/2-x,-y,1/2+z
1/2+x,1/2-y,-z
-x,1/2+y,1/2-z
loop_
_atom_site_type_symbol
_atom_site_label
_atom_site_fract_x
_atom_site_fract_y
_atom_site_fract_z
Si Si1 0.448311 0.568070 0.978682
Si Si2 0.900064 0.887995 0.365650
Si Si3 0.304724 0.925048 0.881059
Si Si4 0.583271 0.648724 0.205444
Si Si5 0.503853 0.277579 0.038335
Si Si6 0.351883 0.414567 0.121305
Si Si7 0.849043 0.568264 0.483408
Si Si8 0.006566 0.023315 0.601465
O O1 0.483826 0.649939 0.083284
O O2 0.346846 0.513737 0.049782
O O3 0.438699 0.589031 0.803289
O O4 0.551683 0.501629 0.999860
O O5 0.768935 0.877507 0.354710
O O6 0.960511 0.799216 0.423178
O O7 0.932097 0.967609 0.481630
O O8 0.201296 0.855791 0.880852
O O9 0.336077 0.922165 0.700707
O O10 0.406505 0.917808 0.001550
O O11 0.252904 0.021136 0.931059
O O12 0.556873 0.728155 0.321061
O O13 0.570106 0.556297 0.304790
O O14 0.612849 0.339069 0.060084
O O15 0.412860 0.351539 0.996548
O O16 0.428866 0.425573 0.274429
#
# Coordination Sequence:
#
# PCOD9313896 Si02
#       8
#     4   4   4   4   4   4   4   4
#     4   9  19  39  60  87 115 158 217 252 299 383
#     4  11  21  38  64  87 122 169 208 266 322 382
#     4  11  19  35  67  94 119 167 216 269 308 376
#     4   9  20  38  58  87 131 164 197 265 327 370
#     4  10  24  40  57  89 130 164 202 261 332 386
#     4  10  22  40  59  85 124 167 207 261 317 382
#     4  10  21  37  62  92 122 158 215 262 315 374
#     4  10  20  37  63  91 121 163 218 260 308 383
#
# _framework density 20.264514999999999
#
# number of rings (size 3 to 8) (size 9 to 14) (size 15 to 20)
#    0.000    2.000    2.500    1.500    1.750    0.000 
#    2.250    0.000    0.000    0.000    0.000    0.000 
#    0.000    0.000    0.000    0.000    0.000    0.000 
#
# Total GULP energy -178160.238219 kJ/mol
# GULP energy per Si atom -5567.507444 kJ/mol
# Density = 2.021839 g / cm^3
# Si number density = 20.264515 Si / 1000 Ang^3
#
#
#
# Elastic Constant Matrix: (Units=GPa)
#
#
# Indices 1 2 3 4 5 6 
#
# 1 80.4551 29.2623 43.6063 0.0000 0.0000 0.0000
# 2 29.2623 47.4729 28.6656 0.0000 0.0000 0.0000
# 3 43.6063 28.6656 93.5659 0.0000 0.0000 0.0000
# 4 0.0000 0.0000 0.0000 13.5280 0.0000 0.0000
# 5 0.0000 0.0000 0.0000 0.0000 1.6402 0.0000
# 6 0.0000 0.0000 0.0000 0.0000 0.0000 26.0340
#
#
#
# Elastic Compliance Matrix: (Units=1/GPa)
#
#
# Indices 1 2 3 4 5 6 
#
# 1 0.018658 -0.007669 -0.006346 0.000000 0.000000 0.000000
# 2 -0.007669 0.028998 -0.005310 0.000000 0.000000 0.000000
# 3 -0.006346 -0.005310 0.015272 0.000000 0.000000 0.000000
# 4 0.000000 0.000000 0.000000 0.073921 0.000000 0.000000
# 5 0.000000 0.000000 0.000000 0.000000 0.609679 0.000000
# 6 0.000000 0.000000 0.000000 0.000000 0.000000 0.038411
#
#
# Mechanical properties :
#
#
# Convention : Reuss Voigt Hill
#
# Bulk Modulus (GPa) = 41.18909 47.17361 44.18135
# Shear Modulus (GPa) = 6.01191 16.23774 11.12482
#
# Velocity S-wave (km/s) = 1.72428 2.83378 2.34558
# Velocity P-wave (km/s) = 4.93296 5.83408 5.40234
#
# Compressibility (1/GPa) = 0.02427827
#
# Stress axis : x y z
#
# Youngs Moduli (GPa) = 53.59607 34.48496 65.47902
#
# Poissons Ratio (x) = 0.26446 0.41553
# Poissons Ratio (y) = 0.41102 0.34770
# Poissons Ratio (z) = 0.34012 0.18312
#
# Static dielectric constant tensor:
#      x y z
#    x 1.787390 0.000000 0.000000 
#    y 0.000000 1.761990 0.000000 
#    z 0.000000 0.000000 1.728170 
# 
# From -- ./inp_files/3653.got.cif
#   From: 2010.05.17/outbox.cif.g08.bks.cpg/sg19_2_cif.got.tgz:3653.got - 2010.06.03 22:46:19.
