data_PCOD9313704
_publ_section_title
;
Structure prediction by ZEFSAII (Michael W. Deem and Ramdas Pophale) SiO2 
 PCOD9313704
Probable space group: P 21 21 21
;
_chemical_formula_sum "Si O2"
_cell_formula_units_Z 28
_cell_length_a 9.904107
_cell_length_b 15.107959
_cell_length_c 8.358005
_cell_angle_alpha 90.000000
_cell_angle_beta 90.000000
_cell_angle_gamma 90.000000
_cell_volume 1250.615330
_symmetry_space_group_name_H-M "P 21 21 21"
_symmetry_group_IT_number 19
_symmetry_cell_setting 'orthorhombic'
loop_
_space_group_symop_operation_xyz
x,y,z
1/2-x,-y,1/2+z
1/2+x,1/2-y,-z
-x,1/2+y,1/2-z
loop_
_atom_site_type_symbol
_atom_site_label
_atom_site_fract_x
_atom_site_fract_y
_atom_site_fract_z
Si Si1 0.998781 0.661350 0.510946
Si Si2 0.422052 0.673656 0.659303
Si Si3 0.778308 0.409337 0.865697
Si Si4 0.650737 0.893975 0.936587
Si Si5 0.242909 0.432367 0.896412
Si Si6 0.082244 0.985491 0.333792
Si Si7 0.854399 0.239112 0.693208
O O1 0.106440 0.586317 0.464285
O O2 0.037112 0.691237 0.690129
O O3 0.020388 0.748239 0.398828
O O4 0.845979 0.634351 0.467426
O O5 0.351243 0.631499 0.501878
O O6 0.496644 0.592999 0.745377
O O7 0.297648 0.709256 0.760567
O O8 0.711273 0.487068 0.764755
O O9 0.849711 0.341190 0.744697
O O10 0.878803 0.447120 0.994909
O O11 0.629769 0.798616 0.015444
O O12 0.695978 0.967367 0.068757
O O13 0.753302 0.904618 0.788626
O O14 0.509725 0.929268 0.865275
#
# Coordination Sequence:
#
# PCOD9313704 Si02
#       7
#     4   4   4   4   4   4   4
#     4  10  19  40  65  88 126 167 206 256 320 375
#     4   9  20  40  65  89 125 164 211 256 320 374
#     4  11  24  42  61  95 132 168 211 259 322 381
#     4  11  22  42  66  92 127 161 222 266 311 379
#     4  10  20  38  65  93 121 167 210 267 310 370
#     4  11  23  43  60  93 130 166 210 261 316 378
#     4  10  22  41  66  94 123 165 214 263 315 385
#
# _framework density 22.388978999999999
#
# number of rings (size 3 to 8) (size 9 to 14) (size 15 to 20)
#    0.000    1.714    2.857    2.571    2.000    0.000 
#    5.143    0.000    0.000    0.000    0.000    0.000 
#    0.000    0.000    0.000    0.000    0.000    0.000 
#
# Total GULP energy -156412.693809 kJ/mol
# GULP energy per Si atom -5586.167636 kJ/mol
# Density = 2.233802 g / cm^3
# Si number density = 22.388979 Si / 1000 Ang^3
#
#
#
# Elastic Constant Matrix: (Units=GPa)
#
#
# Indices 1 2 3 4 5 6 
#
# 1 40.2695 -3.3933 -11.8150 0.0000 0.0000 0.0000
# 2 -3.3933 31.4503 -9.3511 0.0000 0.0000 0.0000
# 3 -11.8150 -9.3511 23.8257 0.0000 0.0000 0.0000
# 4 0.0000 0.0000 0.0000 26.4175 0.0000 0.0000
# 5 0.0000 0.0000 0.0000 0.0000 24.0925 0.0000
# 6 0.0000 0.0000 0.0000 0.0000 0.0000 27.0631
#
#
#
# Elastic Compliance Matrix: (Units=1/GPa)
#
#
# Indices 1 2 3 4 5 6 
#
# 1 0.031163 0.009008 0.018989 0.000000 0.000000 0.000000
# 2 0.009008 0.038601 0.019617 0.000000 0.000000 0.000000
# 3 0.018989 0.019617 0.059088 0.000000 0.000000 0.000000
# 4 0.000000 0.000000 0.000000 0.037854 0.000000 0.000000
# 5 0.000000 0.000000 0.000000 0.000000 0.041507 0.000000
# 6 0.000000 0.000000 0.000000 0.000000 0.000000 0.036951
#
#
# Mechanical properties :
#
#
# Convention : Reuss Voigt Hill
#
# Bulk Modulus (GPa) = 4.46265 5.15851 4.81058
# Shear Modulus (GPa) = 22.25916 23.52162 22.89039
#
# Velocity S-wave (km/s) = 3.15652 3.24480 3.20096
# Velocity P-wave (km/s) = 3.90927 4.04318 3.97679
#
# Compressibility (1/GPa) = 0.22408196
#
# Stress axis : x y z
#
# Youngs Moduli (GPa) = 32.08910 25.90606 16.92405
#
# Poissons Ratio (x) = -0.23337 -0.32138
# Poissons Ratio (y) = -0.28907 -0.33201
# Poissons Ratio (z) = -0.60935 -0.50821
#
# Static dielectric constant tensor:
#      x y z
#    x 1.822520 0.000000 0.000000 
#    y 0.000000 1.872410 0.000000 
#    z 0.000000 0.000000 1.847060 
# 
# From -- ./inp_files/3503.got.cif
#   From: 2010.05.17/outbox.cif.g08.bks.cpg/sg19_2_cif.got.tgz:3503.got - 2010.06.03 22:46:19.
