data_PCOD9313200
_publ_section_title
;
Structure prediction by ZEFSAII (Michael W. Deem and Ramdas Pophale) SiO2 
 PCOD9313200
Probable space group: P 21 21 2
;
_chemical_formula_sum "Si O2"
_cell_formula_units_Z 24
_cell_length_a 10.294732
_cell_length_b 17.395473
_cell_length_c 5.461325
_cell_angle_alpha 90.000000
_cell_angle_beta 90.000000
_cell_angle_gamma 90.000000
_cell_volume 978.023543
_symmetry_space_group_name_H-M "P 21 21 2"
_symmetry_group_IT_number 18
_symmetry_cell_setting 'orthorhombic'
loop_
_space_group_symop_operation_xyz
x,y,z
-x,-y,z
1/2+x,1/2-y,-z
1/2-x,1/2+y,-z
loop_
_atom_site_type_symbol
_atom_site_label
_atom_site_fract_x
_atom_site_fract_y
_atom_site_fract_z
Si Si1 0.500000 0.500000 0.196705
Si Si2 0.630786 0.606531 0.475418
Si Si3 0.000000 0.500000 0.931109
Si Si4 0.708546 0.469160 0.812901
Si Si5 0.779180 0.798117 0.071672
Si Si6 0.872830 0.273737 0.424151
Si Si7 0.398247 0.851800 0.783451
O O1 0.504901 0.584333 0.320419
O O2 0.634299 0.502421 0.048114
O O3 0.653216 0.525220 0.607668
O O4 0.608476 0.683037 0.631147
O O5 0.762279 0.623012 0.329017
O O6 0.038244 0.424303 0.084264
O O7 0.135445 0.522033 0.799721
O O8 0.670180 0.380184 0.832927
O O9 0.686385 0.777915 0.304217
O O10 0.873891 0.724440 0.052602
O O11 0.709428 0.805982 0.807458
O O12 0.005632 0.320990 0.424548
#
# Coordination Sequence:
#
# PCOD9313200 Si02
#       7
#     2   4   2   4   4   4   4
#     4  12  28  50  76 114 160 208 268 318 410 498
#     4  11  28  48  78 113 157 214 262 333 408 488
#     4  12  24  50  80 114 150 204 270 330 392 470
#     4  12  28  48  84 112 160 208 269 332 411 484
#     4  11  28  48  76 115 155 205 263 330 408 477
#     4  11  27  50  75 113 154 207 263 335 403 471
#     4  11  26  48  78 111 160 200 275 332 399 479
#
# _framework density 24.539289
#
# number of rings (size 3 to 8) (size 9 to 14) (size 15 to 20)
#    0.000    0.667    3.333    1.500   14.000    4.000 
#    0.000    0.000    0.000    0.000    0.000    0.000 
#    0.000    0.000    0.000    0.000    0.000    0.000 
#
# Total GULP energy -134012.384186 kJ/mol
# GULP energy per Si atom -5583.849341 kJ/mol
# Density = 2.448344 g / cm^3
# Si number density = 24.539289 Si / 1000 Ang^3
#
#
#
# Elastic Constant Matrix: (Units=GPa)
#
#
# Indices 1 2 3 4 5 6 
#
# 1 54.7540 22.8065 12.7504 0.0000 0.0000 0.0000
# 2 22.8065 144.9204 -13.1023 0.0000 0.0000 0.0000
# 3 12.7504 -13.1023 34.5047 0.0000 0.0000 0.0000
# 4 0.0000 0.0000 0.0000 42.1775 0.0000 0.0000
# 5 0.0000 0.0000 0.0000 0.0000 36.5492 0.0000
# 6 0.0000 0.0000 0.0000 0.0000 0.0000 53.4086
#
#
#
# Elastic Compliance Matrix: (Units=1/GPa)
#
#
# Indices 1 2 3 4 5 6 
#
# 1 0.022432 -0.004432 -0.009972 0.000000 0.000000 0.000000
# 2 -0.004432 0.008021 0.004683 0.000000 0.000000 0.000000
# 3 -0.009972 0.004683 0.034445 0.000000 0.000000 0.000000
# 4 0.000000 0.000000 0.000000 0.023709 0.000000 0.000000
# 5 0.000000 0.000000 0.000000 0.000000 0.027360 0.000000
# 6 0.000000 0.000000 0.000000 0.000000 0.000000 0.018724
#
#
# Mechanical properties :
#
#
# Convention : Reuss Voigt Hill
#
# Bulk Modulus (GPa) = 21.99858 31.00979 26.50419
# Shear Modulus (GPa) = 29.53625 40.54203 35.03914
#
# Velocity S-wave (km/s) = 3.47310 4.06905 3.78283
# Velocity P-wave (km/s) = 5.00673 5.89410 5.46844
#
# Compressibility (1/GPa) = 0.04545747
#
# Stress axis : x y z
#
# Youngs Moduli (GPa) = 44.58007 124.66964 29.03190
#
# Poissons Ratio (x) = 0.55249 0.28950
# Poissons Ratio (y) = 0.19756 -0.13597
# Poissons Ratio (z) = 0.44455 -0.58389
#
# Static dielectric constant tensor:
#      x y z
#    x 1.957870 0.000000 0.000000 
#    y 0.000000 1.966730 0.000000 
#    z 0.000000 0.000000 2.214070 
# 
# From -- ./inp_files/1153.got.cif
#   From: 2010.05.17/outbox.cif.g08.bks.cpg/sg18_1_cif.got.tgz:1153.got - 2010.06.03 22:40:56.
