data_PCOD9313192
_publ_section_title
;
Structure prediction by ZEFSAII (Michael W. Deem and Ramdas Pophale) SiO2 
 PCOD9313192
Probable space group: P 21 21 2
;
_chemical_formula_sum "Si O2"
_cell_formula_units_Z 26
_cell_length_a 18.350385
_cell_length_b 9.555135
_cell_length_c 5.659920
_cell_angle_alpha 90.000000
_cell_angle_beta 90.000000
_cell_angle_gamma 90.000000
_cell_volume 992.412671
_symmetry_space_group_name_H-M "P 21 21 2"
_symmetry_group_IT_number 18
_symmetry_cell_setting 'orthorhombic'
loop_
_space_group_symop_operation_xyz
x,y,z
-x,-y,z
1/2+x,1/2-y,-z
1/2-x,1/2+y,-z
loop_
_atom_site_type_symbol
_atom_site_label
_atom_site_fract_x
_atom_site_fract_y
_atom_site_fract_z
Si Si1 0.000000 0.000000 0.151321
Si Si2 0.868408 0.074526 0.393349
Si Si3 0.479996 0.789068 0.049230
Si Si4 0.659465 0.329033 0.321149
Si Si5 0.639248 0.103258 0.694397
Si Si6 0.385044 0.154633 0.342361
Si Si7 0.267833 0.315444 0.017568
O O1 0.069251 0.030578 0.308787
O O2 0.017983 0.859178 0.015781
O O3 0.903321 0.219790 0.475847
O O4 0.815161 0.102688 0.178013
O O5 0.837179 0.992066 0.616674
O O6 0.416097 0.732139 0.219550
O O7 0.545149 0.872043 0.175941
O O8 0.436343 0.862967 0.833393
O O9 0.669411 0.239462 0.557403
O O10 0.720588 0.293042 0.135162
O O11 0.704234 0.084057 0.880320
O O12 0.632592 0.979785 0.502636
O O13 0.319392 0.223325 0.190572
#
# Coordination Sequence:
#
# PCOD9313192 Si02
#       7
#     2   4   4   4   4   4   4
#     4  12  22  52  82 118 148 202 266 346 394 476
#     4  12  26  47  84 119 158 208 277 334 410 488
#     4  11  25  52  83 116 161 209 274 342 408 482
#     4  11  26  50  79 114 160 214 265 338 413 481
#     4  11  28  54  77 118 168 219 267 339 416 484
#     4  12  28  51  82 122 163 217 277 335 412 501
#     4  11  28  51  80 120 167 216 272 338 407 501
#
# _framework density 26.198778999999998
#
# number of rings (size 3 to 8) (size 9 to 14) (size 15 to 20)
#    0.000    0.615    3.077    2.769    0.000   10.462 
#    2.769    3.077    0.000    0.000    0.000    0.000 
#    0.000    0.000    0.000    0.000    0.000    0.000 
#
# Total GULP energy -145742.792956 kJ/mol
# GULP energy per Si atom -5605.492037 kJ/mol
# Density = 2.613915 g / cm^3
# Si number density = 26.198779 Si / 1000 Ang^3
#
#
#
# Elastic Constant Matrix: (Units=GPa)
#
#
# Indices 1 2 3 4 5 6 
#
# 1 163.7184 54.6451 72.4686 0.0000 0.0000 0.0000
# 2 54.6451 131.5459 32.8923 0.0000 0.0000 0.0000
# 3 72.4686 32.8923 90.6261 0.0000 0.0000 0.0000
# 4 0.0000 0.0000 0.0000 49.4881 0.0000 0.0000
# 5 0.0000 0.0000 0.0000 0.0000 95.0988 0.0000
# 6 0.0000 0.0000 0.0000 0.0000 0.0000 30.9025
#
#
#
# Elastic Compliance Matrix: (Units=1/GPa)
#
#
# Indices 1 2 3 4 5 6 
#
# 1 0.010096 -0.002392 -0.007205 0.000000 0.000000 0.000000
# 2 -0.002392 0.008928 -0.001327 0.000000 0.000000 0.000000
# 3 -0.007205 -0.001327 0.017277 0.000000 0.000000 0.000000
# 4 0.000000 0.000000 0.000000 0.020207 0.000000 0.000000
# 5 0.000000 0.000000 0.000000 0.000000 0.010515 0.000000
# 6 0.000000 0.000000 0.000000 0.000000 0.000000 0.032360
#
#
# Mechanical properties :
#
#
# Convention : Reuss Voigt Hill
#
# Bulk Modulus (GPa) = 69.19427 78.43360 73.81393
# Shear Modulus (GPa) = 39.66741 50.15684 44.91213
#
# Velocity S-wave (km/s) = 3.89536 4.38022 4.14488
# Velocity P-wave (km/s) = 6.83376 7.45551 7.15140
#
# Compressibility (1/GPa) = 0.01445206
#
# Stress axis : x y z
#
# Youngs Moduli (GPa) = 99.05302 112.01272 57.87983
#
# Poissons Ratio (x) = 0.26797 0.41700
# Poissons Ratio (y) = 0.23697 0.07682
# Poissons Ratio (z) = 0.71364 0.14866
#
# Static dielectric constant tensor:
#      x y z
#    x 2.054570 0.000000 0.000000 
#    y 0.000000 2.043040 0.000000 
#    z 0.000000 0.000000 2.281610 
# 
# From -- ./inp_files/1797.got.cif
#   From: 2010.05.17/outbox.cif.g08.bks.cpg/sg18_1_cif.got.tgz:1797.got - 2010.06.03 22:40:56.
