data_PCOD9313758
_publ_section_title
;
Structure prediction by ZEFSAII (Michael W. Deem and Ramdas Pophale) SiO2 
 PCOD9313758
Probable space group: P 21 21 21
;
_chemical_formula_sum "Si O2"
_cell_formula_units_Z 32
_cell_length_a 14.396604
_cell_length_b 15.334072
_cell_length_c 5.746476
_cell_angle_alpha 90.000000
_cell_angle_beta 90.000000
_cell_angle_gamma 90.000000
_cell_volume 1268.583780
_symmetry_space_group_name_H-M "P 21 21 21"
_symmetry_group_IT_number 19
_symmetry_cell_setting 'orthorhombic'
loop_
_space_group_symop_operation_xyz
x,y,z
1/2-x,-y,1/2+z
1/2+x,1/2-y,-z
-x,1/2+y,1/2-z
loop_
_atom_site_type_symbol
_atom_site_label
_atom_site_fract_x
_atom_site_fract_y
_atom_site_fract_z
Si Si1 0.974856 0.860082 0.737615
Si Si2 0.374761 0.987913 0.323917
Si Si3 0.182643 0.402854 0.478999
Si Si4 0.294198 0.306713 0.130276
Si Si5 0.051739 0.709021 0.996108
Si Si6 0.361386 0.435006 0.734992
Si Si7 0.878087 0.336203 0.134269
Si Si8 0.664795 0.460623 0.679360
O O1 0.042514 0.940733 0.812036
O O2 0.021781 0.832105 0.496007
O O3 0.870447 0.889190 0.778903
O O4 0.974975 0.775097 0.906404
O O5 0.373511 0.933601 0.565507
O O6 0.277019 0.041382 0.323634
O O7 0.371488 0.933649 0.079363
O O8 0.210064 0.324772 0.305234
O O9 0.283620 0.443327 0.534809
O O10 0.119869 0.470762 0.336368
O O11 0.389933 0.316512 0.271847
O O12 0.300748 0.210280 0.024943
O O13 0.310085 0.376889 0.929198
O O14 0.051004 0.621142 0.147252
O O15 0.116453 0.775756 0.141708
O O16 0.857694 0.435620 0.181357
#
# Coordination Sequence:
#
# PCOD9313758 Si02
#       8
#     4   4   4   4   4   4   4   4
#     4  10  20  33  54  86 118 151 200 251 309 359
#     4   9  17  30  48  82 112 154 199 245 299 362
#     4  11  21  36  58  86 119 157 207 253 303 368
#     4   9  19  35  57  80 108 149 199 243 296 364
#     4   9  18  35  59  81 112 147 195 245 304 361
#     4  10  20  37  57  85 114 158 204 251 299 363
#     4   9  17  33  54  84 109 151 192 247 304 362
#     4   9  16  29  53  76 116 153 196 241 296 375
#
# _framework density 25.224979999999999
#
# number of rings (size 3 to 8) (size 9 to 14) (size 15 to 20)
#    0.000    2.500    2.500    0.000    0.000    1.000 
#    0.000    1.250    0.000    6.000    0.000    0.000 
#    0.000    0.000    0.000    0.000    0.000    0.000 
#
# Total GULP energy -178439.062878 kJ/mol
# GULP energy per Si atom -5576.220715 kJ/mol
# Density = 2.516757 g / cm^3
# Si number density = 25.224980 Si / 1000 Ang^3
#
#
#
# Elastic Constant Matrix: (Units=GPa)
#
#
# Indices 1 2 3 4 5 6 
#
# 1 76.9061 9.4456 27.8141 0.0000 0.0000 0.0000
# 2 9.4456 14.6157 5.7438 0.0000 0.0000 0.0000
# 3 27.8141 5.7438 120.6684 0.0000 0.0000 0.0000
# 4 0.0000 0.0000 0.0000 30.4983 0.0000 0.0000
# 5 0.0000 0.0000 0.0000 0.0000 27.0712 0.0000
# 6 0.0000 0.0000 0.0000 0.0000 0.0000 0.7850
#
#
#
# Elastic Compliance Matrix: (Units=1/GPa)
#
#
# Indices 1 2 3 4 5 6 
#
# 1 0.015175 -0.008593 -0.003089 0.000000 0.000000 0.000000
# 2 -0.008593 0.074590 -0.001570 0.000000 0.000000 0.000000
# 3 -0.003089 -0.001570 0.009074 0.000000 0.000000 0.000000
# 4 0.000000 0.000000 0.000000 0.032789 0.000000 0.000000
# 5 0.000000 0.000000 0.000000 0.000000 0.036940 0.000000
# 6 0.000000 0.000000 0.000000 0.000000 0.000000 1.273942
#
#
# Mechanical properties :
#
#
# Convention : Reuss Voigt Hill
#
# Bulk Modulus (GPa) = 13.82453 33.13303 23.47878
# Shear Modulus (GPa) = 3.34868 22.95001 13.14934
#
# Velocity S-wave (km/s) = 1.15343 3.01958 2.28564
# Velocity P-wave (km/s) = 2.69560 5.03197 4.03652
#
# Compressibility (1/GPa) = 0.07233519
#
# Stress axis : x y z
#
# Youngs Moduli (GPa) = 65.89583 13.40664 110.20645
#
# Poissons Ratio (x) = 0.11521 0.34042
# Poissons Ratio (y) = 0.56628 0.17299
# Poissons Ratio (z) = 0.20355 0.02104
#
# Static dielectric constant tensor:
#      x y z
#    x 1.771440 0.000000 0.000000 
#    y 0.000000 1.976720 0.000000 
#    z 0.000000 0.000000 2.108540 
# 
# From -- ./inp_files/1566.got.cif
#   From: 2010.05.17/outbox.cif.g08.bks.cpg/sg19_1_cif.got.tgz:1566.got - 2010.06.03 22:46:19.
