data_PCOD9313150
_publ_section_title
;
Structure prediction by ZEFSAII (Michael W. Deem and Ramdas Pophale) SiO2 
 PCOD9313150
Probable space group: P 21 21 2
;
_chemical_formula_sum "Si O2"
_cell_formula_units_Z 16
_cell_length_a 17.353449
_cell_length_b 6.731202
_cell_length_c 7.120888
_cell_angle_alpha 90.000000
_cell_angle_beta 90.000000
_cell_angle_gamma 90.000000
_cell_volume 831.787870
_symmetry_space_group_name_H-M "P 21 21 2"
_symmetry_group_IT_number 18
_symmetry_cell_setting 'orthorhombic'
loop_
_space_group_symop_operation_xyz
x,y,z
-x,-y,z
1/2+x,1/2-y,-z
1/2-x,1/2+y,-z
loop_
_atom_site_type_symbol
_atom_site_label
_atom_site_fract_x
_atom_site_fract_y
_atom_site_fract_z
Si Si1 0.685577 0.292238 0.654649
Si Si2 0.583816 0.904236 0.654327
Si Si3 0.147368 0.878399 0.649915
Si Si4 0.910829 0.059004 0.064134
O O1 0.775499 0.250256 0.684272
O O2 0.671395 0.429681 0.472536
O O3 0.644773 0.406758 0.826451
O O4 0.644196 0.081196 0.631676
O O5 0.591218 0.752540 0.480554
O O6 0.600650 0.773223 0.838675
O O7 0.500000 0.000000 0.665666
O O8 0.109310 0.935076 0.845802
O O9 0.000000 0.000000 0.094173
#
# Coordination Sequence:
#
# PCOD9313150 Si02
#       4
#     4   4   4   4
#     4  11  24  45  63  94 134 168 215 268 321 381
#     4  11  24  45  65  93 135 171 213 272 321 379
#     4  11  26  42  68  96 129 176 218 264 325 389
#     4  11  26  42  65  98 131 169 218 266 322 388
#
# _framework density 19.235675000000001
#
# number of rings (size 3 to 8) (size 9 to 14) (size 15 to 20)
#    0.000    1.000    5.000    0.000    7.000    3.000 
#    0.000    0.000    0.000    0.000    0.000    0.000 
#    0.000    0.000    0.000    0.000    0.000    0.000 
#
# Total GULP energy -89468.071086 kJ/mol
# GULP energy per Si atom -5591.754443 kJ/mol
# Density = 1.919189 g / cm^3
# Si number density = 19.235675 Si / 1000 Ang^3
#
#
#
# Elastic Constant Matrix: (Units=GPa)
#
#
# Indices 1 2 3 4 5 6 
#
# 1 20.5527 9.7077 1.1977 0.0000 0.0000 0.0000
# 2 9.7077 95.7167 24.6627 0.0000 0.0000 0.0000
# 3 1.1977 24.6627 97.8094 0.0000 0.0000 0.0000
# 4 0.0000 0.0000 0.0000 4.2516 0.0000 0.0000
# 5 0.0000 0.0000 0.0000 0.0000 27.5751 0.0000
# 6 0.0000 0.0000 0.0000 0.0000 0.0000 43.2249
#
#
#
# Elastic Compliance Matrix: (Units=1/GPa)
#
#
# Indices 1 2 3 4 5 6 
#
# 1 0.051152 -0.005376 0.000729 0.000000 0.000000 0.000000
# 2 -0.005376 0.011738 -0.002894 0.000000 0.000000 0.000000
# 3 0.000729 -0.002894 0.010945 0.000000 0.000000 0.000000
# 4 0.000000 0.000000 0.000000 0.235207 0.000000 0.000000
# 5 0.000000 0.000000 0.000000 0.000000 0.036265 0.000000
# 6 0.000000 0.000000 0.000000 0.000000 0.000000 0.023135
#
#
# Mechanical properties :
#
#
# Convention : Reuss Voigt Hill
#
# Bulk Modulus (GPa) = 17.02011 31.69055 24.35533
# Shear Modulus (GPa) = 12.40364 26.91104 19.65734
#
# Velocity S-wave (km/s) = 2.54209 3.74440 3.20022
# Velocity P-wave (km/s) = 4.18136 5.93336 5.13266
#
# Compressibility (1/GPa) = 0.05875401
#
# Stress axis : x y z
#
# Youngs Moduli (GPa) = 19.54953 85.19053 91.36784
#
# Poissons Ratio (x) = 0.45796 -0.06662
# Poissons Ratio (y) = 0.10509 0.26442
# Poissons Ratio (z) = -0.01425 0.24654
#
# Static dielectric constant tensor:
#      x y z
#    x 1.667410 0.000000 0.000000 
#    y 0.000000 1.654430 0.000000 
#    z 0.000000 0.000000 1.632370 
# 
# From -- ./inp_files/149.got.cif
#   From: 2010.05.17/outbox.cif.g08.bks.cpg/sg18_1_cif.got.tgz:149.got - 2010.06.03 22:40:56.
