data_PCOD9313060
_publ_section_title
;
Structure prediction by ZEFSAII (Michael W. Deem and Ramdas Pophale) SiO2 
 PCOD9313060
Probable space group: P 21 21 2
;
_chemical_formula_sum "Si O2"
_cell_formula_units_Z 20
_cell_length_a 12.698086
_cell_length_b 12.428245
_cell_length_c 4.986310
_cell_angle_alpha 90.000000
_cell_angle_beta 90.000000
_cell_angle_gamma 90.000000
_cell_volume 786.914133
_symmetry_space_group_name_H-M "P 21 21 2"
_symmetry_group_IT_number 18
_symmetry_cell_setting 'orthorhombic'
loop_
_space_group_symop_operation_xyz
x,y,z
-x,-y,z
1/2+x,1/2-y,-z
1/2-x,1/2+y,-z
loop_
_atom_site_type_symbol
_atom_site_label
_atom_site_fract_x
_atom_site_fract_y
_atom_site_fract_z
Si Si1 0.028883 0.216908 0.811302
Si Si2 0.124595 0.684867 0.432946
Si Si3 0.900484 0.678768 0.314287
Si Si4 0.778144 0.008272 0.634686
Si Si5 0.387780 0.412184 0.848222
O O1 0.917000 0.273415 0.723652
O O2 0.083907 0.221796 0.522054
O O3 0.993974 0.114250 0.983380
O O4 0.104640 0.282038 0.010419
O O5 0.218469 0.602407 0.419204
O O6 0.141646 0.791414 0.256010
O O7 0.017577 0.627644 0.328350
O O8 0.809289 0.601598 0.409966
O O9 0.875098 0.024984 0.431078
O O10 0.812614 0.029428 0.939340
#
# Coordination Sequence:
#
# PCOD9313060 Si02
#       5
#     4   4   4   4   4
#     4   9  18  38  51  72 125 148 164 229 289 334
#     4   9  22  38  53  81 126 145 177 237 287 330
#     4   9  19  34  55  84 113 143 178 228 302 335
#     4  12  22  33  61  89 111 152 192 227 279 355
#     4  11  22  36  52  84 122 149 192 218 284 348
#
# _framework density 25.415734
#
# number of rings (size 3 to 8) (size 9 to 14) (size 15 to 20)
#    1.200    0.800    2.000    1.800    5.600    0.000 
#    7.200    0.000    0.000    0.000    0.000   57.400 
#    0.000    0.000    0.000    0.000    0.000    0.000 
#
# Total GULP energy -111504.777196 kJ/mol
# GULP energy per Si atom -5575.238860 kJ/mol
# Density = 2.535789 g / cm^3
# Si number density = 25.415734 Si / 1000 Ang^3
#
#
#
# Elastic Constant Matrix: (Units=GPa)
#
#
# Indices 1 2 3 4 5 6 
#
# 1 110.4104 60.8569 26.2105 0.0000 0.0000 0.0000
# 2 60.8569 123.2613 46.4722 0.0000 0.0000 0.0000
# 3 26.2105 46.4722 179.2145 0.0000 0.0000 0.0000
# 4 0.0000 0.0000 0.0000 -61.8670 0.0000 0.0000
# 5 0.0000 0.0000 0.0000 0.0000 3.8572 0.0000
# 6 0.0000 0.0000 0.0000 0.0000 0.0000 44.7238
#
#
#
# Elastic Compliance Matrix: (Units=1/GPa)
#
#
# Indices 1 2 3 4 5 6 
#
# 1 0.012454 -0.006054 -0.000252 0.000000 0.000000 0.000000
# 2 -0.006054 0.011935 -0.002209 0.000000 0.000000 0.000000
# 3 -0.000252 -0.002209 0.006190 0.000000 0.000000 0.000000
# 4 0.000000 0.000000 0.000000 -0.016164 0.000000 0.000000
# 5 0.000000 0.000000 0.000000 0.000000 0.259258 0.000000
# 6 0.000000 0.000000 0.000000 0.000000 0.000000 0.022359
#
#
# Mechanical properties :
#
#
# Convention : Reuss Voigt Hill
#
# Bulk Modulus (GPa) = 73.80924 75.55171 74.68047
# Shear Modulus (GPa) = 15.74419 15.96589 15.85504
#
# Velocity S-wave (km/s) = 2.49161 2.50909 2.50036
# Velocity P-wave (km/s) = 6.11402 6.17940 6.14680
#
# Compressibility (1/GPa) = 0.01354844
#
# Stress axis : x y z
#
# Youngs Moduli (GPa) = 80.29793 83.78898 161.56072
#
# Poissons Ratio (x) = 0.50724 0.04064
# Poissons Ratio (y) = 0.48611 0.35696
# Poissons Ratio (z) = 0.02020 0.18513
#
# Static dielectric constant tensor:
#      x y z
#    x 2.934780 0.000000 0.000000 
#    y 0.000000 2.011450 0.000000 
#    z 0.000000 0.000000 1.953380 
# 
# From -- ./inp_files/1408.got.cif
#   From: 2010.05.17/outbox.cif.g08.bks.cpg/sg18_1_cif.got.tgz:1408.got - 2010.06.03 22:40:56.
