data_PCOD9313677
_publ_section_title
;
Structure prediction by ZEFSAII (Michael W. Deem and Ramdas Pophale) SiO2 
 PCOD9313677
Probable space group: P 21 21 21
;
_chemical_formula_sum "Si O2"
_cell_formula_units_Z 32
_cell_length_a 15.115872
_cell_length_b 9.300476
_cell_length_c 10.515480
_cell_angle_alpha 90.000000
_cell_angle_beta 90.000000
_cell_angle_gamma 90.000000
_cell_volume 1478.316703
_symmetry_space_group_name_H-M "P 21 21 21"
_symmetry_group_IT_number 19
_symmetry_cell_setting 'orthorhombic'
loop_
_space_group_symop_operation_xyz
x,y,z
1/2-x,-y,1/2+z
1/2+x,1/2-y,-z
-x,1/2+y,1/2-z
loop_
_atom_site_type_symbol
_atom_site_label
_atom_site_fract_x
_atom_site_fract_y
_atom_site_fract_z
Si Si1 0.915643 0.074140 0.222149
Si Si2 0.983792 0.279464 0.036102
Si Si3 0.195640 0.483484 0.501425
Si Si4 0.178951 0.343161 0.120356
Si Si5 0.945631 0.590381 0.072694
Si Si6 0.752900 0.703912 0.123385
Si Si7 0.059580 0.550399 0.684286
Si Si8 0.057272 0.788445 0.893442
O O1 0.885281 0.984265 0.098725
O O2 0.923105 0.230665 0.156952
O O3 0.009972 0.057795 0.290114
O O4 0.849232 0.002154 0.324300
O O5 0.085978 0.275562 0.079703
O O6 0.960721 0.441689 0.997920
O O7 0.968461 0.167045 0.923266
O O8 0.257277 0.624083 0.501798
O O9 0.249200 0.346281 0.462487
O O10 0.153879 0.488076 0.640437
O O11 0.227899 0.252841 0.230526
O O12 0.841918 0.622102 0.082033
O O13 0.002255 0.723730 0.013663
O O14 0.655531 0.643405 0.096593
O O15 0.066658 0.644566 0.809215
O O16 0.997721 0.412117 0.677220
#
# Coordination Sequence:
#
# PCOD9313677 Si02
#       8
#     4   4   4   4   4   4   4   4
#     4   9  20  35  64  92 126 167 218 265 335 392
#     4  10  21  40  65  95 131 170 218 276 343 401
#     4  10  20  40  65  91 128 176 221 271 330 411
#     4  10  19  38  66  95 126 173 224 272 326 415
#     4  11  22  41  67  97 135 177 223 285 338 403
#     4  11  21  39  65  99 132 172 226 281 332 398
#     4  11  24  45  65  94 136 181 217 274 347 405
#     4  12  25  44  69  95 138 184 227 280 345 407
#
# _framework density 21.646239999999999
#
# number of rings (size 3 to 8) (size 9 to 14) (size 15 to 20)
#    0.000    1.500    3.750    2.250    0.000    0.000 
#    4.500    0.000    0.000    0.000    0.000    0.000 
#    0.000    0.000    0.000    0.000    0.000    0.000 
#
# Total GULP energy -178138.493645 kJ/mol
# GULP energy per Si atom -5566.827926 kJ/mol
# Density = 2.159697 g / cm^3
# Si number density = 21.646240 Si / 1000 Ang^3
#
#
#
# Elastic Constant Matrix: (Units=GPa)
#
#
# Indices 1 2 3 4 5 6 
#
# 1 110.4836 5.1941 -2.5996 0.0000 0.0000 0.0000
# 2 5.1941 35.6690 5.2695 0.0000 0.0000 0.0000
# 3 -2.5996 5.2695 27.5699 0.0000 0.0000 0.0000
# 4 0.0000 0.0000 0.0000 32.1780 0.0000 0.0000
# 5 0.0000 0.0000 0.0000 0.0000 17.2576 0.0000
# 6 0.0000 0.0000 0.0000 0.0000 0.0000 32.3923
#
#
#
# Elastic Compliance Matrix: (Units=1/GPa)
#
#
# Indices 1 2 3 4 5 6 
#
# 1 0.009149 -0.001502 0.001150 0.000000 0.000000 0.000000
# 2 -0.001502 0.029097 -0.005703 0.000000 0.000000 0.000000
# 3 0.001150 -0.005703 0.037470 0.000000 0.000000 0.000000
# 4 0.000000 0.000000 0.000000 0.031077 0.000000 0.000000
# 5 0.000000 0.000000 0.000000 0.000000 0.057946 0.000000
# 6 0.000000 0.000000 0.000000 0.000000 0.000000 0.030872
#
#
# Mechanical properties :
#
#
# Convention : Reuss Voigt Hill
#
# Bulk Modulus (GPa) = 15.72208 21.05006 18.38607
# Shear Modulus (GPa) = 21.84150 27.42280 24.63215
#
# Velocity S-wave (km/s) = 3.17995 3.56316 3.37700
# Velocity P-wave (km/s) = 4.55651 5.16467 4.87009
#
# Compressibility (1/GPa) = 0.06360483
#
# Stress axis : x y z
#
# Youngs Moduli (GPa) = 109.30406 34.36802 26.68808
#
# Poissons Ratio (x) = 0.05162 -0.03068
# Poissons Ratio (y) = 0.16419 0.15220
# Poissons Ratio (z) = -0.12567 0.19600
#
# Static dielectric constant tensor:
#      x y z
#    x 1.888460 0.000000 0.000000 
#    y 0.000000 1.785460 0.000000 
#    z 0.000000 0.000000 1.874160 
# 
# From -- ./inp_files/3578.got.cif
#   From: 2010.05.17/outbox.cif.g08.bks.cpg/sg19_2_cif.got.tgz:3578.got - 2010.06.03 22:46:19.
