data_PCOD9313477
_publ_section_title
;
Structure prediction by ZEFSAII (Michael W. Deem and Ramdas Pophale) SiO2 
 PCOD9313477
Probable space group: P 21 21 21
;
_chemical_formula_sum "Si O2"
_cell_formula_units_Z 32
_cell_length_a 7.675838
_cell_length_b 18.091541
_cell_length_c 12.140430
_cell_angle_alpha 90.000000
_cell_angle_beta 90.000000
_cell_angle_gamma 90.000000
_cell_volume 1685.914051
_symmetry_space_group_name_H-M "P 21 21 21"
_symmetry_group_IT_number 19
_symmetry_cell_setting 'orthorhombic'
loop_
_space_group_symop_operation_xyz
x,y,z
1/2-x,-y,1/2+z
1/2+x,1/2-y,-z
-x,1/2+y,1/2-z
loop_
_atom_site_type_symbol
_atom_site_label
_atom_site_fract_x
_atom_site_fract_y
_atom_site_fract_z
Si Si1 0.155199 0.566487 0.816176
Si Si2 0.527897 0.514337 0.778377
Si Si3 0.718042 0.433421 0.957356
Si Si4 0.669464 0.227645 0.328044
Si Si5 0.184991 0.071526 0.404061
Si Si6 0.547566 0.817936 0.006274
Si Si7 0.826682 0.625918 0.696290
Si Si8 0.984127 0.410082 0.773241
O O1 0.356078 0.562892 0.782916
O O2 0.133143 0.612754 0.928560
O O3 0.022708 0.606232 0.732550
O O4 0.090183 0.481766 0.813013
O O5 0.555675 0.465286 0.887733
O O6 0.534031 0.456443 0.678236
O O7 0.694854 0.567266 0.754672
O O8 0.846255 0.394487 0.870753
O O9 0.801281 0.509384 0.003094
O O10 0.686796 0.384917 0.065457
O O11 0.826838 0.209844 0.410718
O O12 0.510679 0.256936 0.405185
O O13 0.715249 0.294104 0.245078
O O14 0.607775 0.156678 0.260122
O O15 0.362982 0.072832 0.333738
O O16 0.129859 0.148956 0.454597
#
# Coordination Sequence:
#
# PCOD9313477 Si02
#       8
#     4   4   4   4   4   4   4   4
#     4  11  21  37  65  95 120 156 218 263 309 377
#     4  10  21  34  65  95 116 163 216 266 309 376
#     4  10  18  39  64  85 123 170 202 269 323 356
#     4  11  25  39  61  92 136 167 210 268 326 387
#     4  10  19  38  64  89 122 161 208 267 312 372
#     4  11  23  39  62  95 125 170 210 264 325 378
#     4  10  22  44  59  90 137 165 210 268 318 383
#     4  11  21  40  62  93 127 160 216 267 310 381
#
# _framework density 18.980801
#
# number of rings (size 3 to 8) (size 9 to 14) (size 15 to 20)
#    0.000    1.500    5.000    2.250    3.500    1.000 
#    0.000    3.750    2.750    0.000    0.000    0.000 
#    0.000    0.000    0.000    0.000    0.000    0.000 
#
# Total GULP energy -178519.886143 kJ/mol
# GULP energy per Si atom -5578.746442 kJ/mol
# Density = 1.893760 g / cm^3
# Si number density = 18.980801 Si / 1000 Ang^3
#
#
#
# Elastic Constant Matrix: (Units=GPa)
#
#
# Indices 1 2 3 4 5 6 
#
# 1 53.5918 -0.8688 14.0425 0.0000 0.0000 0.0000
# 2 -0.8688 81.3059 28.6433 0.0000 0.0000 0.0000
# 3 14.0425 28.6433 89.5599 0.0000 0.0000 0.0000
# 4 0.0000 0.0000 0.0000 36.0605 0.0000 0.0000
# 5 0.0000 0.0000 0.0000 0.0000 17.4520 0.0000
# 6 0.0000 0.0000 0.0000 0.0000 0.0000 21.9381
#
#
#
# Elastic Compliance Matrix: (Units=1/GPa)
#
#
# Indices 1 2 3 4 5 6 
#
# 1 0.019611 0.001457 -0.003541 0.000000 0.000000 0.000000
# 2 0.001457 0.013969 -0.004696 0.000000 0.000000 0.000000
# 3 -0.003541 -0.004696 0.013223 0.000000 0.000000 0.000000
# 4 0.000000 0.000000 0.000000 0.027731 0.000000 0.000000
# 5 0.000000 0.000000 0.000000 0.000000 0.057300 0.000000
# 6 0.000000 0.000000 0.000000 0.000000 0.000000 0.045583
#
#
# Mechanical properties :
#
#
# Convention : Reuss Voigt Hill
#
# Bulk Modulus (GPa) = 30.08153 34.23240 32.15697
# Shear Modulus (GPa) = 24.74536 27.26615 26.00575
#
# Velocity S-wave (km/s) = 3.61460 3.79425 3.70551
# Velocity P-wave (km/s) = 5.77090 6.10488 5.94023
#
# Compressibility (1/GPa) = 0.03324299
#
# Stress axis : x y z
#
# Youngs Moduli (GPa) = 50.99177 71.58613 75.62686
#
# Poissons Ratio (x) = -0.10430 0.26779
# Poissons Ratio (y) = -0.07429 0.35515
# Poissons Ratio (z) = 0.18056 0.33618
#
# Static dielectric constant tensor:
#      x y z
#    x 1.674000 0.000000 0.000000 
#    y 0.000000 1.667510 0.000000 
#    z 0.000000 0.000000 1.671050 
# 
# From -- ./inp_files/4808.got.cif
#   From: 2010.05.17/outbox.cif.g08.bks.cpg/sg19_3_cif.got.tgz:4808.got - 2010.06.03 22:46:19.
