data_PCOD9313147
_publ_section_title
;
Structure prediction by ZEFSAII (Michael W. Deem and Ramdas Pophale) SiO2 
 PCOD9313147
Probable space group: P 21 21 2
;
_chemical_formula_sum "Si O2"
_cell_formula_units_Z 16
_cell_length_a 12.882551
_cell_length_b 10.054367
_cell_length_c 5.222333
_cell_angle_alpha 90.000000
_cell_angle_beta 90.000000
_cell_angle_gamma 90.000000
_cell_volume 676.427359
_symmetry_space_group_name_H-M "P 21 21 2"
_symmetry_group_IT_number 18
_symmetry_cell_setting 'orthorhombic'
loop_
_space_group_symop_operation_xyz
x,y,z
-x,-y,z
1/2+x,1/2-y,-z
1/2-x,1/2+y,-z
loop_
_atom_site_type_symbol
_atom_site_label
_atom_site_fract_x
_atom_site_fract_y
_atom_site_fract_z
Si Si1 0.912413 0.110542 0.799038
Si Si2 0.808929 0.290103 0.143618
Si Si3 0.788723 0.708719 0.348415
Si Si4 0.486238 0.139103 0.537362
O O1 0.796139 0.088879 0.683720
O O2 0.952961 0.240960 0.647241
O O3 0.880860 0.159220 0.082918
O O4 0.000000 0.000000 0.788485
O O5 0.728050 0.261261 0.366303
O O6 0.894458 0.386543 0.258991
O O7 0.750323 0.309413 0.875043
O O8 0.908151 0.677335 0.321177
O O9 0.500000 0.000000 0.390871
#
# Coordination Sequence:
#
# PCOD9313147 Si02
#       4
#     4   4   4   4
#     4   9  22  43  67  97 136 187 230 277 331 422
#     4   9  22  44  61  98 131 180 227 269 338 406
#     4   9  22  43  66 101 133 182 223 283 341 403
#     4  11  24  44  71 106 142 176 229 295 347 403
#
# _framework density 23.653686
#
# number of rings (size 3 to 8) (size 9 to 14) (size 15 to 20)
#    1.500    1.000    0.000    0.000    3.500    9.000 
#    0.000    0.000    0.000    0.000    0.000    0.000 
#    0.000    0.000    0.000    0.000    0.000    0.000 
#
# Total GULP energy -89112.683112 kJ/mol
# GULP energy per Si atom -5569.542694 kJ/mol
# Density = 2.359985 g / cm^3
# Si number density = 23.653686 Si / 1000 Ang^3
#
#
#
# Elastic Constant Matrix: (Units=GPa)
#
#
# Indices 1 2 3 4 5 6 
#
# 1 109.2159 14.6307 5.5054 0.0000 0.0000 0.0000
# 2 14.6307 64.6527 19.8229 0.0000 0.0000 0.0000
# 3 5.5054 19.8229 114.8571 0.0000 0.0000 0.0000
# 4 0.0000 0.0000 0.0000 6.6673 0.0000 0.0000
# 5 0.0000 0.0000 0.0000 0.0000 7.9823 0.0000
# 6 0.0000 0.0000 0.0000 0.0000 0.0000 22.6639
#
#
#
# Elastic Compliance Matrix: (Units=1/GPa)
#
#
# Indices 1 2 3 4 5 6 
#
# 1 0.009443 -0.002110 -0.000089 0.000000 0.000000 0.000000
# 2 -0.002110 0.016803 -0.002799 0.000000 0.000000 0.000000
# 3 -0.000089 -0.002799 0.009194 0.000000 0.000000 0.000000
# 4 0.000000 0.000000 0.000000 0.149985 0.000000 0.000000
# 5 0.000000 0.000000 0.000000 0.000000 0.125278 0.000000
# 6 0.000000 0.000000 0.000000 0.000000 0.000000 0.044123
#
#
# Mechanical properties :
#
#
# Convention : Reuss Voigt Hill
#
# Bulk Modulus (GPa) = 39.29967 40.96043 40.13005
# Shear Modulus (GPa) = 13.39400 24.04714 18.72057
#
# Velocity S-wave (km/s) = 2.38219 3.19193 2.81631
# Velocity P-wave (km/s) = 4.92109 5.56227 5.25148
#
# Compressibility (1/GPa) = 0.02544550
#
# Stress axis : x y z
#
# Youngs Moduli (GPa) = 105.89549 59.51366 108.76945
#
# Poissons Ratio (x) = 0.12556 0.00963
# Poissons Ratio (y) = 0.22342 0.30443
# Poissons Ratio (z) = 0.00937 0.16657
#
# Static dielectric constant tensor:
#      x y z
#    x 1.901060 0.000000 0.000000 
#    y 0.000000 1.971530 0.000000 
#    z 0.000000 0.000000 1.892510 
# 
# From -- ./inp_files/891.got.cif
#   From: 2010.05.17/outbox.cif.g08.bks.cpg/sg18_1_cif.got.tgz:891.got - 2010.06.03 22:40:56.
