data_PCOD9313342
_publ_section_title
;
Structure prediction by ZEFSAII (Michael W. Deem and Ramdas Pophale) SiO2 
 PCOD9313342
Probable space group: P 21 21 21
;
_chemical_formula_sum "Si O2"
_cell_formula_units_Z 28
_cell_length_a 17.047815
_cell_length_b 8.281597
_cell_length_c 7.126236
_cell_angle_alpha 90.000000
_cell_angle_beta 90.000000
_cell_angle_gamma 90.000000
_cell_volume 1006.104329
_symmetry_space_group_name_H-M "P 21 21 21"
_symmetry_group_IT_number 19
_symmetry_cell_setting 'orthorhombic'
loop_
_space_group_symop_operation_xyz
x,y,z
1/2-x,-y,1/2+z
1/2+x,1/2-y,-z
-x,1/2+y,1/2-z
loop_
_atom_site_type_symbol
_atom_site_label
_atom_site_fract_x
_atom_site_fract_y
_atom_site_fract_z
Si Si1 0.918165 0.228431 0.285678
Si Si2 0.781804 0.358881 0.768950
Si Si3 0.412174 0.700097 0.439935
Si Si4 0.009281 0.500249 0.469544
Si Si5 0.066163 0.961568 0.573518
Si Si6 0.254380 0.227419 0.805781
Si Si7 0.636551 0.217743 0.613928
O O1 0.976248 0.085141 0.233886
O O2 0.921874 0.336635 0.098217
O O3 0.826611 0.184496 0.297828
O O4 0.956085 0.343529 0.438635
O O5 0.744884 0.539964 0.761998
O O6 0.729803 0.251868 0.627052
O O7 0.874209 0.393143 0.767767
O O8 0.769968 0.283285 0.972293
O O9 0.463629 0.864623 0.412057
O O10 0.473487 0.559525 0.384934
O O11 0.333511 0.703318 0.316404
O O12 0.389137 0.706577 0.663430
O O13 0.098110 0.435389 0.490418
O O14 0.100557 0.128229 0.494354
#
# Coordination Sequence:
#
# PCOD9313342 Si02
#       7
#     4   4   4   4   4   4   4
#     4  10  17  31  53  86 111 147 193 249 283 336
#     4  10  19  34  61  86 114 154 195 238 296 355
#     4  10  19  33  59  85 114 159 194 239 295 355
#     4  11  18  30  61  86 114 144 210 243 277 347
#     4  10  18  34  59  83 115 152 200 238 291 353
#     4  10  20  35  60  83 120 156 199 235 303 355
#     4  11  17  33  59  89 110 150 201 246 281 351
#
# _framework density 27.830117000000001
#
# number of rings (size 3 to 8) (size 9 to 14) (size 15 to 20)
#    0.000    1.714    7.143    0.857    0.000    0.000 
#    0.000    1.429   18.857    0.000    0.000    0.000 
#    0.000    0.000    0.000    0.000    0.000    0.000 
#
# Total GULP energy -156398.760901 kJ/mol
# GULP energy per Si atom -5585.670032 kJ/mol
# Density = 2.776677 g / cm^3
# Si number density = 27.830117 Si / 1000 Ang^3
#
#
#
# Elastic Constant Matrix: (Units=GPa)
#
#
# Indices 1 2 3 4 5 6 
#
# 1 173.1152 12.3704 59.8055 0.0000 0.0000 0.0000
# 2 12.3704 51.8562 20.6000 0.0000 0.0000 0.0000
# 3 59.8055 20.6000 60.0254 0.0000 0.0000 0.0000
# 4 0.0000 0.0000 0.0000 33.5672 0.0000 0.0000
# 5 0.0000 0.0000 0.0000 0.0000-2617.3905 0.0000
# 6 0.0000 0.0000 0.0000 0.0000 0.0000 47.2432
#
#
#
# Elastic Compliance Matrix: (Units=1/GPa)
#
#
# Indices 1 2 3 4 5 6 
#
# 1 0.008925 0.001625 -0.009450 0.000000 0.000000 0.000000
# 2 0.001625 0.022624 -0.009383 0.000000 0.000000 0.000000
# 3 -0.009450 -0.009383 0.029295 0.000000 0.000000 0.000000
# 4 0.000000 0.000000 0.000000 0.029791 0.000000 0.000000
# 5 0.000000 0.000000 0.000000 0.000000 -0.000382 0.000000
# 6 0.000000 0.000000 0.000000 0.000000 0.000000 0.021167
#
#
# Mechanical properties :
#
#
# Convention : Reuss Voigt Hill
#
# Bulk Modulus (GPa) = 37.83925 52.28318 45.06121
# Shear Modulus (GPa) = 32.33187 -494.50131 -231.08472
#
# Velocity S-wave (km/s) = 3.41216 -13.34434 -9.12219
# Velocity P-wave (km/s) = 5.39905 14.78517 9.73271
#
# Compressibility (1/GPa) = 0.02642759
#
# Stress axis : x y z
#
# Youngs Moduli (GPa) = 112.04430 44.20083 34.13526
#
# Poissons Ratio (x) = -0.07182 0.32258
# Poissons Ratio (y) = -0.18207 0.32030
# Poissons Ratio (z) = 1.05882 0.41475
#
# Static dielectric constant tensor:
#      x y z
#    x 2.263420 0.000000 0.000000 
#    y 0.000000 2.173970 0.000000 
#    z 0.000000 0.000000 2.266150 
# 
# From -- ./inp_files/4190.got.cif
#   From: 2010.05.17/outbox.cif.g08.bks.cpg/sg19_3_cif.got.tgz:4190.got - 2010.06.03 22:46:19.
