data_PCOD9313273
_publ_section_title
;
Structure prediction by ZEFSAII (Michael W. Deem and Ramdas Pophale) SiO2 
 PCOD9313273
Probable space group: P 21 21 2
;
_chemical_formula_sum "Si O2"
_cell_formula_units_Z 16
_cell_length_a 10.700639
_cell_length_b 7.073576
_cell_length_c 7.416241
_cell_angle_alpha 90.000000
_cell_angle_beta 90.000000
_cell_angle_gamma 90.000000
_cell_volume 561.348506
_symmetry_space_group_name_H-M "P 21 21 2"
_symmetry_group_IT_number 18
_symmetry_cell_setting 'orthorhombic'
loop_
_space_group_symop_operation_xyz
x,y,z
-x,-y,z
1/2+x,1/2-y,-z
1/2-x,1/2+y,-z
loop_
_atom_site_type_symbol
_atom_site_label
_atom_site_fract_x
_atom_site_fract_y
_atom_site_fract_z
Si Si1 0.545721 0.779484 0.957598
Si Si2 0.653817 0.278689 0.666190
Si Si3 0.081143 0.683763 0.660538
Si Si4 0.724769 0.834631 0.672611
O O1 0.449507 0.690331 0.815779
O O2 0.684243 0.767785 0.869638
O O3 0.500000 0.000000 0.970553
O O4 0.541563 0.706317 0.161094
O O5 0.779090 0.391774 0.716600
O O6 0.648781 0.313849 0.447125
O O7 0.691113 0.056871 0.678114
O O8 0.120731 0.759248 0.463865
O O9 0.000000 0.500000 0.631161
#
# Coordination Sequence:
#
# PCOD9313273 Si02
#       4
#     4   4   4   4
#     4   9  17  36  56  82 116 146 199 242 283 356
#     4   9  19  35  62  88 114 157 197 242 296 349
#     4   9  18  34  60  86 113 157 193 236 300 341
#     4   9  19  37  57  88 113 153 193 243 295 346
#
# _framework density 28.502791999999999
#
# number of rings (size 3 to 8) (size 9 to 14) (size 15 to 20)
#    1.500    1.500    0.000    2.250    0.000    0.000 
#   18.000    1.250    0.000    0.000    0.000    0.000 
#    0.000    0.000    0.000    0.000    0.000    0.000 
#
# Total GULP energy -89170.872721 kJ/mol
# GULP energy per Si atom -5573.179545 kJ/mol
# Density = 2.843792 g / cm^3
# Si number density = 28.502792 Si / 1000 Ang^3
#
#
#
# Elastic Constant Matrix: (Units=GPa)
#
#
# Indices 1 2 3 4 5 6 
#
# 1 45.0155 12.2143 42.4174 0.0000 0.0000 0.0000
# 2 12.2143 95.8924 -3.0953 0.0000 0.0000 0.0000
# 3 42.4174 -3.0953 161.0089 0.0000 0.0000 0.0000
# 4 0.0000 0.0000 0.0000 19.2347 0.0000 0.0000
# 5 0.0000 0.0000 0.0000 0.0000 50.6959 0.0000
# 6 0.0000 0.0000 0.0000 0.0000 0.0000 43.5272
#
#
#
# Elastic Compliance Matrix: (Units=1/GPa)
#
#
# Indices 1 2 3 4 5 6 
#
# 1 0.031183 -0.004240 -0.008296 0.000000 0.000000 0.000000
# 2 -0.004240 0.011011 0.001329 0.000000 0.000000 0.000000
# 3 -0.008296 0.001329 0.008422 0.000000 0.000000 0.000000
# 4 0.000000 0.000000 0.000000 0.051989 0.000000 0.000000
# 5 0.000000 0.000000 0.000000 0.000000 0.019725 0.000000
# 6 0.000000 0.000000 0.000000 0.000000 0.000000 0.022974
#
#
# Mechanical properties :
#
#
# Convention : Reuss Voigt Hill
#
# Bulk Modulus (GPa) = 35.45997 44.99887 40.22942
# Shear Modulus (GPa) = 28.22941 39.38360 33.80650
#
# Velocity S-wave (km/s) = 3.15049 3.72122 3.44768
# Velocity P-wave (km/s) = 5.06971 5.85535 5.47664
#
# Compressibility (1/GPa) = 0.02820082
#
# Stress axis : x y z
#
# Youngs Moduli (GPa) = 32.06916 90.81604 118.73574
#
# Poissons Ratio (x) = 0.38503 0.98509
# Poissons Ratio (y) = 0.13596 -0.15775
# Poissons Ratio (z) = 0.26606 -0.12066
#
# Static dielectric constant tensor:
#      x y z
#    x 2.475620 0.000000 0.000000 
#    y 0.000000 2.218850 0.000000 
#    z 0.000000 0.000000 2.187030 
# 
# From -- ./inp_files/2868.got.cif
#   From: 2010.05.17/outbox.cif.g08.bks.cpg/sg18_2_cif.got.tgz:2868.got - 2010.06.03 22:40:56.
