data_PCOD9313064
_publ_section_title
;
Structure prediction by ZEFSAII (Michael W. Deem and Ramdas Pophale) SiO2 
 PCOD9313064
Probable space group: P 21 21 2
;
_chemical_formula_sum "Si O2"
_cell_formula_units_Z 26
_cell_length_a 13.410059
_cell_length_b 12.655325
_cell_length_c 7.324276
_cell_angle_alpha 90.000000
_cell_angle_beta 90.000000
_cell_angle_gamma 90.000000
_cell_volume 1242.993028
_symmetry_space_group_name_H-M "P 21 21 2"
_symmetry_group_IT_number 18
_symmetry_cell_setting 'orthorhombic'
loop_
_space_group_symop_operation_xyz
x,y,z
-x,-y,z
1/2+x,1/2-y,-z
1/2-x,1/2+y,-z
loop_
_atom_site_type_symbol
_atom_site_label
_atom_site_fract_x
_atom_site_fract_y
_atom_site_fract_z
Si Si1 0.011280 0.769951 0.059312
Si Si2 0.782006 0.991907 0.294305
Si Si3 0.710591 0.847248 0.976522
Si Si4 0.639010 0.190772 0.202110
Si Si5 0.524486 0.173048 0.565479
Si Si6 0.841909 0.474649 0.364544
Si Si7 0.000000 0.000000 0.136196
O O1 0.996520 0.756956 0.276771
O O2 0.120720 0.734782 0.999158
O O3 0.938044 0.686046 0.964699
O O4 0.990968 0.892455 0.019023
O O5 0.754404 0.972605 0.505356
O O6 0.709296 0.089555 0.236609
O O7 0.750759 0.893982 0.164828
O O8 0.897840 0.012568 0.251684
O O9 0.791422 0.786788 0.855774
O O10 0.673742 0.939990 0.842772
O O11 0.570307 0.213714 0.377683
O O12 0.422247 0.106447 0.545774
O O13 0.606741 0.088499 0.631517
#
# Coordination Sequence:
#
# PCOD9313064 Si02
#       7
#     4   4   4   4   4   4   2
#     4  11  23  42  62  88 124 159 204 253 301 351
#     4  11  23  42  62  88 124 159 204 253 301 351
#     4  11  22  38  63  89 118 162 203 244 305 361
#     4  11  22  38  63  89 118 162 203 244 305 361
#     4   9  20  39  63  90 114 149 207 256 293 349
#     4   9  20  39  63  90 114 149 207 256 293 349
#     4  12  24  40  58  88 132 162 188 248 306 368
#
# _framework density 20.917252000000001
#
# number of rings (size 3 to 8) (size 9 to 14) (size 15 to 20)
#    0.000    1.538    3.077    1.846    2.154    3.077 
#    0.000    3.077    0.000    0.000    0.000    0.000 
#    0.000    0.000    0.000    0.000    0.000    0.000 
#
# Total GULP energy -145143.692937 kJ/mol
# GULP energy per Si atom -5582.449728 kJ/mol
# Density = 2.086964 g / cm^3
# Si number density = 20.917252 Si / 1000 Ang^3
#
#
#
# Elastic Constant Matrix: (Units=GPa)
#
#
# Indices 1 2 3 4 5 6 
#
# 1 89.8266 -2.6071 11.9027 0.0000 0.0000 0.0000
# 2 -2.6071 64.4168 15.4168 0.0000 0.0000 0.0000
# 3 11.9027 15.4168 35.3531 0.0000 0.0000 0.0000
# 4 0.0000 0.0000 0.0000 -4.0742 0.0000 0.0000
# 5 0.0000 0.0000 0.0000 0.0000 52.4834 0.0000
# 6 0.0000 0.0000 0.0000 0.0000 0.0000 21.9767
#
#
#
# Elastic Compliance Matrix: (Units=1/GPa)
#
#
# Indices 1 2 3 4 5 6 
#
# 1 0.011797 0.001594 -0.004667 0.000000 0.000000 0.000000
# 2 0.001594 0.017548 -0.008189 0.000000 0.000000 0.000000
# 3 -0.004667 -0.008189 0.033429 0.000000 0.000000 0.000000
# 4 0.000000 0.000000 0.000000 -0.245447 0.000000 0.000000
# 5 0.000000 0.000000 0.000000 0.000000 0.019054 0.000000
# 6 0.000000 0.000000 0.000000 0.000000 0.000000 0.045503
#
#
# Mechanical properties :
#
#
# Convention : Reuss Voigt Hill
#
# Bulk Modulus (GPa) = 24.84468 26.55793 25.70130
# Shear Modulus (GPa) = -60.84549 25.06943 -17.88803
#
# Velocity S-wave (km/s) = -5.39924 3.46570 -2.92752
# Velocity P-wave (km/s) = 5.19285 5.36088 0.94162
#
# Compressibility (1/GPa) = 0.04025007
#
# Stress axis : x y z
#
# Youngs Moduli (GPa) = 84.76524 56.98523 29.91445
#
# Poissons Ratio (x) = -0.09086 0.13962
# Poissons Ratio (y) = -0.13516 0.24498
# Poissons Ratio (z) = 0.39562 0.46667
#
# Static dielectric constant tensor:
#      x y z
#    x 1.788680 0.000000 0.000000 
#    y 0.000000 1.754050 0.000000 
#    z 0.000000 0.000000 1.739020 
# 
# From -- ./inp_files/3857.got.cif
#   From: 2010.05.17/outbox.cif.g08.bks.cpg/sg18_2_cif.got.tgz:3857.got - 2010.06.03 22:40:56.
