data_PCOD9313750
_publ_section_title
;
Structure prediction by ZEFSAII (Michael W. Deem and Ramdas Pophale) SiO2 
 PCOD9313750
Probable space group: P 21 21 21
;
_chemical_formula_sum "Si O2"
_cell_formula_units_Z 24
_cell_length_a 7.919953
_cell_length_b 13.273994
_cell_length_c 9.168148
_cell_angle_alpha 90.000000
_cell_angle_beta 90.000000
_cell_angle_gamma 90.000000
_cell_volume 963.841977
_symmetry_space_group_name_H-M "P 21 21 21"
_symmetry_group_IT_number 19
_symmetry_cell_setting 'orthorhombic'
loop_
_space_group_symop_operation_xyz
x,y,z
1/2-x,-y,1/2+z
1/2+x,1/2-y,-z
-x,1/2+y,1/2-z
loop_
_atom_site_type_symbol
_atom_site_label
_atom_site_fract_x
_atom_site_fract_y
_atom_site_fract_z
Si Si1 0.661791 0.385548 0.250000
Si Si2 0.000001 0.250000 0.997447
Si Si3 0.430783 0.386098 0.750000
Si Si4 0.500001 0.249999 0.497446
Si Si5 0.069218 0.386099 0.250000
Si Si6 0.161790 0.885549 0.749999
O O1 0.596000 0.326884 0.108578
O O2 0.596002 0.326883 0.391420
O O3 0.864441 0.390969 0.249999
O O4 0.597519 0.500000 0.250001
O O5 0.904001 0.326884 0.891421
O O6 0.108743 0.320120 0.107894
O O7 0.891258 0.179880 0.107894
O O8 0.391260 0.320120 0.607893
O O9 0.364423 0.500000 0.749999
O O10 0.635560 0.390969 0.750001
O O11 0.608743 0.179879 0.607893
O O12 0.404000 0.173116 0.391421
#
# Coordination Sequence:
#
# PCOD9313750 Si02
#       6
#     4   4   4   4   4   4
#     4  10  20  36  58  80 104 140 182 218 258 314
#     4  10  20  32  56  84 108 132 176 228 264 300
#     4  10  20  36  58  80 104 140 182 218 258 314
#     4  10  20  32  56  84 108 132 176 228 264 300
#     4  10  20  36  58  80 104 140 182 218 258 314
#     4  10  20  36  58  80 104 140 182 218 258 314
#
# _framework density 24.90035
#
# number of rings (size 3 to 8) (size 9 to 14) (size 15 to 20)
#    0.000    2.000    0.000    4.000    0.000    5.333 
#    0.000    0.000    0.000  140.000    0.000    0.000 
#    0.000    0.000    0.000    0.000    0.000    0.000 
#
# Total GULP energy -134476.911644 kJ/mol
# GULP energy per Si atom -5603.204652 kJ/mol
# Density = 2.484368 g / cm^3
# Si number density = 24.900350 Si / 1000 Ang^3
#
#
#
# Elastic Constant Matrix: (Units=GPa)
#
#
# Indices 1 2 3 4 5 6 
#
# 1 51.2761 39.3571 41.7579 0.0000 0.0000 0.0000
# 2 39.3571 286.5765 119.9270 0.0000 0.0000 0.0000
# 3 41.7579 119.9270 236.6377 0.0000 0.0000 0.0000
# 4 0.0000 0.0000 0.0000 15.3516 0.0000 0.0000
# 5 0.0000 0.0000 0.0000 0.0000 38.8965 0.0000
# 6 0.0000 0.0000 0.0000 0.0000 0.0000 33.2360
#
#
#
# Elastic Compliance Matrix: (Units=1/GPa)
#
#
# Indices 1 2 3 4 5 6 
#
# 1 0.023562 -0.001899 -0.003196 0.000000 0.000000 0.000000
# 2 -0.001899 0.004582 -0.001987 0.000000 0.000000 0.000000
# 3 -0.003196 -0.001987 0.005797 0.000000 0.000000 0.000000
# 4 0.000000 0.000000 0.000000 0.065140 0.000000 0.000000
# 5 0.000000 0.000000 0.000000 0.000000 0.025709 0.000000
# 6 0.000000 0.000000 0.000000 0.000000 0.000000 0.030088
#
#
# Mechanical properties :
#
#
# Convention : Reuss Voigt Hill
#
# Bulk Modulus (GPa) = 50.56096 108.50825 79.53461
# Shear Modulus (GPa) = 28.46857 42.39337 35.43097
#
# Velocity S-wave (km/s) = 3.38494 4.13064 3.77624
# Velocity P-wave (km/s) = 5.96879 8.14992 7.14310
#
# Compressibility (1/GPa) = 0.01977810
#
# Stress axis : x y z
#
# Youngs Moduli (GPa) = 42.44127 218.25851 172.50993
#
# Poissons Ratio (x) = 0.41438 0.55128
# Poissons Ratio (y) = 0.08058 0.34277
# Poissons Ratio (z) = 0.13563 0.43367
#
# Static dielectric constant tensor:
#      x y z
#    x 2.006620 0.000000 0.000000 
#    y 0.000000 1.945430 0.000000 
#    z 0.000000 0.000000 1.920040 
# 
# From -- ./inp_files/3411.got.cif
#   From: 2010.05.17/outbox.cif.g08.bks.cpg/sg19_2_cif.got.tgz:3411.got - 2010.06.03 22:46:19.
