data_PCOD9313198
_publ_section_title
;
Structure prediction by ZEFSAII (Michael W. Deem and Ramdas Pophale) SiO2 
 PCOD9313198
Probable space group: P 21 21 2
;
_chemical_formula_sum "Si O2"
_cell_formula_units_Z 18
_cell_length_a 8.371476
_cell_length_b 16.416291
_cell_length_c 4.890197
_cell_angle_alpha 90.000000
_cell_angle_beta 90.000000
_cell_angle_gamma 90.000000
_cell_volume 672.052860
_symmetry_space_group_name_H-M "P 21 21 2"
_symmetry_group_IT_number 18
_symmetry_cell_setting 'orthorhombic'
loop_
_space_group_symop_operation_xyz
x,y,z
-x,-y,z
1/2+x,1/2-y,-z
1/2-x,1/2+y,-z
loop_
_atom_site_type_symbol
_atom_site_label
_atom_site_fract_x
_atom_site_fract_y
_atom_site_fract_z
Si Si1 0.623517 0.387442 0.117307
Si Si2 0.223224 0.935828 0.853644
Si Si3 0.064224 0.336779 0.742562
Si Si4 0.234031 0.213103 0.374708
Si Si5 0.500000 0.000000 0.462850
O O1 0.680798 0.476177 0.010665
O O2 0.448513 0.404076 0.241845
O O3 0.625680 0.326212 0.861417
O O4 0.730269 0.345921 0.355740
O O5 0.305204 0.867060 0.040944
O O6 0.352003 0.967130 0.635783
O O7 0.162324 0.296197 0.495648
O O8 0.910072 0.278186 0.756356
O O9 0.966855 0.421146 0.713356
#
# Coordination Sequence:
#
# PCOD9313198 Si02
#       5
#     4   4   4   4   2
#     4  11  27  50  79 114 157 207 268 329 404 476
#     4  11  26  47  78 110 156 209 265 326 397 485
#     4  12  28  47  79 113 162 208 267 328 408 474
#     4  12  28  50  76 118 158 210 263 337 401 480
#     4  12  24  46  74 110 148 212 256 324 392 486
#
# _framework density 26.783612000000002
#
# number of rings (size 3 to 8) (size 9 to 14) (size 15 to 20)
#    0.000    0.444    2.222    4.667    9.333    1.778 
#    0.000    0.000    0.000    0.000    0.000    0.000 
#    0.000    0.000    0.000    0.000    0.000    0.000 
#
# Total GULP energy -100634.512301 kJ/mol
# GULP energy per Si atom -5590.806239 kJ/mol
# Density = 2.672265 g / cm^3
# Si number density = 26.783612 Si / 1000 Ang^3
#
#
#
# Elastic Constant Matrix: (Units=GPa)
#
#
# Indices 1 2 3 4 5 6 
#
# 1 137.8754 18.6988 9.1126 0.0000 0.0000 0.0000
# 2 18.6988 159.3780 12.9015 0.0000 0.0000 0.0000
# 3 9.1126 12.9015 75.7703 0.0000 0.0000 0.0000
# 4 0.0000 0.0000 0.0000 44.2355 0.0000 0.0000
# 5 0.0000 0.0000 0.0000 0.0000 36.9307 0.0000
# 6 0.0000 0.0000 0.0000 0.0000 0.0000 51.3896
#
#
#
# Elastic Compliance Matrix: (Units=1/GPa)
#
#
# Indices 1 2 3 4 5 6 
#
# 1 0.007412 -0.000809 -0.000754 0.000000 0.000000 0.000000
# 2 -0.000809 0.006450 -0.001001 0.000000 0.000000 0.000000
# 3 -0.000754 -0.001001 0.013459 0.000000 0.000000 0.000000
# 4 0.000000 0.000000 0.000000 0.022606 0.000000 0.000000
# 5 0.000000 0.000000 0.000000 0.000000 0.027078 0.000000
# 6 0.000000 0.000000 0.000000 0.000000 0.000000 0.019459
#
#
# Mechanical properties :
#
#
# Convention : Reuss Voigt Hill
#
# Bulk Modulus (GPa) = 45.05585 50.49440 47.77513
# Shear Modulus (GPa) = 45.87579 48.66522 47.27050
#
# Velocity S-wave (km/s) = 4.14313 4.26723 4.20563
# Velocity P-wave (km/s) = 6.30444 6.57059 6.43889
#
# Compressibility (1/GPa) = 0.02219468
#
# Stress axis : x y z
#
# Youngs Moduli (GPa) = 134.90889 155.03160 74.30038
#
# Poissons Ratio (x) = 0.12536 0.05601
# Poissons Ratio (y) = 0.10909 0.07438
# Poissons Ratio (z) = 0.10169 0.15519
#
# Static dielectric constant tensor:
#      x y z
#    x 2.351830 0.000000 0.000000 
#    y 0.000000 2.313960 0.000000 
#    z 0.000000 0.000000 2.147590 
# 
# From -- ./inp_files/470.got.cif
#   From: 2010.05.17/outbox.cif.g08.bks.cpg/sg18_1_cif.got.tgz:470.got - 2010.06.03 22:40:56.
