data_PCOD9313691
_publ_section_title
;
Structure prediction by ZEFSAII (Michael W. Deem and Ramdas Pophale) SiO2 
 PCOD9313691
Probable space group: P 21 21 21
;
_chemical_formula_sum "Si O2"
_cell_formula_units_Z 24
_cell_length_a 5.143142
_cell_length_b 19.743601
_cell_length_c 9.271731
_cell_angle_alpha 90.000000
_cell_angle_beta 90.000000
_cell_angle_gamma 90.000000
_cell_volume 941.489983
_symmetry_space_group_name_H-M "P 21 21 21"
_symmetry_group_IT_number 19
_symmetry_cell_setting 'orthorhombic'
loop_
_space_group_symop_operation_xyz
x,y,z
1/2-x,-y,1/2+z
1/2+x,1/2-y,-z
-x,1/2+y,1/2-z
loop_
_atom_site_type_symbol
_atom_site_label
_atom_site_fract_x
_atom_site_fract_y
_atom_site_fract_z
Si Si1 0.182838 0.160606 0.986118
Si Si2 0.236851 0.035387 0.813061
Si Si3 0.391949 0.287795 0.481317
Si Si4 0.232184 0.482290 0.363966
Si Si5 0.315964 0.717547 0.667234
Si Si6 0.588518 0.924158 0.850474
O O1 0.226081 0.081150 0.956310
O O2 0.399395 0.195048 0.882439
O O3 0.897142 0.180021 0.931021
O O4 0.215653 0.201294 0.135896
O O5 0.485588 0.052526 0.712235
O O6 0.989571 0.045255 0.712984
O O7 0.301185 0.957148 0.849721
O O8 0.688713 0.266506 0.454925
O O9 0.257292 0.300870 0.328557
O O10 0.391889 0.350475 0.588593
O O11 0.202078 0.559691 0.307134
O O12 0.259386 0.471280 0.532681
#
# Coordination Sequence:
#
# PCOD9313691 Si02
#       6
#     4   4   4   4   4   4
#     4  10  19  39  65  98 121 165 213 271 321 365
#     4  10  22  37  66  95 127 165 211 274 323 377
#     4  12  27  44  65  92 133 184 211 261 323 403
#     4  10  24  41  68  98 129 169 208 279 326 386
#     4  10  22  39  65  90 133 166 214 260 314 391
#     4  10  26  44  69  97 135 167 227 267 333 386
#
# _framework density 25.491506000000001
#
# number of rings (size 3 to 8) (size 9 to 14) (size 15 to 20)
#    1.000    0.667    0.000    4.000    4.667    1.333 
#    3.000    0.000    0.000    0.000    0.000    0.000 
#    0.000    0.000    0.000    0.000    0.000    0.000 
#
# Total GULP energy -134227.054970 kJ/mol
# GULP energy per Si atom -5592.793957 kJ/mol
# Density = 2.543349 g / cm^3
# Si number density = 25.491506 Si / 1000 Ang^3
#
#
#
# Elastic Constant Matrix: (Units=GPa)
#
#
# Indices 1 2 3 4 5 6 
#
# 1 125.1069 3.4277 30.7476 0.0000 0.0000 0.0000
# 2 3.4277 32.9005 -0.0071 0.0000 0.0000 0.0000
# 3 30.7476 -0.0071 93.5502 0.0000 0.0000 0.0000
# 4 0.0000 0.0000 0.0000 20.6257 0.0000 0.0000
# 5 0.0000 0.0000 0.0000 0.0000 30.2960 0.0000
# 6 0.0000 0.0000 0.0000 0.0000 0.0000 12.8621
#
#
#
# Elastic Compliance Matrix: (Units=1/GPa)
#
#
# Indices 1 2 3 4 5 6 
#
# 1 0.008723 -0.000909 -0.002867 0.000000 0.000000 0.000000
# 2 -0.000909 0.030489 0.000301 0.000000 0.000000 0.000000
# 3 -0.002867 0.000301 0.011632 0.000000 0.000000 0.000000
# 4 0.000000 0.000000 0.000000 0.048483 0.000000 0.000000
# 5 0.000000 0.000000 0.000000 0.000000 0.033008 0.000000
# 6 0.000000 0.000000 0.000000 0.000000 0.000000 0.077748
#
#
# Mechanical properties :
#
#
# Convention : Reuss Voigt Hill
#
# Bulk Modulus (GPa) = 22.78235 35.54376 29.16306
# Shear Modulus (GPa) = 21.58298 27.24940 24.41619
#
# Velocity S-wave (km/s) = 2.91292 3.27304 3.09822
# Velocity P-wave (km/s) = 4.50224 5.31577 4.92582
#
# Compressibility (1/GPa) = 0.04389362
#
# Stress axis : x y z
#
# Youngs Moduli (GPa) = 114.64342 32.79821 85.97134
#
# Poissons Ratio (x) = 0.02983 0.24648
# Poissons Ratio (y) = 0.10425 -0.02589
# Poissons Ratio (z) = 0.32868 -0.00988
#
# Static dielectric constant tensor:
#      x y z
#    x 1.980280 0.000000 0.000000 
#    y 0.000000 2.120020 0.000000 
#    z 0.000000 0.000000 2.028580 
# 
# From -- ./inp_files/4454.got.cif
#   From: 2010.05.17/outbox.cif.g08.bks.cpg/sg19_3_cif.got.tgz:4454.got - 2010.06.03 22:46:19.
