data_PCOD9313278
_publ_section_title
;
Structure prediction by ZEFSAII (Michael W. Deem and Ramdas Pophale) SiO2 
 PCOD9313278
Probable space group: P 21 21 2
;
_chemical_formula_sum "Si O2"
_cell_formula_units_Z 24
_cell_length_a 15.000000
_cell_length_b 9.000000
_cell_length_c 9.000000
_cell_angle_alpha 90.000000
_cell_angle_beta 90.000000
_cell_angle_gamma 90.000000
_cell_volume 1215.000000
_symmetry_space_group_name_H-M "P 21 21 2"
_symmetry_group_IT_number 18
_symmetry_cell_setting 'orthorhombic'
loop_
_space_group_symop_operation_xyz
x,y,z
-x,-y,z
1/2+x,1/2-y,-z
1/2-x,1/2+y,-z
loop_
_atom_site_type_symbol
_atom_site_label
_atom_site_fract_x
_atom_site_fract_y
_atom_site_fract_z
Si Si1 0.149771 0.637636 0.620528
Si Si2 0.798264 0.029136 0.554133
Si Si3 0.768983 0.493097 0.887460
Si Si4 0.966213 0.342005 0.351323
Si Si5 0.089147 0.077248 0.283670
Si Si6 0.225968 0.670291 0.193292
O O1 0.209407 0.511535 0.538472
O O2 0.153475 0.583476 0.788970
O O3 0.060170 0.651757 0.525711
O O4 0.196400 0.800261 0.606028
O O5 0.878264 0.998437 0.438137
O O6 0.790388 0.911435 0.688054
O O7 0.674308 0.429749 0.823489
O O8 0.762265 0.669922 0.860359
O O9 0.781168 0.441321 0.055196
O O10 0.871996 0.304678 0.268789
O O11 0.000000 0.500000 0.298783
O O12 0.049494 0.236125 0.323291
O O13 0.000000 0.000000 0.220557
#
# Coordination Sequence:
#
# PCOD9313278 Si02
#       6
#     4   4   4   4   4   4
#     4  10  20  37  58  89 114 155 195 242 288 361
#     4  10  20  35  62  84 118 151 201 235 297 354
#     4  11  24  40  64  84 127 162 206 239 307 369
#     4  11  24  37  64  91 122 150 207 256 303 345
#     4  11  20  41  62  89 116 158 198 254 301 355
#     4  11  24  42  60  91 119 168 201 243 302 374
#
# _framework density 19.753086
#
# number of rings (size 3 to 8) (size 9 to 14) (size 15 to 20)
#    0.000    1.333    3.333    4.000   14.000    0.000 
#    0.000    3.333    0.000    0.000    0.000    0.000 
#    0.000    0.000    0.000    0.000    0.000    0.000 
#
# Total GULP energy -133919.227017 kJ/mol
# GULP energy per Si atom -5579.967792 kJ/mol
# Density = 1.970813 g / cm^3
# Si number density = 19.753086 Si / 1000 Ang^3
#
#
#
# Elastic Constant Matrix: (Units=GPa)
#
#
# Indices 1 2 3 4 5 6 
#
# 1 29.9125 2.2193 10.4427 0.0000 0.0000 0.0000
# 2 2.2193 106.9219 6.4004 0.0000 0.0000 0.0000
# 3 10.4427 6.4004 90.9401 0.0000 0.0000 0.0000
# 4 0.0000 0.0000 0.0000 32.8915 0.0000 0.0000
# 5 0.0000 0.0000 0.0000 0.0000 16.7114 0.0000
# 6 0.0000 0.0000 0.0000 0.0000 0.0000 33.5597
#
#
#
# Elastic Compliance Matrix: (Units=1/GPa)
#
#
# Indices 1 2 3 4 5 6 
#
# 1 0.034852 -0.000486 -0.003968 0.000000 0.000000 0.000000
# 2 -0.000486 0.009399 -0.000606 0.000000 0.000000 0.000000
# 3 -0.003968 -0.000606 0.011495 0.000000 0.000000 0.000000
# 4 0.000000 0.000000 0.000000 0.030403 0.000000 0.000000
# 5 0.000000 0.000000 0.000000 0.000000 0.059840 0.000000
# 6 0.000000 0.000000 0.000000 0.000000 0.000000 0.029798
#
#
# Mechanical properties :
#
#
# Convention : Reuss Voigt Hill
#
# Bulk Modulus (GPa) = 21.91704 29.54436 25.73070
# Shear Modulus (GPa) = 24.86158 30.54666 27.70412
#
# Velocity S-wave (km/s) = 3.55155 3.93673 3.74909
# Velocity P-wave (km/s) = 5.28560 5.97102 5.63873
#
# Compressibility (1/GPa) = 0.04562660
#
# Stress axis : x y z
#
# Youngs Moduli (GPa) = 28.69271 106.39472 86.99804
#
# Poissons Ratio (x) = 0.05169 0.34520
# Poissons Ratio (y) = 0.01394 0.05270
# Poissons Ratio (z) = 0.11385 0.06444
#
# Static dielectric constant tensor:
#      x y z
#    x 1.691250 0.000000 0.000000 
#    y 0.000000 1.753210 0.000000 
#    z 0.000000 0.000000 1.723380 
# 
# From -- ./inp_files/3155.got.cif
#   From: 2010.05.17/outbox.ucp.g08.bks.cvg/sg18_2_cif.got.tgz:3155.got - 2010.06.11 13:13:23.
