data_PCOD9313800
_publ_section_title
;
Structure prediction by ZEFSAII (Michael W. Deem and Ramdas Pophale) SiO2 
 PCOD9313800
Probable space group: P 21 21 21
;
_chemical_formula_sum "Si O2"
_cell_formula_units_Z 32
_cell_length_a 19.395426
_cell_length_b 5.279728
_cell_length_c 12.853219
_cell_angle_alpha 90.000000
_cell_angle_beta 90.000000
_cell_angle_gamma 90.000000
_cell_volume 1316.202706
_symmetry_space_group_name_H-M "P 21 21 21"
_symmetry_group_IT_number 19
_symmetry_cell_setting 'orthorhombic'
loop_
_space_group_symop_operation_xyz
x,y,z
1/2-x,-y,1/2+z
1/2+x,1/2-y,-z
-x,1/2+y,1/2-z
loop_
_atom_site_type_symbol
_atom_site_label
_atom_site_fract_x
_atom_site_fract_y
_atom_site_fract_z
Si Si1 0.522168 0.323055 0.195496
Si Si2 0.296491 0.351818 0.682472
Si Si3 0.095438 0.924437 0.320789
Si Si4 0.533414 0.384961 0.890772
Si Si5 0.322148 0.850086 0.553732
Si Si6 0.680800 0.669273 0.506048
Si Si7 0.850475 0.628160 0.808862
Si Si8 0.432478 0.561988 0.023509
O O1 0.485348 0.529527 0.272353
O O2 0.602202 0.409081 0.207807
O O3 0.479627 0.364945 0.090206
O O4 0.352679 0.284037 0.769657
O O5 0.306427 0.631830 0.639113
O O6 0.217063 0.296268 0.711976
O O7 0.312275 0.138712 0.593899
O O8 0.143016 0.026461 0.415202
O O9 0.026493 0.814977 0.371304
O O10 0.069914 0.076876 0.220721
O O11 0.596989 0.319639 0.965810
O O12 0.487913 0.623434 0.933175
O O13 0.261447 0.808759 0.470658
O O14 0.675227 0.599002 0.383235
O O15 0.635468 0.919697 0.516105
O O16 0.904981 0.749233 0.890150
#
# Coordination Sequence:
#
# PCOD9313800 Si02
#       8
#     4   4   4   4   4   4   4   4
#     4  10  20  35  58  88 123 156 211 265 324 379
#     4  10  21  39  62  85 119 164 208 255 314 370
#     4  10  22  38  61  96 127 175 214 264 323 388
#     4  10  22  38  62  91 133 168 214 267 317 388
#     4  10  21  41  60  86 119 162 206 262 308 367
#     4  10  20  38  61  89 124 165 219 256 325 381
#     4  10  20  36  64  85 126 164 212 267 319 381
#     4  10  20  37  58  92 119 170 210 262 324 382
#
# _framework density 24.312366000000001
#
# number of rings (size 3 to 8) (size 9 to 14) (size 15 to 20)
#    0.000    2.000    2.500    0.750    1.750    1.000 
#    4.500    0.000    0.000    1.500    0.000    0.000 
#    0.000    0.000    0.000    0.000    0.000    0.000 
#
# Total GULP energy -178278.963505 kJ/mol
# GULP energy per Si atom -5571.217610 kJ/mol
# Density = 2.425703 g / cm^3
# Si number density = 24.312366 Si / 1000 Ang^3
#
#
#
# Elastic Constant Matrix: (Units=GPa)
#
#
# Indices 1 2 3 4 5 6 
#
# 1 209.0100 30.6337 34.8306 0.0000 0.0000 0.0000
# 2 30.6337 66.5661 17.3307 0.0000 0.0000 0.0000
# 3 34.8306 17.3307 79.4532 0.0000 0.0000 0.0000
# 4 0.0000 0.0000 0.0000 23.0952 0.0000 0.0000
# 5 0.0000 0.0000 0.0000 0.0000 44.5954 0.0000
# 6 0.0000 0.0000 0.0000 0.0000 0.0000 25.4482
#
#
#
# Elastic Compliance Matrix: (Units=1/GPa)
#
#
# Indices 1 2 3 4 5 6 
#
# 1 0.005397 -0.001980 -0.001934 0.000000 0.000000 0.000000
# 2 -0.001980 0.016654 -0.002765 0.000000 0.000000 0.000000
# 3 -0.001934 -0.002765 0.014037 0.000000 0.000000 0.000000
# 4 0.000000 0.000000 0.000000 0.043299 0.000000 0.000000
# 5 0.000000 0.000000 0.000000 0.000000 0.022424 0.000000
# 6 0.000000 0.000000 0.000000 0.000000 0.000000 0.039296
#
#
# Mechanical properties :
#
#
# Convention : Reuss Voigt Hill
#
# Bulk Modulus (GPa) = 43.99438 57.84657 50.92048
# Shear Modulus (GPa) = 30.85657 36.77670 33.81664
#
# Velocity S-wave (km/s) = 3.56641 3.89353 3.73355
# Velocity P-wave (km/s) = 5.92400 6.63758 6.29092
#
# Compressibility (1/GPa) = 0.02273017
#
# Stress axis : x y z
#
# Youngs Moduli (GPa) = 185.28887 60.04676 71.24101
#
# Poissons Ratio (x) = 0.11890 0.13778
# Poissons Ratio (y) = 0.36690 0.19695
# Poissons Ratio (z) = 0.35835 0.16600
#
# Static dielectric constant tensor:
#      x y z
#    x 1.993540 0.000000 0.000000 
#    y 0.000000 1.992390 0.000000 
#    z 0.000000 0.000000 2.116470 
# 
# From -- ./inp_files/1791.got.cif
#   From: 2010.05.17/outbox.cif.g08.bks.cpg/sg19_1_cif.got.tgz:1791.got - 2010.06.03 22:46:19.
