data_PCOD9313556
_publ_section_title
;
Structure prediction by ZEFSAII (Michael W. Deem and Ramdas Pophale) SiO2 
 PCOD9313556
Probable space group: P 21 21 21
;
_chemical_formula_sum "Si O2"
_cell_formula_units_Z 32
_cell_length_a 19.116131
_cell_length_b 14.291170
_cell_length_c 5.193423
_cell_angle_alpha 90.000000
_cell_angle_beta 90.000000
_cell_angle_gamma 90.000000
_cell_volume 1418.800982
_symmetry_space_group_name_H-M "P 21 21 21"
_symmetry_group_IT_number 19
_symmetry_cell_setting 'orthorhombic'
loop_
_space_group_symop_operation_xyz
x,y,z
1/2-x,-y,1/2+z
1/2+x,1/2-y,-z
-x,1/2+y,1/2-z
loop_
_atom_site_type_symbol
_atom_site_label
_atom_site_fract_x
_atom_site_fract_y
_atom_site_fract_z
Si Si1 0.097910 0.620557 0.071134
Si Si2 0.630898 0.161500 0.350774
Si Si3 0.593603 0.470245 0.286795
Si Si4 0.228324 0.944146 0.730329
Si Si5 0.748539 0.935126 0.066428
Si Si6 0.166667 0.193779 0.010934
Si Si7 0.553412 0.978645 0.421632
Si Si8 0.959480 0.690996 0.117139
O O1 0.180644 0.622357 0.029407
O O2 0.082654 0.542428 0.294094
O O3 0.041981 0.698530 0.165311
O O4 0.071118 0.603240 0.779102
O O5 0.684065 0.131930 0.576780
O O6 0.680228 0.212103 0.144584
O O7 0.570033 0.234935 0.414515
O O8 0.590946 0.066686 0.288957
O O9 0.645206 0.557270 0.327280
O O10 0.646290 0.391270 0.179132
O O11 0.530035 0.491037 0.094161
O O12 0.559089 0.415537 0.526882
O O13 0.271406 0.848568 0.683676
O O14 0.257747 0.018281 0.518083
O O15 0.762187 0.010975 0.836137
O O16 0.093136 0.209645 0.152384
#
# Coordination Sequence:
#
# PCOD9313556 Si02
#       8
#     4   4   4   4   4   4   4   4
#     4  11  22  43  67  93 124 172 220 263 318 390
#     4  11  25  39  64  96 130 168 214 270 332 383
#     4   9  19  37  61  90 118 168 219 256 311 387
#     4  10  19  34  60  88 119 164 211 252 309 390
#     4  12  24  44  69  97 127 174 225 269 318 392
#     4  10  20  37  59  90 125 167 202 268 324 384
#     4  11  22  39  66  93 123 168 219 265 312 389
#     4  10  21  39  64  91 130 167 206 267 334 381
#
# _framework density 22.554254
#
# number of rings (size 3 to 8) (size 9 to 14) (size 15 to 20)
#    0.000    1.500    5.000    0.000    3.500    0.000 
#    0.000    2.500    0.000    0.000    0.000    0.000 
#    0.000    0.000    0.000    0.000    0.000    0.000 
#
# Total GULP energy -178204.219367 kJ/mol
# GULP energy per Si atom -5568.881855 kJ/mol
# Density = 2.250292 g / cm^3
# Si number density = 22.554254 Si / 1000 Ang^3
#
#
#
# Elastic Constant Matrix: (Units=GPa)
#
#
# Indices 1 2 3 4 5 6 
#
# 1 107.5172 11.7661 -10.9129 0.0000 0.0000 0.0000
# 2 11.7661 23.0449 1.9490 0.0000 0.0000 0.0000
# 3 -10.9129 1.9490 70.7960 0.0000 0.0000 0.0000
# 4 0.0000 0.0000 0.0000 19.9774 0.0000 0.0000
# 5 0.0000 0.0000 0.0000 0.0000 30.6389 0.0000
# 6 0.0000 0.0000 0.0000 0.0000 0.0000 21.8781
#
#
#
# Elastic Compliance Matrix: (Units=1/GPa)
#
#
# Indices 1 2 3 4 5 6 
#
# 1 0.010050 -0.005275 0.001694 0.000000 0.000000 0.000000
# 2 -0.005275 0.046263 -0.002087 0.000000 0.000000 0.000000
# 3 0.001694 -0.002087 0.014444 0.000000 0.000000 0.000000
# 4 0.000000 0.000000 0.000000 0.050057 0.000000 0.000000
# 5 0.000000 0.000000 0.000000 0.000000 0.032638 0.000000
# 6 0.000000 0.000000 0.000000 0.000000 0.000000 0.045708
#
#
# Mechanical properties :
#
#
# Convention : Reuss Voigt Hill
#
# Bulk Modulus (GPa) = 16.82846 22.99584 19.91215
# Shear Modulus (GPa) = 21.71070 27.73592 24.72331
#
# Velocity S-wave (km/s) = 3.10594 3.51057 3.31444
# Velocity P-wave (km/s) = 4.50999 5.16237 4.84717
#
# Compressibility (1/GPa) = 0.05942314
#
# Stress axis : x y z
#
# Youngs Moduli (GPa) = 99.50216 21.61546 69.23423
#
# Poissons Ratio (x) = 0.11401 -0.11731
# Poissons Ratio (y) = 0.52483 0.14447
# Poissons Ratio (z) = -0.16859 0.04510
#
# Static dielectric constant tensor:
#      x y z
#    x 1.914810 0.000000 0.000000 
#    y 0.000000 1.895870 0.000000 
#    z 0.000000 0.000000 1.919380 
# 
# From -- ./inp_files/1810.got.cif
#   From: 2010.05.17/outbox.cif.g08.bks.cpg/sg19_1_cif.got.tgz:1810.got - 2010.06.03 22:46:19.
