data_PCOD9313767
_publ_section_title
;
Structure prediction by ZEFSAII (Michael W. Deem and Ramdas Pophale) SiO2 
 PCOD9313767
Probable space group: P 21 21 21
;
_chemical_formula_sum "Si O2"
_cell_formula_units_Z 24
_cell_length_a 7.856699
_cell_length_b 6.803906
_cell_length_c 17.286869
_cell_angle_alpha 90.000000
_cell_angle_beta 90.000000
_cell_angle_gamma 90.000000
_cell_volume 924.091043
_symmetry_space_group_name_H-M "P 21 21 21"
_symmetry_group_IT_number 19
_symmetry_cell_setting 'orthorhombic'
loop_
_space_group_symop_operation_xyz
x,y,z
1/2-x,-y,1/2+z
1/2+x,1/2-y,-z
-x,1/2+y,1/2-z
loop_
_atom_site_type_symbol
_atom_site_label
_atom_site_fract_x
_atom_site_fract_y
_atom_site_fract_z
Si Si1 0.449245 0.623122 0.100114
Si Si2 0.747237 0.682107 0.214495
Si Si3 0.127029 0.692332 0.177271
Si Si4 0.053751 0.054373 0.061646
Si Si5 0.108546 0.909136 0.614155
Si Si6 0.752216 0.146052 0.161939
O O1 0.608527 0.591415 0.156579
O O2 0.266882 0.557970 0.134687
O O3 0.429190 0.860610 0.097417
O O4 0.483687 0.534221 0.016994
O O5 0.681650 0.641328 0.300716
O O6 0.942377 0.614864 0.201916
O O7 0.748127 0.916284 0.191894
O O8 0.086239 0.869195 0.119111
O O9 0.223153 0.753479 0.256299
O O10 0.240880 0.148177 0.055733
O O11 0.913142 0.178878 0.106879
O O12 0.921475 0.817631 0.616023
#
# Coordination Sequence:
#
# PCOD9313767 Si02
#       6
#     4   4   4   4   4   4
#     4  10  22  35  56  87 115 144 194 247 286 325
#     4  10  20  35  56  83 114 152 192 232 288 345
#     4  10  20  34  54  82 115 149 187 239 281 342
#     4  10  22  35  56  87 115 144 194 247 286 325
#     4  10  20  34  54  82 115 149 187 239 281 342
#     4  10  20  35  56  83 114 152 192 232 288 345
#
# _framework density 25.971464000000001
#
# number of rings (size 3 to 8) (size 9 to 14) (size 15 to 20)
#    0.000    2.000    3.333    0.000   14.000    0.000 
#    0.000    0.000    0.000    2.000    8.667    0.000 
#    0.000    0.000    0.000    0.000    0.000    0.000 
#
# Total GULP energy -134333.022912 kJ/mol
# GULP energy per Si atom -5597.209288 kJ/mol
# Density = 2.591235 g / cm^3
# Si number density = 25.971464 Si / 1000 Ang^3
#
#
#
# Elastic Constant Matrix: (Units=GPa)
#
#
# Indices 1 2 3 4 5 6 
#
# 1 232.4423 5.5122 52.7090 0.0000 0.0000 0.0000
# 2 5.5122 104.8618 18.1361 0.0000 0.0000 0.0000
# 3 52.7090 18.1361 112.1111 0.0000 0.0000 0.0000
# 4 0.0000 0.0000 0.0000 40.8921 0.0000 0.0000
# 5 0.0000 0.0000 0.0000 0.0000 46.1844 0.0000
# 6 0.0000 0.0000 0.0000 0.0000 0.0000 10.6600
#
#
#
# Elastic Compliance Matrix: (Units=1/GPa)
#
#
# Indices 1 2 3 4 5 6 
#
# 1 0.004818 0.000142 -0.002288 0.000000 0.000000 0.000000
# 2 0.000142 0.009815 -0.001655 0.000000 0.000000 0.000000
# 3 -0.002288 -0.001655 0.010263 0.000000 0.000000 0.000000
# 4 0.000000 0.000000 0.000000 0.024455 0.000000 0.000000
# 5 0.000000 0.000000 0.000000 0.000000 0.021652 0.000000
# 6 0.000000 0.000000 0.000000 0.000000 0.000000 0.093809
#
#
# Mechanical properties :
#
#
# Convention : Reuss Voigt Hill
#
# Bulk Modulus (GPa) = 57.81964 66.90330 62.36147
# Shear Modulus (GPa) = 28.06191 44.41781 36.23986
#
# Velocity S-wave (km/s) = 3.29065 4.14001 3.73952
# Velocity P-wave (km/s) = 6.06209 6.97633 6.53521
#
# Compressibility (1/GPa) = 0.01729516
#
# Stress axis : x y z
#
# Youngs Moduli (GPa) = 207.57203 101.88414 97.43611
#
# Poissons Ratio (x) = -0.01452 0.22294
# Poissons Ratio (y) = -0.02957 0.16123
# Poissons Ratio (z) = 0.47493 0.16859
#
# Static dielectric constant tensor:
#      x y z
#    x 2.069220 0.000000 0.000000 
#    y 0.000000 2.158200 0.000000 
#    z 0.000000 0.000000 1.940850 
# 
# From -- ./inp_files/3864.got.cif
#   From: 2010.05.17/outbox.cif.g08.bks.cpg/sg19_2_cif.got.tgz:3864.got - 2010.06.03 22:46:19.
