data_PCOD9313790
_publ_section_title
;
Structure prediction by ZEFSAII (Michael W. Deem and Ramdas Pophale) SiO2 
 PCOD9313790
Probable space group: P 21 21 21
;
_chemical_formula_sum "Si O2"
_cell_formula_units_Z 24
_cell_length_a 5.059770
_cell_length_b 12.962821
_cell_length_c 17.723372
_cell_angle_alpha 90.000000
_cell_angle_beta 90.000000
_cell_angle_gamma 90.000000
_cell_volume 1162.456346
_symmetry_space_group_name_H-M "P 21 21 21"
_symmetry_group_IT_number 19
_symmetry_cell_setting 'orthorhombic'
loop_
_space_group_symop_operation_xyz
x,y,z
1/2-x,-y,1/2+z
1/2+x,1/2-y,-z
-x,1/2+y,1/2-z
loop_
_atom_site_type_symbol
_atom_site_label
_atom_site_fract_x
_atom_site_fract_y
_atom_site_fract_z
Si Si1 0.402923 0.696542 0.031908
Si Si2 0.271824 0.138247 0.074138
Si Si3 0.948876 0.666467 0.836061
Si Si4 0.052955 0.445092 0.402459
Si Si5 0.530284 0.314317 0.158244
Si Si6 0.550234 0.147633 0.933240
O O1 0.470888 0.725189 0.117879
O O2 0.100405 0.726743 0.014132
O O3 0.454322 0.588610 0.990767
O O4 0.450591 0.196767 0.135497
O O5 0.111351 0.234945 0.038926
O O6 0.057725 0.059529 0.104822
O O7 0.452041 0.090240 0.007963
O O8 0.164211 0.586696 0.869655
O O9 0.985796 0.674999 0.747361
O O10 0.661408 0.623557 0.857535
O O11 0.814601 0.343916 0.126461
O O12 0.312609 0.381559 0.112299
#
# Coordination Sequence:
#
# PCOD9313790 Si02
#       6
#     4   4   4   4   4   4
#     4   8  16  33  51  74 102 143 180 217 271 323
#     4  10  21  36  60  82 109 145 196 228 271 327
#     4  10  20  36  54  81 116 149 176 228 289 337
#     4  10  21  33  60  81 108 144 197 230 261 332
#     4  10  20  35  56  77 111 149 182 220 295 334
#     4  10  20  35  59  77 108 150 181 229 281 329
#
# _framework density 20.645938999999998
#
# number of rings (size 3 to 8) (size 9 to 14) (size 15 to 20)
#    1.000    1.333    1.667    1.000    2.333    0.000 
#    0.000    3.333    0.000    4.000    0.000    0.000 
#    0.000    0.000    0.000    0.000    0.000    0.000 
#
# Total GULP energy -133700.229011 kJ/mol
# GULP energy per Si atom -5570.842875 kJ/mol
# Density = 2.059895 g / cm^3
# Si number density = 20.645939 Si / 1000 Ang^3
#
#
#
# Elastic Constant Matrix: (Units=GPa)
#
#
# Indices 1 2 3 4 5 6 
#
# 1 83.9001 -4.0469 17.8112 0.0000 0.0000 0.0000
# 2 -4.0469 20.9871 8.5156 0.0000 0.0000 0.0000
# 3 17.8112 8.5156 127.5748 0.0000 0.0000 0.0000
# 4 0.0000 0.0000 0.0000 12.7429 0.0000 0.0000
# 5 0.0000 0.0000 0.0000 0.0000 28.2405 0.0000
# 6 0.0000 0.0000 0.0000 0.0000 0.0000 19.1377
#
#
#
# Elastic Compliance Matrix: (Units=1/GPa)
#
#
# Indices 1 2 3 4 5 6 
#
# 1 0.012489 0.003202 -0.001957 0.000000 0.000000 0.000000
# 2 0.003202 0.049796 -0.003771 0.000000 0.000000 0.000000
# 3 -0.001957 -0.003771 0.008364 0.000000 0.000000 0.000000
# 4 0.000000 0.000000 0.000000 0.078475 0.000000 0.000000
# 5 0.000000 0.000000 0.000000 0.000000 0.035410 0.000000
# 6 0.000000 0.000000 0.000000 0.000000 0.000000 0.052253
#
#
# Mechanical properties :
#
#
# Convention : Reuss Voigt Hill
#
# Bulk Modulus (GPa) = 15.24472 30.78018 23.01245
# Shear Modulus (GPa) = 18.96065 26.03636 22.49850
#
# Velocity S-wave (km/s) = 3.03375 3.55503 3.30469
# Velocity P-wave (km/s) = 4.43525 5.63844 5.07264
#
# Compressibility (1/GPa) = 0.06559649
#
# Stress axis : x y z
#
# Youngs Moduli (GPa) = 80.07083 20.08199 119.56676
#
# Poissons Ratio (x) = -0.06431 0.23404
# Poissons Ratio (y) = -0.25642 0.45088
# Poissons Ratio (z) = 0.15673 0.07573
#
# Static dielectric constant tensor:
#      x y z
#    x 1.775620 0.000000 0.000000 
#    y 0.000000 1.790680 0.000000 
#    z 0.000000 0.000000 1.720150 
# 
# From -- ./inp_files/1526.got.cif
#   From: 2010.05.17/outbox.cif.g08.bks.cpg/sg19_1_cif.got.tgz:1526.got - 2010.06.03 22:46:19.
