data_PCOD9313410
_publ_section_title
;
Structure prediction by ZEFSAII (Michael W. Deem and Ramdas Pophale) SiO2 
 PCOD9313410
Probable space group: P 21 21 21
;
_chemical_formula_sum "Si O2"
_cell_formula_units_Z 32
_cell_length_a 22.943691
_cell_length_b 7.973353
_cell_length_c 9.496315
_cell_angle_alpha 90.000000
_cell_angle_beta 90.000000
_cell_angle_gamma 90.000000
_cell_volume 1737.238274
_symmetry_space_group_name_H-M "P 21 21 21"
_symmetry_group_IT_number 19
_symmetry_cell_setting 'orthorhombic'
loop_
_space_group_symop_operation_xyz
x,y,z
1/2-x,-y,1/2+z
1/2+x,1/2-y,-z
-x,1/2+y,1/2-z
loop_
_atom_site_type_symbol
_atom_site_label
_atom_site_fract_x
_atom_site_fract_y
_atom_site_fract_z
Si Si1 0.306605 0.555709 0.198208
Si Si2 0.494321 0.848405 0.631413
Si Si3 0.420401 0.653134 0.840020
Si Si4 0.602529 0.676670 0.543481
Si Si5 0.388893 0.838044 0.104107
Si Si6 0.809892 0.055569 0.122462
Si Si7 0.465884 0.017603 0.337454
Si Si8 0.580995 0.865058 0.246398
O O1 0.334006 0.736832 0.162313
O O2 0.248073 0.561509 0.286975
O O3 0.357613 0.454792 0.282265
O O4 0.296937 0.474190 0.043522
O O5 0.443372 0.795268 0.736157
O O6 0.538338 0.690225 0.610792
O O7 0.469582 0.920905 0.485137
O O8 0.538241 0.993239 0.682378
O O9 0.353867 0.591770 0.826711
O O10 0.424890 0.712785 0.002415
O O11 0.623635 0.494475 0.498493
O O12 0.651261 0.775828 0.630186
O O13 0.591679 0.783167 0.400258
O O14 0.424068 0.914832 0.233110
O O15 0.529168 0.999910 0.262268
O O16 0.441828 0.207975 0.345604
#
# Coordination Sequence:
#
# PCOD9313410 Si02
#       8
#     4   4   4   4   4   4   4   4
#     4  10  20  37  57  76 104 144 183 219 268 321
#     4  10  19  33  55  84 111 143 180 217 269 332
#     4  10  20  35  54  78 113 147 175 219 276 326
#     4   8  17  34  54  77 108 140 171 214 272 324
#     4  10  19  34  56  81 109 141 173 222 282 325
#     4   9  20  38  56  75 105 143 183 221 264 319
#     4  10  18  32  55  83 110 137 178 224 269 329
#     4   9  17  31  53  80 110 139 171 218 270 314
#
# _framework density 18.420041999999999
#
# number of rings (size 3 to 8) (size 9 to 14) (size 15 to 20)
#    0.000    2.500    0.000    4.500    0.000    1.000 
#    0.000   15.000    0.000    1.500    0.000    0.000 
#    0.000    0.000    0.000    0.000    0.000    0.000 
#
# Total GULP energy -178332.182284 kJ/mol
# GULP energy per Si atom -5572.880696 kJ/mol
# Density = 1.837812 g / cm^3
# Si number density = 18.420042 Si / 1000 Ang^3
#
#
#
# Elastic Constant Matrix: (Units=GPa)
#
#
# Indices 1 2 3 4 5 6 
#
# 1 133.9004 52.7174 67.4092 0.0000 0.0000 0.0000
# 2 52.7174 93.0470 26.0940 0.0000 0.0000 0.0000
# 3 67.4092 26.0940 63.3372 0.0000 0.0000 0.0000
# 4 0.0000 0.0000 0.0000 25.9029 0.0000 0.0000
# 5 0.0000 0.0000 0.0000 0.0000 39.9635 0.0000
# 6 0.0000 0.0000 0.0000 0.0000 0.0000 16.9754
#
#
#
# Elastic Compliance Matrix: (Units=1/GPa)
#
#
# Indices 1 2 3 4 5 6 
#
# 1 0.018316 -0.005552 -0.017207 0.000000 0.000000 0.000000
# 2 -0.005552 0.013834 0.000210 0.000000 0.000000 0.000000
# 3 -0.017207 0.000210 0.034015 0.000000 0.000000 0.000000
# 4 0.000000 0.000000 0.000000 0.038606 0.000000 0.000000
# 5 0.000000 0.000000 0.000000 0.000000 0.025023 0.000000
# 6 0.000000 0.000000 0.000000 0.000000 0.000000 0.058909
#
#
# Mechanical properties :
#
#
# Convention : Reuss Voigt Hill
#
# Bulk Modulus (GPa) = 47.46690 64.74731 56.10710
# Shear Modulus (GPa) = 20.76206 26.17260 23.46733
#
# Velocity S-wave (km/s) = 3.36094 3.77354 3.57320
# Velocity P-wave (km/s) = 6.39424 7.36294 6.89562
#
# Compressibility (1/GPa) = 0.02106731
#
# Stress axis : x y z
#
# Youngs Moduli (GPa) = 54.59576 72.28508 29.39876
#
# Poissons Ratio (x) = 0.40133 0.50585
# Poissons Ratio (y) = 0.30312 -0.00616
# Poissons Ratio (z) = 0.93941 -0.01515
#
# Static dielectric constant tensor:
#      x y z
#    x 1.624310 0.000000 0.000000 
#    y 0.000000 1.702510 0.000000 
#    z 0.000000 0.000000 1.646440 
# 
# From -- ./inp_files/4374.got.cif
#   From: 2010.05.17/outbox.cif.g08.bks.cpg/sg19_3_cif.got.tgz:4374.got - 2010.06.03 22:46:19.
