data_PCOD9313266
_publ_section_title
;
Structure prediction by ZEFSAII (Michael W. Deem and Ramdas Pophale) SiO2 
 PCOD9313266
Probable space group: P 21 21 2
;
_chemical_formula_sum "Si O2"
_cell_formula_units_Z 10
_cell_length_a 13.614850
_cell_length_b 5.824872
_cell_length_c 4.889391
_cell_angle_alpha 90.000000
_cell_angle_beta 90.000000
_cell_angle_gamma 90.000000
_cell_volume 387.751973
_symmetry_space_group_name_H-M "P 21 21 2"
_symmetry_group_IT_number 18
_symmetry_cell_setting 'orthorhombic'
loop_
_space_group_symop_operation_xyz
x,y,z
-x,-y,z
1/2+x,1/2-y,-z
1/2-x,1/2+y,-z
loop_
_atom_site_type_symbol
_atom_site_label
_atom_site_fract_x
_atom_site_fract_y
_atom_site_fract_z
Si Si1 0.137473 0.339618 0.302070
Si Si2 0.650311 0.852878 0.211972
Si Si3 0.000000 0.000000 0.972577
O O1 0.240433 0.206177 0.310060
O O2 0.112279 0.443894 0.594765
O O3 0.055540 0.181479 0.165838
O O4 0.153924 0.552467 0.095668
O O5 0.580828 0.632207 0.207235
#
# Coordination Sequence:
#
# PCOD9313266 Si02
#       3
#     4   4   2
#     4  12  28  54  83 118 162 209 266 328 399 470
#     4  12  28  54  83 118 162 209 266 328 399 470
#     4  12  30  54  84 118 160 214 262 338 384 482
#
# _framework density 25.789683
#
# number of rings (size 3 to 8) (size 9 to 14) (size 15 to 20)
#    0.000    0.000    4.000    3.600    0.000    9.600 
#    0.000    0.000    0.000    0.000    0.000    0.000 
#    0.000    0.000    0.000    0.000    0.000    0.000 
#
# Total GULP energy -56250.264020 kJ/mol
# GULP energy per Si atom -5625.026402 kJ/mol
# Density = 2.573098 g / cm^3
# Si number density = 25.789683 Si / 1000 Ang^3
#
#
#
# Elastic Constant Matrix: (Units=GPa)
#
#
# Indices 1 2 3 4 5 6 
#
# 1 145.3313 26.8846 9.8382 0.0000 0.0000 0.0000
# 2 26.8846 62.8065 -0.8045 0.0000 0.0000 0.0000
# 3 9.8382 -0.8045 87.2195 0.0000 0.0000 0.0000
# 4 0.0000 0.0000 0.0000 62.5465 0.0000 0.0000
# 5 0.0000 0.0000 0.0000 0.0000 18.6579 0.0000
# 6 0.0000 0.0000 0.0000 0.0000 0.0000 64.2869
#
#
#
# Elastic Compliance Matrix: (Units=1/GPa)
#
#
# Indices 1 2 3 4 5 6 
#
# 1 0.007540 -0.003239 -0.000880 0.000000 0.000000 0.000000
# 2 -0.003239 0.017315 0.000525 0.000000 0.000000 0.000000
# 3 -0.000880 0.000525 0.011569 0.000000 0.000000 0.000000
# 4 0.000000 0.000000 0.000000 0.015988 0.000000 0.000000
# 5 0.000000 0.000000 0.000000 0.000000 0.053597 0.000000
# 6 0.000000 0.000000 0.000000 0.000000 0.000000 0.015555
#
#
# Mechanical properties :
#
#
# Convention : Reuss Voigt Hill
#
# Bulk Modulus (GPa) = 34.20424 40.79931 37.50178
# Shear Modulus (GPa) = 36.10181 46.39419 41.24800
#
# Velocity S-wave (km/s) = 3.74552 4.24600 4.00359
# Velocity P-wave (km/s) = 5.65657 6.31604 5.99538
#
# Compressibility (1/GPa) = 0.02923614
#
# Stress axis : x y z
#
# Youngs Moduli (GPa) = 132.63432 57.75359 86.43440
#
# Poissons Ratio (x) = 0.18704 0.07609
# Poissons Ratio (y) = 0.42955 -0.04538
# Poissons Ratio (z) = 0.11676 -0.03032
#
# Static dielectric constant tensor:
#      x y z
#    x 1.988240 0.000000 0.000000 
#    y 0.000000 2.024630 0.000000 
#    z 0.000000 0.000000 1.939220 
# 
# From -- ./inp_files/91.got.cif
#   From: 2010.05.17/outbox.cif.g08.bks.cpg/sg18_1_cif.got.tgz:91.got - 2010.06.03 22:40:56.
