data_PCOD9313175
_publ_section_title
;
Structure prediction by ZEFSAII (Michael W. Deem and Ramdas Pophale) SiO2 
 PCOD9313175
Probable space group: P 21 21 2
;
_chemical_formula_sum "Si O2"
_cell_formula_units_Z 20
_cell_length_a 16.590600
_cell_length_b 10.156928
_cell_length_c 4.871304
_cell_angle_alpha 90.000000
_cell_angle_beta 90.000000
_cell_angle_gamma 90.000000
_cell_volume 820.861146
_symmetry_space_group_name_H-M "P 21 21 2"
_symmetry_group_IT_number 18
_symmetry_cell_setting 'orthorhombic'
loop_
_space_group_symop_operation_xyz
x,y,z
-x,-y,z
1/2+x,1/2-y,-z
1/2-x,1/2+y,-z
loop_
_atom_site_type_symbol
_atom_site_label
_atom_site_fract_x
_atom_site_fract_y
_atom_site_fract_z
Si Si1 0.841870 0.791667 0.498841
Si Si2 0.344192 0.059427 0.130476
Si Si3 0.932439 0.700073 0.011989
Si Si4 0.898452 0.288906 0.324426
Si Si5 0.791152 0.068357 0.449274
O O1 0.880273 0.797406 0.199022
O O2 0.770727 0.683734 0.460673
O O3 0.809877 0.931755 0.599991
O O4 0.912858 0.740534 0.699892
O O5 0.260637 0.988882 0.196243
O O6 0.385071 0.115633 0.411534
O O7 0.399525 0.949404 0.984922
O O8 0.334101 0.174368 0.912110
O O9 0.019453 0.702182 0.152128
O O10 0.875352 0.142376 0.412280
#
# Coordination Sequence:
#
# PCOD9313175 Si02
#       5
#     4   4   4   4   4
#     4  11  26  47  76 108 151 192 253 307 373 442
#     4  11  25  43  76 108 148 193 255 300 363 447
#     4  11  26  46  74 109 151 195 246 309 370 448
#     4  12  26  47  76 109 149 200 246 307 375 440
#     4  11  26  47  77 110 145 200 248 309 369 442
#
# _framework density 24.364659
#
# number of rings (size 3 to 8) (size 9 to 14) (size 15 to 20)
#    0.000    0.800    2.000    4.200    5.600    8.800 
#    0.000    2.000    0.000    0.000    0.000    0.000 
#    0.000    0.000    0.000    0.000    0.000    0.000 
#
# Total GULP energy -111681.935388 kJ/mol
# GULP energy per Si atom -5584.096769 kJ/mol
# Density = 2.430920 g / cm^3
# Si number density = 24.364659 Si / 1000 Ang^3
#
#
#
# Elastic Constant Matrix: (Units=GPa)
#
#
# Indices 1 2 3 4 5 6 
#
# 1 97.8000 39.7396 25.7671 0.0000 0.0000 0.0000
# 2 39.7396 126.4352 17.9509 0.0000 0.0000 0.0000
# 3 25.7671 17.9509 96.9207 0.0000 0.0000 0.0000
# 4 0.0000 0.0000 0.0000 23.0039 0.0000 0.0000
# 5 0.0000 0.0000 0.0000 0.0000 38.3920 0.0000
# 6 0.0000 0.0000 0.0000 0.0000 0.0000 39.6704
#
#
#
# Elastic Compliance Matrix: (Units=1/GPa)
#
#
# Indices 1 2 3 4 5 6 
#
# 1 0.012343 -0.003506 -0.002632 0.000000 0.000000 0.000000
# 2 -0.003506 0.009119 -0.000757 0.000000 0.000000 0.000000
# 3 -0.002632 -0.000757 0.011158 0.000000 0.000000 0.000000
# 4 0.000000 0.000000 0.000000 0.043471 0.000000 0.000000
# 5 0.000000 0.000000 0.000000 0.000000 0.026047 0.000000
# 6 0.000000 0.000000 0.000000 0.000000 0.000000 0.025208
#
#
# Mechanical properties :
#
#
# Convention : Reuss Voigt Hill
#
# Bulk Modulus (GPa) = 53.10782 54.23016 53.66899
# Shear Modulus (GPa) = 33.91879 36.05980 34.98930
#
# Velocity S-wave (km/s) = 3.73517 3.85126 3.79366
# Velocity P-wave (km/s) = 6.35975 6.48708 6.42373
#
# Compressibility (1/GPa) = 0.01882962
#
# Stress axis : x y z
#
# Youngs Moduli (GPa) = 81.01784 109.66670 89.62450
#
# Poissons Ratio (x) = 0.38447 0.23591
# Poissons Ratio (y) = 0.28403 0.06783
# Poissons Ratio (z) = 0.21325 0.08300
#
# Static dielectric constant tensor:
#      x y z
#    x 2.049850 0.000000 0.000000 
#    y 0.000000 1.905040 0.000000 
#    z 0.000000 0.000000 1.927480 
# 
# From -- ./inp_files/1398.got.cif
#   From: 2010.05.17/outbox.cif.g08.bks.cpg/sg18_1_cif.got.tgz:1398.got - 2010.06.03 22:40:56.
