data_PCOD9313542
_publ_section_title
;
Structure prediction by ZEFSAII (Michael W. Deem and Ramdas Pophale) SiO2 
 PCOD9313542
Probable space group: P 21 21 21
;
_chemical_formula_sum "Si O2"
_cell_formula_units_Z 28
_cell_length_a 5.963371
_cell_length_b 13.366970
_cell_length_c 13.881712
_cell_angle_alpha 90.000000
_cell_angle_beta 90.000000
_cell_angle_gamma 90.000000
_cell_volume 1106.541821
_symmetry_space_group_name_H-M "P 21 21 21"
_symmetry_group_IT_number 19
_symmetry_cell_setting 'orthorhombic'
loop_
_space_group_symop_operation_xyz
x,y,z
1/2-x,-y,1/2+z
1/2+x,1/2-y,-z
-x,1/2+y,1/2-z
loop_
_atom_site_type_symbol
_atom_site_label
_atom_site_fract_x
_atom_site_fract_y
_atom_site_fract_z
Si Si1 0.789085 0.535173 0.458024
Si Si2 0.492005 0.678562 0.834994
Si Si3 0.917962 0.016626 0.273148
Si Si4 0.742465 0.358040 0.586851
Si Si5 0.126579 0.295579 0.727511
Si Si6 0.756884 0.721208 0.350796
Si Si7 0.713639 0.096619 0.961408
O O1 0.784714 0.418020 0.488325
O O2 0.787348 0.602684 0.361547
O O3 0.528610 0.564397 0.492718
O O4 0.037498 0.569362 0.498736
O O5 0.449822 0.562396 0.814296
O O6 0.391983 0.733966 0.738829
O O7 0.389228 0.751286 0.917357
O O8 0.748944 0.703098 0.819285
O O9 0.772099 0.110276 0.241110
O O10 0.786926 0.953282 0.355153
O O11 0.112279 0.065632 0.340653
O O12 0.968004 0.335157 0.643216
O O13 0.997022 0.259275 0.820581
O O14 0.808198 0.784135 0.445202
#
# Coordination Sequence:
#
# PCOD9313542 Si02
#       7
#     4   4   4   4   4   4   4
#     4  11  21  35  54  81 117 151 185 221 283 339
#     4   9  20  34  52  79 111 143 190 231 282 328
#     4   9  18  34  54  78 110 149 185 235 272 333
#     4   9  19  33  51  80 107 143 187 227 275 335
#     4  10  19  34  52  78 112 146 190 233 278 333
#     4  10  22  31  51  83 113 149 179 230 278 343
#     4  10  21  33  54  79 118 153 182 217 276 345
#
# _framework density 25.304058999999999
#
# number of rings (size 3 to 8) (size 9 to 14) (size 15 to 20)
#    0.000    2.286    1.429    0.857    8.000    1.143 
#    0.000    0.000    0.000    0.000   11.143    0.000 
#    0.000    0.000    0.000    0.000    0.000    0.000 
#
# Total GULP energy -155970.344661 kJ/mol
# GULP energy per Si atom -5570.369452 kJ/mol
# Density = 2.524647 g / cm^3
# Si number density = 25.304059 Si / 1000 Ang^3
#
#
#
# Elastic Constant Matrix: (Units=GPa)
#
#
# Indices 1 2 3 4 5 6 
#
# 1 96.1023 13.4404 15.8573 0.0000 0.0000 0.0000
# 2 13.4404 122.5434 21.2652 0.0000 0.0000 0.0000
# 3 15.8573 21.2652 55.7161 0.0000 0.0000 0.0000
# 4 0.0000 0.0000 0.0000 41.6252 0.0000 0.0000
# 5 0.0000 0.0000 0.0000 0.0000 10.4636 0.0000
# 6 0.0000 0.0000 0.0000 0.0000 0.0000 15.0652
#
#
#
# Elastic Compliance Matrix: (Units=1/GPa)
#
#
# Indices 1 2 3 4 5 6 
#
# 1 0.010975 -0.000709 -0.002853 0.000000 0.000000 0.000000
# 2 -0.000709 0.008785 -0.003151 0.000000 0.000000 0.000000
# 3 -0.002853 -0.003151 0.019963 0.000000 0.000000 0.000000
# 4 0.000000 0.000000 0.000000 0.024024 0.000000 0.000000
# 5 0.000000 0.000000 0.000000 0.000000 0.095570 0.000000
# 6 0.000000 0.000000 0.000000 0.000000 0.000000 0.066378
#
#
# Mechanical properties :
#
#
# Convention : Reuss Voigt Hill
#
# Bulk Modulus (GPa) = 38.02708 41.72084 39.87396
# Shear Modulus (GPa) = 20.17048 28.35072 24.26060
#
# Velocity S-wave (km/s) = 2.82640 3.35087 3.09975
# Velocity P-wave (km/s) = 5.07071 5.61202 5.34821
#
# Compressibility (1/GPa) = 0.02629705
#
# Stress axis : x y z
#
# Youngs Moduli (GPa) = 91.11210 113.83117 50.09279
#
# Poissons Ratio (x) = 0.08067 0.14293
# Poissons Ratio (y) = 0.06457 0.15786
# Poissons Ratio (z) = 0.25997 0.35871
#
# Static dielectric constant tensor:
#      x y z
#    x 2.145460 0.000000 0.000000 
#    y 0.000000 2.042320 0.000000 
#    z 0.000000 0.000000 2.052130 
# 
# From -- ./inp_files/1534.got.cif
#   From: 2010.05.17/outbox.cif.g08.bks.cpg/sg19_1_cif.got.tgz:1534.got - 2010.06.03 22:46:19.
