data_PCOD9313190
_publ_section_title
;
Structure prediction by ZEFSAII (Michael W. Deem and Ramdas Pophale) SiO2 
 PCOD9313190
Probable space group: P 21 21 2
;
_chemical_formula_sum "Si O2"
_cell_formula_units_Z 18
_cell_length_a 8.501113
_cell_length_b 8.523048
_cell_length_c 10.508997
_cell_angle_alpha 90.000000
_cell_angle_beta 90.000000
_cell_angle_gamma 90.000000
_cell_volume 761.433520
_symmetry_space_group_name_H-M "P 21 21 2"
_symmetry_group_IT_number 18
_symmetry_cell_setting 'orthorhombic'
loop_
_space_group_symop_operation_xyz
x,y,z
-x,-y,z
1/2+x,1/2-y,-z
1/2-x,1/2+y,-z
loop_
_atom_site_type_symbol
_atom_site_label
_atom_site_fract_x
_atom_site_fract_y
_atom_site_fract_z
Si Si1 0.500000 0.500000 0.285518
Si Si2 0.170305 0.461441 0.447077
Si Si3 0.959171 0.327235 0.872980
Si Si4 0.126046 0.130656 0.395749
Si Si5 0.909638 0.836518 0.106621
O O1 0.325762 0.488207 0.357637
O O2 0.498309 0.332531 0.207881
O O3 0.146099 0.281036 0.482006
O O4 0.207242 0.549732 0.579024
O O5 0.000000 0.500000 0.389936
O O6 0.000000 0.500000 0.821434
O O7 0.776047 0.342771 0.903237
O O8 0.037094 0.295890 0.010158
O O9 0.072470 0.187967 0.257817
O O10 0.000000 0.000000 0.430346
O O11 0.000000 0.000000 0.076952
#
# Coordination Sequence:
#
# PCOD9313190 Si02
#       5
#     2   4   4   4   4
#     4  12  28  56  76 126 164 224 284 348 418 512
#     4  12  27  49  82 115 167 217 278 351 422 501
#     4  12  27  49  82 115 167 217 278 351 422 501
#     4  11  25  49  77 117 161 216 280 341 424 508
#     4  11  25  49  77 117 161 216 280 341 424 508
#
# _framework density 23.639621999999999
#
# number of rings (size 3 to 8) (size 9 to 14) (size 15 to 20)
#    0.000    0.444    4.444    2.667    0.000    8.889 
#    0.000    0.000    0.000    0.000    0.000    0.000 
#    0.000    0.000    0.000    0.000    0.000    0.000 
#
# Total GULP energy -100236.058345 kJ/mol
# GULP energy per Si atom -5568.669908 kJ/mol
# Density = 2.358582 g / cm^3
# Si number density = 23.639622 Si / 1000 Ang^3
#
#
#
# Elastic Constant Matrix: (Units=GPa)
#
#
# Indices 1 2 3 4 5 6 
#
# 1 166.1654 55.3196 35.8351 0.0000 0.0000 0.0000
# 2 55.3196 175.2954 54.1544 0.0000 0.0000 0.0000
# 3 35.8351 54.1544 83.0388 0.0000 0.0000 0.0000
# 4 0.0000 0.0000 0.0000 14.1972 0.0000 0.0000
# 5 0.0000 0.0000 0.0000 0.0000 30.4990 0.0000
# 6 0.0000 0.0000 0.0000 0.0000 0.0000 50.7833
#
#
#
# Elastic Compliance Matrix: (Units=1/GPa)
#
#
# Indices 1 2 3 4 5 6 
#
# 1 0.006973 -0.001592 -0.001971 0.000000 0.000000 0.000000
# 2 -0.001592 0.007507 -0.004209 0.000000 0.000000 0.000000
# 3 -0.001971 -0.004209 0.015638 0.000000 0.000000 0.000000
# 4 0.000000 0.000000 0.000000 0.070437 0.000000 0.000000
# 5 0.000000 0.000000 0.000000 0.000000 0.032788 0.000000
# 6 0.000000 0.000000 0.000000 0.000000 0.000000 0.019691
#
#
# Mechanical properties :
#
#
# Convention : Reuss Voigt Hill
#
# Bulk Modulus (GPa) = 68.61176 79.45754 74.03465
# Shear Modulus (GPa) = 28.82898 37.70859 33.26878
#
# Velocity S-wave (km/s) = 3.49595 3.99826 3.75551
# Velocity P-wave (km/s) = 6.73666 7.41618 7.08457
#
# Compressibility (1/GPa) = 0.01457476
#
# Stress axis : x y z
#
# Youngs Moduli (GPa) = 143.40850 133.20470 63.94591
#
# Poissons Ratio (x) = 0.21201 0.12605
# Poissons Ratio (y) = 0.22825 0.26915
# Poissons Ratio (z) = 0.28269 0.56067
#
# Static dielectric constant tensor:
#      x y z
#    x 1.944870 0.000000 0.000000 
#    y 0.000000 1.963940 0.000000 
#    z 0.000000 0.000000 2.044880 
# 
# From -- ./inp_files/5360.got.cif
#   From: 2010.05.17/outbox.cif.g08.bks.cpg/sg18_3_cif.got.tgz:5360.got - 2010.06.03 22:40:56.
