data_PCOD9313211
_publ_section_title
;
Structure prediction by ZEFSAII (Michael W. Deem and Ramdas Pophale) SiO2 
 PCOD9313211
Probable space group: P 21 21 2
;
_chemical_formula_sum "Si O2"
_cell_formula_units_Z 18
_cell_length_a 6.673204
_cell_length_b 15.866011
_cell_length_c 7.491579
_cell_angle_alpha 90.000000
_cell_angle_beta 90.000000
_cell_angle_gamma 90.000000
_cell_volume 793.186869
_symmetry_space_group_name_H-M "P 21 21 2"
_symmetry_group_IT_number 18
_symmetry_cell_setting 'orthorhombic'
loop_
_space_group_symop_operation_xyz
x,y,z
-x,-y,z
1/2+x,1/2-y,-z
1/2-x,1/2+y,-z
loop_
_atom_site_type_symbol
_atom_site_label
_atom_site_fract_x
_atom_site_fract_y
_atom_site_fract_z
Si Si1 0.067778 0.329119 0.260450
Si Si2 0.297743 0.309084 0.598692
Si Si3 0.859075 0.928000 0.294627
Si Si4 0.000000 0.500000 0.463739
Si Si5 0.006687 0.395990 0.883612
O O1 0.232050 0.290373 0.396285
O O2 0.869339 0.274523 0.299701
O O3 0.050649 0.422011 0.340653
O O4 0.094913 0.346414 0.052162
O O5 0.490452 0.369572 0.598058
O O6 0.128820 0.359056 0.713294
O O7 0.692861 0.970758 0.421351
O O8 0.728511 0.878006 0.149883
O O9 0.000000 0.000000 0.210305
O O10 0.000000 0.500000 0.905946
#
# Coordination Sequence:
#
# PCOD9313211 Si02
#       5
#     4   4   4   2   4
#     4  12  27  47  76 108 148 203 253 303 379 458
#     4  12  28  49  72 111 157 200 250 326 375 449
#     4  12  21  46  78 102 151 200 245 317 385 436
#     4  12  22  48  74 106 150 196 252 304 374 456
#     4  12  25  48  74 109 151 198 251 314 382 460
#
# _framework density 22.693266000000001
#
# number of rings (size 3 to 8) (size 9 to 14) (size 15 to 20)
#    0.000    0.000    8.889    1.333    3.111    0.000 
#    4.000    3.333    0.000    0.000    0.000    0.000 
#    0.000    0.000    0.000    0.000    0.000    0.000 
#
# Total GULP energy -100465.012552 kJ/mol
# GULP energy per Si atom -5581.389586 kJ/mol
# Density = 2.264161 g / cm^3
# Si number density = 22.693266 Si / 1000 Ang^3
#
#
#
# Elastic Constant Matrix: (Units=GPa)
#
#
# Indices 1 2 3 4 5 6 
#
# 1 117.2176 24.5441 46.2248 0.0000 0.0000 0.0000
# 2 24.5441 82.5246 12.1636 0.0000 0.0000 0.0000
# 3 46.2248 12.1636 130.8722 0.0000 0.0000 0.0000
# 4 0.0000 0.0000 0.0000 29.1721 0.0000 0.0000
# 5 0.0000 0.0000 0.0000 0.0000 25.7035 0.0000
# 6 0.0000 0.0000 0.0000 0.0000 0.0000 48.3683
#
#
#
# Elastic Compliance Matrix: (Units=1/GPa)
#
#
# Indices 1 2 3 4 5 6 
#
# 1 0.010433 -0.002595 -0.003444 0.000000 0.000000 0.000000
# 2 -0.002595 0.012932 -0.000285 0.000000 0.000000 0.000000
# 3 -0.003444 -0.000285 0.008884 0.000000 0.000000 0.000000
# 4 0.000000 0.000000 0.000000 0.034279 0.000000 0.000000
# 5 0.000000 0.000000 0.000000 0.000000 0.038905 0.000000
# 6 0.000000 0.000000 0.000000 0.000000 0.000000 0.020675
#
#
# Mechanical properties :
#
#
# Convention : Reuss Voigt Hill
#
# Bulk Modulus (GPa) = 51.02114 55.16438 53.09276
# Shear Modulus (GPa) = 34.41426 37.16090 35.78758
#
# Velocity S-wave (km/s) = 3.89845 4.05103 3.97547
# Velocity P-wave (km/s) = 6.54183 6.80019 6.67226
#
# Compressibility (1/GPa) = 0.01959972
#
# Stress axis : x y z
#
# Youngs Moduli (GPa) = 95.85381 77.33054 112.56365
#
# Poissons Ratio (x) = 0.20069 0.38763
# Poissons Ratio (y) = 0.24876 0.03211
# Poissons Ratio (z) = 0.33008 0.02206
#
# Static dielectric constant tensor:
#      x y z
#    x 1.861830 0.000000 0.000000 
#    y 0.000000 1.931690 0.000000 
#    z 0.000000 0.000000 1.863990 
# 
# From -- ./inp_files/2476.got.cif
#   From: 2010.05.17/outbox.cif.g08.bks.cpg/sg18_2_cif.got.tgz:2476.got - 2010.06.03 22:40:56.
