data_PCOD9313397
_publ_section_title
;
Structure prediction by ZEFSAII (Michael W. Deem and Ramdas Pophale) SiO2 
 PCOD9313397
Probable space group: P 21 21 21
;
_chemical_formula_sum "Si O2"
_cell_formula_units_Z 24
_cell_length_a 13.546660
_cell_length_b 7.811014
_cell_length_c 8.212375
_cell_angle_alpha 90.000000
_cell_angle_beta 90.000000
_cell_angle_gamma 90.000000
_cell_volume 868.977275
_symmetry_space_group_name_H-M "P 21 21 21"
_symmetry_group_IT_number 19
_symmetry_cell_setting 'orthorhombic'
loop_
_space_group_symop_operation_xyz
x,y,z
1/2-x,-y,1/2+z
1/2+x,1/2-y,-z
-x,1/2+y,1/2-z
loop_
_atom_site_type_symbol
_atom_site_label
_atom_site_fract_x
_atom_site_fract_y
_atom_site_fract_z
Si Si1 0.552483 0.192173 0.374145
Si Si2 0.122678 0.098406 0.309288
Si Si3 0.235481 0.165081 0.778696
Si Si4 0.332909 0.464556 0.927199
Si Si5 0.446009 0.596550 0.631490
Si Si6 0.655018 0.804446 0.053994
O O1 0.580618 0.288155 0.543509
O O2 0.620165 0.295864 0.248190
O O3 0.608901 0.012041 0.408223
O O4 0.434249 0.194836 0.366452
O O5 0.094344 0.212641 0.153673
O O6 0.234234 0.030675 0.309420
O O7 0.062304 0.922541 0.343135
O O8 0.274998 0.288443 0.920777
O O9 0.295913 0.220226 0.611462
O O10 0.410139 0.480127 0.783087
O O11 0.253102 0.609923 0.871917
O O12 0.405257 0.482676 0.485802
#
# Coordination Sequence:
#
# PCOD9313397 Si02
#       6
#     4   4   4   4   4   4
#     4   9  19  34  51  75 105 137 175 216 259 310
#     4  10  18  31  51  75 101 132 176 219 255 306
#     4  10  19  32  54  78 103 138 176 217 263 311
#     4   9  17  32  52  73  99 135 172 212 261 311
#     4   9  17  30  50  73  97 131 172 214 254 302
#     4   9  18  33  52  74 103 135 175 218 260 310
#
# _framework density 27.618670999999999
#
# number of rings (size 3 to 8) (size 9 to 14) (size 15 to 20)
#    0.000    2.667    0.000    4.000    0.000    1.333 
#    0.000    5.000    0.000   10.000    0.000    0.000 
#    0.000    0.000    0.000    0.000    0.000    0.000 
#
# Total GULP energy -133875.989681 kJ/mol
# GULP energy per Si atom -5578.166237 kJ/mol
# Density = 2.755581 g / cm^3
# Si number density = 27.618671 Si / 1000 Ang^3
#
#
#
# Elastic Constant Matrix: (Units=GPa)
#
#
# Indices 1 2 3 4 5 6 
#
# 1 180.8325 9.4395 11.7538 0.0000 0.0000 0.0000
# 2 9.4395 82.2199 5.1847 0.0000 0.0000 0.0000
# 3 11.7538 5.1847 41.4298 0.0000 0.0000 0.0000
# 4 0.0000 0.0000 0.0000 20.8005 0.0000 0.0000
# 5 0.0000 0.0000 0.0000 0.0000 24.5655 0.0000
# 6 0.0000 0.0000 0.0000 0.0000 0.0000 43.6259
#
#
#
# Elastic Compliance Matrix: (Units=1/GPa)
#
#
# Indices 1 2 3 4 5 6 
#
# 1 0.005659 -0.000553 -0.001536 0.000000 0.000000 0.000000
# 2 -0.000553 0.012313 -0.001384 0.000000 0.000000 0.000000
# 3 -0.001536 -0.001384 0.024746 0.000000 0.000000 0.000000
# 4 0.000000 0.000000 0.000000 0.048076 0.000000 0.000000
# 5 0.000000 0.000000 0.000000 0.000000 0.040707 0.000000
# 6 0.000000 0.000000 0.000000 0.000000 0.000000 0.022922
#
#
# Mechanical properties :
#
#
# Convention : Reuss Voigt Hill
#
# Bulk Modulus (GPa) = 27.95483 39.69314 33.82398
# Shear Modulus (GPa) = 28.85272 36.33866 32.59569
#
# Velocity S-wave (km/s) = 3.23566 3.63123 3.43914
# Velocity P-wave (km/s) = 4.90948 5.65546 5.29562
#
# Compressibility (1/GPa) = 0.03577199
#
# Stress axis : x y z
#
# Youngs Moduli (GPa) = 176.71940 81.21333 40.41015
#
# Poissons Ratio (x) = 0.04489 0.06208
# Poissons Ratio (y) = 0.09769 0.05593
# Poissons Ratio (z) = 0.27148 0.11241
#
# Static dielectric constant tensor:
#      x y z
#    x 2.205970 0.000000 0.000000 
#    y 0.000000 2.319870 0.000000 
#    z 0.000000 0.000000 2.247650 
# 
# From -- ./inp_files/3391.got.cif
#   From: 2010.05.17/outbox.cif.g08.bks.cpg/sg19_2_cif.got.tgz:3391.got - 2010.06.03 22:46:19.
