data_PCOD9313414
_publ_section_title
;
Structure prediction by ZEFSAII (Michael W. Deem and Ramdas Pophale) SiO2 
 PCOD9313414
Probable space group: P 21 21 21
;
_chemical_formula_sum "Si O2"
_cell_formula_units_Z 32
_cell_length_a 12.127987
_cell_length_b 16.705568
_cell_length_c 8.242933
_cell_angle_alpha 90.000000
_cell_angle_beta 90.000000
_cell_angle_gamma 90.000000
_cell_volume 1670.058711
_symmetry_space_group_name_H-M "P 21 21 21"
_symmetry_group_IT_number 19
_symmetry_cell_setting 'orthorhombic'
loop_
_space_group_symop_operation_xyz
x,y,z
1/2-x,-y,1/2+z
1/2+x,1/2-y,-z
-x,1/2+y,1/2-z
loop_
_atom_site_type_symbol
_atom_site_label
_atom_site_fract_x
_atom_site_fract_y
_atom_site_fract_z
Si Si1 0.314899 0.911749 0.145510
Si Si2 0.848635 0.096921 0.566976
Si Si3 0.410828 0.881754 0.665389
Si Si4 0.514832 0.028466 0.869164
Si Si5 0.591200 0.107893 0.542935
Si Si6 0.958499 0.713336 0.036580
Si Si7 0.475029 0.450011 0.141922
Si Si8 0.703265 0.572138 0.519759
O O1 0.358714 0.832700 0.056846
O O2 0.424300 0.948304 0.230860
O O3 0.234908 0.901715 0.297959
O O4 0.269164 0.978547 0.022004
O O5 0.722816 0.112669 0.527818
O O6 0.870729 0.080719 0.756977
O O7 0.929229 0.169110 0.515190
O O8 0.893179 0.018866 0.470259
O O9 0.486034 0.893670 0.506108
O O10 0.284339 0.883408 0.604962
O O11 0.442920 0.957941 0.779524
O O12 0.438214 0.805519 0.774040
O O13 0.562882 0.082214 0.726746
O O14 0.428752 0.076296 0.981829
O O15 0.540351 0.193459 0.502803
O O16 0.546172 0.037076 0.430107
#
# Coordination Sequence:
#
# PCOD9313414 Si02
#       8
#     4   4   4   4   4   4   4   4
#     4  10  18  32  59  85 116 148 184 238 292 340
#     4  10  20  41  58  79 115 156 189 245 284 338
#     4   9  18  33  57  83 117 147 182 237 290 340
#     4  10  19  34  57  83 112 148 200 229 273 345
#     4  11  23  37  58  85 110 156 197 239 286 349
#     4  10  21  40  53  84 123 145 186 247 302 337
#     4   9  19  36  60  84 105 153 204 227 273 352
#     4  11  16  31  58  87 108 147 192 228 280 341
#
# _framework density 19.161003999999998
#
# number of rings (size 3 to 8) (size 9 to 14) (size 15 to 20)
#    0.000    2.000    5.000    0.750    0.000    1.000 
#    2.250    5.000    0.000    0.000    0.000    0.000 
#    0.000    0.000    0.000    0.000    0.000    0.000 
#
# Total GULP energy -178411.390135 kJ/mol
# GULP energy per Si atom -5575.355942 kJ/mol
# Density = 1.911739 g / cm^3
# Si number density = 19.161004 Si / 1000 Ang^3
#
#
#
# Elastic Constant Matrix: (Units=GPa)
#
#
# Indices 1 2 3 4 5 6 
#
# 1 54.4879 25.4576 4.3731 0.0000 0.0000 0.0000
# 2 25.4576 72.0857 21.9001 0.0000 0.0000 0.0000
# 3 4.3731 21.9001 78.8019 0.0000 0.0000 0.0000
# 4 0.0000 0.0000 0.0000 11.5662 0.0000 0.0000
# 5 0.0000 0.0000 0.0000 0.0000 24.7948 0.0000
# 6 0.0000 0.0000 0.0000 0.0000 0.0000 13.4488
#
#
#
# Elastic Compliance Matrix: (Units=1/GPa)
#
#
# Indices 1 2 3 4 5 6 
#
# 1 0.022055 -0.008101 0.001027 0.000000 0.000000 0.000000
# 2 -0.008101 0.018127 -0.004588 0.000000 0.000000 0.000000
# 3 0.001027 -0.004588 0.013908 0.000000 0.000000 0.000000
# 4 0.000000 0.000000 0.000000 0.086459 0.000000 0.000000
# 5 0.000000 0.000000 0.000000 0.000000 0.040331 0.000000
# 6 0.000000 0.000000 0.000000 0.000000 0.000000 0.074356
#
#
# Mechanical properties :
#
#
# Convention : Reuss Voigt Hill
#
# Bulk Modulus (GPa) = 32.50248 34.31521 33.40885
# Shear Modulus (GPa) = 17.31205 20.20494 18.75850
#
# Velocity S-wave (km/s) = 3.00910 3.25080 3.13228
# Velocity P-wave (km/s) = 5.39190 5.66022 5.52768
#
# Compressibility (1/GPa) = 0.03076688
#
# Stress axis : x y z
#
# Youngs Moduli (GPa) = 45.34075 55.16546 71.90024
#
# Poissons Ratio (x) = 0.44690 -0.07387
# Poissons Ratio (y) = 0.36731 0.32990
# Poissons Ratio (z) = -0.04659 0.25311
#
# Static dielectric constant tensor:
#      x y z
#    x 1.701480 0.000000 0.000000 
#    y 0.000000 1.640060 0.000000 
#    z 0.000000 0.000000 1.705830 
# 
# From -- ./inp_files/3715.got.cif
#   From: 2010.05.17/outbox.cif.g08.bks.cpg/sg19_2_cif.got.tgz:3715.got - 2010.06.03 22:46:19.
