data_PCOD9313842
_publ_section_title
;
Structure prediction by ZEFSAII (Michael W. Deem and Ramdas Pophale) SiO2 
 PCOD9313842
Probable space group: P 21 21 21
;
_chemical_formula_sum "Si O2"
_cell_formula_units_Z 24
_cell_length_a 5.519309
_cell_length_b 28.327840
_cell_length_c 5.332675
_cell_angle_alpha 90.000000
_cell_angle_beta 90.000000
_cell_angle_gamma 90.000000
_cell_volume 833.764282
_symmetry_space_group_name_H-M "P 21 21 21"
_symmetry_group_IT_number 19
_symmetry_cell_setting 'orthorhombic'
loop_
_space_group_symop_operation_xyz
x,y,z
1/2-x,-y,1/2+z
1/2+x,1/2-y,-z
-x,1/2+y,1/2-z
loop_
_atom_site_type_symbol
_atom_site_label
_atom_site_fract_x
_atom_site_fract_y
_atom_site_fract_z
Si Si1 0.676720 0.688703 0.714513
Si Si2 0.528996 0.393272 0.296487
Si Si3 0.077604 0.225331 0.285404
Si Si4 0.524691 0.561045 0.234860
Si Si5 0.978370 0.025423 0.027135
Si Si6 0.727167 0.856782 0.706154
O O1 0.434544 0.718354 0.759976
O O2 0.714032 0.632966 0.751045
O O3 0.760746 0.704336 0.438512
O O4 0.838686 0.710076 0.940217
O O5 0.430626 0.379974 0.568445
O O6 0.515463 0.448552 0.241194
O O7 0.368873 0.370676 0.069970
O O8 0.821255 0.198479 0.238218
O O9 0.286584 0.540803 0.379346
O O10 0.481039 0.617070 0.246751
O O11 0.788147 0.546332 0.330657
O O12 0.497441 0.530928 0.980767
#
# Coordination Sequence:
#
# PCOD9313842 Si02
#       6
#     4   4   4   4   4   4
#     4  10  20  36  58  87 123 162 208 260 317 379
#     4   9  20  39  61  87 124 168 214 264 319 381
#     4  10  20  36  58  87 123 162 208 260 317 379
#     4  11  23  41  65  96 132 172 218 268 325 386
#     4  11  23  41  65  96 132 172 218 268 325 386
#     4   9  20  39  61  87 124 168 214 264 319 381
#
# _framework density 28.785114
#
# number of rings (size 3 to 8) (size 9 to 14) (size 15 to 20)
#    0.000    2.000    0.000    3.000    0.000    4.000 
#    0.000    8.333    0.000    0.000    0.000    0.000 
#    0.000    0.000    0.000    0.000    0.000    0.000 
#
# Total GULP energy -134302.654190 kJ/mol
# GULP energy per Si atom -5595.943925 kJ/mol
# Density = 2.871960 g / cm^3
# Si number density = 28.785114 Si / 1000 Ang^3
#
#
#
# Elastic Constant Matrix: (Units=GPa)
#
#
# Indices 1 2 3 4 5 6 
#
# 1 126.0187 33.0717 83.3473 0.0000 0.0000 0.0000
# 2 33.0717 87.8412 50.0462 0.0000 0.0000 0.0000
# 3 83.3473 50.0462 143.4106 0.0000 0.0000 0.0000
# 4 0.0000 0.0000 0.0000 39.7677 0.0000 0.0000
# 5 0.0000 0.0000 0.0000 0.0000 70.7480 0.0000
# 6 0.0000 0.0000 0.0000 0.0000 0.0000 47.1456
#
#
#
# Elastic Compliance Matrix: (Units=1/GPa)
#
#
# Indices 1 2 3 4 5 6 
#
# 1 0.012928 -0.000732 -0.007258 0.000000 0.000000 0.000000
# 2 -0.000732 0.014251 -0.004548 0.000000 0.000000 0.000000
# 3 -0.007258 -0.004548 0.012778 0.000000 0.000000 0.000000
# 4 0.000000 0.000000 0.000000 0.025146 0.000000 0.000000
# 5 0.000000 0.000000 0.000000 0.000000 0.014135 0.000000
# 6 0.000000 0.000000 0.000000 0.000000 0.000000 0.021211
#
#
# Mechanical properties :
#
#
# Convention : Reuss Voigt Hill
#
# Bulk Modulus (GPa) = 67.19809 76.68901 71.94355
# Shear Modulus (GPa) = 38.31895 44.25260 41.28578
#
# Velocity S-wave (km/s) = 3.65253 3.92515 3.79129
# Velocity P-wave (km/s) = 6.41743 6.87329 6.64927
#
# Compressibility (1/GPa) = 0.01488138
#
# Stress axis : x y z
#
# Youngs Moduli (GPa) = 77.35319 70.17173 78.25920
#
# Poissons Ratio (x) = 0.05138 0.56799
# Poissons Ratio (y) = 0.05664 0.35589
# Poissons Ratio (z) = 0.56141 0.31911
#
# Static dielectric constant tensor:
#      x y z
#    x 2.284520 0.000000 0.000000 
#    y 0.000000 2.244720 0.000000 
#    z 0.000000 0.000000 2.225650 
# 
# From -- ./inp_files/237.got.cif
#   From: 2010.05.17/outbox.cif.g08.bks.cpg/sg19_1_cif.got.tgz:237.got - 2010.06.03 22:46:19.
