data_PCOD9313657
_publ_section_title
;
Structure prediction by ZEFSAII (Michael W. Deem and Ramdas Pophale) SiO2 
 PCOD9313657
Probable space group: P 21 21 21
;
_chemical_formula_sum "Si O2"
_cell_formula_units_Z 28
_cell_length_a 11.165364
_cell_length_b 10.809849
_cell_length_c 8.808666
_cell_angle_alpha 90.000000
_cell_angle_beta 90.000000
_cell_angle_gamma 90.000000
_cell_volume 1063.169861
_symmetry_space_group_name_H-M "P 21 21 21"
_symmetry_group_IT_number 19
_symmetry_cell_setting 'orthorhombic'
loop_
_space_group_symop_operation_xyz
x,y,z
1/2-x,-y,1/2+z
1/2+x,1/2-y,-z
-x,1/2+y,1/2-z
loop_
_atom_site_type_symbol
_atom_site_label
_atom_site_fract_x
_atom_site_fract_y
_atom_site_fract_z
Si Si1 0.077216 0.575826 0.293959
Si Si2 0.163617 0.768345 0.515081
Si Si3 0.742921 0.434533 0.260391
Si Si4 0.329719 0.367028 0.487248
Si Si5 0.001653 0.967254 0.689543
Si Si6 0.327779 0.796331 0.790158
Si Si7 0.041318 0.881808 0.025922
O O1 0.961769 0.657189 0.241854
O O2 0.037370 0.437382 0.334553
O O3 0.117177 0.641044 0.447682
O O4 0.172749 0.585956 0.159679
O O5 0.217776 0.840593 0.369933
O O6 0.266272 0.744529 0.637878
O O7 0.059245 0.853301 0.591926
O O8 0.606638 0.428344 0.313900
O O9 0.759845 0.572071 0.195138
O O10 0.831538 0.426073 0.402419
O O11 0.382362 0.476525 0.383648
O O12 0.214545 0.293563 0.425452
O O13 0.430692 0.259633 0.489083
O O14 0.994732 0.934732 0.866873
#
# Coordination Sequence:
#
# PCOD9313657 Si02
#       7
#     4   4   4   4   4   4   4
#     4  11  25  40  69  96 139 167 220 274 333 380
#     4  11  21  39  68  98 132 173 222 271 332 385
#     4  10  19  37  65  99 126 163 226 282 320 375
#     4  12  24  40  67  96 134 169 218 271 329 392
#     4  11  22  36  67  96 131 167 218 275 330 376
#     4  10  23  40  63 102 129 170 223 278 315 395
#     4  11  22  40  61  99 131 161 221 271 321 385
#
# _framework density 26.336337
#
# number of rings (size 3 to 8) (size 9 to 14) (size 15 to 20)
#    0.000    1.143    4.286    5.143    2.000    0.000 
#    0.000    0.000    6.286    1.714    0.000    0.000 
#    0.000    0.000    0.000    0.000    0.000    0.000 
#
# Total GULP energy -156660.824791 kJ/mol
# GULP energy per Si atom -5595.029457 kJ/mol
# Density = 2.627639 g / cm^3
# Si number density = 26.336337 Si / 1000 Ang^3
#
#
#
# Elastic Constant Matrix: (Units=GPa)
#
#
# Indices 1 2 3 4 5 6 
#
# 1 67.9873 41.6776 30.1188 0.0000 0.0000 0.0000
# 2 41.6776 44.5644 39.5606 0.0000 0.0000 0.0000
# 3 30.1188 39.5606 149.4440 0.0000 0.0000 0.0000
# 4 0.0000 0.0000 0.0000 43.0748 0.0000 0.0000
# 5 0.0000 0.0000 0.0000 0.0000 48.6666 0.0000
# 6 0.0000 0.0000 0.0000 0.0000 0.0000 39.4156
#
#
#
# Elastic Compliance Matrix: (Units=1/GPa)
#
#
# Indices 1 2 3 4 5 6 
#
# 1 0.034970 -0.034573 0.002104 0.000000 0.000000 0.000000
# 2 -0.034573 0.063513 -0.009845 0.000000 0.000000 0.000000
# 3 0.002104 -0.009845 0.008874 0.000000 0.000000 0.000000
# 4 0.000000 0.000000 0.000000 0.023215 0.000000 0.000000
# 5 0.000000 0.000000 0.000000 0.000000 0.020548 0.000000
# 6 0.000000 0.000000 0.000000 0.000000 0.000000 0.025371
#
#
# Mechanical properties :
#
#
# Convention : Reuss Voigt Hill
#
# Bulk Modulus (GPa) = 43.99734 53.85665 48.92700
# Shear Modulus (GPa) = 18.60847 36.27399 27.44123
#
# Velocity S-wave (km/s) = 2.66102 3.71527 3.23143
# Velocity P-wave (km/s) = 5.11699 6.23685 5.70447
#
# Compressibility (1/GPa) = 0.02272865
#
# Stress axis : x y z
#
# Youngs Moduli (GPa) = 28.59558 15.74492 112.69405
#
# Poissons Ratio (x) = 0.54435 -0.23713
# Poissons Ratio (y) = 0.98864 1.10949
# Poissons Ratio (z) = -0.06017 0.15501
#
# Static dielectric constant tensor:
#      x y z
#    x 2.125890 0.000000 0.000000 
#    y 0.000000 2.078780 0.000000 
#    z 0.000000 0.000000 2.059440 
# 
# From -- ./inp_files/3442.got.cif
#   From: 2010.05.17/outbox.cif.g08.bks.cpg/sg19_2_cif.got.tgz:3442.got - 2010.06.03 22:46:19.
