data_PCOD9313860
_publ_section_title
;
Structure prediction by ZEFSAII (Michael W. Deem and Ramdas Pophale) SiO2 
 PCOD9313860
Probable space group: P 21 21 21
;
_chemical_formula_sum "Si O2"
_cell_formula_units_Z 32
_cell_length_a 5.287394
_cell_length_b 17.590505
_cell_length_c 15.948918
_cell_angle_alpha 90.000000
_cell_angle_beta 90.000000
_cell_angle_gamma 90.000000
_cell_volume 1483.375858
_symmetry_space_group_name_H-M "P 21 21 21"
_symmetry_group_IT_number 19
_symmetry_cell_setting 'orthorhombic'
loop_
_space_group_symop_operation_xyz
x,y,z
1/2-x,-y,1/2+z
1/2+x,1/2-y,-z
-x,1/2+y,1/2-z
loop_
_atom_site_type_symbol
_atom_site_label
_atom_site_fract_x
_atom_site_fract_y
_atom_site_fract_z
Si Si1 0.996973 0.855485 0.748793
Si Si2 0.969913 0.654113 0.917453
Si Si3 0.226211 0.770724 0.606144
Si Si4 0.612646 0.744305 0.793950
Si Si5 0.483755 0.471941 0.291113
Si Si6 0.778968 0.326062 0.067650
Si Si7 0.229697 0.810489 0.919149
Si Si8 0.994384 0.409565 0.214146
O O1 0.206433 0.810001 0.696077
O O2 0.055514 0.851743 0.848835
O O3 0.751576 0.803977 0.735413
O O4 0.968129 0.937657 0.709436
O O5 0.829985 0.695612 0.840651
O O6 0.073450 0.576760 0.876004
O O7 0.149777 0.724130 0.945302
O O8 0.787328 0.642642 0.997109
O O9 0.492730 0.732227 0.586784
O O10 0.205668 0.833604 0.532359
O O11 0.993364 0.709792 0.594601
O O12 0.475672 0.792571 0.864545
O O13 0.462277 0.675346 0.751812
O O14 0.267195 0.447359 0.224247
O O15 0.772724 0.451763 0.265638
O O16 0.865925 0.397339 0.123433
#
# Coordination Sequence:
#
# PCOD9313860 Si02
#       8
#     4   4   4   4   4   4   4   4
#     4  11  25  40  60  95 129 179 207 268 339 406
#     4  10  21  38  63  98 122 168 222 284 322 379
#     4  10  21  37  63  93 121 158 212 265 312 371
#     4  10  20  36  68  89 121 164 220 269 319 391
#     4  11  26  41  62  92 139 168 208 261 341 394
#     4  10  20  37  65  93 117 155 220 269 300 368
#     4  11  20  38  68  95 125 167 234 277 325 389
#     4  11  21  41  65  91 120 171 215 265 314 380
#
# _framework density 21.572414999999999
#
# number of rings (size 3 to 8) (size 9 to 14) (size 15 to 20)
#    0.000    1.500    3.750    1.500    3.500    0.000 
#    2.250    0.000    0.000    0.000    0.000    0.000 
#    0.000    0.000    0.000    0.000    0.000    0.000 
#
# Total GULP energy -178293.060300 kJ/mol
# GULP energy per Si atom -5571.658134 kJ/mol
# Density = 2.152331 g / cm^3
# Si number density = 21.572415 Si / 1000 Ang^3
#
#
#
# Elastic Constant Matrix: (Units=GPa)
#
#
# Indices 1 2 3 4 5 6 
#
# 1 78.3369 24.3765 6.2165 0.0000 0.0000 0.0000
# 2 24.3765 78.1603 10.4438 0.0000 0.0000 0.0000
# 3 6.2165 10.4438 73.9490 0.0000 0.0000 0.0000
# 4 0.0000 0.0000 0.0000 9.8778 0.0000 0.0000
# 5 0.0000 0.0000 0.0000 0.0000 23.0242 0.0000
# 6 0.0000 0.0000 0.0000 0.0000 0.0000 13.6138
#
#
#
# Elastic Compliance Matrix: (Units=1/GPa)
#
#
# Indices 1 2 3 4 5 6 
#
# 1 0.014162 -0.004339 -0.000578 0.000000 0.000000 0.000000
# 2 -0.004339 0.014370 -0.001665 0.000000 0.000000 0.000000
# 3 -0.000578 -0.001665 0.013807 0.000000 0.000000 0.000000
# 4 0.000000 0.000000 0.000000 0.101237 0.000000 0.000000
# 5 0.000000 0.000000 0.000000 0.000000 0.043433 0.000000
# 6 0.000000 0.000000 0.000000 0.000000 0.000000 0.073455
#
#
# Mechanical properties :
#
#
# Convention : Reuss Voigt Hill
#
# Bulk Modulus (GPa) = 34.27650 34.72441 34.50046
# Shear Modulus (GPa) = 17.64593 21.93043 19.78818
#
# Velocity S-wave (km/s) = 2.86315 3.19187 3.03197
# Velocity P-wave (km/s) = 5.18205 5.45121 5.31833
#
# Compressibility (1/GPa) = 0.02917451
#
# Stress axis : x y z
#
# Youngs Moduli (GPa) = 70.61370 69.58916 72.42965
#
# Poissons Ratio (x) = 0.30198 0.04184
# Poissons Ratio (y) = 0.30643 0.12057
# Poissons Ratio (z) = 0.04079 0.11584
#
# Static dielectric constant tensor:
#      x y z
#    x 1.867540 0.000000 0.000000 
#    y 0.000000 1.770190 0.000000 
#    z 0.000000 0.000000 1.936560 
# 
# From -- ./inp_files/6457.got.cif
#   From: 2010.05.17/outbox.cif.g08.bks.cpg/sg19_4_cif.got.tgz:6457.got - 2010.06.03 22:46:19.
