data_PCOD9313363
_publ_section_title
;
Structure prediction by ZEFSAII (Michael W. Deem and Ramdas Pophale) SiO2 
 PCOD9313363
Probable space group: P 21 21 21
;
_chemical_formula_sum "Si O2"
_cell_formula_units_Z 32
_cell_length_a 9.581382
_cell_length_b 7.865948
_cell_length_c 20.086112
_cell_angle_alpha 90.000000
_cell_angle_beta 90.000000
_cell_angle_gamma 90.000000
_cell_volume 1513.823025
_symmetry_space_group_name_H-M "P 21 21 21"
_symmetry_group_IT_number 19
_symmetry_cell_setting 'orthorhombic'
loop_
_space_group_symop_operation_xyz
x,y,z
1/2-x,-y,1/2+z
1/2+x,1/2-y,-z
-x,1/2+y,1/2-z
loop_
_atom_site_type_symbol
_atom_site_label
_atom_site_fract_x
_atom_site_fract_y
_atom_site_fract_z
Si Si1 0.383773 0.446052 0.395119
Si Si2 0.627280 0.469108 0.166737
Si Si3 0.008890 0.596529 0.522888
Si Si4 0.118018 0.221854 0.515875
Si Si5 0.306858 0.657554 0.525668
Si Si6 0.826115 0.176849 0.383777
Si Si7 0.434841 0.781998 0.205445
Si Si8 0.138031 0.183756 0.371141
O O1 0.487057 0.337291 0.442006
O O2 0.337599 0.589121 0.449276
O O3 0.487889 0.444823 0.330636
O O4 0.244700 0.343705 0.372861
O O5 0.570705 0.432981 0.092645
O O6 0.541900 0.630581 0.193271
O O7 0.597934 0.321380 0.218492
O O8 0.786910 0.531748 0.167286
O O9 0.079606 0.418603 0.501869
O O10 0.146186 0.712416 0.532898
O O11 0.910112 0.684063 0.469466
O O12 0.264235 0.214543 0.554409
O O13 0.131271 0.124497 0.447837
O O14 0.329437 0.512077 0.582349
O O15 0.705970 0.215085 0.330273
O O16 0.977631 0.221258 0.355742
#
# Coordination Sequence:
#
# PCOD9313363 Si02
#       8
#     4   4   4   4   4   4   4   4
#     4  10  19  36  64  88 124 174 208 260 318 397
#     4  11  24  43  68  90 125 179 227 260 306 402
#     4  11  23  37  58  97 134 162 206 275 330 380
#     4  10  17  36  60  94 128 165 203 256 335 401
#     4  11  22  36  58  96 132 162 202 269 339 382
#     4  10  20  37  64  90 129 166 205 268 324 386
#     4  10  23  45  64  90 125 178 229 256 309 391
#     4  11  18  34  66  95 121 160 214 266 327 377
#
# _framework density 21.138532999999999
#
# number of rings (size 3 to 8) (size 9 to 14) (size 15 to 20)
#    0.000    1.500    8.750    0.000    3.500    0.000 
#    2.250    2.500    0.000    0.000    0.000    0.000 
#    0.000    0.000    0.000    0.000    0.000    0.000 
#
# Total GULP energy -178232.568409 kJ/mol
# GULP energy per Si atom -5569.767763 kJ/mol
# Density = 2.109042 g / cm^3
# Si number density = 21.138533 Si / 1000 Ang^3
#
#
#
# Elastic Constant Matrix: (Units=GPa)
#
#
# Indices 1 2 3 4 5 6 
#
# 1 132.9102 12.5220 12.7114 0.0000 0.0000 0.0000
# 2 12.5220 45.4412 18.0847 0.0000 0.0000 0.0000
# 3 12.7114 18.0847 53.2022 0.0000 0.0000 0.0000
# 4 0.0000 0.0000 0.0000 32.2080 0.0000 0.0000
# 5 0.0000 0.0000 0.0000 0.0000 14.9956 0.0000
# 6 0.0000 0.0000 0.0000 0.0000 0.0000 16.7648
#
#
#
# Elastic Compliance Matrix: (Units=1/GPa)
#
#
# Indices 1 2 3 4 5 6 
#
# 1 0.007803 -0.001629 -0.001311 0.000000 0.000000 0.000000
# 2 -0.001629 0.025789 -0.008377 0.000000 0.000000 0.000000
# 3 -0.001311 -0.008377 0.021957 0.000000 0.000000 0.000000
# 4 0.000000 0.000000 0.000000 0.031048 0.000000 0.000000
# 5 0.000000 0.000000 0.000000 0.000000 0.066686 0.000000
# 6 0.000000 0.000000 0.000000 0.000000 0.000000 0.059649
#
#
# Mechanical properties :
#
#
# Convention : Reuss Voigt Hill
#
# Bulk Modulus (GPa) = 30.38043 35.35442 32.86742
# Shear Modulus (GPa) = 20.28094 25.34272 22.81183
#
# Velocity S-wave (km/s) = 3.10083 3.46625 3.28862
# Velocity P-wave (km/s) = 5.21761 5.72549 5.47744
#
# Compressibility (1/GPa) = 0.03291593
#
# Stress axis : x y z
#
# Youngs Moduli (GPa) = 128.16143 38.77591 45.54358
#
# Poissons Ratio (x) = 0.06315 0.05969
# Poissons Ratio (y) = 0.20871 0.38153
# Poissons Ratio (z) = 0.16798 0.32484
#
# Static dielectric constant tensor:
#      x y z
#    x 1.789640 0.000000 0.000000 
#    y 0.000000 1.857730 0.000000 
#    z 0.000000 0.000000 1.795470 
# 
# From -- ./inp_files/7053.got.cif
#   From: 2010.05.17/outbox.cif.g08.bks.cpg/sg19_4_cif.got.tgz:7053.got - 2010.06.03 22:46:19.
