data_PCOD9313560
_publ_section_title
;
Structure prediction by ZEFSAII (Michael W. Deem and Ramdas Pophale) SiO2 
 PCOD9313560
Probable space group: P 21 21 21
;
_chemical_formula_sum "Si O2"
_cell_formula_units_Z 32
_cell_length_a 26.819371
_cell_length_b 5.264875
_cell_length_c 11.760661
_cell_angle_alpha 90.000000
_cell_angle_beta 90.000000
_cell_angle_gamma 90.000000
_cell_volume 1660.612812
_symmetry_space_group_name_H-M "P 21 21 21"
_symmetry_group_IT_number 19
_symmetry_cell_setting 'orthorhombic'
loop_
_space_group_symop_operation_xyz
x,y,z
1/2-x,-y,1/2+z
1/2+x,1/2-y,-z
-x,1/2+y,1/2-z
loop_
_atom_site_type_symbol
_atom_site_label
_atom_site_fract_x
_atom_site_fract_y
_atom_site_fract_z
Si Si1 0.990814 0.516533 0.323557
Si Si2 0.661012 0.222994 0.418500
Si Si3 0.821622 0.295005 0.161124
Si Si4 0.747900 0.670930 0.063662
Si Si5 0.383616 0.806086 0.691071
Si Si6 0.702323 0.738088 0.309599
Si Si7 0.090561 0.489421 0.420853
Si Si8 0.200680 0.492463 0.120109
O O1 0.032314 0.552526 0.421444
O O2 0.995418 0.236621 0.268352
O O3 0.933205 0.561334 0.355371
O O4 0.700603 0.191587 0.523212
O O5 0.677003 0.479742 0.354440
O O6 0.608154 0.201389 0.480894
O O7 0.669188 0.984181 0.336558
O O8 0.773895 0.401938 0.095073
O O9 0.845964 0.503014 0.245742
O O10 0.802664 0.087050 0.249875
O O11 0.868057 0.213518 0.081323
O O12 0.717807 0.728441 0.178161
O O13 0.712831 0.770800 0.961301
O O14 0.401862 0.627905 0.794909
O O15 0.351702 0.646650 0.600688
O O16 0.754122 0.792512 0.376688
#
# Coordination Sequence:
#
# PCOD9313560 Si02
#       8
#     4   4   4   4   4   4   4   4
#     4  10  20  33  56  85 117 154 190 233 298 363
#     4  11  23  35  54  77 111 150 193 230 285 344
#     4  11  18  36  53  80 115 157 196 243 284 352
#     4  11  20  36  52  76 111 160 191 235 282 336
#     4  10  19  35  53  81 119 152 192 241 288 358
#     4  11  23  36  50  79 108 150 198 235 271 340
#     4  10  20  34  55  81 116 155 187 239 303 346
#     4  10  23  35  53  79 115 160 201 240 289 347
#
# _framework density 19.269995000000002
#
# number of rings (size 3 to 8) (size 9 to 14) (size 15 to 20)
#    0.000    1.500    3.750    3.000    0.000    3.000 
#    0.000    0.000    0.000    0.000    0.000    0.000 
#    3.750    0.000    0.000    0.000    0.000    0.000 
#
# Total GULP energy -178288.788889 kJ/mol
# GULP energy per Si atom -5571.524653 kJ/mol
# Density = 1.922614 g / cm^3
# Si number density = 19.269995 Si / 1000 Ang^3
#
#
#
# Elastic Constant Matrix: (Units=GPa)
#
#
# Indices 1 2 3 4 5 6 
#
# 1 65.2986 15.4244 10.0444 0.0000 0.0000 0.0000
# 2 15.4244 84.3495 14.3223 0.0000 0.0000 0.0000
# 3 10.0444 14.3223 52.3793 0.0000 0.0000 0.0000
# 4 0.0000 0.0000 0.0000 23.9569 0.0000 0.0000
# 5 0.0000 0.0000 0.0000 0.0000 19.5302 0.0000
# 6 0.0000 0.0000 0.0000 0.0000 0.0000 30.6361
#
#
#
# Elastic Compliance Matrix: (Units=1/GPa)
#
#
# Indices 1 2 3 4 5 6 
#
# 1 0.016293 -0.002568 -0.002422 0.000000 0.000000 0.000000
# 2 -0.002568 0.012837 -0.003018 0.000000 0.000000 0.000000
# 3 -0.002422 -0.003018 0.020381 0.000000 0.000000 0.000000
# 4 0.000000 0.000000 0.000000 0.041742 0.000000 0.000000
# 5 0.000000 0.000000 0.000000 0.000000 0.051203 0.000000
# 6 0.000000 0.000000 0.000000 0.000000 0.000000 0.032641
#
#
# Mechanical properties :
#
#
# Convention : Reuss Voigt Hill
#
# Bulk Modulus (GPa) = 29.85448 31.28994 30.57221
# Shear Modulus (GPa) = 24.71831 25.64041 25.17936
#
# Velocity S-wave (km/s) = 3.58542 3.65168 3.61870
# Velocity P-wave (km/s) = 5.71547 5.83546 5.77578
#
# Compressibility (1/GPa) = 0.03349581
#
# Stress axis : x y z
#
# Youngs Moduli (GPa) = 61.37422 77.89708 49.06499
#
# Poissons Ratio (x) = 0.20005 0.11885
# Poissons Ratio (y) = 0.15762 0.14806
# Poissons Ratio (z) = 0.14866 0.23507
#
# Static dielectric constant tensor:
#      x y z
#    x 1.723250 0.000000 0.000000 
#    y 0.000000 1.807710 0.000000 
#    z 0.000000 0.000000 1.681250 
# 
# From -- ./inp_files/5608.got.cif
#   From: 2010.05.17/outbox.cif.g08.bks.cpg/sg19_3_cif.got.tgz:5608.got - 2010.06.03 22:46:19.
