data_PCOD9313990
_publ_section_title
;
Structure prediction by ZEFSAII (Michael W. Deem and Ramdas Pophale) SiO2 
 PCOD9313990
Probable space group: P 21 21 21
;
_chemical_formula_sum "Si O2"
_cell_formula_units_Z 28
_cell_length_a 13.653804
_cell_length_b 7.164451
_cell_length_c 12.405856
_cell_angle_alpha 90.000000
_cell_angle_beta 90.000000
_cell_angle_gamma 90.000000
_cell_volume 1213.565766
_symmetry_space_group_name_H-M "P 21 21 21"
_symmetry_group_IT_number 19
_symmetry_cell_setting 'orthorhombic'
loop_
_space_group_symop_operation_xyz
x,y,z
1/2-x,-y,1/2+z
1/2+x,1/2-y,-z
-x,1/2+y,1/2-z
loop_
_atom_site_type_symbol
_atom_site_label
_atom_site_fract_x
_atom_site_fract_y
_atom_site_fract_z
Si Si1 0.282539 0.544840 0.698844
Si Si2 0.710102 0.395635 0.656125
Si Si3 0.084096 0.468355 0.798033
Si Si4 0.076509 0.894283 0.870768
Si Si5 0.036363 0.264436 0.437163
Si Si6 0.430064 0.242728 0.790364
Si Si7 0.932097 0.873518 0.473099
O O1 0.276084 0.755739 0.743603
O O2 0.177955 0.446533 0.719675
O O3 0.361536 0.420391 0.765385
O O4 0.328327 0.568924 0.580222
O O5 0.813944 0.467301 0.614827
O O6 0.652418 0.264525 0.571005
O O7 0.641038 0.567730 0.687602
O O8 0.095228 0.674634 0.846711
O O9 0.984277 0.464329 0.731211
O O10 0.078895 0.329530 0.900600
O O11 0.007697 0.902503 0.975089
O O12 0.991306 0.294264 0.318546
O O13 0.997237 0.060421 0.470032
O O14 0.507624 0.255323 0.888690
#
# Coordination Sequence:
#
# PCOD9313990 Si02
#       7
#     4   4   4   4   4   4   4
#     4  10  21  39  63  89 122 164 209 248 316 371
#     4  10  21  40  62  93 124 160 212 255 310 374
#     4  10  23  42  60  89 131 163 204 265 314 380
#     4  10  23  42  60  91 127 166 206 260 326 372
#     4   9  19  38  66  86 121 167 207 253 313 375
#     4  10  20  39  64  92 120 161 207 262 303 371
#     4   9  19  40  61  90 127 157 207 263 304 365
#
# _framework density 23.072505
#
# number of rings (size 3 to 8) (size 9 to 14) (size 15 to 20)
#    0.000    2.286    1.429    0.000    2.000    4.571 
#   15.429    0.000    0.000    0.000    0.000    0.000 
#    0.000    0.000    0.000    0.000    0.000    0.000 
#
# Total GULP energy -156285.711813 kJ/mol
# GULP energy per Si atom -5581.632565 kJ/mol
# Density = 2.301999 g / cm^3
# Si number density = 23.072505 Si / 1000 Ang^3
#
#
#
# Elastic Constant Matrix: (Units=GPa)
#
#
# Indices 1 2 3 4 5 6 
#
# 1 164.1319 5.9521 64.5260 0.0000 0.0000 0.0000
# 2 5.9521 54.5772 12.5512 0.0000 0.0000 0.0000
# 3 64.5260 12.5512 114.6129 0.0000 0.0000 0.0000
# 4 0.0000 0.0000 0.0000 11.0594 0.0000 0.0000
# 5 0.0000 0.0000 0.0000 0.0000 14.9411 0.0000
# 6 0.0000 0.0000 0.0000 0.0000 0.0000 38.6218
#
#
#
# Elastic Compliance Matrix: (Units=1/GPa)
#
#
# Indices 1 2 3 4 5 6 
#
# 1 0.007826 0.000164 -0.004424 0.000000 0.000000 0.000000
# 2 0.000164 0.018799 -0.002151 0.000000 0.000000 0.000000
# 3 -0.004424 -0.002151 0.011451 0.000000 0.000000 0.000000
# 4 0.000000 0.000000 0.000000 0.090421 0.000000 0.000000
# 5 0.000000 0.000000 0.000000 0.000000 0.066930 0.000000
# 6 0.000000 0.000000 0.000000 0.000000 0.000000 0.025892
#
#
# Mechanical properties :
#
#
# Convention : Reuss Voigt Hill
#
# Bulk Modulus (GPa) = 39.59675 55.48676 47.54176
# Shear Modulus (GPa) = 20.61352 29.61062 25.11207
#
# Velocity S-wave (km/s) = 2.99226 3.58631 3.30267
# Velocity P-wave (km/s) = 5.39790 6.42261 5.93242
#
# Compressibility (1/GPa) = 0.02525460
#
# Stress axis : x y z
#
# Youngs Moduli (GPa) = 127.78103 53.19298 87.32738
#
# Poissons Ratio (x) = -0.00872 0.38632
# Poissons Ratio (y) = -0.02094 0.18784
# Poissons Ratio (z) = 0.56528 0.11442
#
# Static dielectric constant tensor:
#      x y z
#    x 1.906990 0.000000 0.000000 
#    y 0.000000 1.974050 0.000000 
#    z 0.000000 0.000000 1.888240 
# 
# From -- ./inp_files/3526.got.cif
#   From: 2010.05.17/outbox.cif.g08.bks.cpg/sg19_2_cif.got.tgz:3526.got - 2010.06.03 22:46:19.
