data_PCOD9313290
_publ_section_title
;
Structure prediction by ZEFSAII (Michael W. Deem and Ramdas Pophale) SiO2 
 PCOD9313290
Probable space group: P 21 21 2
;
_chemical_formula_sum "Si O2"
_cell_formula_units_Z 20
_cell_length_a 9.000000
_cell_length_b 9.000000
_cell_length_c 12.000000
_cell_angle_alpha 90.000000
_cell_angle_beta 90.000000
_cell_angle_gamma 90.000000
_cell_volume 972.000000
_symmetry_space_group_name_H-M "P 21 21 2"
_symmetry_group_IT_number 18
_symmetry_cell_setting 'orthorhombic'
loop_
_space_group_symop_operation_xyz
x,y,z
-x,-y,z
1/2+x,1/2-y,-z
1/2-x,1/2+y,-z
loop_
_atom_site_type_symbol
_atom_site_label
_atom_site_fract_x
_atom_site_fract_y
_atom_site_fract_z
Si Si1 0.855036 0.888087 0.860738
Si Si2 0.165096 0.071020 0.249486
Si Si3 0.668089 0.053194 0.035796
Si Si4 0.792785 0.703961 0.632847
Si Si5 0.463951 0.824904 0.601138
O O1 0.838578 0.731254 0.933253
O O2 0.840478 0.816783 0.734731
O O3 0.000000 0.000000 0.866334
O O4 0.730485 0.998006 0.915399
O O5 0.136673 0.233364 0.306645
O O6 0.232648 0.039458 0.126431
O O7 0.273687 0.965628 0.322971
O O8 0.000000 0.000000 0.247287
O O9 0.500000 0.000000 0.046338
O O10 0.626026 0.751116 0.601545
O O11 0.891176 0.700949 0.520989
O O12 0.500000 0.000000 0.622844
#
# Coordination Sequence:
#
# PCOD9313290 Si02
#       5
#     4   4   4   4   4
#     4  11  25  45  69 100 139 183 232 284 347 417
#     4   9  21  42  63  90 134 181 224 281 346 409
#     4  11  24  43  68  98 134 179 232 287 345 409
#     4  10  24  42  64  97 136 180 225 279 346 413
#     4  11  23  40  67  97 132 177 231 287 343 408
#
# _framework density 20.576132000000001
#
# number of rings (size 3 to 8) (size 9 to 14) (size 15 to 20)
#    0.000    1.600    0.000    3.000    0.000   17.600 
#    0.000    0.000    0.000    0.000    0.000    0.000 
#    0.000    0.000    0.000    0.000    0.000    0.000 
#
# Total GULP energy -111494.571715 kJ/mol
# GULP energy per Si atom -5574.728586 kJ/mol
# Density = 2.052930 g / cm^3
# Si number density = 20.576132 Si / 1000 Ang^3
#
#
#
# Elastic Constant Matrix: (Units=GPa)
#
#
# Indices 1 2 3 4 5 6 
#
# 1 84.1409 48.1777 39.1780 0.0000 0.0000 0.0000
# 2 48.1777 155.9226 61.7493 0.0000 0.0000 0.0000
# 3 39.1780 61.7493 101.8909 0.0000 0.0000 0.0000
# 4 0.0000 0.0000 0.0000 44.7231 0.0000 0.0000
# 5 0.0000 0.0000 0.0000 0.0000 41.0810 0.0000
# 6 0.0000 0.0000 0.0000 0.0000 0.0000 41.6188
#
#
#
# Elastic Compliance Matrix: (Units=1/GPa)
#
#
# Indices 1 2 3 4 5 6 
#
# 1 0.015616 -0.003220 -0.004053 0.000000 0.000000 0.000000
# 2 -0.003220 0.009103 -0.004278 0.000000 0.000000 0.000000
# 3 -0.004053 -0.004278 0.013966 0.000000 0.000000 0.000000
# 4 0.000000 0.000000 0.000000 0.022360 0.000000 0.000000
# 5 0.000000 0.000000 0.000000 0.000000 0.024342 0.000000
# 6 0.000000 0.000000 0.000000 0.000000 0.000000 0.024028
#
#
# Mechanical properties :
#
#
# Convention : Reuss Voigt Hill
#
# Bulk Modulus (GPa) = 64.17920 71.12937 67.65429
# Shear Modulus (GPa) = 36.30811 38.34119 37.32465
#
# Velocity S-wave (km/s) = 4.20524 4.32137 4.26370
# Velocity P-wave (km/s) = 7.40524 7.71641 7.56242
#
# Compressibility (1/GPa) = 0.01558137
#
# Stress axis : x y z
#
# Youngs Moduli (GPa) = 64.03824 109.85716 71.60386
#
# Poissons Ratio (x) = 0.35373 0.29021
# Poissons Ratio (y) = 0.20620 0.30636
# Poissons Ratio (z) = 0.25955 0.47002
#
# Static dielectric constant tensor:
#      x y z
#    x 1.719140 0.000000 0.000000 
#    y 0.000000 1.768170 0.000000 
#    z 0.000000 0.000000 1.781060 
# 
# From -- ./inp_files/5401.got.cif
#   From: 2010.05.17/outbox.ucp.g08.bks.cvg/sg18_3_cif.got.tgz:5401.got - 2010.06.11 13:13:23.
