data_PCOD9313160
_publ_section_title
;
Structure prediction by ZEFSAII (Michael W. Deem and Ramdas Pophale) SiO2 
 PCOD9313160
Probable space group: P 21 21 2
;
_chemical_formula_sum "Si O2"
_cell_formula_units_Z 20
_cell_length_a 10.796307
_cell_length_b 7.718995
_cell_length_c 8.905139
_cell_angle_alpha 90.000000
_cell_angle_beta 90.000000
_cell_angle_gamma 90.000000
_cell_volume 742.124361
_symmetry_space_group_name_H-M "P 21 21 2"
_symmetry_group_IT_number 18
_symmetry_cell_setting 'orthorhombic'
loop_
_space_group_symop_operation_xyz
x,y,z
-x,-y,z
1/2+x,1/2-y,-z
1/2-x,1/2+y,-z
loop_
_atom_site_type_symbol
_atom_site_label
_atom_site_fract_x
_atom_site_fract_y
_atom_site_fract_z
Si Si1 0.263801 0.200646 0.099581
Si Si2 0.510674 0.706403 0.879408
Si Si3 0.150113 0.403218 0.683189
Si Si4 0.631471 0.825576 0.591469
Si Si5 0.571350 0.660073 0.308321
O O1 0.125015 0.236621 0.049581
O O2 0.294629 0.331094 0.235596
O O3 0.285633 0.018067 0.186287
O O4 0.374135 0.241231 0.984687
O O5 0.500000 0.500000 0.846301
O O6 0.536233 0.815881 0.728847
O O7 0.235539 0.236133 0.651007
O O8 0.142494 0.515440 0.526859
O O9 0.016412 0.325033 0.725072
O O10 0.586546 0.666903 0.485004
O O11 0.500000 0.500000 0.244471
#
# Coordination Sequence:
#
# PCOD9313160 Si02
#       5
#     4   4   4   4   4
#     4  11  27  49  78 113 159 215 272 330 406 480
#     4  12  27  52  80 117 162 214 272 339 403 480
#     4  11  25  50  78 117 159 214 265 339 398 495
#     4  11  24  46  81 111 160 205 275 322 416 470
#     4  11  25  48  79 114 164 203 267 335 409 481
#
# _framework density 26.949660000000002
#
# number of rings (size 3 to 8) (size 9 to 14) (size 15 to 20)
#    0.000    0.800    2.000    4.800    8.400    1.600 
#   10.800    4.000    0.000    0.000    0.000    0.000 
#    0.000    0.000    0.000    0.000    0.000    0.000 
#
# Total GULP energy -111907.199409 kJ/mol
# GULP energy per Si atom -5595.359970 kJ/mol
# Density = 2.688832 g / cm^3
# Si number density = 26.949660 Si / 1000 Ang^3
#
#
#
# Elastic Constant Matrix: (Units=GPa)
#
#
# Indices 1 2 3 4 5 6 
#
# 1 195.8822 28.7808 62.5551 0.0000 0.0000 0.0000
# 2 28.7808 128.8437 32.5529 0.0000 0.0000 0.0000
# 3 62.5551 32.5529 147.2475 0.0000 0.0000 0.0000
# 4 0.0000 0.0000 0.0000 29.5385 0.0000 0.0000
# 5 0.0000 0.0000 0.0000 0.0000 54.9451 0.0000
# 6 0.0000 0.0000 0.0000 0.0000 0.0000 35.7879
#
#
#
# Elastic Compliance Matrix: (Units=1/GPa)
#
#
# Indices 1 2 3 4 5 6 
#
# 1 0.005971 -0.000734 -0.002375 0.000000 0.000000 0.000000
# 2 -0.000734 0.008311 -0.001526 0.000000 0.000000 0.000000
# 3 -0.002375 -0.001526 0.008137 0.000000 0.000000 0.000000
# 4 0.000000 0.000000 0.000000 0.033854 0.000000 0.000000
# 5 0.000000 0.000000 0.000000 0.000000 0.018200 0.000000
# 6 0.000000 0.000000 0.000000 0.000000 0.000000 0.027942
#
#
# Mechanical properties :
#
#
# Convention : Reuss Voigt Hill
#
# Bulk Modulus (GPa) = 76.03762 79.97235 78.00499
# Shear Modulus (GPa) = 43.07840 47.25994 45.16917
#
# Velocity S-wave (km/s) = 4.00243 4.19219 4.09841
# Velocity P-wave (km/s) = 7.04523 7.29190 7.16962
#
# Compressibility (1/GPa) = 0.01315138
#
# Stress axis : x y z
#
# Youngs Moduli (GPa) = 167.46934 120.32669 122.89087
#
# Poissons Ratio (x) = 0.08831 0.29181
# Poissons Ratio (y) = 0.12291 0.18747
# Poissons Ratio (z) = 0.39766 0.18356
#
# Static dielectric constant tensor:
#      x y z
#    x 2.110210 0.000000 0.000000 
#    y 0.000000 2.182760 0.000000 
#    z 0.000000 0.000000 2.094030 
# 
# From -- ./inp_files/3662.got.cif
#   From: 2010.05.17/outbox.cif.g08.bks.cpg/sg18_2_cif.got.tgz:3662.got - 2010.06.03 22:40:56.
