data_PCOD9313117
_publ_section_title
;
Structure prediction by ZEFSAII (Michael W. Deem and Ramdas Pophale) SiO2 
 PCOD9313117
Probable space group: P 21 21 2
;
_chemical_formula_sum "Si O2"
_cell_formula_units_Z 32
_cell_length_a 10.446329
_cell_length_b 14.650508
_cell_length_c 9.463658
_cell_angle_alpha 90.000000
_cell_angle_beta 90.000000
_cell_angle_gamma 90.000000
_cell_volume 1448.356327
_symmetry_space_group_name_H-M "P 21 21 2"
_symmetry_group_IT_number 18
_symmetry_cell_setting 'orthorhombic'
loop_
_space_group_symop_operation_xyz
x,y,z
-x,-y,z
1/2+x,1/2-y,-z
1/2-x,1/2+y,-z
loop_
_atom_site_type_symbol
_atom_site_label
_atom_site_fract_x
_atom_site_fract_y
_atom_site_fract_z
Si Si1 0.147595 0.472870 0.879712
Si Si2 0.794492 0.734845 0.891311
Si Si3 0.539028 0.670510 0.976896
Si Si4 0.687814 0.551391 0.162955
Si Si5 0.115853 0.815259 0.611134
Si Si6 0.233762 0.622837 0.646385
Si Si7 0.178938 0.126733 0.658348
Si Si8 0.022617 0.891999 0.336912
O O1 0.161763 0.365808 0.841735
O O2 0.205098 0.543110 0.761128
O O3 0.000000 0.500000 0.894175
O O4 0.215620 0.472115 0.034333
O O5 0.666825 0.732056 0.986829
O O6 0.761103 0.795621 0.756119
O O7 0.909911 0.778350 0.982835
O O8 0.557103 0.623921 0.824985
O O9 0.563281 0.591001 0.087025
O O10 0.709100 0.627992 0.284931
O O11 0.668404 0.462050 0.249719
O O12 0.141208 0.710061 0.648216
O O13 0.965933 0.839302 0.631715
O O14 0.122601 0.848393 0.447424
O O15 0.241006 0.598292 0.479961
O O16 0.381552 0.653456 0.663488
O O17 0.000000 0.000000 0.369166
#
# Coordination Sequence:
#
# PCOD9313117 Si02
#       8
#     4   4   4   4   4   4   4   4
#     4  11  27  46  71 106 149 195 248 309 385 449
#     4  11  25  43  71 104 146 187 247 310 373 453
#     4  11  26  41  72 105 144 190 244 307 380 440
#     4  11  25  42  72 105 141 184 242 308 362 446
#     4  11  23  44  68 106 141 189 243 307 369 434
#     4  11  26  45  72 100 146 196 241 313 365 453
#     4  11  24  43  72 101 141 190 244 303 368 445
#     4  11  24  43  75 107 145 193 259 302 371 457
#
# _framework density 22.094009
#
# number of rings (size 3 to 8) (size 9 to 14) (size 15 to 20)
#    0.000    1.000    1.250    4.875    8.750    1.000 
#    0.000    0.625    0.000    0.000    0.000    0.000 
#    0.000    0.000    0.000    0.000    0.000    0.000 
#
# Total GULP energy -178508.671377 kJ/mol
# GULP energy per Si atom -5578.395981 kJ/mol
# Density = 2.204372 g / cm^3
# Si number density = 22.094009 Si / 1000 Ang^3
#
#
#
# Elastic Constant Matrix: (Units=GPa)
#
#
# Indices 1 2 3 4 5 6 
#
# 1 68.9801 8.6059 27.2231 0.0000 0.0000 0.0000
# 2 8.6059 99.2656 58.7350 0.0000 0.0000 0.0000
# 3 27.2231 58.7350 157.7759 0.0000 0.0000 0.0000
# 4 0.0000 0.0000 0.0000 42.7063 0.0000 0.0000
# 5 0.0000 0.0000 0.0000 0.0000 24.5300 0.0000
# 6 0.0000 0.0000 0.0000 0.0000 0.0000 31.6525
#
#
#
# Elastic Compliance Matrix: (Units=1/GPa)
#
#
# Indices 1 2 3 4 5 6 
#
# 1 0.015564 0.000307 -0.002800 0.000000 0.000000 0.000000
# 2 0.000307 0.012926 -0.004865 0.000000 0.000000 0.000000
# 3 -0.002800 -0.004865 0.008632 0.000000 0.000000 0.000000
# 4 0.000000 0.000000 0.000000 0.023416 0.000000 0.000000
# 5 0.000000 0.000000 0.000000 0.000000 0.040766 0.000000
# 6 0.000000 0.000000 0.000000 0.000000 0.000000 0.031593
#
#
# Mechanical properties :
#
#
# Convention : Reuss Voigt Hill
#
# Bulk Modulus (GPa) = 44.62910 57.23883 50.93396
# Shear Modulus (GPa) = 32.24126 35.20825 33.72475
#
# Velocity S-wave (km/s) = 3.82419 3.99628 3.91118
# Velocity P-wave (km/s) = 6.30418 6.87436 6.59544
#
# Compressibility (1/GPa) = 0.02240691
#
# Stress axis : x y z
#
# Youngs Moduli (GPa) = 64.25275 77.36408 115.84471
#
# Poissons Ratio (x) = -0.02378 0.32434
# Poissons Ratio (y) = -0.01975 0.56358
# Poissons Ratio (z) = 0.17989 0.37637
#
# Static dielectric constant tensor:
#      x y z
#    x 1.812280 0.000000 0.000000 
#    y 0.000000 1.841890 0.000000 
#    z 0.000000 0.000000 1.963710 
# 
# From -- ./inp_files/3921.got.cif
#   From: 2010.05.17/outbox.cif.g08.bks.cpg/sg18_2_cif.got.tgz:3921.got - 2010.06.03 22:40:56.
