data_PCOD9313717
_publ_section_title
;
Structure prediction by ZEFSAII (Michael W. Deem and Ramdas Pophale) SiO2 
 PCOD9313717
Probable space group: P 21 21 21
;
_chemical_formula_sum "Si O2"
_cell_formula_units_Z 24
_cell_length_a 8.230019
_cell_length_b 5.195464
_cell_length_c 20.337602
_cell_angle_alpha 90.000000
_cell_angle_beta 90.000000
_cell_angle_gamma 90.000000
_cell_volume 869.610794
_symmetry_space_group_name_H-M "P 21 21 21"
_symmetry_group_IT_number 19
_symmetry_cell_setting 'orthorhombic'
loop_
_space_group_symop_operation_xyz
x,y,z
1/2-x,-y,1/2+z
1/2+x,1/2-y,-z
-x,1/2+y,1/2-z
loop_
_atom_site_type_symbol
_atom_site_label
_atom_site_fract_x
_atom_site_fract_y
_atom_site_fract_z
Si Si1 0.749913 0.779665 0.780336
Si Si2 0.431398 0.042872 0.825515
Si Si3 0.036788 0.582646 0.639584
Si Si4 0.085166 0.569426 0.927068
Si Si5 0.166005 0.101587 0.105163
Si Si6 0.924695 0.783161 0.042425
O O1 0.727064 0.594041 0.718183
O O2 0.750002 0.603889 0.845899
O O3 0.578591 0.931289 0.781459
O O4 0.895175 0.983087 0.789860
O O5 0.505815 0.298712 0.857068
O O6 0.414645 0.854617 0.887017
O O7 0.946473 0.343596 0.607016
O O8 0.936523 0.839769 0.624351
O O9 0.208963 0.661204 0.603224
O O10 0.260152 0.557800 0.960835
O O11 0.952044 0.573996 0.985493
O O12 0.085725 0.962815 0.043003
#
# Coordination Sequence:
#
# PCOD9313717 Si02
#       6
#     4   4   4   4   4   4
#     4  10  19  40  74 112 145 193 251 318 370 455
#     4  10  21  38  72 114 148 192 256 311 375 448
#     4  11  25  45  75 103 148 196 251 307 388 445
#     4  12  28  48  73 108 153 202 254 315 373 465
#     4  10  21  43  73 107 143 196 246 313 372 447
#     4  11  28  44  75 110 157 205 258 314 380 452
#
# _framework density 27.598552999999999
#
# number of rings (size 3 to 8) (size 9 to 14) (size 15 to 20)
#    0.000    1.333    3.333    1.000    9.333    0.000 
#    0.000    0.000    7.333    0.000    0.000    0.000 
#    0.000    0.000    0.000    0.000    0.000    0.000 
#
# Total GULP energy -134408.784406 kJ/mol
# GULP energy per Si atom -5600.366017 kJ/mol
# Density = 2.753574 g / cm^3
# Si number density = 27.598553 Si / 1000 Ang^3
#
#
#
# Elastic Constant Matrix: (Units=GPa)
#
#
# Indices 1 2 3 4 5 6 
#
# 1 120.5488 20.9627 12.9880 0.0000 0.0000 0.0000
# 2 20.9627 142.5719 26.0889 0.0000 0.0000 0.0000
# 3 12.9880 26.0889 66.3914 0.0000 0.0000 0.0000
# 4 0.0000 0.0000 0.0000 46.4958 0.0000 0.0000
# 5 0.0000 0.0000 0.0000 0.0000 28.8461 0.0000
# 6 0.0000 0.0000 0.0000 0.0000 0.0000 29.5157
#
#
#
# Elastic Compliance Matrix: (Units=1/GPa)
#
#
# Indices 1 2 3 4 5 6 
#
# 1 0.008613 -0.001032 -0.001279 0.000000 0.000000 0.000000
# 2 -0.001032 0.007681 -0.002816 0.000000 0.000000 0.000000
# 3 -0.001279 -0.002816 0.016419 0.000000 0.000000 0.000000
# 4 0.000000 0.000000 0.000000 0.021507 0.000000 0.000000
# 5 0.000000 0.000000 0.000000 0.000000 0.034667 0.000000
# 6 0.000000 0.000000 0.000000 0.000000 0.000000 0.033880
#
#
# Mechanical properties :
#
#
# Convention : Reuss Voigt Hill
#
# Bulk Modulus (GPa) = 44.52917 49.95459 47.24188
# Shear Modulus (GPa) = 35.58492 38.93635 37.26064
#
# Velocity S-wave (km/s) = 3.59468 3.76015 3.67835
# Velocity P-wave (km/s) = 5.77916 6.08205 5.93254
#
# Compressibility (1/GPa) = 0.02245719
#
# Stress axis : x y z
#
# Youngs Moduli (GPa) = 116.10720 130.18882 60.90441
#
# Poissons Ratio (x) = 0.13439 0.07791
# Poissons Ratio (y) = 0.11985 0.17153
# Poissons Ratio (z) = 0.14853 0.36667
#
# Static dielectric constant tensor:
#      x y z
#    x 2.180700 0.000000 0.000000 
#    y 0.000000 2.160180 0.000000 
#    z 0.000000 0.000000 2.190490 
# 
# From -- ./inp_files/7313.got.cif
#   From: 2010.05.17/outbox.cif.g08.bks.cpg/sg19_4_cif.got.tgz:7313.got - 2010.06.03 22:46:19.
