data_PCOD9313076
_publ_section_title
;
Structure prediction by ZEFSAII (Michael W. Deem and Ramdas Pophale) SiO2 
 PCOD9313076
Probable space group: P 21 21 2
;
_chemical_formula_sum "Si O2"
_cell_formula_units_Z 22
_cell_length_a 9.164708
_cell_length_b 13.824874
_cell_length_c 8.594438
_cell_angle_alpha 90.000000
_cell_angle_beta 90.000000
_cell_angle_gamma 90.000000
_cell_volume 1088.923316
_symmetry_space_group_name_H-M "P 21 21 2"
_symmetry_group_IT_number 18
_symmetry_cell_setting 'orthorhombic'
loop_
_space_group_symop_operation_xyz
x,y,z
-x,-y,z
1/2+x,1/2-y,-z
1/2-x,1/2+y,-z
loop_
_atom_site_type_symbol
_atom_site_label
_atom_site_fract_x
_atom_site_fract_y
_atom_site_fract_z
Si Si1 0.000000 0.000000 0.355468
Si Si2 0.700898 0.648795 0.824525
Si Si3 0.970284 0.323847 0.336710
Si Si4 0.720012 0.638510 0.193088
Si Si5 0.528982 0.242444 0.314146
Si Si6 0.185097 0.063263 0.639322
O O1 0.890511 0.063133 0.253578
O O2 0.106639 0.057633 0.472450
O O3 0.614685 0.743058 0.762810
O O4 0.867812 0.662299 0.765045
O O5 0.700896 0.636701 0.008819
O O6 0.855293 0.409523 0.369357
O O7 0.112253 0.353789 0.242377
O O8 0.019115 0.281201 0.503408
O O9 0.632967 0.732931 0.255238
O O10 0.666020 0.539168 0.274905
O O11 0.609482 0.344676 0.280414
#
# Coordination Sequence:
#
# PCOD9313076 Si02
#       6
#     2   4   4   4   4   4
#     4  12  22  44  68  98 134 176 240 278 336 412
#     4  11  26  40  66 101 136 180 224 286 353 406
#     4  11  23  44  69  96 133 180 234 278 338 425
#     4  12  23  42  66  99 142 172 224 294 350 400
#     4  11  22  43  67  95 131 182 229 273 339 416
#     4  11  22  41  68  97 125 181 229 276 334 410
#
# _framework density 20.203441000000002
#
# number of rings (size 3 to 8) (size 9 to 14) (size 15 to 20)
#    0.000    0.727    3.636    4.909    2.545    0.000 
#    0.000    3.636    0.000    0.000    0.000    0.000 
#    0.000    0.000    0.000    0.000    0.000    0.000 
#
# Total GULP energy -122850.873208 kJ/mol
# GULP energy per Si atom -5584.130600 kJ/mol
# Density = 2.015746 g / cm^3
# Si number density = 20.203441 Si / 1000 Ang^3
#
#
#
# Elastic Constant Matrix: (Units=GPa)
#
#
# Indices 1 2 3 4 5 6 
#
# 1 92.6966 19.0931 7.0275 0.0000 0.0000 0.0000
# 2 19.0931 61.0396 20.8569 0.0000 0.0000 0.0000
# 3 7.0275 20.8569 112.5970 0.0000 0.0000 0.0000
# 4 0.0000 0.0000 0.0000 14.2994 0.0000 0.0000
# 5 0.0000 0.0000 0.0000 0.0000 17.7180 0.0000
# 6 0.0000 0.0000 0.0000 0.0000 0.0000 39.2745
#
#
#
# Elastic Compliance Matrix: (Units=1/GPa)
#
#
# Indices 1 2 3 4 5 6 
#
# 1 0.011531 -0.003588 -0.000055 0.000000 0.000000 0.000000
# 2 -0.003588 0.018606 -0.003223 0.000000 0.000000 0.000000
# 3 -0.000055 -0.003223 0.009482 0.000000 0.000000 0.000000
# 4 0.000000 0.000000 0.000000 0.069933 0.000000 0.000000
# 5 0.000000 0.000000 0.000000 0.000000 0.056440 0.000000
# 6 0.000000 0.000000 0.000000 0.000000 0.000000 0.025462
#
#
# Mechanical properties :
#
#
# Convention : Reuss Voigt Hill
#
# Bulk Modulus (GPa) = 38.62864 40.03202 39.33033
# Shear Modulus (GPa) = 23.38480 28.88210 26.13345
#
# Velocity S-wave (km/s) = 3.40585 3.78506 3.60045
# Velocity P-wave (km/s) = 5.88453 6.24177 6.06578
#
# Compressibility (1/GPa) = 0.02588753
#
# Stress axis : x y z
#
# Youngs Moduli (GPa) = 86.72189 53.74518 105.46736
#
# Poissons Ratio (x) = 0.19284 0.00581
# Poissons Ratio (y) = 0.31117 0.33988
# Poissons Ratio (z) = 0.00477 0.17320
#
# Static dielectric constant tensor:
#      x y z
#    x 1.766340 0.000000 0.000000 
#    y 0.000000 1.808610 0.000000 
#    z 0.000000 0.000000 1.659530 
# 
# From -- ./inp_files/3170.got.cif
#   From: 2010.05.17/outbox.cif.g08.bks.cpg/sg18_2_cif.got.tgz:3170.got - 2010.06.03 22:40:56.
