data_PCOD9313897
_publ_section_title
;
Structure prediction by ZEFSAII (Michael W. Deem and Ramdas Pophale) SiO2 
 PCOD9313897
Probable space group: P 21 21 21
;
_chemical_formula_sum "Si O2"
_cell_formula_units_Z 32
_cell_length_a 9.194900
_cell_length_b 11.712097
_cell_length_c 12.858227
_cell_angle_alpha 90.000000
_cell_angle_beta 90.000000
_cell_angle_gamma 90.000000
_cell_volume 1384.722534
_symmetry_space_group_name_H-M "P 21 21 21"
_symmetry_group_IT_number 19
_symmetry_cell_setting 'orthorhombic'
loop_
_space_group_symop_operation_xyz
x,y,z
1/2-x,-y,1/2+z
1/2+x,1/2-y,-z
-x,1/2+y,1/2-z
loop_
_atom_site_type_symbol
_atom_site_label
_atom_site_fract_x
_atom_site_fract_y
_atom_site_fract_z
Si Si1 0.828599 0.185637 0.650785
Si Si2 0.968337 0.791335 0.268510
Si Si3 0.677253 0.567493 0.152337
Si Si4 0.550164 0.343525 0.178176
Si Si5 0.001499 0.536565 0.185154
Si Si6 0.671232 0.020505 0.011521
Si Si7 0.115343 0.876973 0.609289
Si Si8 0.688244 0.744131 0.571453
O O1 0.700179 0.204981 0.735241
O O2 0.859827 0.310452 0.604723
O O3 0.776586 0.093920 0.568064
O O4 0.973479 0.147827 0.710806
O O5 0.025030 0.778516 0.387371
O O6 0.021426 0.667131 0.224438
O O7 0.013358 0.923566 0.241153
O O8 0.564322 0.467927 0.128874
O O9 0.844638 0.540783 0.128499
O O10 0.668776 0.579699 0.279408
O O11 0.454769 0.248971 0.121904
O O12 0.711360 0.290087 0.170625
O O13 0.133537 0.504623 0.108131
O O14 0.516123 0.048466 0.065653
O O15 0.772492 0.128564 0.036510
O O16 0.228626 0.846339 0.519083
#
# Coordination Sequence:
#
# PCOD9313897 Si02
#       8
#     4   4   4   4   4   4   4   4
#     4  10  23  39  65  95 136 178 220 289 349 414
#     4  11  23  45  69 102 137 186 233 289 363 414
#     4  10  20  41  64  94 130 178 222 272 353 409
#     4  10  20  37  63  91 122 174 224 267 337 404
#     4  11  24  41  71  95 144 181 230 292 348 421
#     4  11  22  42  64  99 139 176 235 291 344 421
#     4  10  21  36  68  96 130 174 228 285 332 416
#     4  11  23  41  68 100 124 179 234 279 334 415
#
# _framework density 23.109323
#
# number of rings (size 3 to 8) (size 9 to 14) (size 15 to 20)
#    0.000    1.500    3.750    0.750    5.250    0.000 
#    0.000   10.000    0.000    0.000    0.000    0.000 
#    0.000    0.000    0.000    0.000    0.000    0.000 
#
# Total GULP energy -178250.848101 kJ/mol
# GULP energy per Si atom -5570.339003 kJ/mol
# Density = 2.305672 g / cm^3
# Si number density = 23.109323 Si / 1000 Ang^3
#
#
#
# Elastic Constant Matrix: (Units=GPa)
#
#
# Indices 1 2 3 4 5 6 
#
# 1 51.7192 26.7647 11.0112 0.0000 0.0000 0.0000
# 2 26.7647 178.5677 32.3794 0.0000 0.0000 0.0000
# 3 11.0112 32.3794 55.9535 0.0000 0.0000 0.0000
# 4 0.0000 0.0000 0.0000 40.2395 0.0000 0.0000
# 5 0.0000 0.0000 0.0000 0.0000 22.9266 0.0000
# 6 0.0000 0.0000 0.0000 0.0000 0.0000 39.0666
#
#
#
# Elastic Compliance Matrix: (Units=1/GPa)
#
#
# Indices 1 2 3 4 5 6 
#
# 1 0.021299 -0.002718 -0.002619 0.000000 0.000000 0.000000
# 2 -0.002718 0.006603 -0.003286 0.000000 0.000000 0.000000
# 3 -0.002619 -0.003286 0.020289 0.000000 0.000000 0.000000
# 4 0.000000 0.000000 0.000000 0.024851 0.000000 0.000000
# 5 0.000000 0.000000 0.000000 0.000000 0.043617 0.000000
# 6 0.000000 0.000000 0.000000 0.000000 0.000000 0.025597
#
#
# Mechanical properties :
#
#
# Convention : Reuss Voigt Hill
#
# Bulk Modulus (GPa) = 32.31454 47.39456 39.85455
# Shear Modulus (GPa) = 29.44317 34.85221 32.14769
#
# Velocity S-wave (km/s) = 3.57330 3.88770 3.73381
# Velocity P-wave (km/s) = 5.57121 6.38010 5.98932
#
# Compressibility (1/GPa) = 0.03094582
#
# Stress axis : x y z
#
# Youngs Moduli (GPa) = 46.95042 151.43786 49.28730
#
# Poissons Ratio (x) = 0.41154 0.12908
# Poissons Ratio (y) = 0.12759 0.16198
# Poissons Ratio (z) = 0.12296 0.49770
#
# Static dielectric constant tensor:
#      x y z
#    x 1.873590 0.000000 0.000000 
#    y 0.000000 1.925800 0.000000 
#    z 0.000000 0.000000 1.969440 
# 
# From -- ./inp_files/5952.got.cif
#   From: 2010.05.17/outbox.cif.g08.bks.cpg/sg19_3_cif.got.tgz:5952.got - 2010.06.03 22:46:19.
