data_PCOD9313019
_publ_section_title
;
Structure prediction by ZEFSAII (Michael W. Deem and Ramdas Pophale) SiO2 
 PCOD9313019
Probable space group: P 21 21 2
;
_chemical_formula_sum "Si O2"
_cell_formula_units_Z 20
_cell_length_a 16.430393
_cell_length_b 5.576531
_cell_length_c 9.165765
_cell_angle_alpha 90.000000
_cell_angle_beta 90.000000
_cell_angle_gamma 90.000000
_cell_volume 839.809514
_symmetry_space_group_name_H-M "P 21 21 2"
_symmetry_group_IT_number 18
_symmetry_cell_setting 'orthorhombic'
loop_
_space_group_symop_operation_xyz
x,y,z
-x,-y,z
1/2+x,1/2-y,-z
1/2-x,1/2+y,-z
loop_
_atom_site_type_symbol
_atom_site_label
_atom_site_fract_x
_atom_site_fract_y
_atom_site_fract_z
Si Si1 0.872336 0.995293 0.918178
Si Si2 0.719066 0.299792 0.827025
Si Si3 0.829773 0.680390 0.680179
Si Si4 0.954292 0.246098 0.168411
Si Si5 0.170054 0.556203 0.397086
O O1 0.892182 0.841869 0.773930
O O2 0.785186 0.108238 0.879141
O O3 0.850222 0.824606 0.052973
O O4 0.926687 0.193983 0.999611
O O5 0.773934 0.530166 0.792708
O O6 0.676523 0.197588 0.684400
O O7 0.862817 0.495083 0.559180
O O8 0.762056 0.842774 0.598216
O O9 0.882110 0.280332 0.287009
O O10 0.000000 0.500000 0.174571
O O11 0.000000 0.000000 0.210026
#
# Coordination Sequence:
#
# PCOD9313019 Si02
#       5
#     4   4   4   4   4
#     4  11  22  39  68 107 140 180 248 298 374 427
#     4  11  19  36  69 105 141 174 222 319 372 433
#     4  11  22  37  72 109 146 178 226 331 382 428
#     4  12  28  47  75  99 148 209 257 293 348 456
#     4  11  23  41  68 112 145 183 245 295 396 436
#
# _framework density 23.814924999999999
#
# number of rings (size 3 to 8) (size 9 to 14) (size 15 to 20)
#    0.000    0.800    6.000    2.400    2.800    0.000 
#    0.000    0.000    4.400    0.000    0.000    0.000 
#    0.000    0.000    0.000    0.000    0.000    0.000 
#
# Total GULP energy -111622.794832 kJ/mol
# GULP energy per Si atom -5581.139742 kJ/mol
# Density = 2.376072 g / cm^3
# Si number density = 23.814925 Si / 1000 Ang^3
#
#
#
# Elastic Constant Matrix: (Units=GPa)
#
#
# Indices 1 2 3 4 5 6 
#
# 1 47.0693 28.8975 26.3422 0.0000 0.0000 0.0000
# 2 28.8975 95.7407 39.3802 0.0000 0.0000 0.0000
# 3 26.3422 39.3802 141.2671 0.0000 0.0000 0.0000
# 4 0.0000 0.0000 0.0000 43.4250 0.0000 0.0000
# 5 0.0000 0.0000 0.0000 0.0000 13.3180 0.0000
# 6 0.0000 0.0000 0.0000 0.0000 0.0000 35.2012
#
#
#
# Elastic Compliance Matrix: (Units=1/GPa)
#
#
# Indices 1 2 3 4 5 6 
#
# 1 0.027266 -0.006933 -0.003151 0.000000 0.000000 0.000000
# 2 -0.006933 0.013561 -0.002487 0.000000 0.000000 0.000000
# 3 -0.003151 -0.002487 0.008360 0.000000 0.000000 0.000000
# 4 0.000000 0.000000 0.000000 0.023028 0.000000 0.000000
# 5 0.000000 0.000000 0.000000 0.000000 0.075086 0.000000
# 6 0.000000 0.000000 0.000000 0.000000 0.000000 0.028408
#
#
# Mechanical properties :
#
#
# Convention : Reuss Voigt Hill
#
# Bulk Modulus (GPa) = 41.59428 52.59077 47.09253
# Shear Modulus (GPa) = 23.93871 31.01934 27.47902
#
# Velocity S-wave (km/s) = 3.17392 3.61295 3.40053
# Velocity P-wave (km/s) = 5.56195 6.28774 5.93595
#
# Compressibility (1/GPa) = 0.02404177
#
# Stress axis : x y z
#
# Youngs Moduli (GPa) = 36.67625 73.74265 119.61953
#
# Poissons Ratio (x) = 0.51128 0.37698
# Poissons Ratio (y) = 0.25429 0.29754
# Poissons Ratio (z) = 0.11558 0.18342
#
# Static dielectric constant tensor:
#      x y z
#    x 1.940420 0.000000 0.000000 
#    y 0.000000 1.960560 0.000000 
#    z 0.000000 0.000000 1.956070 
# 
# From -- ./inp_files/2468.got.cif
#   From: 2010.05.17/outbox.cif.g08.bks.cpg/sg18_2_cif.got.tgz:2468.got - 2010.06.03 22:40:56.
