data_PCOD9313688
_publ_section_title
;
Structure prediction by ZEFSAII (Michael W. Deem and Ramdas Pophale) SiO2 
 PCOD9313688
Probable space group: P 21 21 21
;
_chemical_formula_sum "Si O2"
_cell_formula_units_Z 24
_cell_length_a 6.822534
_cell_length_b 15.565920
_cell_length_c 9.692466
_cell_angle_alpha 90.000000
_cell_angle_beta 90.000000
_cell_angle_gamma 90.000000
_cell_volume 1029.330375
_symmetry_space_group_name_H-M "P 21 21 21"
_symmetry_group_IT_number 19
_symmetry_cell_setting 'orthorhombic'
loop_
_space_group_symop_operation_xyz
x,y,z
1/2-x,-y,1/2+z
1/2+x,1/2-y,-z
-x,1/2+y,1/2-z
loop_
_atom_site_type_symbol
_atom_site_label
_atom_site_fract_x
_atom_site_fract_y
_atom_site_fract_z
Si Si1 0.418549 0.347045 0.610170
Si Si2 0.359920 0.088251 0.600622
Si Si3 0.473866 0.203414 0.382875
Si Si4 0.290020 0.462384 0.378034
Si Si5 0.967850 0.648348 0.697153
Si Si6 0.973751 0.597966 0.396224
O O1 0.480886 0.268960 0.512752
O O2 0.189238 0.332916 0.645529
O O3 0.414154 0.430639 0.509930
O O4 0.532345 0.353959 0.752337
O O5 0.342350 0.127394 0.446929
O O6 0.592305 0.095394 0.631322
O O7 0.230615 0.136363 0.713569
O O8 0.331554 0.985498 0.603855
O O9 0.426400 0.266672 0.256480
O O10 0.411120 0.437154 0.242702
O O11 0.193184 0.554887 0.397708
O O12 0.939794 0.649830 0.534955
#
# Coordination Sequence:
#
# PCOD9313688 Si02
#       6
#     4   4   4   4   4   4
#     4  10  19  39  65  87 125 169 206 261 316 389
#     4   9  21  38  62  93 125 168 216 251 321 387
#     4  10  20  39  67  85 125 174 212 246 324 400
#     4   8  20  37  62  91 122 167 207 254 323 381
#     4  11  20  39  67  94 128 170 213 269 318 379
#     4  10  22  38  63  98 129 156 222 275 314 364
#
# _framework density 23.316130000000001
#
# number of rings (size 3 to 8) (size 9 to 14) (size 15 to 20)
#    1.000    1.333    1.667    1.000    0.000    2.667 
#    0.000    5.000    0.000    0.000    0.000    0.000 
#    0.000    0.000    0.000    0.000    0.000    0.000 
#
# Total GULP energy -133854.893798 kJ/mol
# GULP energy per Si atom -5577.287242 kJ/mol
# Density = 2.326306 g / cm^3
# Si number density = 23.316130 Si / 1000 Ang^3
#
#
#
# Elastic Constant Matrix: (Units=GPa)
#
#
# Indices 1 2 3 4 5 6 
#
# 1 70.2256 1.2404 35.9160 0.0000 0.0000 0.0000
# 2 1.2404 38.8096 22.6481 0.0000 0.0000 0.0000
# 3 35.9160 22.6481 157.8007 0.0000 0.0000 0.0000
# 4 0.0000 0.0000 0.0000 -28.8298 0.0000 0.0000
# 5 0.0000 0.0000 0.0000 0.0000 18.5910 0.0000
# 6 0.0000 0.0000 0.0000 0.0000 0.0000 28.9409
#
#
#
# Elastic Compliance Matrix: (Units=1/GPa)
#
#
# Indices 1 2 3 4 5 6 
#
# 1 0.016228 0.001786 -0.003950 0.000000 0.000000 0.000000
# 2 0.001786 0.028319 -0.004471 0.000000 0.000000 0.000000
# 3 -0.003950 -0.004471 0.007878 0.000000 0.000000 0.000000
# 4 0.000000 0.000000 0.000000 -0.034686 0.000000 0.000000
# 5 0.000000 0.000000 0.000000 0.000000 0.053790 0.000000
# 6 0.000000 0.000000 0.000000 0.000000 0.000000 0.034553
#
#
# Mechanical properties :
#
#
# Convention : Reuss Voigt Hill
#
# Bulk Modulus (GPa) = 25.53892 42.93832 34.23862
# Shear Modulus (GPa) = 37.76353 17.54250 27.65301
#
# Velocity S-wave (km/s) = 4.02883 2.74592 3.44758
# Velocity P-wave (km/s) = 5.71131 5.33940 5.52848
#
# Compressibility (1/GPa) = 0.03915593
#
# Stress axis : x y z
#
# Youngs Moduli (GPa) = 61.62007 35.31213 126.93818
#
# Poissons Ratio (x) = -0.06308 0.50141
# Poissons Ratio (y) = -0.11008 0.56754
# Poissons Ratio (z) = 0.24340 0.15788
#
# Static dielectric constant tensor:
#      x y z
#    x 1.954410 0.000000 0.000000 
#    y 0.000000 1.919470 0.000000 
#    z 0.000000 0.000000 1.845120 
# 
# From -- ./inp_files/2929.got.cif
#   From: 2010.05.17/outbox.cif.g08.bks.cpg/sg19_2_cif.got.tgz:2929.got - 2010.06.03 22:46:19.
