data_PCOD9313403
_publ_section_title
;
Structure prediction by ZEFSAII (Michael W. Deem and Ramdas Pophale) SiO2 
 PCOD9313403
Probable space group: P 21 21 21
;
_chemical_formula_sum "Si O2"
_cell_formula_units_Z 32
_cell_length_a 12.975971
_cell_length_b 6.780300
_cell_length_c 22.371715
_cell_angle_alpha 90.000000
_cell_angle_beta 90.000000
_cell_angle_gamma 90.000000
_cell_volume 1968.285324
_symmetry_space_group_name_H-M "P 21 21 21"
_symmetry_group_IT_number 19
_symmetry_cell_setting 'orthorhombic'
loop_
_space_group_symop_operation_xyz
x,y,z
1/2-x,-y,1/2+z
1/2+x,1/2-y,-z
-x,1/2+y,1/2-z
loop_
_atom_site_type_symbol
_atom_site_label
_atom_site_fract_x
_atom_site_fract_y
_atom_site_fract_z
Si Si1 0.541962 0.805257 0.882612
Si Si2 0.599147 0.423201 0.812004
Si Si3 0.576896 0.417202 0.501737
Si Si4 0.305205 0.644795 0.596892
Si Si5 0.880662 0.995809 0.976066
Si Si6 0.587613 0.620320 0.691051
Si Si7 0.425067 0.748369 0.475334
Si Si8 0.204966 0.759184 0.424852
O O1 0.559532 0.590596 0.857086
O O2 0.491022 0.809479 0.947566
O O3 0.646064 0.933887 0.886036
O O4 0.466400 0.934472 0.841183
O O5 0.681694 0.290749 0.847404
O O6 0.633847 0.537720 0.752470
O O7 0.503173 0.278669 0.796731
O O8 0.629630 0.237918 0.467543
O O9 0.498209 0.557694 0.466452
O O10 0.656341 0.561552 0.535767
O O11 0.192664 0.611537 0.570177
O O12 0.377627 0.726041 0.542455
O O13 0.997727 0.068684 0.970481
O O14 0.839464 0.065922 0.041352
O O15 0.664195 0.714065 0.642177
O O16 0.327397 0.758790 0.432259
#
# Coordination Sequence:
#
# PCOD9313403 Si02
#       8
#     4   4   4   4   4   4   4   4
#     4   9  17  30  45  69  97 129 162 199 240 297
#     4  11  18  31  49  71 102 134 161 206 245 291
#     4   9  17  29  49  68  99 134 162 193 245 298
#     4   9  20  30  46  74 100 129 167 197 246 302
#     4  10  18  32  48  72 102 133 164 201 245 295
#     4  10  19  30  48  75 100 131 167 200 249 293
#     4   9  18  32  48  70 102 131 160 201 247 292
#     4   9  19  32  47  75 104 129 165 205 245 296
#
# _framework density 16.257805999999999
#
# number of rings (size 3 to 8) (size 9 to 14) (size 15 to 20)
#    0.000    2.500    1.250    3.750    0.000    6.000 
#    0.000    0.000    0.000    0.000    3.250    0.000 
#    0.000    0.000    0.000    0.000    0.000    0.000 
#
# Total GULP energy -178312.466303 kJ/mol
# GULP energy per Si atom -5572.264572 kJ/mol
# Density = 1.622080 g / cm^3
# Si number density = 16.257806 Si / 1000 Ang^3
#
#
#
# Elastic Constant Matrix: (Units=GPa)
#
#
# Indices 1 2 3 4 5 6 
#
# 1 66.6609 20.8549 24.5557 0.0000 0.0000 0.0000
# 2 20.8549 72.4836 19.5371 0.0000 0.0000 0.0000
# 3 24.5557 19.5371 66.0219 0.0000 0.0000 0.0000
# 4 0.0000 0.0000 0.0000 21.9608 0.0000 0.0000
# 5 0.0000 0.0000 0.0000 0.0000 17.8384 0.0000
# 6 0.0000 0.0000 0.0000 0.0000 0.0000 12.1253
#
#
#
# Elastic Compliance Matrix: (Units=1/GPa)
#
#
# Indices 1 2 3 4 5 6 
#
# 1 0.018262 -0.003720 -0.005691 0.000000 0.000000 0.000000
# 2 -0.003720 0.015750 -0.003277 0.000000 0.000000 0.000000
# 3 -0.005691 -0.003277 0.018233 0.000000 0.000000 0.000000
# 4 0.000000 0.000000 0.000000 0.045536 0.000000 0.000000
# 5 0.000000 0.000000 0.000000 0.000000 0.056059 0.000000
# 6 0.000000 0.000000 0.000000 0.000000 0.000000 0.082472
#
#
# Mechanical properties :
#
#
# Convention : Reuss Voigt Hill
#
# Bulk Modulus (GPa) = 37.21957 37.22909 37.22433
# Shear Modulus (GPa) = 18.47444 19.73280 19.10362
#
# Velocity S-wave (km/s) = 3.37463 3.48766 3.43161
# Velocity P-wave (km/s) = 6.17472 6.25838 6.21669
#
# Compressibility (1/GPa) = 0.02686759
#
# Stress axis : x y z
#
# Youngs Moduli (GPa) = 54.75969 63.49258 54.84577
#
# Poissons Ratio (x) = 0.23621 0.31214
# Poissons Ratio (y) = 0.20372 0.17973
# Poissons Ratio (z) = 0.31165 0.20807
#
# Static dielectric constant tensor:
#      x y z
#    x 1.541480 0.000000 0.000000 
#    y 0.000000 1.568620 0.000000 
#    z 0.000000 0.000000 1.558610 
# 
# From -- ./inp_files/5587.got.cif
#   From: 2010.05.17/outbox.cif.g08.bks.cpg/sg19_3_cif.got.tgz:5587.got - 2010.06.03 22:46:19.
