data_PCOD9313105
_publ_section_title
;
Structure prediction by ZEFSAII (Michael W. Deem and Ramdas Pophale) SiO2 
 PCOD9313105
Probable space group: P 21 21 2
;
_chemical_formula_sum "Si O2"
_cell_formula_units_Z 16
_cell_length_a 8.262640
_cell_length_b 9.575489
_cell_length_c 7.852837
_cell_angle_alpha 90.000000
_cell_angle_beta 90.000000
_cell_angle_gamma 90.000000
_cell_volume 621.307185
_symmetry_space_group_name_H-M "P 21 21 2"
_symmetry_group_IT_number 18
_symmetry_cell_setting 'orthorhombic'
loop_
_space_group_symop_operation_xyz
x,y,z
-x,-y,z
1/2+x,1/2-y,-z
1/2-x,1/2+y,-z
loop_
_atom_site_type_symbol
_atom_site_label
_atom_site_fract_x
_atom_site_fract_y
_atom_site_fract_z
Si Si1 0.940717 0.657292 0.707509
Si Si2 0.369821 0.877958 0.815314
Si Si3 0.871588 0.127188 0.497298
Si Si4 0.439652 0.344376 0.976651
O O1 0.036322 0.731035 0.550655
O O2 0.246883 0.351803 0.657028
O O3 0.993178 0.758820 0.859856
O O4 0.000000 0.500000 0.735574
O O5 0.253474 0.904904 0.654603
O O6 0.247863 0.861836 0.974791
O O7 0.500000 0.000000 0.835405
O O8 0.475728 0.737127 0.821195
O O9 0.000000 0.000000 0.481679
O O10 0.500000 0.500000 0.972355
#
# Coordination Sequence:
#
# PCOD9313105 Si02
#       4
#     4   4   4   4
#     4  11  23  42  68 103 142 184 234 293 357 434
#     4  11  23  44  72 101 141 189 238 299 359 422
#     4  11  25  46  71 106 144 186 239 298 361 430
#     4  11  25  44  67 102 143 187 239 294 357 428
#
# _framework density 25.752155999999999
#
# number of rings (size 3 to 8) (size 9 to 14) (size 15 to 20)
#    0.000    1.000    0.000    7.500    0.000    6.000 
#    0.000    5.000    0.000    0.000    0.000    0.000 
#    0.000    0.000    0.000    0.000    0.000    0.000 
#
# Total GULP energy -89647.823921 kJ/mol
# GULP energy per Si atom -5602.988995 kJ/mol
# Density = 2.569354 g / cm^3
# Si number density = 25.752156 Si / 1000 Ang^3
#
#
#
# Elastic Constant Matrix: (Units=GPa)
#
#
# Indices 1 2 3 4 5 6 
#
# 1 240.4524 96.6590 29.7842 0.0000 0.0000 0.0000
# 2 96.6590 242.3920 26.2543 0.0000 0.0000 0.0000
# 3 29.7842 26.2543 96.7485 0.0000 0.0000 0.0000
# 4 0.0000 0.0000 0.0000 26.0179 0.0000 0.0000
# 5 0.0000 0.0000 0.0000 0.0000 74.6116 0.0000
# 6 0.0000 0.0000 0.0000 0.0000 0.0000 76.9339
#
#
#
# Elastic Compliance Matrix: (Units=1/GPa)
#
#
# Indices 1 2 3 4 5 6 
#
# 1 0.005052 -0.001902 -0.001039 0.000000 0.000000 0.000000
# 2 -0.001902 0.004967 -0.000762 0.000000 0.000000 0.000000
# 3 -0.001039 -0.000762 0.010863 0.000000 0.000000 0.000000
# 4 0.000000 0.000000 0.000000 0.038435 0.000000 0.000000
# 5 0.000000 0.000000 0.000000 0.000000 0.013403 0.000000
# 6 0.000000 0.000000 0.000000 0.000000 0.000000 0.012998
#
#
# Mechanical properties :
#
#
# Convention : Reuss Voigt Hill
#
# Bulk Modulus (GPa) = 74.21330 98.33199 86.27264
# Shear Modulus (GPa) = 51.22105 63.97236 57.59671
#
# Velocity S-wave (km/s) = 4.46466 4.98954 4.73438
# Velocity P-wave (km/s) = 7.44704 8.45345 7.96616
#
# Compressibility (1/GPa) = 0.01347467
#
# Stress axis : x y z
#
# Youngs Moduli (GPa) = 197.93484 201.34452 92.05714
#
# Poissons Ratio (x) = 0.38298 0.09566
# Poissons Ratio (y) = 0.37649 0.07017
# Poissons Ratio (z) = 0.20568 0.15347
#
# Static dielectric constant tensor:
#      x y z
#    x 2.034860 0.000000 0.000000 
#    y 0.000000 1.876560 0.000000 
#    z 0.000000 0.000000 2.229290 
# 
# From -- ./inp_files/2727.got.cif
#   From: 2010.05.17/outbox.cif.g08.bks.cpg/sg18_2_cif.got.tgz:2727.got - 2010.06.03 22:40:56.
