data_PCOD9313597
_publ_section_title
;
Structure prediction by ZEFSAII (Michael W. Deem and Ramdas Pophale) SiO2 
 PCOD9313597
Probable space group: P 21 21 21
;
_chemical_formula_sum "Si O2"
_cell_formula_units_Z 28
_cell_length_a 14.095877
_cell_length_b 13.146543
_cell_length_c 8.586410
_cell_angle_alpha 90.000000
_cell_angle_beta 90.000000
_cell_angle_gamma 90.000000
_cell_volume 1591.165266
_symmetry_space_group_name_H-M "P 21 21 21"
_symmetry_group_IT_number 19
_symmetry_cell_setting 'orthorhombic'
loop_
_space_group_symop_operation_xyz
x,y,z
1/2-x,-y,1/2+z
1/2+x,1/2-y,-z
-x,1/2+y,1/2-z
loop_
_atom_site_type_symbol
_atom_site_label
_atom_site_fract_x
_atom_site_fract_y
_atom_site_fract_z
Si Si1 0.580649 0.796934 0.979198
Si Si2 0.801441 0.316105 0.726872
Si Si3 0.903885 0.613803 0.141028
Si Si4 0.449922 0.302973 0.865427
Si Si5 0.056670 0.908623 0.538546
Si Si6 0.206140 0.608486 0.584492
Si Si7 0.861381 0.989566 0.628415
O O1 0.466213 0.813528 0.974859
O O2 0.604500 0.781124 0.797708
O O3 0.622774 0.713536 0.093543
O O4 0.623058 0.904058 0.036781
O O5 0.705839 0.360697 0.654562
O O6 0.853529 0.388126 0.851005
O O7 0.776165 0.211559 0.817974
O O8 0.956520 0.638396 0.305005
O O9 0.922140 0.499786 0.081725
O O10 0.467398 0.195953 0.949244
O O11 0.385973 0.370039 0.978955
O O12 0.964985 0.940298 0.638387
O O13 0.292752 0.579733 0.474138
O O14 0.184085 0.519439 0.707218
#
# Coordination Sequence:
#
# PCOD9313597 Si02
#       7
#     4   4   4   4   4   4   4
#     4   8  19  37  57  80 117 147 196 236 286 346
#     4  10  20  39  57  86 118 155 195 242 295 352
#     4   9  20  39  60  81 121 155 193 241 288 359
#     4   9  19  39  58  83 115 158 188 245 292 346
#     4  10  21  37  58  84 120 152 197 243 293 354
#     4  10  20  35  60  83 118 146 195 246 293 348
#     4  10  19  36  56  87 111 149 196 243 289 347
#
# _framework density 17.597166999999999
#
# number of rings (size 3 to 8) (size 9 to 14) (size 15 to 20)
#    0.857    1.714    0.000    1.714    0.000    1.143 
#   12.857    0.000    0.000    0.000    0.000    0.000 
#    0.000    0.000    0.000    0.000    0.000    0.000 
#
# Total GULP energy -155877.728100 kJ/mol
# GULP energy per Si atom -5567.061718 kJ/mol
# Density = 1.755711 g / cm^3
# Si number density = 17.597167 Si / 1000 Ang^3
#
#
#
# Elastic Constant Matrix: (Units=GPa)
#
#
# Indices 1 2 3 4 5 6 
#
# 1 103.1155 47.4098 24.4987 0.0000 0.0000 0.0000
# 2 47.4098 43.3462 24.2091 0.0000 0.0000 0.0000
# 3 24.4987 24.2091 62.0320 0.0000 0.0000 0.0000
# 4 0.0000 0.0000 0.0000 17.9663 0.0000 0.0000
# 5 0.0000 0.0000 0.0000 0.0000 30.1286 0.0000
# 6 0.0000 0.0000 0.0000 0.0000 0.0000 11.2593
#
#
#
# Elastic Compliance Matrix: (Units=1/GPa)
#
#
# Indices 1 2 3 4 5 6 
#
# 1 0.019539 -0.021816 0.000797 0.000000 0.000000 0.000000
# 2 -0.021816 0.053858 -0.012403 0.000000 0.000000 0.000000
# 3 0.000797 -0.012403 0.020646 0.000000 0.000000 0.000000
# 4 0.000000 0.000000 0.000000 0.055660 0.000000 0.000000
# 5 0.000000 0.000000 0.000000 0.000000 0.033191 0.000000
# 6 0.000000 0.000000 0.000000 0.000000 0.000000 0.088816
#
#
# Mechanical properties :
#
#
# Convention : Reuss Voigt Hill
#
# Bulk Modulus (GPa) = 36.76453 44.52541 40.64497
# Shear Modulus (GPa) = 14.38353 19.36259 16.87306
#
# Velocity S-wave (km/s) = 2.86208 3.32071 3.09989
# Velocity P-wave (km/s) = 5.64444 6.32933 5.99667
#
# Compressibility (1/GPa) = 0.02720013
#
# Stress axis : x y z
#
# Youngs Moduli (GPa) = 51.18047 18.56723 48.43459
#
# Poissons Ratio (x) = 0.40506 -0.03862
# Poissons Ratio (y) = 1.11654 0.60075
# Poissons Ratio (z) = -0.04081 0.23030
#
# Static dielectric constant tensor:
#      x y z
#    x 1.590830 0.000000 0.000000 
#    y 0.000000 1.585330 0.000000 
#    z 0.000000 0.000000 1.600350 
# 
# From -- ./inp_files/3521.got.cif
#   From: 2010.05.17/outbox.cif.g08.bks.cpg/sg19_2_cif.got.tgz:3521.got - 2010.06.03 22:46:19.
