data_PCOD9313456
_publ_section_title
;
Structure prediction by ZEFSAII (Michael W. Deem and Ramdas Pophale) SiO2 
 PCOD9313456
Probable space group: P 21 21 21
;
_chemical_formula_sum "Si O2"
_cell_formula_units_Z 32
_cell_length_a 7.864205
_cell_length_b 8.626967
_cell_length_c 20.501381
_cell_angle_alpha 90.000000
_cell_angle_beta 90.000000
_cell_angle_gamma 90.000000
_cell_volume 1390.900552
_symmetry_space_group_name_H-M "P 21 21 21"
_symmetry_group_IT_number 19
_symmetry_cell_setting 'orthorhombic'
loop_
_space_group_symop_operation_xyz
x,y,z
1/2-x,-y,1/2+z
1/2+x,1/2-y,-z
-x,1/2+y,1/2-z
loop_
_atom_site_type_symbol
_atom_site_label
_atom_site_fract_x
_atom_site_fract_y
_atom_site_fract_z
Si Si1 0.973263 0.234426 0.747349
Si Si2 0.987224 0.014528 0.160589
Si Si3 0.869327 0.279511 0.246206
Si Si4 0.736935 0.458678 0.660234
Si Si5 0.500252 0.497530 0.984667
Si Si6 0.483505 0.303917 0.108335
Si Si7 0.243442 0.767351 0.954850
Si Si8 0.091945 0.537908 0.868555
O O1 0.172876 0.279546 0.755354
O O2 0.896522 0.195707 0.818977
O O3 0.852388 0.353002 0.708331
O O4 0.993895 0.087495 0.698910
O O5 0.987920 0.148877 0.214951
O O6 0.789312 0.975088 0.150553
O O7 0.035716 0.068517 0.087774
O O8 0.082446 0.860610 0.185745
O O9 0.883746 0.425489 0.197639
O O10 0.862489 0.578631 0.624077
O O11 0.658765 0.351809 0.604546
O O12 0.355313 0.630350 0.983185
O O13 0.434140 0.372408 0.037764
O O14 0.668664 0.596581 0.001631
O O15 0.531955 0.123897 0.102444
O O16 0.084742 0.678410 0.919828
#
# Coordination Sequence:
#
# PCOD9313456 Si02
#       8
#     4   4   4   4   4   4   4   4
#     4  10  20  38  69  95 123 167 223 272 312 376
#     4  11  25  43  62  97 138 168 208 274 342 386
#     4  11  24  40  65  96 129 171 215 264 332 385
#     4   9  19  38  68  89 124 166 217 270 318 372
#     4  10  23  43  63  89 130 172 217 260 328 395
#     4  10  18  36  61  93 120 162 213 263 310 375
#     4   9  21  41  65  86 124 171 209 261 325 388
#     4  10  20  41  65  95 128 165 216 276 321 377
#
# _framework density 23.006675999999999
#
# number of rings (size 3 to 8) (size 9 to 14) (size 15 to 20)
#    0.000    2.000    2.500    1.500    5.250    3.000 
#    2.250    5.000    0.000    0.000    0.000    0.000 
#    0.000    0.000    0.000    0.000    0.000    0.000 
#
# Total GULP energy -178267.972826 kJ/mol
# GULP energy per Si atom -5570.874151 kJ/mol
# Density = 2.295431 g / cm^3
# Si number density = 23.006676 Si / 1000 Ang^3
#
#
#
# Elastic Constant Matrix: (Units=GPa)
#
#
# Indices 1 2 3 4 5 6 
#
# 1 31.0574 5.1927 10.9267 0.0000 0.0000 0.0000
# 2 5.1927 88.8174 18.9118 0.0000 0.0000 0.0000
# 3 10.9267 18.9118 83.7553 0.0000 0.0000 0.0000
# 4 0.0000 0.0000 0.0000 -170.6732 0.0000 0.0000
# 5 0.0000 0.0000 0.0000 0.0000 19.1173 0.0000
# 6 0.0000 0.0000 0.0000 0.0000 0.0000 -99.9434
#
#
#
# Elastic Compliance Matrix: (Units=1/GPa)
#
#
# Indices 1 2 3 4 5 6 
#
# 1 0.033848 -0.001091 -0.004169 0.000000 0.000000 0.000000
# 2 -0.001091 0.011863 -0.002536 0.000000 0.000000 0.000000
# 3 -0.004169 -0.002536 0.013056 0.000000 0.000000 0.000000
# 4 0.000000 0.000000 0.000000 -0.005859 0.000000 0.000000
# 5 0.000000 0.000000 0.000000 0.000000 0.052309 0.000000
# 6 0.000000 0.000000 0.000000 0.000000 0.000000 -0.010006
#
#
# Mechanical properties :
#
#
# Convention : Reuss Voigt Hill
#
# Bulk Modulus (GPa) = 23.16248 30.41028 26.78638
# Shear Modulus (GPa) = 39.93759 -39.05995 0.43882
#
# Velocity S-wave (km/s) = 4.17095 -4.12487 0.43721
# Velocity P-wave (km/s) = 5.76934 3.07235 3.45297
#
# Compressibility (1/GPa) = 0.04317327
#
# Stress axis : x y z
#
# Youngs Moduli (GPa) = 29.54404 84.29645 76.59221
#
# Poissons Ratio (x) = 0.09198 0.31934
# Poissons Ratio (y) = 0.03224 0.19426
# Poissons Ratio (z) = 0.12318 0.21380
#
# Static dielectric constant tensor:
#      x y z
#    x 2.649520 0.000000 0.000000 
#    y 0.000000 1.894450 0.000000 
#    z 0.000000 0.000000 2.063050 
# 
# From -- ./inp_files/7076.got.cif
#   From: 2010.05.17/outbox.cif.g08.bks.cpg/sg19_4_cif.got.tgz:7076.got - 2010.06.03 22:46:19.
