data_PCOD9313938
_publ_section_title
;
Structure prediction by ZEFSAII (Michael W. Deem and Ramdas Pophale) SiO2 
 PCOD9313938
Probable space group: P 21 21 21
;
_chemical_formula_sum "Si O2"
_cell_formula_units_Z 24
_cell_length_a 12.527336
_cell_length_b 11.500348
_cell_length_c 7.209385
_cell_angle_alpha 90.000000
_cell_angle_beta 90.000000
_cell_angle_gamma 90.000000
_cell_volume 1038.646894
_symmetry_space_group_name_H-M "P 21 21 21"
_symmetry_group_IT_number 19
_symmetry_cell_setting 'orthorhombic'
loop_
_space_group_symop_operation_xyz
x,y,z
1/2-x,-y,1/2+z
1/2+x,1/2-y,-z
-x,1/2+y,1/2-z
loop_
_atom_site_type_symbol
_atom_site_label
_atom_site_fract_x
_atom_site_fract_y
_atom_site_fract_z
Si Si1 0.160995 0.934991 0.840524
Si Si2 0.650153 0.876284 0.865669
Si Si3 0.966975 0.804713 0.680524
Si Si4 0.840320 0.030778 0.748443
Si Si5 0.491221 0.909478 0.564686
Si Si6 0.198670 0.169807 0.616177
O O1 0.084884 0.850279 0.723662
O O2 0.188519 0.050217 0.727328
O O3 0.264374 0.868664 0.913383
O O4 0.091414 0.987782 0.014060
O O5 0.725230 0.983847 0.804264
O O6 0.536862 0.896024 0.769909
O O7 0.709648 0.757073 0.806252
O O8 0.654564 0.874865 0.087787
O O9 0.952756 0.714889 0.513090
O O10 0.900490 0.921574 0.656068
O O11 0.911411 0.739503 0.855683
O O12 0.907071 0.065048 0.929467
#
# Coordination Sequence:
#
# PCOD9313938 Si02
#       6
#     4   4   4   4   4   4
#     4  10  22  44  63  94 132 169 215 272 323 386
#     4  11  21  37  63  96 123 169 220 258 324 382
#     4   9  21  41  65  89 130 171 213 264 325 384
#     4  10  20  38  62  90 128 166 210 269 311 378
#     4  10  21  39  62  90 130 169 213 263 321 385
#     4  10  23  41  65  95 129 170 217 264 330 389
#
# _framework density 23.106985999999999
#
# number of rings (size 3 to 8) (size 9 to 14) (size 15 to 20)
#    0.000    2.000    1.667    1.000    2.333    1.333 
#    9.000    0.000    0.000    0.000    0.000    0.000 
#    0.000    0.000    0.000    0.000    0.000    0.000 
#
# Total GULP energy -134081.486062 kJ/mol
# GULP energy per Si atom -5586.728586 kJ/mol
# Density = 2.305439 g / cm^3
# Si number density = 23.106986 Si / 1000 Ang^3
#
#
#
# Elastic Constant Matrix: (Units=GPa)
#
#
# Indices 1 2 3 4 5 6 
#
# 1 50.2618 5.7316 12.6746 0.0000 0.0000 0.0000
# 2 5.7316 78.2752 13.3929 0.0000 0.0000 0.0000
# 3 12.6746 13.3929 44.0561 0.0000 0.0000 0.0000
# 4 0.0000 0.0000 0.0000 15.9853 0.0000 0.0000
# 5 0.0000 0.0000 0.0000 0.0000 34.9684 0.0000
# 6 0.0000 0.0000 0.0000 0.0000 0.0000 16.7053
#
#
#
# Elastic Compliance Matrix: (Units=1/GPa)
#
#
# Indices 1 2 3 4 5 6 
#
# 1 0.021474 -0.000544 -0.006013 0.000000 0.000000 0.000000
# 2 -0.000544 0.013490 -0.003945 0.000000 0.000000 0.000000
# 3 -0.006013 -0.003945 0.025627 0.000000 0.000000 0.000000
# 4 0.000000 0.000000 0.000000 0.062558 0.000000 0.000000
# 5 0.000000 0.000000 0.000000 0.000000 0.028597 0.000000
# 6 0.000000 0.000000 0.000000 0.000000 0.000000 0.059861
#
#
# Mechanical properties :
#
#
# Convention : Reuss Voigt Hill
#
# Bulk Modulus (GPa) = 25.25908 26.24349 25.75128
# Shear Modulus (GPa) = 20.34126 22.91806 21.62966
#
# Velocity S-wave (km/s) = 2.97022 3.15274 3.06284
# Velocity P-wave (km/s) = 4.76634 4.96337 4.86585
#
# Compressibility (1/GPa) = 0.03958973
#
# Stress axis : x y z
#
# Youngs Moduli (GPa) = 46.56786 74.12812 39.02097
#
# Poissons Ratio (x) = 0.04030 0.23462
# Poissons Ratio (y) = 0.02532 0.15392
# Poissons Ratio (z) = 0.28000 0.29240
#
# Static dielectric constant tensor:
#      x y z
#    x 1.886120 0.000000 0.000000 
#    y 0.000000 1.843440 0.000000 
#    z 0.000000 0.000000 1.912910 
# 
# From -- ./inp_files/3400.got.cif
#   From: 2010.05.17/outbox.cif.g08.bks.cpg/sg19_2_cif.got.tgz:3400.got - 2010.06.03 22:46:19.
