data_PCOD9313852
_publ_section_title
;
Structure prediction by ZEFSAII (Michael W. Deem and Ramdas Pophale) SiO2 
 PCOD9313852
Probable space group: P 21 21 21
;
_chemical_formula_sum "Si O2"
_cell_formula_units_Z 28
_cell_length_a 13.603945
_cell_length_b 18.971469
_cell_length_c 5.001732
_cell_angle_alpha 90.000000
_cell_angle_beta 90.000000
_cell_angle_gamma 90.000000
_cell_volume 1290.881111
_symmetry_space_group_name_H-M "P 21 21 21"
_symmetry_group_IT_number 19
_symmetry_cell_setting 'orthorhombic'
loop_
_space_group_symop_operation_xyz
x,y,z
1/2-x,-y,1/2+z
1/2+x,1/2-y,-z
-x,1/2+y,1/2-z
loop_
_atom_site_type_symbol
_atom_site_label
_atom_site_fract_x
_atom_site_fract_y
_atom_site_fract_z
Si Si1 0.867294 0.050031 0.773813
Si Si2 0.980245 0.324500 0.140850
Si Si3 0.360270 0.850343 0.865942
Si Si4 0.360266 0.149656 0.365915
Si Si5 0.249999 0.963985 0.153125
Si Si6 0.519750 0.324496 0.140822
Si Si7 0.132704 0.449972 0.226186
O O1 0.929924 0.121563 0.808183
O O2 0.749998 0.065937 0.784719
O O3 0.888905 0.008086 0.501488
O O4 0.888906 0.991918 0.001488
O O5 0.925378 0.309317 0.419663
O O6 0.070071 0.378442 0.191818
O O7 0.910716 0.359919 0.916581
O O8 0.999997 0.250002 0.000013
O O9 0.250002 0.819770 0.834150
O O10 0.410729 0.859918 0.583461
O O11 0.342167 0.923019 0.027322
O O12 0.425372 0.809314 0.080381
O O13 0.342166 0.076981 0.527308
O O14 0.250000 0.966289 0.470367
#
# Coordination Sequence:
#
# PCOD9313852 Si02
#       7
#     4   4   4   4   4   4   4
#     4  10  23  43  66  94 127 170 225 277 326 383
#     4  12  24  42  66  98 128 175 221 270 334 395
#     4  10  24  40  59  91 134 163 210 260 321 397
#     4  10  24  40  59  91 134 163 210 260 321 397
#     4  10  20  36  60  88 124 166 202 242 314 396
#     4  12  24  42  66  98 128 175 221 270 334 395
#     4  10  23  43  66  94 127 170 225 277 326 383
#
# _framework density 21.690614
#
# number of rings (size 3 to 8) (size 9 to 14) (size 15 to 20)
#    0.857    0.571    0.000    5.143    0.000    9.143 
#    0.000    2.857    0.000    0.000    0.000    0.000 
#    0.000    0.000    0.000    0.000    0.000    0.000 
#
# Total GULP energy -156149.870577 kJ/mol
# GULP energy per Si atom -5576.781092 kJ/mol
# Density = 2.164124 g / cm^3
# Si number density = 21.690614 Si / 1000 Ang^3
#
#
#
# Elastic Constant Matrix: (Units=GPa)
#
#
# Indices 1 2 3 4 5 6 
#
# 1 90.7470 25.9960 13.6889 0.0000 0.0000 0.0000
# 2 25.9960 55.4170 -29.4829 0.0000 0.0000 0.0000
# 3 13.6889 -29.4829 94.9020 0.0000 0.0000 0.0000
# 4 0.0000 0.0000 0.0000 27.5582 0.0000 0.0000
# 5 0.0000 0.0000 0.0000 0.0000 3875.9156 0.0000
# 6 0.0000 0.0000 0.0000 0.0000 0.0000 24.8878
#
#
#
# Elastic Compliance Matrix: (Units=1/GPa)
#
#
# Indices 1 2 3 4 5 6 
#
# 1 0.014494 -0.009478 -0.005035 0.000000 0.000000 0.000000
# 2 -0.009478 0.027816 0.010009 0.000000 0.000000 0.000000
# 3 -0.005035 0.010009 0.014373 0.000000 0.000000 0.000000
# 4 0.000000 0.000000 0.000000 0.036287 0.000000 0.000000
# 5 0.000000 0.000000 0.000000 0.000000 0.000258 0.000000
# 6 0.000000 0.000000 0.000000 0.000000 0.000000 0.040180
#
#
# Mechanical properties :
#
#
# Convention : Reuss Voigt Hill
#
# Bulk Modulus (GPa) = 20.97590 29.05222 25.01406
# Shear Modulus (GPa) = 31.58378 801.06326 416.32352
#
# Velocity S-wave (km/s) = 3.82003 19.23837 13.86917
# Velocity P-wave (km/s) = 5.39892 22.51466 16.37159
#
# Compressibility (1/GPa) = 0.04767375
#
# Stress axis : x y z
#
# Youngs Moduli (GPa) = 68.99223 35.95055 69.57560
#
# Poissons Ratio (x) = 0.34074 0.35033
# Poissons Ratio (y) = 0.65392 -0.69636
# Poissons Ratio (z) = 0.34739 -0.35982
#
# Static dielectric constant tensor:
#      x y z
#    x 1.789130 0.000000 0.000000 
#    y 0.000000 1.929640 0.000000 
#    z 0.000000 0.000000 1.777330 
# 
# From -- ./inp_files/1621.got.cif
#   From: 2010.05.17/outbox.cif.g08.bks.cpg/sg19_1_cif.got.tgz:1621.got - 2010.06.03 22:46:19.
