data_PCOD9313906
_publ_section_title
;
Structure prediction by ZEFSAII (Michael W. Deem and Ramdas Pophale) SiO2 
 PCOD9313906
Probable space group: P 21 21 21
;
_chemical_formula_sum "Si O2"
_cell_formula_units_Z 32
_cell_length_a 5.199185
_cell_length_b 8.883472
_cell_length_c 30.831152
_cell_angle_alpha 90.000000
_cell_angle_beta 90.000000
_cell_angle_gamma 90.000000
_cell_volume 1423.992694
_symmetry_space_group_name_H-M "P 21 21 21"
_symmetry_group_IT_number 19
_symmetry_cell_setting 'orthorhombic'
loop_
_space_group_symop_operation_xyz
x,y,z
1/2-x,-y,1/2+z
1/2+x,1/2-y,-z
-x,1/2+y,1/2-z
loop_
_atom_site_type_symbol
_atom_site_label
_atom_site_fract_x
_atom_site_fract_y
_atom_site_fract_z
Si Si1 0.585459 0.773001 0.862014
Si Si2 0.231739 0.783770 0.730590
Si Si3 0.532063 0.125613 0.853987
Si Si4 0.499037 0.069153 0.709417
Si Si5 0.565453 0.873472 0.101375
Si Si6 0.732235 0.233796 0.943908
Si Si7 0.228546 0.417343 0.970325
Si Si8 0.844000 0.857548 0.660820
O O1 0.664266 0.693421 0.816226
O O2 0.810658 0.726386 0.895056
O O3 0.308519 0.712359 0.877834
O O4 0.551995 0.948425 0.854556
O O5 0.364898 0.692425 0.691050
O O6 0.357821 0.948139 0.740110
O O7 0.273040 0.667100 0.769362
O O8 0.964133 0.825300 0.708025
O O9 0.689366 0.186173 0.894910
O O10 0.249771 0.200290 0.858487
O O11 0.595950 0.958572 0.671690
O O12 0.654444 0.929749 0.054084
O O13 0.508700 0.027819 0.129226
O O14 0.010503 0.301578 0.953698
O O15 0.508118 0.355657 0.955566
O O16 0.705321 0.095078 0.977790
#
# Coordination Sequence:
#
# PCOD9313906 Si02
#       8
#     4   4   4   4   4   4   4   4
#     4  11  25  40  62  92 130 170 211 261 322 386
#     4  11  22  41  64  85 126 164 214 265 320 383
#     4  11  24  40  61  95 122 169 214 270 318 390
#     4  10  23  39  57  91 118 162 212 261 318 377
#     4  11  21  42  64  89 127 170 213 255 325 386
#     4  10  21  36  64  97 127 157 219 266 319 375
#     4  10  20  37  65  96 123 166 210 270 313 386
#     4  10  22  39  65  85 121 168 213 264 321 377
#
# _framework density 22.472024999999999
#
# number of rings (size 3 to 8) (size 9 to 14) (size 15 to 20)
#    0.000    1.500    2.500    2.250    3.500    3.000 
#    2.250    1.250    0.000    0.000    0.000    0.000 
#    0.000    0.000    0.000    0.000    0.000    0.000 
#
# Total GULP energy -178498.696227 kJ/mol
# GULP energy per Si atom -5578.084257 kJ/mol
# Density = 2.242088 g / cm^3
# Si number density = 22.472025 Si / 1000 Ang^3
#
#
#
# Elastic Constant Matrix: (Units=GPa)
#
#
# Indices 1 2 3 4 5 6 
#
# 1 19.9885 91.4452 76.1130 0.0000 0.0000 0.0000
# 2 91.4452 34.7725 -111.7758 0.0000 0.0000 0.0000
# 3 76.1130 -111.7758 -91.6539 0.0000 0.0000 0.0000
# 4 0.0000 0.0000 0.0000 9.6992 0.0000 0.0000
# 5 0.0000 0.0000 0.0000 0.0000 26.2565 0.0000
# 6 0.0000 0.0000 0.0000 0.0000 0.0000 18.3616
#
#
#
# Elastic Compliance Matrix: (Units=1/GPa)
#
#
# Indices 1 2 3 4 5 6 
#
# 1 0.012021 0.000097 0.009865 0.000000 0.000000 0.000000
# 2 0.000097 0.005846 -0.007049 0.000000 0.000000 0.000000
# 3 0.009865 -0.007049 0.005878 0.000000 0.000000 0.000000
# 4 0.000000 0.000000 0.000000 0.103101 0.000000 0.000000
# 5 0.000000 0.000000 0.000000 0.000000 0.038086 0.000000
# 6 0.000000 0.000000 0.000000 0.000000 0.000000 0.054461
#
#
# Mechanical properties :
#
#
# Convention : Reuss Voigt Hill
#
# Bulk Modulus (GPa) = 33.81655 8.29687 21.05671
# Shear Modulus (GPa) = 22.37893 4.68512 13.53202
#
# Velocity S-wave (km/s) = 3.15914 1.44547 2.45658
# Velocity P-wave (km/s) = 5.32803 2.54676 4.17575
#
# Compressibility (1/GPa) = 0.02957132
#
# Stress axis : x y z
#
# Youngs Moduli (GPa) = 83.18456 171.06485 170.12852
#
# Poissons Ratio (x) = -0.01656 -1.67832
# Poissons Ratio (y) = -0.00805 1.19919
# Poissons Ratio (z) = -0.82062 1.20579
#
# Static dielectric constant tensor:
#      x y z
#    x 1.969070 0.000000 0.000000 
#    y 0.000000 1.820660 0.000000 
#    z 0.000000 0.000000 1.892990 
# 
# From -- ./inp_files/7541.got.cif
#   From: 2010.05.17/outbox.cif.g08.bks.cpg/sg19_4_cif.got.tgz:7541.got - 2010.06.03 22:46:19.
