data_PCOD9313406
_publ_section_title
;
Structure prediction by ZEFSAII (Michael W. Deem and Ramdas Pophale) SiO2 
 PCOD9313406
Probable space group: P 21 21 21
;
_chemical_formula_sum "Si O2"
_cell_formula_units_Z 32
_cell_length_a 7.995662
_cell_length_b 8.093449
_cell_length_c 23.325463
_cell_angle_alpha 90.000000
_cell_angle_beta 90.000000
_cell_angle_gamma 90.000000
_cell_volume 1509.448619
_symmetry_space_group_name_H-M "P 21 21 21"
_symmetry_group_IT_number 19
_symmetry_cell_setting 'orthorhombic'
loop_
_space_group_symop_operation_xyz
x,y,z
1/2-x,-y,1/2+z
1/2+x,1/2-y,-z
-x,1/2+y,1/2-z
loop_
_atom_site_type_symbol
_atom_site_label
_atom_site_fract_x
_atom_site_fract_y
_atom_site_fract_z
Si Si1 0.181538 0.421639 0.394341
Si Si2 0.185625 0.467595 0.007057
Si Si3 0.779505 0.417326 0.271315
Si Si4 0.315200 0.755511 0.339425
Si Si5 0.973126 0.920130 0.376841
Si Si6 0.072503 0.187858 0.302076
Si Si7 0.454659 0.257012 0.060652
Si Si8 0.313649 0.937936 0.610696
O O1 0.280359 0.411245 0.454141
O O2 0.260773 0.568447 0.355173
O O3 0.173725 0.261056 0.355432
O O4 0.987966 0.475130 0.406169
O O5 0.067285 0.499850 0.061336
O O6 0.361587 0.411257 0.033609
O O7 0.108596 0.304341 0.977052
O O8 0.675336 0.304167 0.227378
O O9 0.961993 0.330623 0.274246
O O10 0.735246 0.458061 0.336750
O O11 0.809137 0.593477 0.241451
O O12 0.480523 0.790279 0.375517
O O13 0.164414 0.865221 0.366201
O O14 0.870354 0.749395 0.372139
O O15 0.941497 0.056306 0.328656
O O16 0.327316 0.101104 0.064158
#
# Coordination Sequence:
#
# PCOD9313406 Si02
#       8
#     4   4   4   4   4   4   4   4
#     4   9  18  32  52  78 101 130 172 206 243 298
#     4  10  18  32  52  74 102 136 164 210 254 284
#     4  10  18  32  52  74 102 136 164 210 254 284
#     4   9  18  32  52  78 101 130 172 206 243 298
#     4   9  18  32  52  78 101 130 172 206 243 298
#     4  10  18  32  53  76 101 132 172 204 244 306
#     4  10  18  32  53  76 101 132 172 204 244 306
#     4   9  18  32  52  78 101 130 172 206 243 298
#
# _framework density 21.199794000000001
#
# number of rings (size 3 to 8) (size 9 to 14) (size 15 to 20)
#    0.000    2.500    0.000    6.000    0.000    0.000 
#    0.000   10.000    0.000   13.500    0.000    0.000 
#    0.000    0.000    0.000    0.000    0.000    0.000 
#
# Total GULP energy -178319.403316 kJ/mol
# GULP energy per Si atom -5572.481354 kJ/mol
# Density = 2.115154 g / cm^3
# Si number density = 21.199794 Si / 1000 Ang^3
#
#
#
# Elastic Constant Matrix: (Units=GPa)
#
#
# Indices 1 2 3 4 5 6 
#
# 1 24.9790 0.2451 -6.6105 0.0000 0.0000 0.0000
# 2 0.2451 29.0026 2.4396 0.0000 0.0000 0.0000
# 3 -6.6105 2.4396 68.3646 0.0000 0.0000 0.0000
# 4 0.0000 0.0000 0.0000 37.6573 0.0000 0.0000
# 5 0.0000 0.0000 0.0000 0.0000 32.1732 0.0000
# 6 0.0000 0.0000 0.0000 0.0000 0.0000 9.9444
#
#
#
# Elastic Compliance Matrix: (Units=1/GPa)
#
#
# Indices 1 2 3 4 5 6 
#
# 1 0.041098 -0.000684 0.003998 0.000000 0.000000 0.000000
# 2 -0.000684 0.034595 -0.001301 0.000000 0.000000 0.000000
# 3 0.003998 -0.001301 0.015060 0.000000 0.000000 0.000000
# 4 0.000000 0.000000 0.000000 0.026555 0.000000 0.000000
# 5 0.000000 0.000000 0.000000 0.000000 0.031082 0.000000
# 6 0.000000 0.000000 0.000000 0.000000 0.000000 0.100559
#
#
# Mechanical properties :
#
#
# Convention : Reuss Voigt Hill
#
# Bulk Modulus (GPa) = 10.55054 12.72164 11.63609
# Shear Modulus (GPa) = 18.08214 24.37310 21.22762
#
# Velocity S-wave (km/s) = 2.92368 3.39438 3.16779
# Velocity P-wave (km/s) = 4.04781 4.62345 4.34517
#
# Compressibility (1/GPa) = 0.09478189
#
# Stress axis : x y z
#
# Youngs Moduli (GPa) = 24.33184 28.90607 66.39892
#
# Poissons Ratio (x) = 0.01976 -0.26549
# Poissons Ratio (y) = 0.01664 0.08636
# Poissons Ratio (z) = -0.09729 0.03760
#
# Static dielectric constant tensor:
#      x y z
#    x 1.780880 0.000000 0.000000 
#    y 0.000000 1.787470 0.000000 
#    z 0.000000 0.000000 1.817840 
# 
# From -- ./inp_files/7373.got.cif
#   From: 2010.05.17/outbox.cif.g08.bks.cpg/sg19_4_cif.got.tgz:7373.got - 2010.06.03 22:46:19.
