data_PCOD9313027
_publ_section_title
;
Structure prediction by ZEFSAII (Michael W. Deem and Ramdas Pophale) SiO2 
 PCOD9313027
Probable space group: P 21 21 2
;
_chemical_formula_sum "Si O2"
_cell_formula_units_Z 32
_cell_length_a 10.977844
_cell_length_b 9.226208
_cell_length_c 15.902944
_cell_angle_alpha 90.000000
_cell_angle_beta 90.000000
_cell_angle_gamma 90.000000
_cell_volume 1610.711747
_symmetry_space_group_name_H-M "P 21 21 2"
_symmetry_group_IT_number 18
_symmetry_cell_setting 'orthorhombic'
loop_
_space_group_symop_operation_xyz
x,y,z
-x,-y,z
1/2+x,1/2-y,-z
1/2-x,1/2+y,-z
loop_
_atom_site_type_symbol
_atom_site_label
_atom_site_fract_x
_atom_site_fract_y
_atom_site_fract_z
Si Si1 0.708005 0.043613 0.866110
Si Si2 0.550149 0.142567 0.280941
Si Si3 0.623564 0.584608 0.974715
Si Si4 0.772923 0.731789 0.860799
Si Si5 0.463207 0.841877 0.997869
Si Si6 0.132682 0.062605 0.536670
Si Si7 0.112508 0.914530 0.719064
Si Si8 0.876777 0.587905 0.534398
O O1 0.597119 0.133712 0.905755
O O2 0.777440 0.102545 0.784275
O O3 0.690181 0.873572 0.848554
O O4 0.797517 0.038392 0.946560
O O5 0.647733 0.216428 0.221636
O O6 0.444681 0.258203 0.303466
O O7 0.612895 0.084427 0.364888
O O8 0.500000 0.000000 0.235371
O O9 0.500000 0.500000 0.966722
O O10 0.694576 0.592197 0.887175
O O11 0.583681 0.748058 0.994948
O O12 0.867813 0.733576 0.939369
O O13 0.500000 0.000000 0.029002
O O14 0.128721 0.236601 0.519233
O O15 0.140220 0.010301 0.635598
O O16 0.253065 0.990213 0.496070
O O17 0.000000 0.000000 0.508955
O O18 0.000000 0.000000 0.763492
O O19 0.000000 0.500000 0.504044
#
# Coordination Sequence:
#
# PCOD9313027 Si02
#       8
#     4   4   4   4   4   4   4   4
#     4  11  21  35  61  82 111 157 202 250 298 356
#     4  11  23  39  63  95 120 154 201 263 307 358
#     4  11  22  36  55  79 117 155 196 246 301 353
#     4  11  21  36  59  84 112 155 203 247 302 360
#     4  11  22  35  52  82 114 154 196 246 298 353
#     4  11  22  41  68 100 130 172 209 263 321 387
#     4  11  20  39  65  89 118 155 208 254 305 366
#     4  11  23  41  69  98 135 167 212 263 321 387
#
# _framework density 19.866993000000001
#
# number of rings (size 3 to 8) (size 9 to 14) (size 15 to 20)
#    0.000    1.000    6.250    2.250    1.750    1.000 
#    0.000    1.250    2.750    0.000    0.000    0.000 
#    0.000    0.000    0.000    0.000    0.000    0.000 
#
# Total GULP energy -178288.705799 kJ/mol
# GULP energy per Si atom -5571.522056 kJ/mol
# Density = 1.982177 g / cm^3
# Si number density = 19.866993 Si / 1000 Ang^3
#
#
#
# Elastic Constant Matrix: (Units=GPa)
#
#
# Indices 1 2 3 4 5 6 
#
# 1 97.0508 32.1897 32.7008 0.0000 0.0000 0.0000
# 2 32.1897 115.5627 15.9983 0.0000 0.0000 0.0000
# 3 32.7008 15.9983 65.3298 0.0000 0.0000 0.0000
# 4 0.0000 0.0000 0.0000 -37.5601 0.0000 0.0000
# 5 0.0000 0.0000 0.0000 0.0000 36.8557 0.0000
# 6 0.0000 0.0000 0.0000 0.0000 0.0000 32.1314
#
#
#
# Elastic Compliance Matrix: (Units=1/GPa)
#
#
# Indices 1 2 3 4 5 6 
#
# 1 0.013255 -0.002871 -0.005932 0.000000 0.000000 0.000000
# 2 -0.002871 0.009579 -0.000909 0.000000 0.000000 0.000000
# 3 -0.005932 -0.000909 0.018499 0.000000 0.000000 0.000000
# 4 0.000000 0.000000 0.000000 -0.026624 0.000000 0.000000
# 5 0.000000 0.000000 0.000000 0.000000 0.027133 0.000000
# 6 0.000000 0.000000 0.000000 0.000000 0.000000 0.031122
#
#
# Mechanical properties :
#
#
# Convention : Reuss Voigt Hill
#
# Bulk Modulus (GPa) = 45.64194 48.85788 47.24991
# Shear Modulus (GPa) = 50.15615 19.42238 34.78926
#
# Velocity S-wave (km/s) = 5.02999 3.13008 4.18916
# Velocity P-wave (km/s) = 7.53379 6.14077 6.87267
#
# Compressibility (1/GPa) = 0.02190968
#
# Stress axis : x y z
#
# Youngs Moduli (GPa) = 75.44471 104.39731 54.05837
#
# Poissons Ratio (x) = 0.29972 0.32065
# Poissons Ratio (y) = 0.21660 0.04912
# Poissons Ratio (z) = 0.44751 0.09486
#
# Static dielectric constant tensor:
#      x y z
#    x 1.807890 0.000000 0.000000 
#    y 0.000000 1.776430 0.000000 
#    z 0.000000 0.000000 1.700260 
# 
# From -- ./inp_files/6938.got.cif
#   From: 2010.05.17/outbox.cif.g08.bks.cpg/sg18_4_cif.got.tgz:6938.got - 2010.06.03 22:40:56.
