data_PCOD9313162
_publ_section_title
;
Structure prediction by ZEFSAII (Michael W. Deem and Ramdas Pophale) SiO2 
 PCOD9313162
Probable space group: P 21 21 2
;
_chemical_formula_sum "Si O2"
_cell_formula_units_Z 24
_cell_length_a 9.799011
_cell_length_b 18.600410
_cell_length_c 5.147838
_cell_angle_alpha 90.000000
_cell_angle_beta 90.000000
_cell_angle_gamma 90.000000
_cell_volume 938.273896
_symmetry_space_group_name_H-M "P 21 21 2"
_symmetry_group_IT_number 18
_symmetry_cell_setting 'orthorhombic'
loop_
_space_group_symop_operation_xyz
x,y,z
-x,-y,z
1/2+x,1/2-y,-z
1/2-x,1/2+y,-z
loop_
_atom_site_type_symbol
_atom_site_label
_atom_site_fract_x
_atom_site_fract_y
_atom_site_fract_z
Si Si1 0.509525 0.094814 0.444828
Si Si2 0.381278 0.761142 0.552811
Si Si3 0.246853 0.056533 0.714542
Si Si4 0.790495 0.031419 0.231645
Si Si5 0.621081 0.689836 0.732146
Si Si6 0.180478 0.684791 0.947080
O O1 0.567345 0.158907 0.625382
O O2 0.413256 0.131644 0.225364
O O3 0.363958 0.942937 0.303194
O O4 0.404641 0.053007 0.627762
O O5 0.091037 0.752486 0.043660
O O6 0.274076 0.784333 0.334070
O O7 0.294920 0.717865 0.762035
O O8 0.244997 0.137481 0.828103
O O9 0.209160 0.005807 0.953574
O O10 0.171094 0.025903 0.458248
O O11 0.876597 0.105183 0.224010
O O12 0.514658 0.712675 0.509791
#
# Coordination Sequence:
#
# PCOD9313162 Si02
#       6
#     4   4   4   4   4   4
#     4  11  25  43  75 112 150 197 255 326 385 455
#     4  11  24  47  73 112 150 201 259 319 379 462
#     4  12  25  47  71 112 151 205 248 326 386 463
#     4  11  29  43  76 111 155 193 263 317 395 459
#     4  11  27  46  77 112 151 204 260 325 382 466
#     4  12  25  45  75 110 153 201 255 319 394 456
#
# _framework density 25.578883000000001
#
# number of rings (size 3 to 8) (size 9 to 14) (size 15 to 20)
#    0.000    0.667    5.000    0.500   14.000    0.000 
#    0.000    0.833    3.667    0.000    0.000    0.000 
#    0.000    0.000    0.000    0.000    0.000    0.000 
#
# Total GULP energy -134122.328793 kJ/mol
# GULP energy per Si atom -5588.430366 kJ/mol
# Density = 2.552066 g / cm^3
# Si number density = 25.578883 Si / 1000 Ang^3
#
#
#
# Elastic Constant Matrix: (Units=GPa)
#
#
# Indices 1 2 3 4 5 6 
#
# 1 43.7737 20.5990 11.2696 0.0000 0.0000 0.0000
# 2 20.5990 101.9513 40.4224 0.0000 0.0000 0.0000
# 3 11.2696 40.4224 129.1500 0.0000 0.0000 0.0000
# 4 0.0000 0.0000 0.0000 35.0197 0.0000 0.0000
# 5 0.0000 0.0000 0.0000 0.0000 21.3412 0.0000
# 6 0.0000 0.0000 0.0000 0.0000 0.0000 51.7217
#
#
#
# Elastic Compliance Matrix: (Units=1/GPa)
#
#
# Indices 1 2 3 4 5 6 
#
# 1 0.025299 -0.004837 -0.000694 0.000000 0.000000 0.000000
# 2 -0.004837 0.012123 -0.003372 0.000000 0.000000 0.000000
# 3 -0.000694 -0.003372 0.008859 0.000000 0.000000 0.000000
# 4 0.000000 0.000000 0.000000 0.028555 0.000000 0.000000
# 5 0.000000 0.000000 0.000000 0.000000 0.046858 0.000000
# 6 0.000000 0.000000 0.000000 0.000000 0.000000 0.019334
#
#
# Mechanical properties :
#
#
# Convention : Reuss Voigt Hill
#
# Bulk Modulus (GPa) = 35.11745 46.60634 40.86190
# Shear Modulus (GPa) = 29.70426 35.12211 32.41319
#
# Velocity S-wave (km/s) = 3.41145 3.70954 3.56362
# Velocity P-wave (km/s) = 5.41075 6.05044 5.73951
#
# Compressibility (1/GPa) = 0.02847587
#
# Stress axis : x y z
#
# Youngs Moduli (GPa) = 39.52662 82.48858 112.88001
#
# Poissons Ratio (x) = 0.39896 0.07832
# Poissons Ratio (y) = 0.19117 0.38066
# Poissons Ratio (z) = 0.02742 0.27817
#
# Static dielectric constant tensor:
#      x y z
#    x 2.060500 0.000000 0.000000 
#    y 0.000000 2.144810 0.000000 
#    z 0.000000 0.000000 2.087130 
# 
# From -- ./inp_files/1126.got.cif
#   From: 2010.05.17/outbox.cif.g08.bks.cpg/sg18_1_cif.got.tgz:1126.got - 2010.06.03 22:40:56.
