data_PCOD9313337
_publ_section_title
;
Structure prediction by ZEFSAII (Michael W. Deem and Ramdas Pophale) SiO2 
 PCOD9313337
Probable space group: P 21 21 21
;
_chemical_formula_sum "Si O2"
_cell_formula_units_Z 28
_cell_length_a 13.498526
_cell_length_b 17.047981
_cell_length_c 4.885804
_cell_angle_alpha 90.000000
_cell_angle_beta 90.000000
_cell_angle_gamma 90.000000
_cell_volume 1124.333992
_symmetry_space_group_name_H-M "P 21 21 21"
_symmetry_group_IT_number 19
_symmetry_cell_setting 'orthorhombic'
loop_
_space_group_symop_operation_xyz
x,y,z
1/2-x,-y,1/2+z
1/2+x,1/2-y,-z
-x,1/2+y,1/2-z
loop_
_atom_site_type_symbol
_atom_site_label
_atom_site_fract_x
_atom_site_fract_y
_atom_site_fract_z
Si Si1 0.121173 0.983388 0.295956
Si Si2 0.812563 0.073116 0.656335
Si Si3 0.822675 0.585088 0.708389
Si Si4 0.784143 0.805052 0.489615
Si Si5 0.582252 0.973387 0.652787
Si Si6 0.111011 0.245675 0.520235
Si Si7 0.085980 0.694572 0.183483
O O1 0.156422 0.054044 0.095196
O O2 0.203320 0.916415 0.252352
O O3 0.131963 0.016705 0.600449
O O4 0.005768 0.969846 0.234537
O O5 0.821892 0.037352 0.352348
O O6 0.871238 0.155160 0.591982
O O7 0.724796 0.112510 0.828349
O O8 0.877896 0.018466 0.850079
O O9 0.870704 0.664830 0.815107
O O10 0.820354 0.748117 0.249146
O O11 0.680134 0.781494 0.634682
O O12 0.857851 0.808481 0.749276
O O13 0.540485 0.883625 0.673224
O O14 0.000453 0.252224 0.402298
#
# Coordination Sequence:
#
# PCOD9313337 Si02
#       7
#     4   4   4   4   4   4   4
#     4  10  17  30  42  68  94 124 173 201 221 288
#     4   9  17  31  43  64  89 116 165 209 234 270
#     4  10  20  28  43  67  98 126 172 198 230 294
#     4  11  22  32  45  73  93 123 184 218 227 293
#     4   9  15  26  48  59  86 124 160 189 243 274
#     4  12  21  31  52  67  97 142 169 198 258 288
#     4   9  20  32  49  64  95 125 175 201 247 287
#
# _framework density 24.903632999999999
#
# number of rings (size 3 to 8) (size 9 to 14) (size 15 to 20)
#    0.857    1.143    2.857    2.571    4.000    0.000 
#    0.000    0.000    0.000    0.000    0.000    0.000 
#    0.000    0.000    0.000   25.714   34.857    0.429 
#
# Total GULP energy -156088.745865 kJ/mol
# GULP energy per Si atom -5574.598067 kJ/mol
# Density = 2.484695 g / cm^3
# Si number density = 24.903633 Si / 1000 Ang^3
#
#
#
# Elastic Constant Matrix: (Units=GPa)
#
#
# Indices 1 2 3 4 5 6 
#
# 1 104.2588 19.1179 7.4717 0.0000 0.0000 0.0000
# 2 19.1179 42.7394 13.6725 0.0000 0.0000 0.0000
# 3 7.4717 13.6725 98.3030 0.0000 0.0000 0.0000
# 4 0.0000 0.0000 0.0000 -37.2975 0.0000 0.0000
# 5 0.0000 0.0000 0.0000 0.0000 53.8504 0.0000
# 6 0.0000 0.0000 0.0000 0.0000 0.0000 31.9841
#
#
#
# Elastic Compliance Matrix: (Units=1/GPa)
#
#
# Indices 1 2 3 4 5 6 
#
# 1 0.010451 -0.004626 -0.000151 0.000000 0.000000 0.000000
# 2 -0.004626 0.026535 -0.003339 0.000000 0.000000 0.000000
# 3 -0.000151 -0.003339 0.010649 0.000000 0.000000 0.000000
# 4 0.000000 0.000000 0.000000 -0.026811 0.000000 0.000000
# 5 0.000000 0.000000 0.000000 0.000000 0.018570 0.000000
# 6 0.000000 0.000000 0.000000 0.000000 0.000000 0.031266
#
#
# Mechanical properties :
#
#
# Convention : Reuss Voigt Hill
#
# Bulk Modulus (GPa) = 31.84531 36.20280 34.02405
# Shear Modulus (GPa) = 51.35658 23.37665 37.36661
#
# Velocity S-wave (km/s) = 4.54609 3.06712 3.87776
# Velocity P-wave (km/s) = 6.35382 5.20689 5.80873
#
# Compressibility (1/GPa) = 0.03140180
#
# Stress axis : x y z
#
# Youngs Moduli (GPa) = 95.68757 37.68569 93.90990
#
# Poissons Ratio (x) = 0.17435 0.01417
# Poissons Ratio (y) = 0.44269 0.31357
# Poissons Ratio (z) = 0.01443 0.12583
#
# Static dielectric constant tensor:
#      x y z
#    x 2.089340 0.000000 0.000000 
#    y 0.000000 2.033680 0.000000 
#    z 0.000000 0.000000 1.937450 
# 
# From -- ./inp_files/1138.got.cif
#   From: 2010.05.17/outbox.cif.g08.bks.cpg/sg19_1_cif.got.tgz:1138.got - 2010.06.03 22:46:19.
