data_PCOD9313279
_publ_section_title
;
Structure prediction by ZEFSAII (Michael W. Deem and Ramdas Pophale) SiO2 
 PCOD9313279
Probable space group: P 21 21 2
;
_chemical_formula_sum "Si O2"
_cell_formula_units_Z 20
_cell_length_a 9.000000
_cell_length_b 9.000000
_cell_length_c 12.000000
_cell_angle_alpha 90.000000
_cell_angle_beta 90.000000
_cell_angle_gamma 90.000000
_cell_volume 972.000000
_symmetry_space_group_name_H-M "P 21 21 2"
_symmetry_group_IT_number 18
_symmetry_cell_setting 'orthorhombic'
loop_
_space_group_symop_operation_xyz
x,y,z
-x,-y,z
1/2+x,1/2-y,-z
1/2-x,1/2+y,-z
loop_
_atom_site_type_symbol
_atom_site_label
_atom_site_fract_x
_atom_site_fract_y
_atom_site_fract_z
Si Si1 0.266108 0.409300 0.416776
Si Si2 0.089025 0.237496 0.599429
Si Si3 0.669216 0.237659 0.150972
Si Si4 0.832339 0.550357 0.175225
Si Si5 0.905307 0.151720 0.984314
O O1 0.157691 0.355821 0.514257
O O2 0.416344 0.308861 0.415123
O O3 0.321847 0.580937 0.420158
O O4 0.177166 0.392757 0.300995
O O5 0.116197 0.298577 0.724546
O O6 0.727421 0.406258 0.164407
O O7 0.527649 0.234423 0.066800
O O8 0.817822 0.162620 0.101451
O O9 0.737333 0.660701 0.098194
O O10 0.000000 0.500000 0.146525
O O11 0.000000 0.000000 0.986173
#
# Coordination Sequence:
#
# PCOD9313279 Si02
#       5
#     4   4   4   4   4
#     4  10  22  40  64  89 123 161 206 258 309 371
#     4  10  22  41  61  92 124 161 206 258 310 370
#     4  10  20  38  60  85 125 159 201 257 308 368
#     4  10  20  36  62  88 116 163 208 245 313 372
#     4  10  20  38  62  89 124 160 207 258 308 371
#
# _framework density 20.576132000000001
#
# number of rings (size 3 to 8) (size 9 to 14) (size 15 to 20)
#    0.000    2.000    2.000    1.200    5.600    0.000 
#    3.600    2.000    8.800    0.000    0.000    0.000 
#    0.000    0.000    0.000    0.000    0.000    0.000 
#
# Total GULP energy -111419.143228 kJ/mol
# GULP energy per Si atom -5570.957161 kJ/mol
# Density = 2.052930 g / cm^3
# Si number density = 20.576132 Si / 1000 Ang^3
#
#
#
# Elastic Constant Matrix: (Units=GPa)
#
#
# Indices 1 2 3 4 5 6 
#
# 1 130.6486 24.7876 76.8625 0.0000 0.0000 0.0000
# 2 24.7876 14.6475 25.0780 0.0000 0.0000 0.0000
# 3 76.8625 25.0780 104.9331 0.0000 0.0000 0.0000
# 4 0.0000 0.0000 0.0000 22.0031 0.0000 0.0000
# 5 0.0000 0.0000 0.0000 0.0000 -34.7722 0.0000
# 6 0.0000 0.0000 0.0000 0.0000 0.0000 32.5482
#
#
#
# Elastic Compliance Matrix: (Units=1/GPa)
#
#
# Indices 1 2 3 4 5 6 
#
# 1 0.014370 -0.010658 -0.007979 0.000000 0.000000 0.000000
# 2 -0.010658 0.123456 -0.021698 0.000000 0.000000 0.000000
# 3 -0.007979 -0.021698 0.020560 0.000000 0.000000 0.000000
# 4 0.000000 0.000000 0.000000 0.045448 0.000000 0.000000
# 5 0.000000 0.000000 0.000000 0.000000 -0.028759 0.000000
# 6 0.000000 0.000000 0.000000 0.000000 0.000000 0.030724
#
#
# Mechanical properties :
#
#
# Convention : Reuss Voigt Hill
#
# Bulk Modulus (GPa) = 12.86722 55.96508 34.41615
# Shear Modulus (GPa) = 16.00636 12.18922 14.09779
#
# Velocity S-wave (km/s) = 2.79213 2.43656 2.62038
# Velocity P-wave (km/s) = 4.08187 5.93075 5.09095
#
# Compressibility (1/GPa) = 0.07771689
#
# Stress axis : x y z
#
# Youngs Moduli (GPa) = 69.58760 8.10002 48.63769
#
# Poissons Ratio (x) = 0.08633 0.38808
# Poissons Ratio (y) = 0.74164 1.05536
# Poissons Ratio (z) = 0.55525 0.17576
#
# Static dielectric constant tensor:
#      x y z
#    x 1.715270 0.000000 0.000000 
#    y 0.000000 1.789890 0.000000 
#    z 0.000000 0.000000 1.790730 
# 
# From -- ./inp_files/2937.got.cif
#   From: 2010.05.17/outbox.ucp.g08.bks.cvg/sg18_2_cif.got.tgz:2937.got - 2010.06.11 13:13:23.
