data_PCOD9313237
_publ_section_title
;
Structure prediction by ZEFSAII (Michael W. Deem and Ramdas Pophale) SiO2 
 PCOD9313237
Probable space group: P 21 21 2
;
_chemical_formula_sum "Si O2"
_cell_formula_units_Z 16
_cell_length_a 5.220346
_cell_length_b 11.901977
_cell_length_c 10.027732
_cell_angle_alpha 90.000000
_cell_angle_beta 90.000000
_cell_angle_gamma 90.000000
_cell_volume 623.047437
_symmetry_space_group_name_H-M "P 21 21 2"
_symmetry_group_IT_number 18
_symmetry_cell_setting 'orthorhombic'
loop_
_space_group_symop_operation_xyz
x,y,z
-x,-y,z
1/2+x,1/2-y,-z
1/2-x,1/2+y,-z
loop_
_atom_site_type_symbol
_atom_site_label
_atom_site_fract_x
_atom_site_fract_y
_atom_site_fract_z
Si Si1 0.000000 0.500000 0.959731
Si Si2 0.871497 0.877921 0.215825
Si Si3 0.779544 0.300411 0.281703
Si Si4 0.500000 0.500000 0.135609
Si Si5 0.054691 0.627019 0.549761
O O1 0.111467 0.601997 0.868248
O O2 0.245843 0.470033 0.049987
O O3 0.820479 0.855046 0.372193
O O4 0.050714 0.772895 0.179048
O O5 0.000000 0.000000 0.205883
O O6 0.589405 0.390541 0.217113
O O7 0.947157 0.366202 0.391371
O O8 0.629947 0.212879 0.376088
O O9 0.000000 0.500000 0.588330
#
# Coordination Sequence:
#
# PCOD9313237 Si02
#       5
#     2   4   4   2   4
#     4  12  28  62  82 116 180 238 304 354 420 540
#     4  12  24  53  83 121 166 231 288 352 435 532
#     4  12  29  49  86 129 175 225 285 375 448 527
#     4  12  34  56  84 130 180 232 300 372 436 514
#     4  12  26  46  82 123 171 217 281 361 454 532
#
# _framework density 25.680230000000002
#
# number of rings (size 3 to 8) (size 9 to 14) (size 15 to 20)
#    0.000    0.000    7.500    0.000   10.500    0.000 
#    9.000    0.000    0.000    0.000    0.000    0.000 
#    0.000    0.000    0.000    0.000    0.000    0.000 
#
# Total GULP energy -89484.786462 kJ/mol
# GULP energy per Si atom -5592.799154 kJ/mol
# Density = 2.562178 g / cm^3
# Si number density = 25.680230 Si / 1000 Ang^3
#
#
#
# Elastic Constant Matrix: (Units=GPa)
#
#
# Indices 1 2 3 4 5 6 
#
# 1 156.0121 76.8522 68.9034 0.0000 0.0000 0.0000
# 2 76.8522 169.0935 62.7151 0.0000 0.0000 0.0000
# 3 68.9034 62.7151 112.0072 0.0000 0.0000 0.0000
# 4 0.0000 0.0000 0.0000 19.0762 0.0000 0.0000
# 5 0.0000 0.0000 0.0000 0.0000 50.3925 0.0000
# 6 0.0000 0.0000 0.0000 0.0000 0.0000 59.1154
#
#
#
# Elastic Compliance Matrix: (Units=1/GPa)
#
#
# Indices 1 2 3 4 5 6 
#
# 1 0.009738 -0.002782 -0.004433 0.000000 0.000000 0.000000
# 2 -0.002782 0.008259 -0.002913 0.000000 0.000000 0.000000
# 3 -0.004433 -0.002913 0.013286 0.000000 0.000000 0.000000
# 4 0.000000 0.000000 0.000000 0.052421 0.000000 0.000000
# 5 0.000000 0.000000 0.000000 0.000000 0.019844 0.000000
# 6 0.000000 0.000000 0.000000 0.000000 0.000000 0.016916
#
#
# Mechanical properties :
#
#
# Convention : Reuss Voigt Hill
#
# Bulk Modulus (GPa) = 90.68354 94.89490 92.78922
# Shear Modulus (GPa) = 34.62730 40.95963 37.79346
#
# Velocity S-wave (km/s) = 3.67604 3.99806 3.84043
# Velocity P-wave (km/s) = 7.30801 7.63842 7.47504
#
# Compressibility (1/GPa) = 0.01102736
#
# Stress axis : x y z
#
# Youngs Moduli (GPa) = 102.69227 121.08711 75.26737
#
# Poissons Ratio (x) = 0.33683 0.33365
# Poissons Ratio (y) = 0.28566 0.21925
# Poissons Ratio (z) = 0.45522 0.35271
#
# Static dielectric constant tensor:
#      x y z
#    x 2.209620 0.000000 0.000000 
#    y 0.000000 1.751420 0.000000 
#    z 0.000000 0.000000 2.092670 
# 
# From -- ./inp_files/4950.got.cif
#   From: 2010.05.17/outbox.cif.g08.bks.cpg/sg18_3_cif.got.tgz:4950.got - 2010.06.03 22:40:56.
