data_PCOD9313904
_publ_section_title
;
Structure prediction by ZEFSAII (Michael W. Deem and Ramdas Pophale) SiO2 
 PCOD9313904
Probable space group: P 21 21 21
;
_chemical_formula_sum "Si O2"
_cell_formula_units_Z 28
_cell_length_a 13.346333
_cell_length_b 17.918539
_cell_length_c 5.279708
_cell_angle_alpha 90.000000
_cell_angle_beta 90.000000
_cell_angle_gamma 90.000000
_cell_volume 1262.625212
_symmetry_space_group_name_H-M "P 21 21 21"
_symmetry_group_IT_number 19
_symmetry_cell_setting 'orthorhombic'
loop_
_space_group_symop_operation_xyz
x,y,z
1/2-x,-y,1/2+z
1/2+x,1/2-y,-z
-x,1/2+y,1/2-z
loop_
_atom_site_type_symbol
_atom_site_label
_atom_site_fract_x
_atom_site_fract_y
_atom_site_fract_z
Si Si1 0.661698 0.725643 0.198826
Si Si2 0.958435 0.383073 0.385584
Si Si3 0.133349 0.460930 0.640773
Si Si4 0.290229 0.798820 0.299024
Si Si5 0.239771 0.954857 0.349999
Si Si6 0.700462 0.884002 0.167180
Si Si7 0.894574 0.834783 0.478533
O O1 0.706363 0.715071 0.479876
O O2 0.630746 0.811451 0.139648
O O3 0.580406 0.662828 0.128685
O O4 0.746140 0.710848 0.981834
O O5 0.865548 0.422546 0.251395
O O6 0.045964 0.442446 0.442666
O O7 0.012009 0.323689 0.203168
O O8 0.149522 0.547496 0.689586
O O9 0.240780 0.423456 0.566174
O O10 0.096199 0.412952 0.877433
O O11 0.316622 0.885382 0.337798
O O12 0.373096 0.736005 0.345585
O O13 0.231248 0.985127 0.634901
O O14 0.793858 0.848099 0.316981
#
# Coordination Sequence:
#
# PCOD9313904 Si02
#       7
#     4   4   4   4   4   4   4
#     4  10  21  40  66  92 128 175 224 256 335 394
#     4  10  25  40  66  97 131 178 225 285 325 390
#     4  11  20  37  64  99 136 169 220 278 344 391
#     4  10  21  41  69  94 122 173 224 270 321 409
#     4  11  24  45  72  94 132 184 226 270 336 400
#     4  10  20  37  64  97 128 180 212 271 337 411
#     4  10  21  38  67  93 133 167 225 270 340 389
#
# _framework density 22.176020000000001
#
# number of rings (size 3 to 8) (size 9 to 14) (size 15 to 20)
#    0.000    1.714    2.857    1.714    6.000    0.000 
#    0.000    2.857    0.000    0.000    0.000    0.000 
#    0.000    0.000    0.000    0.000    0.000    0.000 
#
# Total GULP energy -156238.837249 kJ/mol
# GULP energy per Si atom -5579.958473 kJ/mol
# Density = 2.212555 g / cm^3
# Si number density = 22.176020 Si / 1000 Ang^3
#
#
#
# Elastic Constant Matrix: (Units=GPa)
#
#
# Indices 1 2 3 4 5 6 
#
# 1 65.7043 8.2933 5.7226 0.0000 0.0000 0.0000
# 2 8.2933 114.9267 -5.0510 0.0000 0.0000 0.0000
# 3 5.7226 -5.0510 58.1278 0.0000 0.0000 0.0000
# 4 0.0000 0.0000 0.0000 42.8862 0.0000 0.0000
# 5 0.0000 0.0000 0.0000 0.0000 27.1078 0.0000
# 6 0.0000 0.0000 0.0000 0.0000 0.0000 23.0436
#
#
#
# Elastic Compliance Matrix: (Units=1/GPa)
#
#
# Indices 1 2 3 4 5 6 
#
# 1 0.015512 -0.001191 -0.001631 0.000000 0.000000 0.000000
# 2 -0.001191 0.008826 0.000884 0.000000 0.000000 0.000000
# 3 -0.001631 0.000884 0.017441 0.000000 0.000000 0.000000
# 4 0.000000 0.000000 0.000000 0.023318 0.000000 0.000000
# 5 0.000000 0.000000 0.000000 0.000000 0.036890 0.000000
# 6 0.000000 0.000000 0.000000 0.000000 0.000000 0.043396
#
#
# Mechanical properties :
#
#
# Convention : Reuss Voigt Hill
#
# Bulk Modulus (GPa) = 26.38248 28.52095 27.45172
# Shear Modulus (GPa) = 30.88485 33.92713 32.40599
#
# Velocity S-wave (km/s) = 3.73596 3.91564 3.82685
# Velocity P-wave (km/s) = 5.52562 5.77339 5.65087
#
# Compressibility (1/GPa) = 0.03790394
#
# Stress axis : x y z
#
# Youngs Moduli (GPa) = 64.46600 113.30155 57.33669
#
# Poissons Ratio (x) = 0.13495 0.09349
# Poissons Ratio (y) = 0.07678 -0.05070
# Poissons Ratio (z) = 0.10512 -0.10018
#
# Static dielectric constant tensor:
#      x y z
#    x 1.853450 0.000000 0.000000 
#    y 0.000000 1.854520 0.000000 
#    z 0.000000 0.000000 1.893630 
# 
# From -- ./inp_files/1514.got.cif
#   From: 2010.05.17/outbox.cif.g08.bks.cpg/sg19_1_cif.got.tgz:1514.got - 2010.06.03 22:46:19.
