data_PCOD9313968
_publ_section_title
;
Structure prediction by ZEFSAII (Michael W. Deem and Ramdas Pophale) SiO2 
 PCOD9313968
Probable space group: P 21 21 21
;
_chemical_formula_sum "Si O2"
_cell_formula_units_Z 28
_cell_length_a 15.066543
_cell_length_b 9.438300
_cell_length_c 8.556800
_cell_angle_alpha 90.000000
_cell_angle_beta 90.000000
_cell_angle_gamma 90.000000
_cell_volume 1216.798804
_symmetry_space_group_name_H-M "P 21 21 21"
_symmetry_group_IT_number 19
_symmetry_cell_setting 'orthorhombic'
loop_
_space_group_symop_operation_xyz
x,y,z
1/2-x,-y,1/2+z
1/2+x,1/2-y,-z
-x,1/2+y,1/2-z
loop_
_atom_site_type_symbol
_atom_site_label
_atom_site_fract_x
_atom_site_fract_y
_atom_site_fract_z
Si Si1 0.141434 0.787249 0.981802
Si Si2 0.064700 0.371189 0.890365
Si Si3 0.872730 0.970388 0.074297
Si Si4 0.486178 0.426653 0.664463
Si Si5 0.568862 0.450565 0.182513
Si Si6 0.850770 0.667173 0.987809
Si Si7 0.303359 0.442141 0.247173
O O1 0.246304 0.801153 0.015171
O O2 0.144378 0.687161 0.828102
O O3 0.110061 0.943989 0.942359
O O4 0.077227 0.702233 0.100568
O O5 0.047246 0.205313 0.880281
O O6 0.163354 0.415622 0.836465
O O7 0.009081 0.461702 0.764376
O O8 0.041073 0.438798 0.056956
O O9 0.954641 0.042650 0.160493
O O10 0.895859 0.821836 0.992911
O O11 0.800060 0.934865 0.208625
O O12 0.825504 0.054986 0.934861
O O13 0.590960 0.403917 0.627797
O O14 0.631401 0.419064 0.331145
#
# Coordination Sequence:
#
# PCOD9313968 Si02
#       7
#     4   4   4   4   4   4   4
#     4  10  23  44  67 100 137 181 231 283 340 410
#     4  10  20  38  69  96 123 173 228 277 340 404
#     4  11  21  42  68  95 133 175 225 283 339 411
#     4  10  23  44  67 100 137 181 231 283 340 410
#     4  11  21  42  68  95 133 175 225 283 339 411
#     4  10  22  44  64 100 142 174 230 282 340 406
#     4  10  20  38  69  96 123 173 228 277 340 404
#
# _framework density 23.011198
#
# number of rings (size 3 to 8) (size 9 to 14) (size 15 to 20)
#    0.000    1.714    1.429    5.143    0.000    0.000 
#   18.000    0.000    0.000    0.000    0.000    0.000 
#    0.000    0.000    0.000    0.000    0.000    0.000 
#
# Total GULP energy -156331.826419 kJ/mol
# GULP energy per Si atom -5583.279515 kJ/mol
# Density = 2.295882 g / cm^3
# Si number density = 23.011198 Si / 1000 Ang^3
#
#
#
# Elastic Constant Matrix: (Units=GPa)
#
#
# Indices 1 2 3 4 5 6 
#
# 1 81.4216 27.9582 17.1963 0.0000 0.0000 0.0000
# 2 27.9582 154.2418 30.6351 0.0000 0.0000 0.0000
# 3 17.1963 30.6351 66.7123 0.0000 0.0000 0.0000
# 4 0.0000 0.0000 0.0000 13.2831 0.0000 0.0000
# 5 0.0000 0.0000 0.0000 0.0000 35.1765 0.0000
# 6 0.0000 0.0000 0.0000 0.0000 0.0000 28.3108
#
#
#
# Elastic Compliance Matrix: (Units=1/GPa)
#
#
# Indices 1 2 3 4 5 6 
#
# 1 0.013492 -0.001931 -0.002591 0.000000 0.000000 0.000000
# 2 -0.001931 0.007410 -0.002905 0.000000 0.000000 0.000000
# 3 -0.002591 -0.002905 0.016992 0.000000 0.000000 0.000000
# 4 0.000000 0.000000 0.000000 0.075283 0.000000 0.000000
# 5 0.000000 0.000000 0.000000 0.000000 0.028428 0.000000
# 6 0.000000 0.000000 0.000000 0.000000 0.000000 0.035322
#
#
# Mechanical properties :
#
#
# Convention : Reuss Voigt Hill
#
# Bulk Modulus (GPa) = 43.40346 50.43946 46.92146
# Shear Modulus (GPa) = 25.06740 30.45982 27.76361
#
# Velocity S-wave (km/s) = 3.30412 3.64221 3.47728
# Velocity P-wave (km/s) = 5.78439 6.29720 6.04623
#
# Compressibility (1/GPa) = 0.02303964
#
# Stress axis : x y z
#
# Youngs Moduli (GPa) = 74.11773 134.94626 58.85211
#
# Poissons Ratio (x) = 0.26058 0.15249
# Poissons Ratio (y) = 0.14312 0.17098
# Poissons Ratio (z) = 0.19205 0.39204
#
# Static dielectric constant tensor:
#      x y z
#    x 1.975130 0.000000 0.000000 
#    y 0.000000 1.872610 0.000000 
#    z 0.000000 0.000000 1.888630 
# 
# From -- ./inp_files/4166.got.cif
#   From: 2010.05.17/outbox.cif.g08.bks.cpg/sg19_3_cif.got.tgz:4166.got - 2010.06.03 22:46:19.
