data_PCOD9313847
_publ_section_title
;
Structure prediction by ZEFSAII (Michael W. Deem and Ramdas Pophale) SiO2 
 PCOD9313847
Probable space group: P 21 21 21
;
_chemical_formula_sum "Si O2"
_cell_formula_units_Z 24
_cell_length_a 9.063206
_cell_length_b 14.049680
_cell_length_c 7.136061
_cell_angle_alpha 90.000000
_cell_angle_beta 90.000000
_cell_angle_gamma 90.000000
_cell_volume 908.671356
_symmetry_space_group_name_H-M "P 21 21 21"
_symmetry_group_IT_number 19
_symmetry_cell_setting 'orthorhombic'
loop_
_space_group_symop_operation_xyz
x,y,z
1/2-x,-y,1/2+z
1/2+x,1/2-y,-z
-x,1/2+y,1/2-z
loop_
_atom_site_type_symbol
_atom_site_label
_atom_site_fract_x
_atom_site_fract_y
_atom_site_fract_z
Si Si1 0.154646 0.644000 0.055774
Si Si2 0.844251 0.637688 0.210140
Si Si3 0.448791 0.695595 0.547351
Si Si4 0.112776 0.009334 0.916942
Si Si5 0.664879 0.027654 0.174562
Si Si6 0.270459 0.805037 0.260811
O O1 0.205081 0.591751 0.247384
O O2 0.226061 0.746815 0.075901
O O3 0.979381 0.642969 0.064691
O O4 0.207632 0.576723 0.891218
O O5 0.849801 0.741575 0.309793
O O6 0.705121 0.586502 0.116194
O O7 0.882135 0.564249 0.384575
O O8 0.407984 0.586600 0.498193
O O9 0.409070 0.749114 0.353137
O O10 0.617187 0.702315 0.617011
O O11 0.185181 0.086250 0.776433
O O12 0.951047 0.985577 0.842046
#
# Coordination Sequence:
#
# PCOD9313847 Si02
#       6
#     4   4   4   4   4   4
#     4  10  21  38  57  83 114 150 190 234 286 345
#     4  10  20  36  59  86 116 148 188 231 283 342
#     4   9  18  35  58  81 113 155 189 224 281 359
#     4  11  21  37  59  86 115 149 191 240 287 340
#     4  11  21  37  59  80 111 150 194 238 285 343
#     4   9  19  35  56  84 115 146 188 233 286 345
#
# _framework density 26.412192000000001
#
# number of rings (size 3 to 8) (size 9 to 14) (size 15 to 20)
#    0.000    2.000    0.000    5.000    0.000    1.333 
#    0.000   11.667    0.000    0.000    0.000    0.000 
#    0.000    0.000    0.000    0.000    0.000    0.000 
#
# Total GULP energy -134264.700725 kJ/mol
# GULP energy per Si atom -5594.362530 kJ/mol
# Density = 2.635208 g / cm^3
# Si number density = 26.412192 Si / 1000 Ang^3
#
#
#
# Elastic Constant Matrix: (Units=GPa)
#
#
# Indices 1 2 3 4 5 6 
#
# 1 91.9451 30.8962 7.4755 0.0000 0.0000 0.0000
# 2 30.8962 166.6536 19.2717 0.0000 0.0000 0.0000
# 3 7.4755 19.2717 70.0431 0.0000 0.0000 0.0000
# 4 0.0000 0.0000 0.0000 48.7827 0.0000 0.0000
# 5 0.0000 0.0000 0.0000 0.0000 22.3794 0.0000
# 6 0.0000 0.0000 0.0000 0.0000 0.0000 39.9615
#
#
#
# Elastic Compliance Matrix: (Units=1/GPa)
#
#
# Indices 1 2 3 4 5 6 
#
# 1 0.011629 -0.002079 -0.000669 0.000000 0.000000 0.000000
# 2 -0.002079 0.006569 -0.001586 0.000000 0.000000 0.000000
# 3 -0.000669 -0.001586 0.014785 0.000000 0.000000 0.000000
# 4 0.000000 0.000000 0.000000 0.020499 0.000000 0.000000
# 5 0.000000 0.000000 0.000000 0.000000 0.044684 0.000000
# 6 0.000000 0.000000 0.000000 0.000000 0.000000 0.025024
#
#
# Mechanical properties :
#
#
# Convention : Reuss Voigt Hill
#
# Bulk Modulus (GPa) = 41.12524 49.32541 45.22533
# Shear Modulus (GPa) = 35.72404 40.29130 38.00767
#
# Velocity S-wave (km/s) = 3.68170 3.90998 3.79756
# Velocity P-wave (km/s) = 5.80324 6.25297 6.03230
#
# Compressibility (1/GPa) = 0.02431597
#
# Stress axis : x y z
#
# Youngs Moduli (GPa) = 85.99264 152.22623 67.63787
#
# Poissons Ratio (x) = 0.31640 0.04527
# Poissons Ratio (y) = 0.17874 0.10725
# Poissons Ratio (z) = 0.05755 0.24137
#
# Static dielectric constant tensor:
#      x y z
#    x 1.973340 0.000000 0.000000 
#    y 0.000000 2.048130 0.000000 
#    z 0.000000 0.000000 2.165570 
# 
# From -- ./inp_files/2803.got.cif
#   From: 2010.05.17/outbox.cif.g08.bks.cpg/sg19_2_cif.got.tgz:2803.got - 2010.06.03 22:46:19.
