data_PCOD9313564
_publ_section_title
;
Structure prediction by ZEFSAII (Michael W. Deem and Ramdas Pophale) SiO2 
 PCOD9313564
Probable space group: P 21 21 21
;
_chemical_formula_sum "Si O2"
_cell_formula_units_Z 28
_cell_length_a 8.889075
_cell_length_b 21.094378
_cell_length_c 5.410545
_cell_angle_alpha 90.000000
_cell_angle_beta 90.000000
_cell_angle_gamma 90.000000
_cell_volume 1014.528632
_symmetry_space_group_name_H-M "P 21 21 21"
_symmetry_group_IT_number 19
_symmetry_cell_setting 'orthorhombic'
loop_
_space_group_symop_operation_xyz
x,y,z
1/2-x,-y,1/2+z
1/2+x,1/2-y,-z
-x,1/2+y,1/2-z
loop_
_atom_site_type_symbol
_atom_site_label
_atom_site_fract_x
_atom_site_fract_y
_atom_site_fract_z
Si Si1 0.364868 0.446743 0.511188
Si Si2 0.483455 0.762175 0.264983
Si Si3 0.996242 0.876600 0.244456
Si Si4 0.698021 0.921887 0.490028
Si Si5 0.682311 0.473753 0.603099
Si Si6 0.619769 0.623289 0.252138
Si Si7 0.379871 0.267199 0.734012
O O1 0.251394 0.505091 0.468153
O O2 0.417424 0.425450 0.237843
O O3 0.507047 0.477778 0.643166
O O4 0.312946 0.398580 0.727140
O O5 0.578317 0.696254 0.274089
O O6 0.303144 0.745368 0.251244
O O7 0.541149 0.795151 0.517951
O O8 0.551547 0.794611 0.020812
O O9 0.097253 0.901872 0.471022
O O10 0.045433 0.803764 0.221298
O O11 0.830730 0.884109 0.351008
O O12 0.013925 0.903718 0.968442
O O13 0.732275 0.492576 0.328893
O O14 0.721869 0.398951 0.648320
#
# Coordination Sequence:
#
# PCOD9313564 Si02
#       7
#     4   4   4   4   4   4   4
#     4  10  21  33  54  84 115 161 208 250 307 368
#     4  10  21  40  69  98 132 172 214 282 331 418
#     4  10  20  37  64  85 120 167 206 257 320 389
#     4  10  19  35  55  81 119 156 203 257 307 365
#     4  12  23  37  60  91 121 176 222 271 314 392
#     4  10  21  37  62  86 129 159 218 255 336 368
#     4  10  21  39  70  97 128 171 221 260 351 400
#
# _framework density 27.599025999999999
#
# number of rings (size 3 to 8) (size 9 to 14) (size 15 to 20)
#    0.000    1.714    0.000    5.143    0.000    2.286 
#    0.000    0.000   75.429    0.000    0.000    0.000 
#    0.000    0.000    0.000    0.000    0.000    0.000 
#
# Total GULP energy -156312.813751 kJ/mol
# GULP energy per Si atom -5582.600491 kJ/mol
# Density = 2.753621 g / cm^3
# Si number density = 27.599026 Si / 1000 Ang^3
#
#
#
# Elastic Constant Matrix: (Units=GPa)
#
#
# Indices 1 2 3 4 5 6 
#
# 1 70.0605 12.1115 24.8893 0.0000 0.0000 0.0000
# 2 12.1115 45.8853 -4.9613 0.0000 0.0000 0.0000
# 3 24.8893 -4.9613 234.1185 0.0000 0.0000 0.0000
# 4 0.0000 0.0000 0.0000 45.1500 0.0000 0.0000
# 5 0.0000 0.0000 0.0000 0.0000 43.3548 0.0000
# 6 0.0000 0.0000 0.0000 0.0000 0.0000 24.8110
#
#
#
# Elastic Compliance Matrix: (Units=1/GPa)
#
#
# Indices 1 2 3 4 5 6 
#
# 1 0.015643 -0.004319 -0.001755 0.000000 0.000000 0.000000
# 2 -0.004319 0.023036 0.000947 0.000000 0.000000 0.000000
# 3 -0.001755 0.000947 0.004478 0.000000 0.000000 0.000000
# 4 0.000000 0.000000 0.000000 0.022148 0.000000 0.000000
# 5 0.000000 0.000000 0.000000 0.000000 0.023066 0.000000
# 6 0.000000 0.000000 0.000000 0.000000 0.000000 0.040305
#
#
# Mechanical properties :
#
#
# Convention : Reuss Voigt Hill
#
# Bulk Modulus (GPa) = 30.39057 46.01594 38.20325
# Shear Modulus (GPa) = 33.35644 43.86481 38.61062
#
# Velocity S-wave (km/s) = 3.48028 3.99100 3.74436
# Velocity P-wave (km/s) = 5.21394 6.16009 5.70666
#
# Compressibility (1/GPa) = 0.03290495
#
# Stress axis : x y z
#
# Youngs Moduli (GPa) = 63.92519 43.41059 223.31676
#
# Poissons Ratio (x) = 0.18748 0.39182
# Poissons Ratio (y) = 0.27608 -0.21155
# Poissons Ratio (z) = 0.11216 -0.04112
#
# Static dielectric constant tensor:
#      x y z
#    x 2.136270 0.000000 0.000000 
#    y 0.000000 2.471590 0.000000 
#    z 0.000000 0.000000 2.531220 
# 
# From -- ./inp_files/624.got.cif
#   From: 2010.05.17/outbox.cif.g08.bks.cpg/sg19_1_cif.got.tgz:624.got - 2010.06.03 22:46:19.
