data_PCOD9313022
_publ_section_title
;
Structure prediction by ZEFSAII (Michael W. Deem and Ramdas Pophale) SiO2 
 PCOD9313022
Probable space group: P 21 21 2
;
_chemical_formula_sum "Si O2"
_cell_formula_units_Z 20
_cell_length_a 17.174142
_cell_length_b 5.470517
_cell_length_c 8.934554
_cell_angle_alpha 90.000000
_cell_angle_beta 90.000000
_cell_angle_gamma 90.000000
_cell_volume 839.414176
_symmetry_space_group_name_H-M "P 21 21 2"
_symmetry_group_IT_number 18
_symmetry_cell_setting 'orthorhombic'
loop_
_space_group_symop_operation_xyz
x,y,z
-x,-y,z
1/2+x,1/2-y,-z
1/2-x,1/2+y,-z
loop_
_atom_site_type_symbol
_atom_site_label
_atom_site_fract_x
_atom_site_fract_y
_atom_site_fract_z
Si Si1 0.581507 0.511568 0.569355
Si Si2 0.332355 0.148003 0.397730
Si Si3 0.687084 0.130328 0.706165
Si Si4 0.500000 0.000000 0.267734
Si Si5 0.500000 0.500000 0.082292
Si Si6 0.924687 0.328228 0.141491
O O1 0.500000 0.500000 0.488998
O O2 0.643516 0.579346 0.446329
O O3 0.611523 0.289575 0.665502
O O4 0.568317 0.723281 0.691051
O O5 0.261335 0.188693 0.283036
O O6 0.303333 0.022969 0.551397
O O7 0.415714 0.034479 0.349673
O O8 0.657873 0.970140 0.846703
O O9 0.486180 0.746584 0.176610
O O10 0.431565 0.399955 0.971829
O O11 0.000000 0.500000 0.112404
#
# Coordination Sequence:
#
# PCOD9313022 Si02
#       6
#     4   4   4   2   2   4
#     4  11  20  36  69 104 142 179 239 308 370 456
#     4  11  25  42  66 116 152 191 243 302 419 454
#     4  11  22  40  72 107 151 190 236 336 371 468
#     4  12  30  46  78 104 164 208 250 314 380 478
#     4  12  26  50  76 102 140 210 272 308 354 452
#     4  11  21  42  74 102 133 189 265 307 363 430
#
# _framework density 23.826136999999999
#
# number of rings (size 3 to 8) (size 9 to 14) (size 15 to 20)
#    0.000    0.800    6.000    1.200    7.000    0.000 
#    0.000    0.000    8.800    0.000    0.000    0.000 
#    0.000    0.000    0.000    0.000    0.000    0.000 
#
# Total GULP energy -111414.522318 kJ/mol
# GULP energy per Si atom -5570.726116 kJ/mol
# Density = 2.377191 g / cm^3
# Si number density = 23.826137 Si / 1000 Ang^3
#
#
#
# Elastic Constant Matrix: (Units=GPa)
#
#
# Indices 1 2 3 4 5 6 
#
# 1 161.1328 34.4391 32.3650 0.0000 0.0000 0.0000
# 2 34.4391 97.7570 32.4073 0.0000 0.0000 0.0000
# 3 32.3650 32.4073 65.3584 0.0000 0.0000 0.0000
# 4 0.0000 0.0000 0.0000 35.5742 0.0000 0.0000
# 5 0.0000 0.0000 0.0000 0.0000 6.8615 0.0000
# 6 0.0000 0.0000 0.0000 0.0000 0.0000 38.7839
#
#
#
# Elastic Compliance Matrix: (Units=1/GPa)
#
#
# Indices 1 2 3 4 5 6 
#
# 1 0.007094 -0.001597 -0.002721 0.000000 0.000000 0.000000
# 2 -0.001597 0.012601 -0.005457 0.000000 0.000000 0.000000
# 3 -0.002721 -0.005457 0.019354 0.000000 0.000000 0.000000
# 4 0.000000 0.000000 0.000000 0.028110 0.000000 0.000000
# 5 0.000000 0.000000 0.000000 0.000000 0.145742 0.000000
# 6 0.000000 0.000000 0.000000 0.000000 0.000000 0.025784
#
#
# Mechanical properties :
#
#
# Convention : Reuss Voigt Hill
#
# Bulk Modulus (GPa) = 51.28729 58.07455 54.68092
# Shear Modulus (GPa) = 18.88683 31.24638 25.06660
#
# Velocity S-wave (km/s) = 2.81854 3.62530 3.24707
# Velocity P-wave (km/s) = 5.67138 6.47696 6.08751
#
# Compressibility (1/GPa) = 0.01949801
#
# Stress axis : x y z
#
# Youngs Moduli (GPa) = 140.96528 79.35718 51.67001
#
# Poissons Ratio (x) = 0.12674 0.14059
# Poissons Ratio (y) = 0.22514 0.28198
# Poissons Ratio (z) = 0.38356 0.43308
#
# Static dielectric constant tensor:
#      x y z
#    x 2.008260 0.000000 0.000000 
#    y 0.000000 2.039790 0.000000 
#    z 0.000000 0.000000 1.918560 
# 
# From -- ./inp_files/6033.got.cif
#   From: 2010.05.17/outbox.cif.g08.bks.cpg/sg18_4_cif.got.tgz:6033.got - 2010.06.03 22:40:56.
