data_PCOD9313523
_publ_section_title
;
Structure prediction by ZEFSAII (Michael W. Deem and Ramdas Pophale) SiO2 
 PCOD9313523
Probable space group: P 21 21 21
;
_chemical_formula_sum "Si O2"
_cell_formula_units_Z 24
_cell_length_a 5.571659
_cell_length_b 15.319506
_cell_length_c 10.563235
_cell_angle_alpha 90.000000
_cell_angle_beta 90.000000
_cell_angle_gamma 90.000000
_cell_volume 901.625594
_symmetry_space_group_name_H-M "P 21 21 21"
_symmetry_group_IT_number 19
_symmetry_cell_setting 'orthorhombic'
loop_
_space_group_symop_operation_xyz
x,y,z
1/2-x,-y,1/2+z
1/2+x,1/2-y,-z
-x,1/2+y,1/2-z
loop_
_atom_site_type_symbol
_atom_site_label
_atom_site_fract_x
_atom_site_fract_y
_atom_site_fract_z
Si Si1 0.419615 0.790087 0.358499
Si Si2 0.592878 0.938659 0.776843
Si Si3 0.919703 0.726090 0.352903
Si Si4 0.380843 0.332283 0.455246
Si Si5 0.119196 0.865434 0.055676
Si Si6 0.094019 0.010319 0.838288
O O1 0.653683 0.744175 0.298534
O O2 0.397013 0.749300 0.499858
O O3 0.156217 0.774096 0.300346
O O4 0.465890 0.891823 0.377221
O O5 0.496870 0.873069 0.670505
O O6 0.606377 0.880699 0.907338
O O7 0.863929 0.973529 0.759550
O O8 0.368977 0.005422 0.787384
O O9 0.379793 0.228570 0.481047
O O10 0.142886 0.363340 0.385449
O O11 0.617955 0.364588 0.384250
O O12 0.109290 0.945944 0.959030
#
# Coordination Sequence:
#
# PCOD9313523 Si02
#       6
#     4   4   4   4   4   4
#     4  10  21  38  58  79 108 148 188 223 267 327
#     4  10  19  33  56  81 108 138 176 227 274 317
#     4  10  21  38  59  79 107 149 190 221 265 332
#     4   8  14  25  43  67  97 132 165 197 251 320
#     4   8  14  25  42  66  97 134 166 198 252 318
#     4  10  19  33  54  80 109 137 175 230 277 312
#
# _framework density 26.618590000000001
#
# number of rings (size 3 to 8) (size 9 to 14) (size 15 to 20)
#    0.000    2.667    0.000    2.000    0.000    0.000 
#    0.000    3.333    0.000   12.000    0.000    0.000 
#    0.000    0.000    0.000    0.000    0.000    0.000 
#
# Total GULP energy -134193.407241 kJ/mol
# GULP energy per Si atom -5591.391968 kJ/mol
# Density = 2.655801 g / cm^3
# Si number density = 26.618590 Si / 1000 Ang^3
#
#
#
# Elastic Constant Matrix: (Units=GPa)
#
#
# Indices 1 2 3 4 5 6 
#
# 1 282.8600 58.1050 37.6556 0.0000 0.0000 0.0000
# 2 58.1050 97.0588 -7.9227 0.0000 0.0000 0.0000
# 3 37.6556 -7.9227 67.6667 0.0000 0.0000 0.0000
# 4 0.0000 0.0000 0.0000 28.0977 0.0000 0.0000
# 5 0.0000 0.0000 0.0000 0.0000 39.6684 0.0000
# 6 0.0000 0.0000 0.0000 0.0000 0.0000 52.5839
#
#
#
# Elastic Compliance Matrix: (Units=1/GPa)
#
#
# Indices 1 2 3 4 5 6 
#
# 1 0.004520 -0.002939 -0.002859 0.000000 0.000000 0.000000
# 2 -0.002939 0.012314 0.003077 0.000000 0.000000 0.000000
# 3 -0.002859 0.003077 0.016730 0.000000 0.000000 0.000000
# 4 0.000000 0.000000 0.000000 0.035590 0.000000 0.000000
# 5 0.000000 0.000000 0.000000 0.000000 0.025209 0.000000
# 6 0.000000 0.000000 0.000000 0.000000 0.000000 0.019017
#
#
# Mechanical properties :
#
#
# Convention : Reuss Voigt Hill
#
# Bulk Modulus (GPa) = 35.56050 69.25126 52.40588
# Shear Modulus (GPa) = 39.00293 48.05317 43.52805
#
# Velocity S-wave (km/s) = 3.83201 4.25343 4.04821
# Velocity P-wave (km/s) = 5.74172 7.08483 6.44834
#
# Compressibility (1/GPa) = 0.02812109
#
# Stress axis : x y z
#
# Youngs Moduli (GPa) = 221.25242 81.20976 59.77359
#
# Poissons Ratio (x) = 0.23869 0.17091
# Poissons Ratio (y) = 0.65030 -0.18394
# Poissons Ratio (z) = 0.63263 -0.24991
#
# Static dielectric constant tensor:
#      x y z
#    x 2.156150 0.000000 0.000000 
#    y 0.000000 2.046680 0.000000 
#    z 0.000000 0.000000 2.099990 
# 
# From -- ./inp_files/1454.got.cif
#   From: 2010.05.17/outbox.cif.g08.bks.cpg/sg19_1_cif.got.tgz:1454.got - 2010.06.03 22:46:19.
