data_PCOD9313206
_publ_section_title
;
Structure prediction by ZEFSAII (Michael W. Deem and Ramdas Pophale) SiO2 
 PCOD9313206
Probable space group: P 21 21 2
;
_chemical_formula_sum "Si O2"
_cell_formula_units_Z 20
_cell_length_a 7.844180
_cell_length_b 16.760603
_cell_length_c 7.209931
_cell_angle_alpha 90.000000
_cell_angle_beta 90.000000
_cell_angle_gamma 90.000000
_cell_volume 947.912605
_symmetry_space_group_name_H-M "P 21 21 2"
_symmetry_group_IT_number 18
_symmetry_cell_setting 'orthorhombic'
loop_
_space_group_symop_operation_xyz
x,y,z
-x,-y,z
1/2+x,1/2-y,-z
1/2-x,1/2+y,-z
loop_
_atom_site_type_symbol
_atom_site_label
_atom_site_fract_x
_atom_site_fract_y
_atom_site_fract_z
Si Si1 0.806836 0.944437 0.573210
Si Si2 0.000000 0.500000 0.667030
Si Si3 0.841656 0.818776 0.852576
Si Si4 0.009882 0.350685 0.938105
Si Si5 0.500000 0.500000 0.745215
Si Si6 0.674620 0.570387 0.088775
O O1 0.779002 0.857973 0.660505
O O2 0.946295 0.934440 0.407913
O O3 0.659002 0.988632 0.465867
O O4 0.831342 0.004271 0.749523
O O5 0.000670 0.578791 0.791030
O O6 0.900715 0.727805 0.855380
O O7 0.014389 0.869062 0.898742
O O8 0.679650 0.831794 0.987463
O O9 0.144585 0.384700 0.090033
O O10 0.645500 0.527430 0.889114
#
# Coordination Sequence:
#
# PCOD9313206 Si02
#       6
#     4   2   4   4   2   4
#     4  12  24  45  74 105 141 186 245 297 366 436
#     4  12  26  48  70 112 142 200 248 296 364 458
#     4  12  24  46  71 111 141 192 243 305 366 431
#     4  12  26  46  76 103 151 194 246 299 374 436
#     4  12  20  42  76  98 138 188 234 294 358 442
#     4  12  23  47  75 100 147 194 234 302 366 440
#
# _framework density 21.098991999999999
#
# number of rings (size 3 to 8) (size 9 to 14) (size 15 to 20)
#    0.000    0.000    8.000    3.600    0.000    0.000 
#    7.200    0.000    0.000    0.000    0.000    0.000 
#    0.000    0.000    0.000    0.000    0.000    0.000 
#
# Total GULP energy -111533.107053 kJ/mol
# GULP energy per Si atom -5576.655353 kJ/mol
# Density = 2.105097 g / cm^3
# Si number density = 21.098992 Si / 1000 Ang^3
#
#
#
# Elastic Constant Matrix: (Units=GPa)
#
#
# Indices 1 2 3 4 5 6 
#
# 1 105.2062 47.4961 47.9784 0.0000 0.0000 0.0000
# 2 47.4961 143.1606 70.0420 0.0000 0.0000 0.0000
# 3 47.9784 70.0420 133.6586 0.0000 0.0000 0.0000
# 4 0.0000 0.0000 0.0000 -51.7750 0.0000 0.0000
# 5 0.0000 0.0000 0.0000 0.0000 31.9891 0.0000
# 6 0.0000 0.0000 0.0000 0.0000 0.0000 39.9235
#
#
#
# Elastic Compliance Matrix: (Units=1/GPa)
#
#
# Indices 1 2 3 4 5 6 
#
# 1 0.012006 -0.002521 -0.002989 0.000000 0.000000 0.000000
# 2 -0.002521 0.009923 -0.004295 0.000000 0.000000 0.000000
# 3 -0.002989 -0.004295 0.010805 0.000000 0.000000 0.000000
# 4 0.000000 0.000000 0.000000 -0.019314 0.000000 0.000000
# 5 0.000000 0.000000 0.000000 0.000000 0.031261 0.000000
# 6 0.000000 0.000000 0.000000 0.000000 0.000000 0.025048
#
#
# Mechanical properties :
#
#
# Convention : Reuss Voigt Hill
#
# Bulk Modulus (GPa) = 76.19043 79.22870 77.70957
# Shear Modulus (GPa) = 53.35431 18.46145 35.90788
#
# Velocity S-wave (km/s) = 5.03413 2.96124 4.12986
# Velocity P-wave (km/s) = 8.36537 7.02313 7.72346
#
# Compressibility (1/GPa) = 0.01312501
#
# Stress axis : x y z
#
# Youngs Moduli (GPa) = 83.28987 100.77677 92.54716
#
# Poissons Ratio (x) = 0.25407 0.27659
# Poissons Ratio (y) = 0.20998 0.39749
# Poissons Ratio (z) = 0.24892 0.43284
#
# Static dielectric constant tensor:
#      x y z
#    x 2.056930 0.000000 0.000000 
#    y 0.000000 1.769330 0.000000 
#    z 0.000000 0.000000 1.764730 
# 
# From -- ./inp_files/493.got.cif
#   From: 2010.05.17/outbox.cif.g08.bks.cpg/sg18_1_cif.got.tgz:493.got - 2010.06.03 22:40:56.
