data_PCOD9313512
_publ_section_title
;
Structure prediction by ZEFSAII (Michael W. Deem and Ramdas Pophale) SiO2 
 PCOD9313512
Probable space group: P 21 21 21
;
_chemical_formula_sum "Si O2"
_cell_formula_units_Z 32
_cell_length_a 12.112673
_cell_length_b 11.629076
_cell_length_c 11.239404
_cell_angle_alpha 90.000000
_cell_angle_beta 90.000000
_cell_angle_gamma 90.000000
_cell_volume 1583.173398
_symmetry_space_group_name_H-M "P 21 21 21"
_symmetry_group_IT_number 19
_symmetry_cell_setting 'orthorhombic'
loop_
_space_group_symop_operation_xyz
x,y,z
1/2-x,-y,1/2+z
1/2+x,1/2-y,-z
-x,1/2+y,1/2-z
loop_
_atom_site_type_symbol
_atom_site_label
_atom_site_fract_x
_atom_site_fract_y
_atom_site_fract_z
Si Si1 0.986951 0.370851 0.679960
Si Si2 0.077903 0.267400 0.138463
Si Si3 0.062834 0.050022 0.002904
Si Si4 0.595006 0.671455 0.834104
Si Si5 0.957122 0.684410 0.992568
Si Si6 0.286001 0.112332 0.876108
Si Si7 0.273774 0.848352 0.821836
Si Si8 0.009936 0.916140 0.544302
O O1 0.007138 0.485305 0.599530
O O2 0.856421 0.343741 0.664823
O O3 0.003931 0.385026 0.818979
O O4 0.049170 0.264545 0.621860
O O5 0.017289 0.153847 0.083444
O O6 0.184307 0.215629 0.203994
O O7 0.006767 0.330250 0.240544
O O8 0.087169 0.359491 0.033621
O O9 0.100894 0.945186 0.088716
O O10 0.167059 0.107533 0.936083
O O11 0.557880 0.770015 0.925043
O O12 0.695862 0.688032 0.742324
O O13 0.844722 0.698495 0.067812
O O14 0.978448 0.552701 0.963624
O O15 0.304344 0.983391 0.823649
O O16 0.378055 0.130206 0.978761
#
# Coordination Sequence:
#
# PCOD9313512 Si02
#       8
#     4   4   4   4   4   4   4   4
#     4  10  21  35  59  84 115 152 191 240 298 342
#     4  10  19  32  56  77 114 143 190 232 285 350
#     4  10  19  32  56  85 109 141 189 245 286 333
#     4   9  18  33  54  82 108 148 183 230 296 335
#     4   9  20  37  56  81 119 149 188 236 292 356
#     4   9  17  31  56  86 106 132 191 246 284 323
#     4   9  17  35  60  82 110 147 187 248 285 332
#     4  10  21  33  53  83 111 150 183 237 298 343
#
# _framework density 20.212568999999998
#
# number of rings (size 3 to 8) (size 9 to 14) (size 15 to 20)
#    0.000    2.500    1.250    0.750    5.250    0.000 
#    0.000    0.000    5.500    0.000    0.000    0.000 
#    0.000    0.000    0.000    0.000    0.000    0.000 
#
# Total GULP energy -178293.633265 kJ/mol
# GULP energy per Si atom -5571.676040 kJ/mol
# Density = 2.016656 g / cm^3
# Si number density = 20.212569 Si / 1000 Ang^3
#
#
#
# Elastic Constant Matrix: (Units=GPa)
#
#
# Indices 1 2 3 4 5 6 
#
# 1 22.7461 5.2675 10.6095 0.0000 0.0000 0.0000
# 2 5.2675 36.2360 27.3496 0.0000 0.0000 0.0000
# 3 10.6095 27.3496 143.3596 0.0000 0.0000 0.0000
# 4 0.0000 0.0000 0.0000 36.1614 0.0000 0.0000
# 5 0.0000 0.0000 0.0000 0.0000 16.4156 0.0000
# 6 0.0000 0.0000 0.0000 0.0000 0.0000 18.1836
#
#
#
# Elastic Compliance Matrix: (Units=1/GPa)
#
#
# Indices 1 2 3 4 5 6 
#
# 1 0.046250 -0.004836 -0.002500 0.000000 0.000000 0.000000
# 2 -0.004836 0.032745 -0.005889 0.000000 0.000000 0.000000
# 3 -0.002500 -0.005889 0.008284 0.000000 0.000000 0.000000
# 4 0.000000 0.000000 0.000000 0.027654 0.000000 0.000000
# 5 0.000000 0.000000 0.000000 0.000000 0.060918 0.000000
# 6 0.000000 0.000000 0.000000 0.000000 0.000000 0.054994
#
#
# Mechanical properties :
#
#
# Convention : Reuss Voigt Hill
#
# Bulk Modulus (GPa) = 16.43989 32.08835 24.26412
# Shear Modulus (GPa) = 18.01342 24.75979 21.38660
#
# Velocity S-wave (km/s) = 2.98853 3.50375 3.25635
# Velocity P-wave (km/s) = 4.47879 5.68140 5.11556
#
# Compressibility (1/GPa) = 0.06082765
#
# Stress axis : x y z
#
# Youngs Moduli (GPa) = 21.62179 30.53930 120.71498
#
# Poissons Ratio (x) = 0.14769 0.30180
# Poissons Ratio (y) = 0.10457 0.71089
# Poissons Ratio (z) = 0.05406 0.17985
#
# Static dielectric constant tensor:
#      x y z
#    x 1.749530 0.000000 0.000000 
#    y 0.000000 1.719870 0.000000 
#    z 0.000000 0.000000 1.772750 
# 
# From -- ./inp_files/5313.got.cif
#   From: 2010.05.17/outbox.cif.g08.bks.cpg/sg19_3_cif.got.tgz:5313.got - 2010.06.03 22:46:19.
