data_PCOD9313789
_publ_section_title
;
Structure prediction by ZEFSAII (Michael W. Deem and Ramdas Pophale) SiO2 
 PCOD9313789
Probable space group: P 21 21 21
;
_chemical_formula_sum "Si O2"
_cell_formula_units_Z 28
_cell_length_a 8.580485
_cell_length_b 18.138939
_cell_length_c 8.880688
_cell_angle_alpha 90.000000
_cell_angle_beta 90.000000
_cell_angle_gamma 90.000000
_cell_volume 1382.198220
_symmetry_space_group_name_H-M "P 21 21 21"
_symmetry_group_IT_number 19
_symmetry_cell_setting 'orthorhombic'
loop_
_space_group_symop_operation_xyz
x,y,z
1/2-x,-y,1/2+z
1/2+x,1/2-y,-z
-x,1/2+y,1/2-z
loop_
_atom_site_type_symbol
_atom_site_label
_atom_site_fract_x
_atom_site_fract_y
_atom_site_fract_z
Si Si1 0.351711 0.084801 0.641108
Si Si2 0.625447 0.754572 0.304193
Si Si3 0.180525 0.045759 0.905558
Si Si4 0.950790 0.805587 0.968022
Si Si5 0.561902 0.309879 0.921708
Si Si6 0.012973 0.104271 0.652825
Si Si7 0.097655 0.663608 0.120401
O O1 0.340482 0.053652 0.810468
O O2 0.495767 0.130996 0.582955
O O3 0.192497 0.133822 0.638906
O O4 0.323036 0.019739 0.522447
O O5 0.558183 0.697304 0.181954
O O6 0.800933 0.735479 0.343223
O O7 0.527608 0.759329 0.458144
O O8 0.596872 0.834915 0.229814
O O9 0.048786 0.039363 0.772190
O O10 0.140151 0.121507 0.990831
O O11 0.775318 0.815682 0.913387
O O12 0.991893 0.729988 0.053675
O O13 0.445401 0.341155 0.794703
O O14 0.948693 0.094314 0.485450
#
# Coordination Sequence:
#
# PCOD9313789 Si02
#       7
#     4   4   4   4   4   4   4
#     4  10  21  41  62  85 120 163 218 251 308 371
#     4  10  20  35  55  92 126 153 204 249 314 374
#     4   9  23  37  64  85 121 162 218 258 300 383
#     4  11  22  37  60  93 122 168 204 258 316 377
#     4  11  22  37  63  95 128 168 198 262 316 373
#     4   8  19  37  55  85 115 155 203 259 307 363
#     4  11  21  36  63  89 126 159 203 261 325 367
#
# _framework density 20.257584999999999
#
# number of rings (size 3 to 8) (size 9 to 14) (size 15 to 20)
#    0.857    1.143    0.000    5.143    6.000    0.000 
#    0.000    1.429    0.000    0.000    0.000    0.000 
#    0.000    0.000    0.000    0.000    0.000    0.000 
#
# Total GULP energy -155929.761516 kJ/mol
# GULP energy per Si atom -5568.920054 kJ/mol
# Density = 2.021148 g / cm^3
# Si number density = 20.257585 Si / 1000 Ang^3
#
#
#
# Elastic Constant Matrix: (Units=GPa)
#
#
# Indices 1 2 3 4 5 6 
#
# 1 66.4424 11.9093 40.2635 0.0000 0.0000 0.0000
# 2 11.9093 42.4816 24.8843 0.0000 0.0000 0.0000
# 3 40.2635 24.8843 115.7788 0.0000 0.0000 0.0000
# 4 0.0000 0.0000 0.0000 27.6035 0.0000 0.0000
# 5 0.0000 0.0000 0.0000 0.0000 38.8253 0.0000
# 6 0.0000 0.0000 0.0000 0.0000 0.0000 15.6060
#
#
#
# Elastic Compliance Matrix: (Units=1/GPa)
#
#
# Indices 1 2 3 4 5 6 
#
# 1 0.019174 -0.001681 -0.006307 0.000000 0.000000 0.000000
# 2 -0.001681 0.027077 -0.005235 0.000000 0.000000 0.000000
# 3 -0.006307 -0.005235 0.011956 0.000000 0.000000 0.000000
# 4 0.000000 0.000000 0.000000 0.036227 0.000000 0.000000
# 5 0.000000 0.000000 0.000000 0.000000 0.025756 0.000000
# 6 0.000000 0.000000 0.000000 0.000000 0.000000 0.064078
#
#
# Mechanical properties :
#
#
# Convention : Reuss Voigt Hill
#
# Bulk Modulus (GPa) = 31.48495 42.09079 36.78787
# Shear Modulus (GPa) = 22.59367 26.25000 24.42183
#
# Velocity S-wave (km/s) = 3.34326 3.60364 3.47589
# Velocity P-wave (km/s) = 5.52080 6.17559 5.85735
#
# Compressibility (1/GPa) = 0.03176120
#
# Stress axis : x y z
#
# Youngs Moduli (GPa) = 52.15485 36.93114 83.64314
#
# Poissons Ratio (x) = 0.06208 0.52750
# Poissons Ratio (y) = 0.08767 0.43789
# Poissons Ratio (z) = 0.32892 0.19334
#
# Static dielectric constant tensor:
#      x y z
#    x 1.720120 0.000000 0.000000 
#    y 0.000000 1.742170 0.000000 
#    z 0.000000 0.000000 1.815420 
# 
# From -- ./inp_files/3059.got.cif
#   From: 2010.05.17/outbox.cif.g08.bks.cpg/sg19_2_cif.got.tgz:3059.got - 2010.06.03 22:46:19.
