data_PCOD9313014
_publ_section_title
;
Structure prediction by ZEFSAII (Michael W. Deem and Ramdas Pophale) SiO2 
 PCOD9313014
Probable space group: P 21 21 2
;
_chemical_formula_sum "Si O2"
_cell_formula_units_Z 18
_cell_length_a 25.898669
_cell_length_b 4.943379
_cell_length_c 5.846763
_cell_angle_alpha 90.000000
_cell_angle_beta 90.000000
_cell_angle_gamma 90.000000
_cell_volume 748.543155
_symmetry_space_group_name_H-M "P 21 21 2"
_symmetry_group_IT_number 18
_symmetry_cell_setting 'orthorhombic'
loop_
_space_group_symop_operation_xyz
x,y,z
-x,-y,z
1/2+x,1/2-y,-z
1/2-x,1/2+y,-z
loop_
_atom_site_type_symbol
_atom_site_label
_atom_site_fract_x
_atom_site_fract_y
_atom_site_fract_z
Si Si1 0.000000 0.000000 0.045888
Si Si2 0.929663 0.138470 0.671080
Si Si3 0.066192 0.348209 0.385701
Si Si4 0.747097 0.699749 0.837273
Si Si5 0.331648 0.580760 0.505752
O O1 0.965122 0.785931 0.183254
O O2 0.042071 0.819105 0.907121
O O3 0.941773 0.348714 0.469043
O O4 0.867771 0.104060 0.660207
O O5 0.949061 0.839644 0.602328
O O6 0.127060 0.276520 0.368871
O O7 0.698633 0.592930 0.692042
O O8 0.791586 0.760787 0.652107
O O9 0.763021 0.469526 0.017863
#
# Coordination Sequence:
#
# PCOD9313014 Si02
#       5
#     2   4   4   4   4
#     4  12  26  50  84 108 152 214 250 306 404 446
#     4  10  27  47  76 111 152 197 253 319 369 458
#     4  10  27  47  76 111 152 197 253 319 369 458
#     4  12  28  44  82 110 152 212 252 306 384 454
#     4  10  28  49  74 114 164 187 260 320 370 448
#
# _framework density 24.046707999999999
#
# number of rings (size 3 to 8) (size 9 to 14) (size 15 to 20)
#    1.333    0.000    0.000    2.000   12.444    7.111 
#    0.000    0.000    0.000    0.000    0.000    0.000 
#    0.000    0.000    0.000    0.000    0.000    0.000 
#
# Total GULP energy -100605.899655 kJ/mol
# GULP energy per Si atom -5589.216648 kJ/mol
# Density = 2.399198 g / cm^3
# Si number density = 24.046708 Si / 1000 Ang^3
#
#
#
# Elastic Constant Matrix: (Units=GPa)
#
#
# Indices 1 2 3 4 5 6 
#
# 1 117.3601 21.3981 32.6359 0.0000 0.0000 0.0000
# 2 21.3981 82.7621 2.5602 0.0000 0.0000 0.0000
# 3 32.6359 2.5602 56.7373 0.0000 0.0000 0.0000
# 4 0.0000 0.0000 0.0000 44.2133 0.0000 0.0000
# 5 0.0000 0.0000 0.0000 0.0000 29.8745 0.0000
# 6 0.0000 0.0000 0.0000 0.0000 0.0000 38.6867
#
#
#
# Elastic Compliance Matrix: (Units=1/GPa)
#
#
# Indices 1 2 3 4 5 6 
#
# 1 0.010663 -0.002571 -0.006017 0.000000 0.000000 0.000000
# 2 -0.002571 0.012719 0.000905 0.000000 0.000000 0.000000
# 3 -0.006017 0.000905 0.021046 0.000000 0.000000 0.000000
# 4 0.000000 0.000000 0.000000 0.022618 0.000000 0.000000
# 5 0.000000 0.000000 0.000000 0.000000 0.033473 0.000000
# 6 0.000000 0.000000 0.000000 0.000000 0.000000 0.025849
#
#
# Mechanical properties :
#
#
# Convention : Reuss Voigt Hill
#
# Bulk Modulus (GPa) = 34.41019 41.11643 37.76331
# Shear Modulus (GPa) = 33.02046 35.90592 34.46319
#
# Velocity S-wave (km/s) = 3.70966 3.86835 3.78984
# Velocity P-wave (km/s) = 5.71748 6.08998 5.90667
#
# Compressibility (1/GPa) = 0.02906116
#
# Stress axis : x y z
#
# Youngs Moduli (GPa) = 93.78371 78.61950 47.51609
#
# Poissons Ratio (x) = 0.20211 0.28592
# Poissons Ratio (y) = 0.24109 -0.04299
# Poissons Ratio (z) = 0.56433 -0.07113
#
# Static dielectric constant tensor:
#      x y z
#    x 1.983810 0.000000 0.000000 
#    y 0.000000 1.897480 0.000000 
#    z 0.000000 0.000000 1.916140 
# 
# From -- ./inp_files/2052.got.cif
#   From: 2010.05.17/outbox.cif.g08.bks.cpg/sg18_2_cif.got.tgz:2052.got - 2010.06.03 22:40:56.
