data_PCOD9313826
_publ_section_title
;
Structure prediction by ZEFSAII (Michael W. Deem and Ramdas Pophale) SiO2 
 PCOD9313826
Probable space group: P 21 21 21
;
_chemical_formula_sum "Si O2"
_cell_formula_units_Z 32
_cell_length_a 6.082339
_cell_length_b 29.381132
_cell_length_c 8.129795
_cell_angle_alpha 90.000000
_cell_angle_beta 90.000000
_cell_angle_gamma 90.000000
_cell_volume 1452.843186
_symmetry_space_group_name_H-M "P 21 21 21"
_symmetry_group_IT_number 19
_symmetry_cell_setting 'orthorhombic'
loop_
_space_group_symop_operation_xyz
x,y,z
1/2-x,-y,1/2+z
1/2+x,1/2-y,-z
-x,1/2+y,1/2-z
loop_
_atom_site_type_symbol
_atom_site_label
_atom_site_fract_x
_atom_site_fract_y
_atom_site_fract_z
Si Si1 0.301820 0.395971 0.456054
Si Si2 0.289852 0.644348 0.499098
Si Si3 0.015353 0.175837 0.726321
Si Si4 0.751953 0.468605 0.040859
Si Si5 0.932578 0.759867 0.582989
Si Si6 0.081682 0.513145 0.795124
Si Si7 0.596454 0.607903 0.785902
Si Si8 0.584703 0.933988 0.703581
O O1 0.343497 0.343717 0.405749
O O2 0.372721 0.433038 0.316244
O O3 0.040200 0.402122 0.450113
O O4 0.424141 0.411310 0.618536
O O5 0.391138 0.686389 0.399658
O O6 0.448261 0.632362 0.648539
O O7 0.243644 0.599462 0.397385
O O8 0.067109 0.660415 0.591434
O O9 0.055468 0.228827 0.753699
O O10 0.217799 0.144307 0.680037
O O11 0.939880 0.497092 0.952195
O O12 0.639301 0.438903 0.897260
O O13 0.556274 0.495969 0.129770
O O14 0.832010 0.437573 0.191918
O O15 0.687474 0.745190 0.497418
O O16 0.300275 0.483146 0.787410
#
# Coordination Sequence:
#
# PCOD9313826 Si02
#       8
#     4   4   4   4   4   4   4   4
#     4  11  26  38  62  89 132 168 219 266 335 395
#     4  10  20  39  64  95 124 162 213 274 328 395
#     4  10  20  40  64  93 125 165 211 271 329 396
#     4  12  25  41  65  90 125 169 221 266 333 390
#     4  10  20  35  70 105 129 167 226 282 338 407
#     4  12  26  39  62  93 126 168 219 274 327 399
#     4  11  20  41  63  88 118 166 208 266 322 385
#     4  12  25  41  60  91 131 171 215 273 328 407
#
# _framework density 22.025776
#
# number of rings (size 3 to 8) (size 9 to 14) (size 15 to 20)
#    0.000    1.000    5.000    2.250    5.250    1.000 
#    0.000    0.000    2.750    0.000    0.000    0.000 
#    0.000    0.000    0.000    0.000    0.000    0.000 
#
# Total GULP energy -178378.593320 kJ/mol
# GULP energy per Si atom -5574.331041 kJ/mol
# Density = 2.197564 g / cm^3
# Si number density = 22.025776 Si / 1000 Ang^3
#
#
#
# Elastic Constant Matrix: (Units=GPa)
#
#
# Indices 1 2 3 4 5 6 
#
# 1 64.7147 -3.4018 -0.3896 0.0000 0.0000 0.0000
# 2 -3.4018 28.1268 -20.4059 0.0000 0.0000 0.0000
# 3 -0.3896 -20.4059 41.2019 0.0000 0.0000 0.0000
# 4 0.0000 0.0000 0.0000 14.8589 0.0000 0.0000
# 5 0.0000 0.0000 0.0000 0.0000 25.7700 0.0000
# 6 0.0000 0.0000 0.0000 0.0000 0.0000 32.0734
#
#
#
# Elastic Compliance Matrix: (Units=1/GPa)
#
#
# Indices 1 2 3 4 5 6 
#
# 1 0.015626 0.003117 0.001692 0.000000 0.000000 0.000000
# 2 0.003117 0.056115 0.027821 0.000000 0.000000 0.000000
# 3 0.001692 0.027821 0.038066 0.000000 0.000000 0.000000
# 4 0.000000 0.000000 0.000000 0.067300 0.000000 0.000000
# 5 0.000000 0.000000 0.000000 0.000000 0.038805 0.000000
# 6 0.000000 0.000000 0.000000 0.000000 0.000000 0.031178
#
#
# Mechanical properties :
#
#
# Convention : Reuss Voigt Hill
#
# Bulk Modulus (GPa) = 5.71210 9.51651 7.61431
# Shear Modulus (GPa) = 20.81724 25.08983 22.95353
#
# Velocity S-wave (km/s) = 3.07763 3.37873 3.23169
# Velocity P-wave (km/s) = 3.90232 4.42167 4.17009
#
# Compressibility (1/GPa) = 0.17506695
#
# Stress axis : x y z
#
# Youngs Moduli (GPa) = 63.99390 17.82067 26.27037
#
# Poissons Ratio (x) = -0.05555 -0.04444
# Poissons Ratio (y) = -0.19948 -0.73087
# Poissons Ratio (z) = -0.10825 -0.49579
#
# Static dielectric constant tensor:
#      x y z
#    x 2.006270 0.000000 0.000000 
#    y 0.000000 1.814550 0.000000 
#    z 0.000000 0.000000 1.811920 
# 
# From -- ./inp_files/727.got.cif
#   From: 2010.05.17/outbox.cif.g08.bks.cpg/sg19_1_cif.got.tgz:727.got - 2010.06.03 22:46:19.
