data_PCOD9313472
_publ_section_title
;
Structure prediction by ZEFSAII (Michael W. Deem and Ramdas Pophale) SiO2 
 PCOD9313472
Probable space group: P 21 21 21
;
_chemical_formula_sum "Si O2"
_cell_formula_units_Z 24
_cell_length_a 8.042278
_cell_length_b 24.091545
_cell_length_c 5.022066
_cell_angle_alpha 90.000000
_cell_angle_beta 90.000000
_cell_angle_gamma 90.000000
_cell_volume 973.029819
_symmetry_space_group_name_H-M "P 21 21 21"
_symmetry_group_IT_number 19
_symmetry_cell_setting 'orthorhombic'
loop_
_space_group_symop_operation_xyz
x,y,z
1/2-x,-y,1/2+z
1/2+x,1/2-y,-z
-x,1/2+y,1/2-z
loop_
_atom_site_type_symbol
_atom_site_label
_atom_site_fract_x
_atom_site_fract_y
_atom_site_fract_z
Si Si1 0.931003 0.670734 0.483463
Si Si2 0.323534 0.886914 0.015323
Si Si3 0.042925 0.529338 0.200949
Si Si4 0.754671 0.930035 0.289840
Si Si5 0.866350 0.289166 0.300373
Si Si6 0.745664 0.200016 0.728832
O O1 0.898765 0.618745 0.688809
O O2 0.764806 0.704054 0.560567
O O3 0.944261 0.783197 0.281632
O O4 0.932619 0.651832 0.181688
O O5 0.158236 0.848944 0.041146
O O6 0.359388 0.945574 0.869453
O O7 0.155564 0.559299 0.430942
O O8 0.069104 0.463249 0.228003
O O9 0.141288 0.541762 0.931407
O O10 0.773224 0.866717 0.202971
O O11 0.804063 0.239534 0.488390
O O12 0.899811 0.199343 0.932302
#
# Coordination Sequence:
#
# PCOD9313472 Si02
#       6
#     4   4   4   4   4   4
#     4  10  22  42  60  93 123 169 206 266 309 384
#     4  10  19  43  62  89 126 164 208 263 319 371
#     4  10  18  38  65  91 123 166 212 266 320 375
#     4  10  21  34  64  96 121 164 220 258 316 393
#     4  10  24  40  66  94 132 171 215 264 323 390
#     4  12  20  45  63  99 129 176 213 265 327 387
#
# _framework density 24.665223999999998
#
# number of rings (size 3 to 8) (size 9 to 14) (size 15 to 20)
#    1.000    0.667    5.000    0.000    0.000    0.000 
#   15.000    0.000    3.667    0.000    0.000    0.000 
#    0.000    0.000    0.000    0.000    0.000    0.000 
#
# Total GULP energy -133676.683955 kJ/mol
# GULP energy per Si atom -5569.861831 kJ/mol
# Density = 2.460909 g / cm^3
# Si number density = 24.665224 Si / 1000 Ang^3
#
#
#
# Elastic Constant Matrix: (Units=GPa)
#
#
# Indices 1 2 3 4 5 6 
#
# 1 96.8132 -3.6390 -9.7113 0.0000 0.0000 0.0000
# 2 -3.6390 78.3815 -27.1231 0.0000 0.0000 0.0000
# 3 -9.7113 -27.1231 65.1796 0.0000 0.0000 0.0000
# 4 0.0000 0.0000 0.0000 17.6651 0.0000 0.0000
# 5 0.0000 0.0000 0.0000 0.0000 25.1002 0.0000
# 6 0.0000 0.0000 0.0000 0.0000 0.0000 29.8987
#
#
#
# Elastic Compliance Matrix: (Units=1/GPa)
#
#
# Indices 1 2 3 4 5 6 
#
# 1 0.010583 0.001211 0.002081 0.000000 0.000000 0.000000
# 2 0.001211 0.015043 0.006440 0.000000 0.000000 0.000000
# 3 0.002081 0.006440 0.018332 0.000000 0.000000 0.000000
# 4 0.000000 0.000000 0.000000 0.056609 0.000000 0.000000
# 5 0.000000 0.000000 0.000000 0.000000 0.039840 0.000000
# 6 0.000000 0.000000 0.000000 0.000000 0.000000 0.033446
#
#
# Mechanical properties :
#
#
# Convention : Reuss Voigt Hill
#
# Bulk Modulus (GPa) = 15.76684 17.71415 16.74049
# Shear Modulus (GPa) = 28.48517 33.25597 30.87057
#
# Velocity S-wave (km/s) = 3.40203 3.67590 3.54161
# Velocity P-wave (km/s) = 4.67311 5.02132 4.85034
#
# Compressibility (1/GPa) = 0.06342425
#
# Stress axis : x y z
#
# Youngs Moduli (GPa) = 94.48714 66.47622 54.54855
#
# Poissons Ratio (x) = -0.08053 -0.11351
# Poissons Ratio (y) = -0.11447 -0.35131
# Poissons Ratio (z) = -0.19663 -0.42813
#
# Static dielectric constant tensor:
#      x y z
#    x 1.959510 0.000000 0.000000 
#    y 0.000000 2.181640 0.000000 
#    z 0.000000 0.000000 1.919690 
# 
# From -- ./inp_files/1842.got.cif
#   From: 2010.05.17/outbox.cif.g08.bks.cpg/sg19_1_cif.got.tgz:1842.got - 2010.06.03 22:46:19.
