data_PCOD9313535
_publ_section_title
;
Structure prediction by ZEFSAII (Michael W. Deem and Ramdas Pophale) SiO2 
 PCOD9313535
Probable space group: P 21 21 21
;
_chemical_formula_sum "Si O2"
_cell_formula_units_Z 28
_cell_length_a 15.788934
_cell_length_b 8.239665
_cell_length_c 7.961772
_cell_angle_alpha 90.000000
_cell_angle_beta 90.000000
_cell_angle_gamma 90.000000
_cell_volume 1035.790923
_symmetry_space_group_name_H-M "P 21 21 21"
_symmetry_group_IT_number 19
_symmetry_cell_setting 'orthorhombic'
loop_
_space_group_symop_operation_xyz
x,y,z
1/2-x,-y,1/2+z
1/2+x,1/2-y,-z
-x,1/2+y,1/2-z
loop_
_atom_site_type_symbol
_atom_site_label
_atom_site_fract_x
_atom_site_fract_y
_atom_site_fract_z
Si Si1 0.001709 0.141597 0.345896
Si Si2 0.168899 0.817229 0.047192
Si Si3 0.288931 0.321923 0.198419
Si Si4 0.583004 0.038794 0.566446
Si Si5 0.746173 0.141151 0.151288
Si Si6 0.441603 0.918078 0.391977
Si Si7 0.949334 0.382366 0.914846
O O1 0.038876 0.973128 0.410705
O O2 0.973419 0.099367 0.160301
O O3 0.068091 0.284729 0.358831
O O4 0.914833 0.199318 0.439534
O O5 0.222252 0.779110 0.217228
O O6 0.219460 0.768254 0.877848
O O7 0.128709 0.994266 0.009972
O O8 0.307912 0.510340 0.245310
O O9 0.371540 0.239452 0.114420
O O10 0.222784 0.313344 0.041141
O O11 0.526049 0.032541 0.402032
O O12 0.674911 0.978762 0.610368
O O13 0.420169 0.965774 0.200921
O O14 0.467450 0.730650 0.393985
#
# Coordination Sequence:
#
# PCOD9313535 Si02
#       7
#     4   4   4   4   4   4   4
#     4  10  21  36  59  90 127 146 202 256 323 371
#     4   9  21  37  57  92 122 155 203 259 304 371
#     4  11  21  36  60  87 119 167 217 243 293 364
#     4  10  20  35  58  88 118 161 195 255 311 365
#     4  11  21  37  61  85 126 169 215 248 293 365
#     4  10  19  33  56  87 124 146 198 247 320 367
#     4  11  21  36  59  93 122 160 196 260 320 373
#
# _framework density 27.032484
#
# number of rings (size 3 to 8) (size 9 to 14) (size 15 to 20)
#    0.000    1.714    2.857    3.429    4.000    0.000 
#    0.000    0.000    0.000   13.714    0.000    0.000 
#    0.000    0.000    0.000    0.000    0.000    0.000 
#
# Total GULP energy -156130.427330 kJ/mol
# GULP energy per Si atom -5576.086690 kJ/mol
# Density = 2.697096 g / cm^3
# Si number density = 27.032484 Si / 1000 Ang^3
#
#
#
# Elastic Constant Matrix: (Units=GPa)
#
#
# Indices 1 2 3 4 5 6 
#
# 1 41.0835 29.8074 2.4933 0.0000 0.0000 0.0000
# 2 29.8074 126.5550 26.7084 0.0000 0.0000 0.0000
# 3 2.4933 26.7084 136.9814 0.0000 0.0000 0.0000
# 4 0.0000 0.0000 0.0000 19.8818 0.0000 0.0000
# 5 0.0000 0.0000 0.0000 0.0000 17.9759 0.0000
# 6 0.0000 0.0000 0.0000 0.0000 0.0000 48.0241
#
#
#
# Elastic Compliance Matrix: (Units=1/GPa)
#
#
# Indices 1 2 3 4 5 6 
#
# 1 0.029452 -0.007117 0.000851 0.000000 0.000000 0.000000
# 2 -0.007117 0.009960 -0.001813 0.000000 0.000000 0.000000
# 3 0.000851 -0.001813 0.007638 0.000000 0.000000 0.000000
# 4 0.000000 0.000000 0.000000 0.050297 0.000000 0.000000
# 5 0.000000 0.000000 0.000000 0.000000 0.055630 0.000000
# 6 0.000000 0.000000 0.000000 0.000000 0.000000 0.020823
#
#
# Mechanical properties :
#
#
# Convention : Reuss Voigt Hill
#
# Bulk Modulus (GPa) = 32.36704 46.95981 39.66342
# Shear Modulus (GPa) = 24.96819 33.55041 29.25930
#
# Velocity S-wave (km/s) = 3.04244 3.52677 3.29352
# Velocity P-wave (km/s) = 4.93369 5.83039 5.40068
#
# Compressibility (1/GPa) = 0.03089563
#
# Stress axis : x y z
#
# Youngs Moduli (GPa) = 33.95316 100.39764 130.92152
#
# Poissons Ratio (x) = 0.71449 -0.11148
# Poissons Ratio (y) = 0.24163 0.23730
# Poissons Ratio (z) = -0.02891 0.18197
#
# Static dielectric constant tensor:
#      x y z
#    x 2.437250 0.000000 0.000000 
#    y 0.000000 2.082600 0.000000 
#    z 0.000000 0.000000 2.365800 
# 
# From -- ./inp_files/3060.got.cif
#   From: 2010.05.17/outbox.cif.g08.bks.cpg/sg19_2_cif.got.tgz:3060.got - 2010.06.03 22:46:19.
