data_PCOD9313930
_publ_section_title
;
Structure prediction by ZEFSAII (Michael W. Deem and Ramdas Pophale) SiO2 
 PCOD9313930
Probable space group: P 21 21 21
;
_chemical_formula_sum "Si O2"
_cell_formula_units_Z 24
_cell_length_a 7.307174
_cell_length_b 26.780995
_cell_length_c 4.907136
_cell_angle_alpha 90.000000
_cell_angle_beta 90.000000
_cell_angle_gamma 90.000000
_cell_volume 960.294081
_symmetry_space_group_name_H-M "P 21 21 21"
_symmetry_group_IT_number 19
_symmetry_cell_setting 'orthorhombic'
loop_
_space_group_symop_operation_xyz
x,y,z
1/2-x,-y,1/2+z
1/2+x,1/2-y,-z
-x,1/2+y,1/2-z
loop_
_atom_site_type_symbol
_atom_site_label
_atom_site_fract_x
_atom_site_fract_y
_atom_site_fract_z
Si Si1 0.418691 0.243804 0.662551
Si Si2 0.416015 0.950920 0.004507
Si Si3 0.947515 0.849311 0.466687
Si Si4 0.021289 0.981617 0.999644
Si Si5 0.729689 0.296880 0.864264
Si Si6 0.763464 0.896702 0.961716
O O1 0.554266 0.201407 0.787758
O O2 0.360460 0.229726 0.360346
O O3 0.529402 0.293679 0.734515
O O4 0.243195 0.234096 0.853701
O O5 0.198987 0.945892 0.967159
O O6 0.546647 0.903842 0.964826
O O7 0.474747 0.995819 0.801351
O O8 0.449150 0.970916 0.307341
O O9 0.163216 0.848012 0.556071
O O10 0.835620 0.857223 0.742430
O O11 0.857850 0.887153 0.254013
O O12 0.848479 0.950990 0.896002
#
# Coordination Sequence:
#
# PCOD9313930 Si02
#       6
#     4   4   4   4   4   4
#     4  10  20  38  61  82 113 151 195 243 292 350
#     4  10  21  37  58  85 113 154 199 231 275 348
#     4  10  22  37  56  86 118 146 188 238 298 347
#     4  10  21  37  58  85 113 154 199 231 275 348
#     4  10  20  38  61  82 113 151 195 243 292 350
#     4  12  20  37  60  82 124 150 184 244 300 335
#
# _framework density 24.992339999999999
#
# number of rings (size 3 to 8) (size 9 to 14) (size 15 to 20)
#    1.000    0.667    1.667    4.000    0.000    0.000 
#    0.000    5.000    0.000    0.000    0.000    0.000 
#    0.000    0.000    0.000    0.000    0.000    0.000 
#
# Total GULP energy -133849.260148 kJ/mol
# GULP energy per Si atom -5577.052506 kJ/mol
# Density = 2.493546 g / cm^3
# Si number density = 24.992340 Si / 1000 Ang^3
#
#
#
# Elastic Constant Matrix: (Units=GPa)
#
#
# Indices 1 2 3 4 5 6 
#
# 1 56.1439 6.3341 0.7948 0.0000 0.0000 0.0000
# 2 6.3341 29.8159 -1.7853 0.0000 0.0000 0.0000
# 3 0.7948 -1.7853 105.7470 0.0000 0.0000 0.0000
# 4 0.0000 0.0000 0.0000 27.7116 0.0000 0.0000
# 5 0.0000 0.0000 0.0000 0.0000 11.5301 0.0000
# 6 0.0000 0.0000 0.0000 0.0000 0.0000 35.5657
#
#
#
# Elastic Compliance Matrix: (Units=1/GPa)
#
#
# Indices 1 2 3 4 5 6 
#
# 1 0.018253 -0.003890 -0.000203 0.000000 0.000000 0.000000
# 2 -0.003890 0.034402 0.000610 0.000000 0.000000 0.000000
# 3 -0.000203 0.000610 0.009468 0.000000 0.000000 0.000000
# 4 0.000000 0.000000 0.000000 0.036086 0.000000 0.000000
# 5 0.000000 0.000000 0.000000 0.000000 0.086729 0.000000
# 6 0.000000 0.000000 0.000000 0.000000 0.000000 0.028117
#
#
# Mechanical properties :
#
#
# Convention : Reuss Voigt Hill
#
# Bulk Modulus (GPa) = 18.12968 22.48823 20.30896
# Shear Modulus (GPa) = 20.97254 27.38571 24.17913
#
# Velocity S-wave (km/s) = 2.89997 3.31382 3.11378
# Velocity P-wave (km/s) = 4.29918 4.86410 4.59034
#
# Compressibility (1/GPa) = 0.05515816
#
# Stress axis : x y z
#
# Youngs Moduli (GPa) = 54.78528 29.06804 105.61492
#
# Poissons Ratio (x) = 0.11307 0.02143
# Poissons Ratio (y) = 0.21310 -0.06443
# Poissons Ratio (z) = 0.01111 -0.01773
#
# Static dielectric constant tensor:
#      x y z
#    x 1.993030 0.000000 0.000000 
#    y 0.000000 2.110670 0.000000 
#    z 0.000000 0.000000 1.915730 
# 
# From -- ./inp_files/495.got.cif
#   From: 2010.05.17/outbox.cif.g08.bks.cpg/sg19_1_cif.got.tgz:495.got - 2010.06.03 22:46:19.
