data_PCOD9313077
_publ_section_title
;
Structure prediction by ZEFSAII (Michael W. Deem and Ramdas Pophale) SiO2 
 PCOD9313077
Probable space group: P 21 21 2
;
_chemical_formula_sum "Si O2"
_cell_formula_units_Z 20
_cell_length_a 5.202350
_cell_length_b 14.943888
_cell_length_c 10.010318
_cell_angle_alpha 90.000000
_cell_angle_beta 90.000000
_cell_angle_gamma 90.000000
_cell_volume 778.235513
_symmetry_space_group_name_H-M "P 21 21 2"
_symmetry_group_IT_number 18
_symmetry_cell_setting 'orthorhombic'
loop_
_space_group_symop_operation_xyz
x,y,z
-x,-y,z
1/2+x,1/2-y,-z
1/2-x,1/2+y,-z
loop_
_atom_site_type_symbol
_atom_site_label
_atom_site_fract_x
_atom_site_fract_y
_atom_site_fract_z
Si Si1 0.317961 0.087489 0.750589
Si Si2 0.955865 0.261669 0.914292
Si Si3 0.761457 0.945730 0.045853
Si Si4 0.980507 0.900206 0.476039
Si Si5 0.221209 0.278307 0.342979
O O1 0.174106 0.082111 0.892828
O O2 0.166960 0.079657 0.613625
O O3 0.494409 0.175273 0.740117
O O4 0.500000 0.000000 0.754022
O O5 0.953035 0.221313 0.764668
O O6 0.734641 0.221631 0.016063
O O7 0.814758 0.355277 0.883974
O O8 0.500000 0.000000 0.044611
O O9 0.000000 0.000000 0.100065
O O10 0.839723 0.820639 0.395938
O O11 0.229565 0.845718 0.532132
O O12 0.000000 0.000000 0.412765
#
# Coordination Sequence:
#
# PCOD9313077 Si02
#       5
#     4   4   4   4   4
#     4  11  22  41  69 102 135 187 241 294 350 432
#     4  12  26  46  71 104 145 187 236 296 363 431
#     4  11  24  43  70 103 141 186 242 299 355 430
#     4  12  25  44  71 103 141 185 242 298 360 430
#     4  12  26  44  71 105 142 191 237 298 365 429
#
# _framework density 25.699161
#
# number of rings (size 3 to 8) (size 9 to 14) (size 15 to 20)
#    0.000    0.400    6.000    3.000    5.600    0.800 
#    0.000    3.000    0.000    0.000    0.000    0.000 
#    0.000    0.000    0.000    0.000    0.000    0.000 
#
# Total GULP energy -111776.956335 kJ/mol
# GULP energy per Si atom -5588.847817 kJ/mol
# Density = 2.564067 g / cm^3
# Si number density = 25.699161 Si / 1000 Ang^3
#
#
#
# Elastic Constant Matrix: (Units=GPa)
#
#
# Indices 1 2 3 4 5 6 
#
# 1 79.3710 15.6460 23.0575 0.0000 0.0000 0.0000
# 2 15.6460 164.7902 29.4785 0.0000 0.0000 0.0000
# 3 23.0575 29.4785 104.2147 0.0000 0.0000 0.0000
# 4 0.0000 0.0000 0.0000 -102.6025 0.0000 0.0000
# 5 0.0000 0.0000 0.0000 0.0000 31.1614 0.0000
# 6 0.0000 0.0000 0.0000 0.0000 0.0000 43.5367
#
#
#
# Elastic Compliance Matrix: (Units=1/GPa)
#
#
# Indices 1 2 3 4 5 6 
#
# 1 0.013562 -0.000791 -0.002777 0.000000 0.000000 0.000000
# 2 -0.000791 0.006438 -0.001646 0.000000 0.000000 0.000000
# 3 -0.002777 -0.001646 0.010676 0.000000 0.000000 0.000000
# 4 0.000000 0.000000 0.000000 -0.009746 0.000000 0.000000
# 5 0.000000 0.000000 0.000000 0.000000 0.032091 0.000000
# 6 0.000000 0.000000 0.000000 0.000000 0.000000 0.022969
#
#
# Mechanical properties :
#
#
# Convention : Reuss Voigt Hill
#
# Bulk Modulus (GPa) = 49.38861 53.85998 51.62430
# Shear Modulus (GPa) = 53.66796 13.09872 33.38334
#
# Velocity S-wave (km/s) = 4.57477 2.26009 3.60808
# Velocity P-wave (km/s) = 6.86763 5.27390 6.12284
#
# Compressibility (1/GPa) = 0.02024758
#
# Stress axis : x y z
#
# Youngs Moduli (GPa) = 73.73747 155.33098 93.67200
#
# Poissons Ratio (x) = 0.12285 0.26011
# Poissons Ratio (y) = 0.05832 0.15419
# Poissons Ratio (z) = 0.20475 0.25568
#
# Static dielectric constant tensor:
#      x y z
#    x 2.044650 0.000000 0.000000 
#    y 0.000000 2.182280 0.000000 
#    z 0.000000 0.000000 1.990590 
# 
# From -- ./inp_files/5046.got.cif
#   From: 2010.05.17/outbox.cif.g08.bks.cpg/sg18_3_cif.got.tgz:5046.got - 2010.06.03 22:40:56.
