data_PCOD9313286
_publ_section_title
;
Structure prediction by ZEFSAII (Michael W. Deem and Ramdas Pophale) SiO2 
 PCOD9313286
Probable space group: P 21 21 2
;
_chemical_formula_sum "Si O2"
_cell_formula_units_Z 24
_cell_length_a 15.000000
_cell_length_b 9.000000
_cell_length_c 9.000000
_cell_angle_alpha 90.000000
_cell_angle_beta 90.000000
_cell_angle_gamma 90.000000
_cell_volume 1215.000000
_symmetry_space_group_name_H-M "P 21 21 2"
_symmetry_group_IT_number 18
_symmetry_cell_setting 'orthorhombic'
loop_
_space_group_symop_operation_xyz
x,y,z
-x,-y,z
1/2+x,1/2-y,-z
1/2-x,1/2+y,-z
loop_
_atom_site_type_symbol
_atom_site_label
_atom_site_fract_x
_atom_site_fract_y
_atom_site_fract_z
Si Si1 0.769973 0.519534 0.917090
Si Si2 0.879199 0.790577 0.057606
Si Si3 0.705367 0.645893 0.591049
Si Si4 0.537764 0.828200 0.471058
Si Si5 0.049011 0.658234 0.882077
Si Si6 0.638636 0.315139 0.583715
O O1 0.678962 0.441162 0.978785
O O2 0.744533 0.600488 0.757150
O O3 0.846419 0.386902 0.915050
O O4 0.818174 0.650582 0.008335
O O5 0.877168 0.794963 0.238347
O O6 0.978967 0.764551 0.980004
O O7 0.624979 0.768888 0.564840
O O8 0.667050 0.484168 0.546078
O O9 0.786122 0.706587 0.487906
O O10 0.552438 0.805864 0.294046
O O11 0.455499 0.724793 0.513481
O O12 0.500000 0.000000 0.494999
O O13 0.000000 0.500000 0.896558
#
# Coordination Sequence:
#
# PCOD9313286 Si02
#       6
#     4   4   4   4   4   4
#     4  10  22  42  61  88 126 168 217 273 328 394
#     4  10  22  38  62  91 125 167 213 269 334 396
#     4  11  23  42  65  92 131 172 218 274 326 397
#     4  11  22  39  65  94 124 166 213 267 333 399
#     4   9  19  40  63  88 126 167 208 265 333 395
#     4  11  23  39  61  95 129 168 220 272 328 391
#
# _framework density 19.753086
#
# number of rings (size 3 to 8) (size 9 to 14) (size 15 to 20)
#    0.000    1.667    0.000    6.500    0.000    7.333 
#    0.000    4.167    0.000    0.000    0.000    0.000 
#    0.000    0.000    0.000    0.000    0.000    0.000 
#
# Total GULP energy -133636.697648 kJ/mol
# GULP energy per Si atom -5568.195735 kJ/mol
# Density = 1.970813 g / cm^3
# Si number density = 19.753086 Si / 1000 Ang^3
#
#
#
# Elastic Constant Matrix: (Units=GPa)
#
#
# Indices 1 2 3 4 5 6 
#
# 1 132.0955 20.1091 30.0639 0.0000 0.0000 0.0000
# 2 20.1091 78.0409 32.6656 0.0000 0.0000 0.0000
# 3 30.0639 32.6656 67.2869 0.0000 0.0000 0.0000
# 4 0.0000 0.0000 0.0000 35.5956 0.0000 0.0000
# 5 0.0000 0.0000 0.0000 0.0000 38.9563 0.0000
# 6 0.0000 0.0000 0.0000 0.0000 0.0000 51.6501
#
#
#
# Elastic Compliance Matrix: (Units=1/GPa)
#
#
# Indices 1 2 3 4 5 6 
#
# 1 0.008462 -0.000750 -0.003417 0.000000 0.000000 0.000000
# 2 -0.000750 0.016148 -0.007504 0.000000 0.000000 0.000000
# 3 -0.003417 -0.007504 0.020031 0.000000 0.000000 0.000000
# 4 0.000000 0.000000 0.000000 0.028093 0.000000 0.000000
# 5 0.000000 0.000000 0.000000 0.000000 0.025670 0.000000
# 6 0.000000 0.000000 0.000000 0.000000 0.000000 0.019361
#
#
# Mechanical properties :
#
#
# Convention : Reuss Voigt Hill
#
# Bulk Modulus (GPa) = 46.94983 49.23338 48.09160
# Shear Modulus (GPa) = 33.73642 38.21270 35.97456
#
# Velocity S-wave (km/s) = 4.13717 4.40309 4.27220
# Velocity P-wave (km/s) = 6.82946 7.12938 6.98103
#
# Compressibility (1/GPa) = 0.02129933
#
# Stress axis : x y z
#
# Youngs Moduli (GPa) = 118.17396 61.92653 49.92191
#
# Poissons Ratio (x) = 0.04647 0.17056
# Poissons Ratio (y) = 0.08868 0.37462
# Poissons Ratio (z) = 0.40375 0.46471
#
# Static dielectric constant tensor:
#      x y z
#    x 1.740210 0.000000 0.000000 
#    y 0.000000 1.718170 0.000000 
#    z 0.000000 0.000000 1.721790 
# 
# From -- ./inp_files/4181.got.cif
#   From: 2010.05.17/outbox.ucp.g08.bks.cvg/sg18_3_cif.got.tgz:4181.got - 2010.06.11 13:13:23.
