data_PCOD9313655
_publ_section_title
;
Structure prediction by ZEFSAII (Michael W. Deem and Ramdas Pophale) SiO2 
 PCOD9313655
Probable space group: P 21 21 21
;
_chemical_formula_sum "Si O2"
_cell_formula_units_Z 32
_cell_length_a 11.640765
_cell_length_b 7.620385
_cell_length_c 15.256858
_cell_angle_alpha 90.000000
_cell_angle_beta 90.000000
_cell_angle_gamma 90.000000
_cell_volume 1353.391796
_symmetry_space_group_name_H-M "P 21 21 21"
_symmetry_group_IT_number 19
_symmetry_cell_setting 'orthorhombic'
loop_
_space_group_symop_operation_xyz
x,y,z
1/2-x,-y,1/2+z
1/2+x,1/2-y,-z
-x,1/2+y,1/2-z
loop_
_atom_site_type_symbol
_atom_site_label
_atom_site_fract_x
_atom_site_fract_y
_atom_site_fract_z
Si Si1 0.310571 0.628353 0.377781
Si Si2 0.324730 0.768284 0.184012
Si Si3 0.835899 0.752413 0.445088
Si Si4 0.701531 0.655607 0.278270
Si Si5 0.434635 0.954084 0.813152
Si Si6 0.436051 0.364238 0.856489
Si Si7 0.615786 0.828312 0.933436
Si Si8 0.559966 0.794868 0.119606
O O1 0.311755 0.671733 0.275677
O O2 0.316386 0.778181 0.451863
O O3 0.181294 0.552592 0.392810
O O4 0.420499 0.503962 0.391720
O O5 0.207304 0.760424 0.130408
O O6 0.433635 0.714711 0.126447
O O7 0.352819 0.965909 0.210625
O O8 0.734205 0.717222 0.375892
O O9 0.949132 0.646658 0.414788
O O10 0.853047 0.963638 0.436767
O O11 0.822051 0.630848 0.227738
O O12 0.622094 0.760013 0.211704
O O13 0.528986 0.952945 0.735219
O O14 0.489387 0.838525 0.890632
O O15 0.411513 0.155751 0.839143
O O16 0.617011 0.737113 0.028007
#
# Coordination Sequence:
#
# PCOD9313655 Si02
#       8
#     4   4   4   4   4   4   4   4
#     4  11  22  44  65  93 134 178 215 265 338 395
#     4  12  24  44  66  98 133 177 219 275 336 397
#     4   9  23  40  65  97 127 168 219 269 328 392
#     4  11  23  40  65 100 131 169 223 275 328 392
#     4  10  19  37  64  94 122 164 219 270 319 384
#     4  10  20  37  65  92 123 168 212 269 323 380
#     4  10  22  43  65  93 128 177 217 273 328 393
#     4  11  27  41  65  95 136 181 218 272 338 395
#
# _framework density 23.644297999999999
#
# number of rings (size 3 to 8) (size 9 to 14) (size 15 to 20)
#    0.000    1.500    2.500    1.500    5.250    5.000 
#    0.000    1.250    0.000    0.000    0.000    0.000 
#    0.000    0.000    0.000    0.000    0.000    0.000 
#
# Total GULP energy -178690.442365 kJ/mol
# GULP energy per Si atom -5584.076324 kJ/mol
# Density = 2.359048 g / cm^3
# Si number density = 23.644298 Si / 1000 Ang^3
#
#
#
# Elastic Constant Matrix: (Units=GPa)
#
#
# Indices 1 2 3 4 5 6 
#
# 1 62.0090 -4.7042 6.6018 0.0000 0.0000 0.0000
# 2 -4.7042 29.9154 1.8778 0.0000 0.0000 0.0000
# 3 6.6018 1.8778 105.3551 0.0000 0.0000 0.0000
# 4 0.0000 0.0000 0.0000 13.2684 0.0000 0.0000
# 5 0.0000 0.0000 0.0000 0.0000 27.4279 0.0000
# 6 0.0000 0.0000 0.0000 0.0000 0.0000 18.9363
#
#
#
# Elastic Compliance Matrix: (Units=1/GPa)
#
#
# Indices 1 2 3 4 5 6 
#
# 1 0.016443 0.002653 -0.001078 0.000000 0.000000 0.000000
# 2 0.002653 0.033893 -0.000770 0.000000 0.000000 0.000000
# 3 -0.001078 -0.000770 0.009573 0.000000 0.000000 0.000000
# 4 0.000000 0.000000 0.000000 0.075367 0.000000 0.000000
# 5 0.000000 0.000000 0.000000 0.000000 0.036459 0.000000
# 6 0.000000 0.000000 0.000000 0.000000 0.000000 0.052809
#
#
# Mechanical properties :
#
#
# Convention : Reuss Voigt Hill
#
# Bulk Modulus (GPa) = 16.25505 22.75892 19.50698
# Shear Modulus (GPa) = 20.53900 24.82681 22.68291
#
# Velocity S-wave (km/s) = 2.95051 3.24391 3.10068
# Velocity P-wave (km/s) = 4.30083 4.86590 4.59206
#
# Compressibility (1/GPa) = 0.06151934
#
# Stress axis : x y z
#
# Youngs Moduli (GPa) = 60.81723 29.50451 104.46081
#
# Poissons Ratio (x) = -0.07828 0.11257
# Poissons Ratio (y) = -0.16136 0.08047
# Poissons Ratio (z) = 0.06554 0.02273
#
# Static dielectric constant tensor:
#      x y z
#    x 1.925060 0.000000 0.000000 
#    y 0.000000 1.935560 0.000000 
#    z 0.000000 0.000000 1.954860 
# 
# From -- ./inp_files/5889.got.cif
#   From: 2010.05.17/outbox.cif.g08.bks.cpg/sg19_3_cif.got.tgz:5889.got - 2010.06.03 22:46:19.
