data_PCOD9313509
_publ_section_title
;
Structure prediction by ZEFSAII (Michael W. Deem and Ramdas Pophale) SiO2 
 PCOD9313509
Probable space group: P 21 21 21
;
_chemical_formula_sum "Si O2"
_cell_formula_units_Z 28
_cell_length_a 9.353896
_cell_length_b 14.356047
_cell_length_c 8.063738
_cell_angle_alpha 90.000000
_cell_angle_beta 90.000000
_cell_angle_gamma 90.000000
_cell_volume 1082.838820
_symmetry_space_group_name_H-M "P 21 21 21"
_symmetry_group_IT_number 19
_symmetry_cell_setting 'orthorhombic'
loop_
_space_group_symop_operation_xyz
x,y,z
1/2-x,-y,1/2+z
1/2+x,1/2-y,-z
-x,1/2+y,1/2-z
loop_
_atom_site_type_symbol
_atom_site_label
_atom_site_fract_x
_atom_site_fract_y
_atom_site_fract_z
Si Si1 0.200628 0.297129 0.796348
Si Si2 0.273798 0.926576 0.533215
Si Si3 0.463295 0.942024 0.938970
Si Si4 0.570602 0.922783 0.579273
Si Si5 0.873868 0.279276 0.731727
Si Si6 0.248600 0.396608 0.440942
Si Si7 0.210043 0.864020 0.104173
O O1 0.292172 0.354948 0.930919
O O2 0.218148 0.349668 0.618987
O O3 0.283907 0.199767 0.765190
O O4 0.031381 0.281230 0.814112
O O5 0.433386 0.909461 0.459145
O O6 0.308364 0.026272 0.622992
O O7 0.132253 0.965664 0.443727
O O8 0.223955 0.846137 0.655929
O O9 0.607394 0.957162 0.039427
O O10 0.371559 0.861860 0.029248
O O11 0.505695 0.903544 0.760769
O O12 0.626572 0.028458 0.590505
O O13 0.791652 0.182761 0.690601
O O14 0.885303 0.325119 0.546121
#
# Coordination Sequence:
#
# PCOD9313509 Si02
#       7
#     4   4   4   4   4   4   4
#     4  10  21  33  59  84 117 141 193 246 284 332
#     4  10  19  32  55  78 114 148 189 228 291 335
#     4   9  19  38  53  80 121 142 189 239 279 343
#     4  11  21  35  55  89 115 152 187 241 289 341
#     4  11  18  34  57  82 106 154 184 235 288 338
#     4  10  21  34  56  84 116 148 192 234 290 342
#     4   9  19  34  55  83 113 141 188 237 279 335
#
# _framework density 25.857959999999999
#
# number of rings (size 3 to 8) (size 9 to 14) (size 15 to 20)
#    0.857    1.143    2.857    1.714    0.000    1.143 
#    0.000    0.000    0.000   18.857    0.000    0.000 
#    0.000    0.000    0.000    0.000    0.000    0.000 
#
# Total GULP energy -156254.380666 kJ/mol
# GULP energy per Si atom -5580.513595 kJ/mol
# Density = 2.579911 g / cm^3
# Si number density = 25.857960 Si / 1000 Ang^3
#
#
#
# Elastic Constant Matrix: (Units=GPa)
#
#
# Indices 1 2 3 4 5 6 
#
# 1 174.8163 58.3290 11.2248 0.0000 0.0000 0.0000
# 2 58.3290 126.0147 17.2621 0.0000 0.0000 0.0000
# 3 11.2248 17.2621 48.2633 0.0000 0.0000 0.0000
# 4 0.0000 0.0000 0.0000 28.1109 0.0000 0.0000
# 5 0.0000 0.0000 0.0000 0.0000 26.0224 0.0000
# 6 0.0000 0.0000 0.0000 0.0000 0.0000 34.2751
#
#
#
# Elastic Compliance Matrix: (Units=1/GPa)
#
#
# Indices 1 2 3 4 5 6 
#
# 1 0.006776 -0.003071 -0.000478 0.000000 0.000000 0.000000
# 2 -0.003071 0.009736 -0.002768 0.000000 0.000000 0.000000
# 3 -0.000478 -0.002768 0.021821 0.000000 0.000000 0.000000
# 4 0.000000 0.000000 0.000000 0.035573 0.000000 0.000000
# 5 0.000000 0.000000 0.000000 0.000000 0.038428 0.000000
# 6 0.000000 0.000000 0.000000 0.000000 0.000000 0.029176
#
#
# Mechanical properties :
#
#
# Convention : Reuss Voigt Hill
#
# Bulk Modulus (GPa) = 38.91098 58.08069 48.49584
# Shear Modulus (GPa) = 30.72964 35.16692 32.94828
#
# Velocity S-wave (km/s) = 3.45106 3.69182 3.57347
# Velocity P-wave (km/s) = 5.56421 6.37832 5.98512
#
# Compressibility (1/GPa) = 0.02569968
#
# Stress axis : x y z
#
# Youngs Moduli (GPa) = 147.58939 102.70978 45.82789
#
# Poissons Ratio (x) = 0.31540 0.02188
# Poissons Ratio (y) = 0.45322 0.12686
# Poissons Ratio (z) = 0.07047 0.28431
#
# Static dielectric constant tensor:
#      x y z
#    x 2.149890 0.000000 0.000000 
#    y 0.000000 2.082700 0.000000 
#    z 0.000000 0.000000 2.129840 
# 
# From -- ./inp_files/3880.got.cif
#   From: 2010.05.17/outbox.cif.g08.bks.cpg/sg19_2_cif.got.tgz:3880.got - 2010.06.03 22:46:19.
