data_PCOD9313250
_publ_section_title
;
Structure prediction by ZEFSAII (Michael W. Deem and Ramdas Pophale) SiO2 
 PCOD9313250
Probable space group: P 21 21 2
;
_chemical_formula_sum "Si O2"
_cell_formula_units_Z 18
_cell_length_a 5.713099
_cell_length_b 11.361802
_cell_length_c 11.981597
_cell_angle_alpha 90.000000
_cell_angle_beta 90.000000
_cell_angle_gamma 90.000000
_cell_volume 777.738637
_symmetry_space_group_name_H-M "P 21 21 2"
_symmetry_group_IT_number 18
_symmetry_cell_setting 'orthorhombic'
loop_
_space_group_symop_operation_xyz
x,y,z
-x,-y,z
1/2+x,1/2-y,-z
1/2-x,1/2+y,-z
loop_
_atom_site_type_symbol
_atom_site_label
_atom_site_fract_x
_atom_site_fract_y
_atom_site_fract_z
Si Si1 0.107384 0.626435 0.562587
Si Si2 0.500000 0.500000 0.171024
Si Si3 0.923234 0.871009 0.240467
Si Si4 0.763434 0.810689 0.674969
Si Si5 0.320190 0.272344 0.060607
O O1 0.350045 0.623632 0.629521
O O2 0.117574 0.642060 0.430390
O O3 0.000000 0.500000 0.590066
O O4 0.963926 0.734007 0.615052
O O5 0.348024 0.581316 0.251968
O O6 0.348822 0.407799 0.099407
O O7 0.718554 0.815881 0.165420
O O8 0.129473 0.776808 0.242298
O O9 0.000000 0.000000 0.202180
O O10 0.571902 0.242496 0.004374
#
# Coordination Sequence:
#
# PCOD9313250 Si02
#       5
#     4   2   4   4   4
#     4  12  26  44  75 114 163 215 267 322 403 495
#     4  12  30  56  84 118 164 208 278 348 414 504
#     4  12  27  51  78 112 160 211 269 336 411 488
#     4  12  27  47  75 119 160 216 264 326 409 491
#     4  12  31  59  86 121 156 216 282 353 422 479
#
# _framework density 23.144020000000001
#
# number of rings (size 3 to 8) (size 9 to 14) (size 15 to 20)
#    0.000    0.000    6.667    1.333    9.333    2.667 
#    4.000    0.000    0.000    0.000    0.000    0.000 
#    0.000    0.000    0.000    0.000    0.000    0.000 
#
# Total GULP energy -100709.429039 kJ/mol
# GULP energy per Si atom -5594.968280 kJ/mol
# Density = 2.309134 g / cm^3
# Si number density = 23.144020 Si / 1000 Ang^3
#
#
#
# Elastic Constant Matrix: (Units=GPa)
#
#
# Indices 1 2 3 4 5 6 
#
# 1 100.3182 64.6332 61.5524 0.0000 0.0000 0.0000
# 2 64.6332 204.5642 62.3548 0.0000 0.0000 0.0000
# 3 61.5524 62.3548 105.6221 0.0000 0.0000 0.0000
# 4 0.0000 0.0000 0.0000 67.4990 0.0000 0.0000
# 5 0.0000 0.0000 0.0000 0.0000 80.7960 0.0000
# 6 0.0000 0.0000 0.0000 0.0000 0.0000 56.5489
#
#
#
# Elastic Compliance Matrix: (Units=1/GPa)
#
#
# Indices 1 2 3 4 5 6 
#
# 1 0.016757 -0.002827 -0.008097 0.000000 0.000000 0.000000
# 2 -0.002827 0.006438 -0.002153 0.000000 0.000000 0.000000
# 3 -0.008097 -0.002153 0.015458 0.000000 0.000000 0.000000
# 4 0.000000 0.000000 0.000000 0.014815 0.000000 0.000000
# 5 0.000000 0.000000 0.000000 0.000000 0.012377 0.000000
# 6 0.000000 0.000000 0.000000 0.000000 0.000000 0.017684
#
#
# Mechanical properties :
#
#
# Convention : Reuss Voigt Hill
#
# Bulk Modulus (GPa) = 80.00575 87.50949 83.75762
# Shear Modulus (GPa) = 43.91794 55.76638 49.84216
#
# Velocity S-wave (km/s) = 4.36086 4.91403 4.64569
# Velocity P-wave (km/s) = 7.74596 8.37197 8.06504
#
# Compressibility (1/GPa) = 0.01249910
#
# Stress axis : x y z
#
# Youngs Moduli (GPa) = 59.67524 155.32975 64.69316
#
# Poissons Ratio (x) = 0.43904 0.52381
# Poissons Ratio (y) = 0.16867 0.13932
# Poissons Ratio (z) = 0.48318 0.33450
#
# Static dielectric constant tensor:
#      x y z
#    x 1.919650 0.000000 0.000000 
#    y 0.000000 1.744540 0.000000 
#    z 0.000000 0.000000 1.899550 
# 
# From -- ./inp_files/5005.got.cif
#   From: 2010.05.17/outbox.cif.g08.bks.cpg/sg18_3_cif.got.tgz:5005.got - 2010.06.03 22:40:56.
