data_PCOD9313835
_publ_section_title
;
Structure prediction by ZEFSAII (Michael W. Deem and Ramdas Pophale) SiO2 
 PCOD9313835
Probable space group: P 21 21 21
;
_chemical_formula_sum "Si O2"
_cell_formula_units_Z 32
_cell_length_a 7.772960
_cell_length_b 11.992673
_cell_length_c 15.113067
_cell_angle_alpha 90.000000
_cell_angle_beta 90.000000
_cell_angle_gamma 90.000000
_cell_volume 1408.818457
_symmetry_space_group_name_H-M "P 21 21 21"
_symmetry_group_IT_number 19
_symmetry_cell_setting 'orthorhombic'
loop_
_space_group_symop_operation_xyz
x,y,z
1/2-x,-y,1/2+z
1/2+x,1/2-y,-z
-x,1/2+y,1/2-z
loop_
_atom_site_type_symbol
_atom_site_label
_atom_site_fract_x
_atom_site_fract_y
_atom_site_fract_z
Si Si1 0.746156 0.140941 0.267836
Si Si2 0.339052 0.596374 0.772898
Si Si3 0.180293 0.114219 0.523973
Si Si4 0.454982 0.123107 0.008375
Si Si5 0.945564 0.457072 0.624034
Si Si6 0.980433 0.253192 0.397570
Si Si7 0.318945 0.347890 0.085894
Si Si8 0.293574 0.125098 0.815294
O O1 0.733316 0.252748 0.212306
O O2 0.914640 0.157427 0.330527
O O3 0.773107 0.028582 0.211587
O O4 0.582170 0.123096 0.330405
O O5 0.361985 0.676771 0.856464
O O6 0.232532 0.643943 0.689558
O O7 0.533490 0.593606 0.735598
O O8 0.035357 0.198911 0.489712
O O9 0.312705 0.168426 0.592211
O O10 0.094821 0.996598 0.549369
O O11 0.301689 0.095680 0.437737
O O12 0.649920 0.133493 0.973805
O O13 0.341958 0.129473 0.918584
O O14 0.403356 0.229395 0.065943
O O15 0.053499 0.548907 0.568593
O O16 0.848279 0.530839 0.697433
#
# Coordination Sequence:
#
# PCOD9313835 Si02
#       8
#     4   4   4   4   4   4   4   4
#     4  10  20  38  59  83 117 154 194 243 294 347
#     4   9  21  39  61  84 117 160 197 245 302 351
#     4  11  23  39  59  84 117 156 196 246 299 353
#     4  10  20  37  59  85 116 151 193 243 295 348
#     4  10  20  36  57  83 118 153 192 246 297 347
#     4  11  23  40  61  88 120 157 203 244 297 362
#     4  10  20  38  62  89 119 155 200 247 299 358
#     4   9  19  35  56  84 114 148 193 238 289 352
#
# _framework density 22.714068999999999
#
# number of rings (size 3 to 8) (size 9 to 14) (size 15 to 20)
#    0.000    2.000    0.000    5.250    0.000    6.000 
#    0.000    7.500    0.000    0.000    0.000    0.000 
#    0.000    0.000    0.000    0.000    0.000    0.000 
#
# Total GULP energy -178914.731882 kJ/mol
# GULP energy per Si atom -5591.085371 kJ/mol
# Density = 2.266237 g / cm^3
# Si number density = 22.714069 Si / 1000 Ang^3
#
#
#
# Elastic Constant Matrix: (Units=GPa)
#
#
# Indices 1 2 3 4 5 6 
#
# 1 57.3993 11.3994 -0.5046 0.0000 0.0000 0.0000
# 2 11.3994 84.7870 19.3859 0.0000 0.0000 0.0000
# 3 -0.5046 19.3859 29.2582 0.0000 0.0000 0.0000
# 4 0.0000 0.0000 0.0000 35.7052 0.0000 0.0000
# 5 0.0000 0.0000 0.0000 0.0000 28.0710 0.0000
# 6 0.0000 0.0000 0.0000 0.0000 0.0000 35.5309
#
#
#
# Elastic Compliance Matrix: (Units=1/GPa)
#
#
# Indices 1 2 3 4 5 6 
#
# 1 0.018026 -0.002940 0.002259 0.000000 0.000000 0.000000
# 2 -0.002940 0.014380 -0.009578 0.000000 0.000000 0.000000
# 3 0.002259 -0.009578 0.040564 0.000000 0.000000 0.000000
# 4 0.000000 0.000000 0.000000 0.028007 0.000000 0.000000
# 5 0.000000 0.000000 0.000000 0.000000 0.035624 0.000000
# 6 0.000000 0.000000 0.000000 0.000000 0.000000 0.028144
#
#
# Mechanical properties :
#
#
# Convention : Reuss Voigt Hill
#
# Bulk Modulus (GPa) = 19.06576 25.77844 22.42210
# Shear Modulus (GPa) = 24.66130 29.27234 26.96682
#
# Velocity S-wave (km/s) = 3.29861 3.59379 3.44936
# Velocity P-wave (km/s) = 4.78747 5.34735 5.07513
#
# Compressibility (1/GPa) = 0.05245004
#
# Stress axis : x y z
#
# Youngs Moduli (GPa) = 55.47681 69.54324 24.65249
#
# Poissons Ratio (x) = 0.20445 -0.05569
# Poissons Ratio (y) = 0.16310 0.23613
# Poissons Ratio (z) = -0.12531 0.66611
#
# Static dielectric constant tensor:
#      x y z
#    x 1.832520 0.000000 0.000000 
#    y 0.000000 1.838380 0.000000 
#    z 0.000000 0.000000 1.880290 
# 
# From -- ./inp_files/4809.got.cif
#   From: 2010.05.17/outbox.cif.g08.bks.cpg/sg19_3_cif.got.tgz:4809.got - 2010.06.03 22:46:19.
