data_PCOD9313763
_publ_section_title
;
Structure prediction by ZEFSAII (Michael W. Deem and Ramdas Pophale) SiO2 
 PCOD9313763
Probable space group: P 21 21 21
;
_chemical_formula_sum "Si O2"
_cell_formula_units_Z 32
_cell_length_a 12.929872
_cell_length_b 22.595715
_cell_length_c 6.519318
_cell_angle_alpha 90.000000
_cell_angle_beta 90.000000
_cell_angle_gamma 90.000000
_cell_volume 1904.682009
_symmetry_space_group_name_H-M "P 21 21 21"
_symmetry_group_IT_number 19
_symmetry_cell_setting 'orthorhombic'
loop_
_space_group_symop_operation_xyz
x,y,z
1/2-x,-y,1/2+z
1/2+x,1/2-y,-z
-x,1/2+y,1/2-z
loop_
_atom_site_type_symbol
_atom_site_label
_atom_site_fract_x
_atom_site_fract_y
_atom_site_fract_z
Si Si1 0.569729 0.843245 0.467551
Si Si2 0.670536 0.243243 0.380264
Si Si3 0.800039 0.139524 0.598460
Si Si4 0.810921 0.275990 0.029351
Si Si5 0.890117 0.719598 0.286484
Si Si6 0.659741 0.946345 0.716768
Si Si7 0.465212 0.675812 0.462192
Si Si8 0.843504 0.933676 0.414878
O O1 0.595092 0.845629 0.225417
O O2 0.653449 0.793071 0.535643
O O3 0.464295 0.819878 0.569965
O O4 0.591306 0.907248 0.563126
O O5 0.741922 0.196410 0.504340
O O6 0.747318 0.282367 0.240242
O O7 0.606942 0.282629 0.542120
O O8 0.592329 0.206597 0.232055
O O9 0.822287 0.095144 0.413054
O O10 0.725726 0.106587 0.762014
O O11 0.727253 0.288258 0.855521
O O12 0.912852 0.312944 0.977433
O O13 0.921991 0.786206 0.347140
O O14 0.767618 0.955572 0.596164
O O15 0.618149 0.009368 0.790602
O O16 0.429561 0.608789 0.488392
#
# Coordination Sequence:
#
# PCOD9313763 Si02
#       8
#     4   4   4   4   4   4   4   4
#     4  10  21  33  51  81 110 139 184 224 273 328
#     4  11  18  34  58  76 112 149 175 218 284 321
#     4  11  18  33  53  77 112 137 173 223 270 328
#     4  10  20  34  50  79 112 141 179 226 268 326
#     4  10  20  35  52  78 109 148 179 224 269 339
#     4  11  20  31  53  77 107 144 172 225 272 333
#     4  10  21  33  51  82 113 140 181 231 270 329
#     4  11  20  33  50  82 109 138 185 221 276 324
#
# _framework density 16.800705000000001
#
# number of rings (size 3 to 8) (size 9 to 14) (size 15 to 20)
#    0.000    1.500    6.250    1.500    0.000    5.000 
#    0.000    0.000    0.000    0.000    6.500    0.000 
#    0.000    0.000    0.000    0.000    0.000    0.000 
#
# Total GULP energy -178261.708317 kJ/mol
# GULP energy per Si atom -5570.678385 kJ/mol
# Density = 1.676247 g / cm^3
# Si number density = 16.800705 Si / 1000 Ang^3
#
#
#
# Elastic Constant Matrix: (Units=GPa)
#
#
# Indices 1 2 3 4 5 6 
#
# 1 84.9580 36.4958 38.3376 0.0000 0.0000 0.0000
# 2 36.4958 69.0128 12.9653 0.0000 0.0000 0.0000
# 3 38.3376 12.9653 85.8478 0.0000 0.0000 0.0000
# 4 0.0000 0.0000 0.0000 23.2234 0.0000 0.0000
# 5 0.0000 0.0000 0.0000 0.0000 17.8029 0.0000
# 6 0.0000 0.0000 0.0000 0.0000 0.0000 19.0049
#
#
#
# Elastic Compliance Matrix: (Units=1/GPa)
#
#
# Indices 1 2 3 4 5 6 
#
# 1 0.018595 -0.008515 -0.007018 0.000000 0.000000 0.000000
# 2 -0.008515 0.018813 0.000962 0.000000 0.000000 0.000000
# 3 -0.007018 0.000962 0.014637 0.000000 0.000000 0.000000
# 4 0.000000 0.000000 0.000000 0.043060 0.000000 0.000000
# 5 0.000000 0.000000 0.000000 0.000000 0.056171 0.000000
# 6 0.000000 0.000000 0.000000 0.000000 0.000000 0.052618
#
#
# Mechanical properties :
#
#
# Convention : Reuss Voigt Hill
#
# Bulk Modulus (GPa) = 43.66529 46.15731 44.91130
# Shear Modulus (GPa) = 20.77516 22.14090 21.45803
#
# Velocity S-wave (km/s) = 3.52030 3.63417 3.57768
# Velocity P-wave (km/s) = 6.52456 6.71883 6.62241
#
# Compressibility (1/GPa) = 0.02290149
#
# Stress axis : x y z
#
# Youngs Moduli (GPa) = 53.77646 53.15604 68.31774
#
# Poissons Ratio (x) = 0.45264 0.47947
# Poissons Ratio (y) = 0.45792 -0.06569
# Poissons Ratio (z) = 0.37742 -0.05111
#
# Static dielectric constant tensor:
#      x y z
#    x 1.601350 0.000000 0.000000 
#    y 0.000000 1.566150 0.000000 
#    z 0.000000 0.000000 1.616020 
# 
# From -- ./inp_files/1291.got.cif
#   From: 2010.05.17/outbox.cif.g08.bks.cpg/sg19_1_cif.got.tgz:1291.got - 2010.06.03 22:46:19.
