data_PCOD9313003
_publ_section_title
;
Structure prediction by ZEFSAII (Michael W. Deem and Ramdas Pophale) SiO2 
 PCOD9313003
Probable space group: P 21 21 2
;
_chemical_formula_sum "Si O2"
_cell_formula_units_Z 18
_cell_length_a 28.300412
_cell_length_b 5.046856
_cell_length_c 5.027264
_cell_angle_alpha 90.000000
_cell_angle_beta 90.000000
_cell_angle_gamma 90.000000
_cell_volume 718.034586
_symmetry_space_group_name_H-M "P 21 21 2"
_symmetry_group_IT_number 18
_symmetry_cell_setting 'orthorhombic'
loop_
_space_group_symop_operation_xyz
x,y,z
-x,-y,z
1/2+x,1/2-y,-z
1/2-x,1/2+y,-z
loop_
_atom_site_type_symbol
_atom_site_label
_atom_site_fract_x
_atom_site_fract_y
_atom_site_fract_z
Si Si1 0.912120 0.201614 0.213401
Si Si2 0.923846 0.704571 0.842953
Si Si3 0.344266 0.654243 0.521160
Si Si4 0.500000 0.500000 0.443128
Si Si5 0.281483 0.752346 0.016830
O O1 0.866546 0.128789 0.393053
O O2 0.958945 0.134372 0.383167
O O3 0.918733 0.468896 0.049725
O O4 0.908855 0.973115 0.990237
O O5 0.888655 0.678472 0.593125
O O6 0.975458 0.775053 0.734652
O O7 0.318758 0.773753 0.777687
O O8 0.307160 0.648586 0.281630
O O9 0.257068 0.033473 0.064795
#
# Coordination Sequence:
#
# PCOD9313003 Si02
#       5
#     4   4   4   2   4
#     4  11  26  47  78 111 158 208 263 323 388 468
#     4  11  26  47  78 111 158 208 263 323 388 468
#     4  11  26  51  78 118 156 206 260 321 396 469
#     4  10  26  46  76 116 160 216 268 328 388 462
#     4  12  28  48  80 115 156 201 258 326 394 472
#
# _framework density 25.068431
#
# number of rings (size 3 to 8) (size 9 to 14) (size 15 to 20)
#    0.000    0.889    2.222    2.000    3.111   16.000 
#    0.000    0.000    4.889    0.000    0.000    0.000 
#    0.000    0.000    0.000    0.000    0.000    0.000 
#
# Total GULP energy -100975.923293 kJ/mol
# GULP energy per Si atom -5609.773516 kJ/mol
# Density = 2.501137 g / cm^3
# Si number density = 25.068431 Si / 1000 Ang^3
#
#
#
# Elastic Constant Matrix: (Units=GPa)
#
#
# Indices 1 2 3 4 5 6 
#
# 1 71.4004 2.6215 27.1899 0.0000 0.0000 0.0000
# 2 2.6215 113.8799 31.6606 0.0000 0.0000 0.0000
# 3 27.1899 31.6606 142.4674 0.0000 0.0000 0.0000
# 4 0.0000 0.0000 0.0000 41.0821 0.0000 0.0000
# 5 0.0000 0.0000 0.0000 0.0000 57.5965 0.0000
# 6 0.0000 0.0000 0.0000 0.0000 0.0000 20.2357
#
#
#
# Elastic Compliance Matrix: (Units=1/GPa)
#
#
# Indices 1 2 3 4 5 6 
#
# 1 0.015128 0.000484 -0.002995 0.000000 0.000000 0.000000
# 2 0.000484 0.009375 -0.002176 0.000000 0.000000 0.000000
# 3 -0.002995 -0.002176 0.008074 0.000000 0.000000 0.000000
# 4 0.000000 0.000000 0.000000 0.024342 0.000000 0.000000
# 5 0.000000 0.000000 0.000000 0.000000 0.017362 0.000000
# 6 0.000000 0.000000 0.000000 0.000000 0.000000 0.049418
#
#
# Mechanical properties :
#
#
# Convention : Reuss Voigt Hill
#
# Bulk Modulus (GPa) = 43.09463 50.07687 46.58575
# Shear Modulus (GPa) = 35.50981 41.53458 38.52219
#
# Velocity S-wave (km/s) = 3.76774 4.07486 3.92431
# Velocity P-wave (km/s) = 6.01298 6.49297 6.25758
#
# Compressibility (1/GPa) = 0.02320475
#
# Stress axis : x y z
#
# Youngs Moduli (GPa) = 66.10170 106.66722 123.85042
#
# Poissons Ratio (x) = -0.05167 0.37091
# Poissons Ratio (y) = -0.03202 0.26948
# Poissons Ratio (z) = 0.19797 0.23209
#
# Static dielectric constant tensor:
#      x y z
#    x 2.010790 0.000000 0.000000 
#    y 0.000000 1.975480 0.000000 
#    z 0.000000 0.000000 2.004490 
# 
# From -- ./inp_files/2158.got.cif
#   From: 2010.05.17/outbox.cif.g08.bks.cpg/sg18_2_cif.got.tgz:2158.got - 2010.06.03 22:40:56.
