data_PCOD9313030
_publ_section_title
;
Structure prediction by ZEFSAII (Michael W. Deem and Ramdas Pophale) SiO2 
 PCOD9313030
Probable space group: P 21 21 2
;
_chemical_formula_sum "Si O2"
_cell_formula_units_Z 32
_cell_length_a 8.844595
_cell_length_b 15.532420
_cell_length_c 11.375282
_cell_angle_alpha 90.000000
_cell_angle_beta 90.000000
_cell_angle_gamma 90.000000
_cell_volume 1562.713084
_symmetry_space_group_name_H-M "P 21 21 2"
_symmetry_group_IT_number 18
_symmetry_cell_setting 'orthorhombic'
loop_
_space_group_symop_operation_xyz
x,y,z
-x,-y,z
1/2+x,1/2-y,-z
1/2-x,1/2+y,-z
loop_
_atom_site_type_symbol
_atom_site_label
_atom_site_fract_x
_atom_site_fract_y
_atom_site_fract_z
Si Si1 0.393510 0.241256 0.408417
Si Si2 0.181335 0.405657 0.904341
Si Si3 0.110965 0.421061 0.648134
Si Si4 0.663835 0.465679 0.525911
Si Si5 0.697846 0.316565 0.381475
Si Si6 0.660108 0.755640 0.851169
Si Si7 0.645834 0.326654 0.745595
Si Si8 0.667805 0.902842 0.041211
O O1 0.502511 0.157320 0.388079
O O2 0.520067 0.313216 0.408848
O O3 0.300217 0.238493 0.528820
O O4 0.268492 0.240397 0.306608
O O5 0.212159 0.411570 0.764878
O O6 0.274422 0.320277 0.935405
O O7 0.207201 0.495474 0.971555
O O8 0.001131 0.394039 0.907235
O O9 0.226330 0.455113 0.552253
O O10 0.000000 0.500000 0.674486
O O11 0.500000 0.500000 0.498538
O O12 0.738754 0.412718 0.419317
O O13 0.645452 0.400006 0.640531
O O14 0.726030 0.281187 0.253133
O O15 0.508047 0.720718 0.786526
O O16 0.654676 0.842550 0.927640
O O17 0.715047 0.368327 0.862644
#
# Coordination Sequence:
#
# PCOD9313030 Si02
#       8
#     4   4   4   4   4   4   4   4
#     4  11  22  38  64  95 127 171 214 266 328 388
#     4  11  20  42  68  87 122 171 215 272 328 377
#     4  12  17  38  64  89 120 160 214 272 314 374
#     4  11  23  37  63  96 125 165 215 271 322 381
#     4  11  23  39  59  93 133 169 209 262 326 398
#     4  12  25  39  63  96 133 171 217 273 330 396
#     4  11  21  38  64  97 124 159 224 277 318 383
#     4  11  22  40  66  94 125 163 222 270 328 394
#
# _framework density 20.477208000000001
#
# number of rings (size 3 to 8) (size 9 to 14) (size 15 to 20)
#    0.000    0.750    7.500    3.000    1.750    0.000 
#    0.000    2.500    8.250    0.000    0.000    0.000 
#    0.000    0.000    0.000    0.000    0.000    0.000 
#
# Total GULP energy -178395.314008 kJ/mol
# GULP energy per Si atom -5574.853563 kJ/mol
# Density = 2.043060 g / cm^3
# Si number density = 20.477208 Si / 1000 Ang^3
#
#
#
# Elastic Constant Matrix: (Units=GPa)
#
#
# Indices 1 2 3 4 5 6 
#
# 1 82.8516 30.3518 19.8237 0.0000 0.0000 0.0000
# 2 30.3518 90.2374 32.6390 0.0000 0.0000 0.0000
# 3 19.8237 32.6390 47.9035 0.0000 0.0000 0.0000
# 4 0.0000 0.0000 0.0000 26.6537 0.0000 0.0000
# 5 0.0000 0.0000 0.0000 0.0000 10.0457 0.0000
# 6 0.0000 0.0000 0.0000 0.0000 0.0000 33.2888
#
#
#
# Elastic Compliance Matrix: (Units=1/GPa)
#
#
# Indices 1 2 3 4 5 6 
#
# 1 0.014189 -0.003515 -0.003477 0.000000 0.000000 0.000000
# 2 -0.003515 0.015577 -0.009159 0.000000 0.000000 0.000000
# 3 -0.003477 -0.009159 0.028554 0.000000 0.000000 0.000000
# 4 0.000000 0.000000 0.000000 0.037518 0.000000 0.000000
# 5 0.000000 0.000000 0.000000 0.000000 0.099545 0.000000
# 6 0.000000 0.000000 0.000000 0.000000 0.000000 0.030040
#
#
# Mechanical properties :
#
#
# Convention : Reuss Voigt Hill
#
# Bulk Modulus (GPa) = 38.43298 42.95796 40.69547
# Shear Modulus (GPa) = 18.76885 23.20951 20.98918
#
# Velocity S-wave (km/s) = 3.03078 3.37030 3.20504
# Velocity P-wave (km/s) = 5.57287 6.01408 5.79768
#
# Compressibility (1/GPa) = 0.02601932
#
# Stress axis : x y z
#
# Youngs Moduli (GPa) = 70.47515 64.19772 35.02087
#
# Poissons Ratio (x) = 0.22566 0.12177
# Poissons Ratio (y) = 0.24772 0.32074
# Poissons Ratio (z) = 0.24504 0.58797
#
# Static dielectric constant tensor:
#      x y z
#    x 1.747290 0.000000 0.000000 
#    y 0.000000 1.834970 0.000000 
#    z 0.000000 0.000000 1.763170 
# 
# From -- ./inp_files/5667.got.cif
#   From: 2010.05.17/outbox.cif.g08.bks.cpg/sg18_3_cif.got.tgz:5667.got - 2010.06.03 22:40:56.
