data_PCOD9313178
_publ_section_title
;
Structure prediction by ZEFSAII (Michael W. Deem and Ramdas Pophale) SiO2 
 PCOD9313178
Probable space group: P 21 21 2
;
_chemical_formula_sum "Si O2"
_cell_formula_units_Z 16
_cell_length_a 8.710843
_cell_length_b 7.503465
_cell_length_c 10.059569
_cell_angle_alpha 90.000000
_cell_angle_beta 90.000000
_cell_angle_gamma 90.000000
_cell_volume 657.508575
_symmetry_space_group_name_H-M "P 21 21 2"
_symmetry_group_IT_number 18
_symmetry_cell_setting 'orthorhombic'
loop_
_space_group_symop_operation_xyz
x,y,z
-x,-y,z
1/2+x,1/2-y,-z
1/2-x,1/2+y,-z
loop_
_atom_site_type_symbol
_atom_site_label
_atom_site_fract_x
_atom_site_fract_y
_atom_site_fract_z
Si Si1 0.070507 0.223765 0.866424
Si Si2 0.250713 0.587681 0.890429
Si Si3 0.000000 0.000000 0.611777
Si Si4 0.810590 0.836975 0.397099
Si Si5 0.500000 0.000000 0.488623
O O1 0.177728 0.396112 0.865991
O O2 0.898222 0.284287 0.901447
O O3 0.068042 0.136092 0.721723
O O4 0.147247 0.102555 0.978972
O O5 0.343207 0.638463 0.758263
O O6 0.131634 0.012667 0.499636
O O7 0.902296 0.654677 0.435062
O O8 0.626070 0.877295 0.409779
#
# Coordination Sequence:
#
# PCOD9313178 Si02
#       5
#     4   4   2   4   2
#     4  11  25  46  71 107 150 197 253 314 383 466
#     4  11  25  45  72 106 150 200 252 312 385 467
#     4  12  26  46  74 108 152 200 258 328 394 468
#     4  12  26  47  76 111 152 203 260 322 397 475
#     4  12  26  46  76 112 152 200 264 334 396 468
#
# _framework density 24.334284
#
# number of rings (size 3 to 8) (size 9 to 14) (size 15 to 20)
#    0.000    0.500    0.000    9.000    0.000    7.000 
#    0.000    0.000    0.000    0.000    0.000    0.000 
#    0.000    0.000    0.000    0.000    0.000    0.000 
#
# Total GULP energy -89206.007035 kJ/mol
# GULP energy per Si atom -5575.375440 kJ/mol
# Density = 2.427890 g / cm^3
# Si number density = 24.334284 Si / 1000 Ang^3
#
#
#
# Elastic Constant Matrix: (Units=GPa)
#
#
# Indices 1 2 3 4 5 6 
#
# 1 98.9089 19.7173 64.4579 0.0000 0.0000 0.0000
# 2 19.7173 104.8848 43.3685 0.0000 0.0000 0.0000
# 3 64.4579 43.3685 159.7017 0.0000 0.0000 0.0000
# 4 0.0000 0.0000 0.0000 25.2288 0.0000 0.0000
# 5 0.0000 0.0000 0.0000 0.0000 62.8816 0.0000
# 6 0.0000 0.0000 0.0000 0.0000 0.0000 43.6966
#
#
#
# Elastic Compliance Matrix: (Units=1/GPa)
#
#
# Indices 1 2 3 4 5 6 
#
# 1 0.013729 -0.000326 -0.005452 0.000000 0.000000 0.000000
# 2 -0.000326 0.010748 -0.002787 0.000000 0.000000 0.000000
# 3 -0.005452 -0.002787 0.009219 0.000000 0.000000 0.000000
# 4 0.000000 0.000000 0.000000 0.039637 0.000000 0.000000
# 5 0.000000 0.000000 0.000000 0.000000 0.015903 0.000000
# 6 0.000000 0.000000 0.000000 0.000000 0.000000 0.022885
#
#
# Mechanical properties :
#
#
# Convention : Reuss Voigt Hill
#
# Bulk Modulus (GPa) = 60.37089 68.73142 64.55115
# Shear Modulus (GPa) = 37.09908 42.09151 39.59530
#
# Velocity S-wave (km/s) = 3.90880 4.16350 4.03816
# Velocity P-wave (km/s) = 6.72566 7.17070 6.95174
#
# Compressibility (1/GPa) = 0.01656427
#
# Stress axis : x y z
#
# Youngs Moduli (GPa) = 72.84016 93.04045 108.46920
#
# Poissons Ratio (x) = 0.03036 0.59143
# Poissons Ratio (y) = 0.02377 0.30230
# Poissons Ratio (z) = 0.39716 0.25930
#
# Static dielectric constant tensor:
#      x y z
#    x 1.995310 0.000000 0.000000 
#    y 0.000000 2.214020 0.000000 
#    z 0.000000 0.000000 1.874080 
# 
# From -- ./inp_files/2794.got.cif
#   From: 2010.05.17/outbox.cif.g08.bks.cpg/sg18_2_cif.got.tgz:2794.got - 2010.06.03 22:40:56.
