data_PCOD9313479
_publ_section_title
;
Structure prediction by ZEFSAII (Michael W. Deem and Ramdas Pophale) SiO2 
 PCOD9313479
Probable space group: P 21 21 21
;
_chemical_formula_sum "Si O2"
_cell_formula_units_Z 20
_cell_length_a 8.930936
_cell_length_b 6.878805
_cell_length_c 12.461700
_cell_angle_alpha 90.000000
_cell_angle_beta 90.000000
_cell_angle_gamma 90.000000
_cell_volume 765.574162
_symmetry_space_group_name_H-M "P 21 21 21"
_symmetry_group_IT_number 19
_symmetry_cell_setting 'orthorhombic'
loop_
_space_group_symop_operation_xyz
x,y,z
1/2-x,-y,1/2+z
1/2+x,1/2-y,-z
-x,1/2+y,1/2-z
loop_
_atom_site_type_symbol
_atom_site_label
_atom_site_fract_x
_atom_site_fract_y
_atom_site_fract_z
Si Si1 0.633919 0.718267 0.763487
Si Si2 0.320215 0.131960 0.203567
Si Si3 0.449207 0.962206 0.925222
Si Si4 0.090852 0.488294 0.666337
Si Si5 0.153400 0.751801 0.935440
O O1 0.685821 0.511864 0.812466
O O2 0.505166 0.811855 0.833579
O O3 0.588243 0.658041 0.642109
O O4 0.774241 0.860510 0.786392
O O5 0.461379 0.002363 0.241323
O O6 0.301028 0.265323 0.310726
O O7 0.360976 0.300611 0.122793
O O8 0.294990 0.878618 0.976098
O O9 0.591466 0.940332 0.005799
O O10 0.996001 0.383973 0.572545
#
# Coordination Sequence:
#
# PCOD9313479 Si02
#       5
#     4   4   4   4   4
#     4  11  24  38  69  93 135 170 226 261 330 396
#     4   9  18  37  67  99 120 172 211 266 328 387
#     4  11  23  43  66  98 130 179 214 276 326 391
#     4  10  18  39  71  96 128 169 218 269 328 397
#     4   9  21  39  69  94 131 170 215 272 336 371
#
# _framework density 26.124182000000001
#
# number of rings (size 3 to 8) (size 9 to 14) (size 15 to 20)
#    1.200    0.800    2.000    1.200    5.600    0.000 
#    0.000    0.000   30.800    0.000    0.000    0.000 
#    0.000    0.000    0.000    0.000    0.000    0.000 
#
# Total GULP energy -111352.975771 kJ/mol
# GULP energy per Si atom -5567.648789 kJ/mol
# Density = 2.606472 g / cm^3
# Si number density = 26.124182 Si / 1000 Ang^3
#
#
#
# Elastic Constant Matrix: (Units=GPa)
#
#
# Indices 1 2 3 4 5 6 
#
# 1 114.3471 25.0118 7.9415 0.0000 0.0000 0.0000
# 2 25.0118 83.5120 -14.7918 0.0000 0.0000 0.0000
# 3 7.9415 -14.7918 73.8993 0.0000 0.0000 0.0000
# 4 0.0000 0.0000 0.0000 22.3468 0.0000 0.0000
# 5 0.0000 0.0000 0.0000 0.0000 38.1263 0.0000
# 6 0.0000 0.0000 0.0000 0.0000 0.0000 43.7786
#
#
#
# Elastic Compliance Matrix: (Units=1/GPa)
#
#
# Indices 1 2 3 4 5 6 
#
# 1 0.009550 -0.003154 -0.001658 0.000000 0.000000 0.000000
# 2 -0.003154 0.013456 0.003032 0.000000 0.000000 0.000000
# 3 -0.001658 0.003032 0.014317 0.000000 0.000000 0.000000
# 4 0.000000 0.000000 0.000000 0.044749 0.000000 0.000000
# 5 0.000000 0.000000 0.000000 0.000000 0.026229 0.000000
# 6 0.000000 0.000000 0.000000 0.000000 0.000000 0.022842
#
#
# Mechanical properties :
#
#
# Convention : Reuss Voigt Hill
#
# Bulk Modulus (GPa) = 29.61657 34.23129 31.92393
# Shear Modulus (GPa) = 34.25676 37.75681 36.00679
#
# Velocity S-wave (km/s) = 3.62512 3.80581 3.71656
# Velocity P-wave (km/s) = 5.37433 5.69596 5.53748
#
# Compressibility (1/GPa) = 0.03376488
#
# Stress axis : x y z
#
# Youngs Moduli (GPa) = 104.70879 74.31629 69.84700
#
# Poissons Ratio (x) = 0.23439 0.11578
# Poissons Ratio (y) = 0.33024 -0.21180
# Poissons Ratio (z) = 0.17357 -0.22535
#
# Static dielectric constant tensor:
#      x y z
#    x 2.101110 0.000000 0.000000 
#    y 0.000000 2.102880 0.000000 
#    z 0.000000 0.000000 2.312730 
# 
# From -- ./inp_files/4887.got.cif
#   From: 2010.05.17/outbox.cif.g08.bks.cpg/sg19_3_cif.got.tgz:4887.got - 2010.06.03 22:46:19.
