data_PCOD9313678
_publ_section_title
;
Structure prediction by ZEFSAII (Michael W. Deem and Ramdas Pophale) SiO2 
 PCOD9313678
Probable space group: P 21 21 21
;
_chemical_formula_sum "Si O2"
_cell_formula_units_Z 24
_cell_length_a 14.311371
_cell_length_b 9.176677
_cell_length_c 7.059971
_cell_angle_alpha 90.000000
_cell_angle_beta 90.000000
_cell_angle_gamma 90.000000
_cell_volume 927.191845
_symmetry_space_group_name_H-M "P 21 21 21"
_symmetry_group_IT_number 19
_symmetry_cell_setting 'orthorhombic'
loop_
_space_group_symop_operation_xyz
x,y,z
1/2-x,-y,1/2+z
1/2+x,1/2-y,-z
-x,1/2+y,1/2-z
loop_
_atom_site_type_symbol
_atom_site_label
_atom_site_fract_x
_atom_site_fract_y
_atom_site_fract_z
Si Si1 0.587287 0.269816 0.642816
Si Si2 0.227054 0.218851 0.043568
Si Si3 0.118347 0.908950 0.809746
Si Si4 0.246046 0.828224 0.117237
Si Si5 0.676068 0.029032 0.406638
Si Si6 0.038353 0.600548 0.863349
O O1 0.626155 0.266027 0.855470
O O2 0.844821 0.400126 0.473563
O O3 0.495270 0.357817 0.577433
O O4 0.601616 0.106852 0.550787
O O5 0.279425 0.374961 0.041912
O O6 0.293030 0.116930 0.172734
O O7 0.228528 0.153846 0.834683
O O8 0.168127 0.147036 0.475271
O O9 0.048764 0.033586 0.748788
O O10 0.061378 0.758801 0.781542
O O11 0.242242 0.650130 0.101137
O O12 0.623045 0.003100 0.206274
#
# Coordination Sequence:
#
# PCOD9313678 Si02
#       6
#     4   4   4   4   4   4
#     4   9  20  37  62  95 131 182 227 287 358 419
#     4  10  19  38  66  95 131 179 233 291 341 439
#     4  10  22  40  66  96 141 182 232 291 365 426
#     4   9  20  39  62  98 130 185 230 285 351 438
#     4   9  19  37  68  96 132 177 233 292 355 428
#     4  11  20  43  66  98 145 185 229 312 352 434
#
# _framework density 25.884609000000001
#
# number of rings (size 3 to 8) (size 9 to 14) (size 15 to 20)
#    1.000    1.333    1.667    1.000    2.333    0.000 
#    6.000    8.333    0.000    0.000    0.000    0.000 
#    0.000    0.000    0.000    0.000    0.000    0.000 
#
# Total GULP energy -133901.534788 kJ/mol
# GULP energy per Si atom -5579.230616 kJ/mol
# Density = 2.582569 g / cm^3
# Si number density = 25.884609 Si / 1000 Ang^3
#
#
#
# Elastic Constant Matrix: (Units=GPa)
#
#
# Indices 1 2 3 4 5 6 
#
# 1 68.7856 16.9142 25.7624 0.0000 0.0000 0.0000
# 2 16.9142 94.4064 26.0525 0.0000 0.0000 0.0000
# 3 25.7624 26.0525 130.9691 0.0000 0.0000 0.0000
# 4 0.0000 0.0000 0.0000 30.6827 0.0000 0.0000
# 5 0.0000 0.0000 0.0000 0.0000 43.0493 0.0000
# 6 0.0000 0.0000 0.0000 0.0000 0.0000 47.1935
#
#
#
# Elastic Compliance Matrix: (Units=1/GPa)
#
#
# Indices 1 2 3 4 5 6 
#
# 1 0.016087 -0.002126 -0.002742 0.000000 0.000000 0.000000
# 2 -0.002126 0.011489 -0.001867 0.000000 0.000000 0.000000
# 3 -0.002742 -0.001867 0.008546 0.000000 0.000000 0.000000
# 4 0.000000 0.000000 0.000000 0.032592 0.000000 0.000000
# 5 0.000000 0.000000 0.000000 0.000000 0.023229 0.000000
# 6 0.000000 0.000000 0.000000 0.000000 0.000000 0.021189
#
#
# Mechanical properties :
#
#
# Convention : Reuss Voigt Hill
#
# Bulk Modulus (GPa) = 44.14405 47.95770 46.05088
# Shear Modulus (GPa) = 37.27102 39.21391 38.24246
#
# Velocity S-wave (km/s) = 3.79871 3.89646 3.84789
# Velocity P-wave (km/s) = 6.02755 6.22984 6.12953
#
# Compressibility (1/GPa) = 0.02265311
#
# Stress axis : x y z
#
# Youngs Moduli (GPa) = 62.16024 87.04266 117.01235
#
# Poissons Ratio (x) = 0.18503 0.32081
# Poissons Ratio (y) = 0.13213 0.21848
# Poissons Ratio (z) = 0.17042 0.16252
#
# Static dielectric constant tensor:
#      x y z
#    x 2.089180 0.000000 0.000000 
#    y 0.000000 2.112440 0.000000 
#    z 0.000000 0.000000 2.051890 
# 
# From -- ./inp_files/4122.got.cif
#   From: 2010.05.17/outbox.cif.g08.bks.cpg/sg19_3_cif.got.tgz:4122.got - 2010.06.03 22:46:19.
