data_PCOD9313684
_publ_section_title
;
Structure prediction by ZEFSAII (Michael W. Deem and Ramdas Pophale) SiO2 
 PCOD9313684
Probable space group: P 21 21 21
;
_chemical_formula_sum "Si O2"
_cell_formula_units_Z 32
_cell_length_a 6.677869
_cell_length_b 19.233182
_cell_length_c 9.756318
_cell_angle_alpha 90.000000
_cell_angle_beta 90.000000
_cell_angle_gamma 90.000000
_cell_volume 1253.068994
_symmetry_space_group_name_H-M "P 21 21 21"
_symmetry_group_IT_number 19
_symmetry_cell_setting 'orthorhombic'
loop_
_space_group_symop_operation_xyz
x,y,z
1/2-x,-y,1/2+z
1/2+x,1/2-y,-z
-x,1/2+y,1/2-z
loop_
_atom_site_type_symbol
_atom_site_label
_atom_site_fract_x
_atom_site_fract_y
_atom_site_fract_z
Si Si1 0.559697 0.110784 0.326581
Si Si2 0.848356 0.172225 0.626807
Si Si3 0.700598 0.695803 0.949752
Si Si4 0.797298 0.484770 0.545092
Si Si5 0.577072 0.048277 0.678224
Si Si6 0.481676 0.402933 0.738366
Si Si7 0.955180 0.823251 0.326684
Si Si8 0.694926 0.636120 0.436139
O O1 0.790298 0.131848 0.327509
O O2 0.420436 0.153910 0.432182
O O3 0.501447 0.031643 0.370096
O O4 0.475965 0.121834 0.175219
O O5 0.768236 0.232080 0.527675
O O6 0.742530 0.096982 0.606445
O O7 0.773651 0.194985 0.781606
O O8 0.918063 0.669212 0.902990
O O9 0.574932 0.698555 0.809942
O O10 0.859541 0.452983 0.396432
O O11 0.626235 0.444324 0.631427
O O12 0.758181 0.564981 0.514240
O O13 0.559016 0.091790 0.817671
O O14 0.622700 0.967661 0.683196
O O15 0.609311 0.353216 0.838072
O O16 0.094377 0.810182 0.457385
#
# Coordination Sequence:
#
# PCOD9313684 Si02
#       8
#     4   4   4   4   4   4   4   4
#     4  11  25  38  65 100 142 188 234 286 366 424
#     4  10  22  41  71 102 132 177 240 307 351 414
#     4  12  23  44  70 100 139 178 246 309 353 419
#     4  10  19  39  61  95 138 181 226 274 342 425
#     4   9  19  39  62 100 132 178 230 280 352 415
#     4  10  22  40  64 101 146 192 224 287 348 447
#     4  10  21  42  67 103 133 177 235 283 362 415
#     4  10  23  41  64  99 148 183 229 284 358 441
#
# _framework density 25.537300999999999
#
# number of rings (size 3 to 8) (size 9 to 14) (size 15 to 20)
#    0.750    1.000    3.750    0.000    0.000    9.000 
#    0.000    0.000    2.750    0.000    0.000    0.000 
#    0.000    0.000    0.000    0.000    0.000    0.000 
#
# Total GULP energy -178290.906724 kJ/mol
# GULP energy per Si atom -5571.590835 kJ/mol
# Density = 2.547918 g / cm^3
# Si number density = 25.537301 Si / 1000 Ang^3
#
#
#
# Elastic Constant Matrix: (Units=GPa)
#
#
# Indices 1 2 3 4 5 6 
#
# 1 175.5485 16.8743 46.4971 0.0000 0.0000 0.0000
# 2 16.8743 52.8850 17.5852 0.0000 0.0000 0.0000
# 3 46.4971 17.5852 107.9547 0.0000 0.0000 0.0000
# 4 0.0000 0.0000 0.0000 25.8409 0.0000 0.0000
# 5 0.0000 0.0000 0.0000 0.0000 36.0983 0.0000
# 6 0.0000 0.0000 0.0000 0.0000 0.0000 27.0113
#
#
#
# Elastic Compliance Matrix: (Units=1/GPa)
#
#
# Indices 1 2 3 4 5 6 
#
# 1 0.006502 -0.001209 -0.002604 0.000000 0.000000 0.000000
# 2 -0.001209 0.020217 -0.002772 0.000000 0.000000 0.000000
# 3 -0.002604 -0.002772 0.010836 0.000000 0.000000 0.000000
# 4 0.000000 0.000000 0.000000 0.038698 0.000000 0.000000
# 5 0.000000 0.000000 0.000000 0.000000 0.027702 0.000000
# 6 0.000000 0.000000 0.000000 0.000000 0.000000 0.037022
#
#
# Mechanical properties :
#
#
# Convention : Reuss Voigt Hill
#
# Bulk Modulus (GPa) = 41.00899 55.36683 48.18791
# Shear Modulus (GPa) = 30.81180 34.81887 32.81533
#
# Velocity S-wave (km/s) = 3.47730 3.69650 3.58857
# Velocity P-wave (km/s) = 5.67587 6.32034 6.00675
#
# Compressibility (1/GPa) = 0.02438490
#
# Stress axis : x y z
#
# Youngs Moduli (GPa) = 153.79264 49.46436 92.28341
#
# Poissons Ratio (x) = 0.05980 0.24027
# Poissons Ratio (y) = 0.18593 0.25585
# Poissons Ratio (z) = 0.40042 0.13714
#
# Static dielectric constant tensor:
#      x y z
#    x 2.074220 0.000000 0.000000 
#    y 0.000000 2.203010 0.000000 
#    z 0.000000 0.000000 2.098170 
# 
# From -- ./inp_files/3793.got.cif
#   From: 2010.05.17/outbox.cif.g08.bks.cpg/sg19_2_cif.got.tgz:3793.got - 2010.06.03 22:46:19.
