data_PCOD9313249
_publ_section_title
;
Structure prediction by ZEFSAII (Michael W. Deem and Ramdas Pophale) SiO2 
 PCOD9313249
Probable space group: P 21 21 2
;
_chemical_formula_sum "Si O2"
_cell_formula_units_Z 20
_cell_length_a 7.862100
_cell_length_b 10.929380
_cell_length_c 9.556831
_cell_angle_alpha 90.000000
_cell_angle_beta 90.000000
_cell_angle_gamma 90.000000
_cell_volume 821.198213
_symmetry_space_group_name_H-M "P 21 21 2"
_symmetry_group_IT_number 18
_symmetry_cell_setting 'orthorhombic'
loop_
_space_group_symop_operation_xyz
x,y,z
-x,-y,z
1/2+x,1/2-y,-z
1/2-x,1/2+y,-z
loop_
_atom_site_type_symbol
_atom_site_label
_atom_site_fract_x
_atom_site_fract_y
_atom_site_fract_z
Si Si1 0.227799 0.047161 0.390274
Si Si2 0.561660 0.695277 0.134384
Si Si3 0.500000 0.500000 0.365830
Si Si4 0.081312 0.269435 0.261189
Si Si5 0.268806 0.355716 0.864112
Si Si6 0.500000 0.000000 0.572016
O O1 0.103283 0.160193 0.370483
O O2 0.153722 0.979538 0.526391
O O3 0.239649 0.962617 0.252788
O O4 0.405776 0.086914 0.457173
O O5 0.490017 0.615190 0.262162
O O6 0.744196 0.753273 0.175307
O O7 0.416797 0.797498 0.105703
O O8 0.626459 0.610839 0.004902
O O9 0.082655 0.403377 0.322724
O O10 0.898060 0.248328 0.192413
#
# Coordination Sequence:
#
# PCOD9313249 Si02
#       6
#     4   4   2   4   4   2
#     4  12  27  48  80 112 154 209 261 333 395 476
#     4  12  28  48  77 115 158 208 261 327 395 478
#     4  12  26  44  74 106 154 204 252 326 388 460
#     4  12  27  51  75 115 155 205 266 328 395 476
#     4  12  27  50  77 114 159 211 264 324 402 476
#     4  12  28  48  80 120 154 206 272 334 400 484
#
# _framework density 24.354658000000001
#
# number of rings (size 3 to 8) (size 9 to 14) (size 15 to 20)
#    0.000    0.000    6.000    2.400   11.200    0.000 
#    0.000    0.000    0.000    0.000    0.000    0.000 
#    0.000    0.000    0.000    0.000    0.000    0.000 
#
# Total GULP energy -111470.184089 kJ/mol
# GULP energy per Si atom -5573.509204 kJ/mol
# Density = 2.429923 g / cm^3
# Si number density = 24.354658 Si / 1000 Ang^3
#
#
#
# Elastic Constant Matrix: (Units=GPa)
#
#
# Indices 1 2 3 4 5 6 
#
# 1 106.4725 37.6019 20.5409 0.0000 0.0000 0.0000
# 2 37.6019 77.7376 31.4506 0.0000 0.0000 0.0000
# 3 20.5409 31.4506 91.1148 0.0000 0.0000 0.0000
# 4 0.0000 0.0000 0.0000 21.6222 0.0000 0.0000
# 5 0.0000 0.0000 0.0000 0.0000 31.5834 0.0000
# 6 0.0000 0.0000 0.0000 0.0000 0.0000 19.1046
#
#
#
# Elastic Compliance Matrix: (Units=1/GPa)
#
#
# Indices 1 2 3 4 5 6 
#
# 1 0.011374 -0.005189 -0.000773 0.000000 0.000000 0.000000
# 2 -0.005189 0.017319 -0.004808 0.000000 0.000000 0.000000
# 3 -0.000773 -0.004808 0.012809 0.000000 0.000000 0.000000
# 4 0.000000 0.000000 0.000000 0.046249 0.000000 0.000000
# 5 0.000000 0.000000 0.000000 0.000000 0.031662 0.000000
# 6 0.000000 0.000000 0.000000 0.000000 0.000000 0.052344
#
#
# Mechanical properties :
#
#
# Convention : Reuss Voigt Hill
#
# Bulk Modulus (GPa) = 50.09631 50.50129 50.29880
# Shear Modulus (GPa) = 25.00621 26.84413 25.92517
#
# Velocity S-wave (km/s) = 3.20777 3.32357 3.26618
# Velocity P-wave (km/s) = 5.85951 5.95894 5.90944
#
# Compressibility (1/GPa) = 0.01996155
#
# Stress axis : x y z
#
# Youngs Moduli (GPa) = 87.92218 57.74031 78.06911
#
# Poissons Ratio (x) = 0.29960 0.06035
# Poissons Ratio (y) = 0.45620 0.37538
# Poissons Ratio (z) = 0.06797 0.27763
#
# Static dielectric constant tensor:
#      x y z
#    x 2.673790 0.000000 0.000000 
#    y 0.000000 1.913980 0.000000 
#    z 0.000000 0.000000 2.073470 
# 
# From -- ./inp_files/3000.got.cif
#   From: 2010.05.17/outbox.cif.g08.bks.cpg/sg18_2_cif.got.tgz:3000.got - 2010.06.03 22:40:56.
