data_PCOD9313340
_publ_section_title
;
Structure prediction by ZEFSAII (Michael W. Deem and Ramdas Pophale) SiO2 
 PCOD9313340
Probable space group: P 21 21 21
;
_chemical_formula_sum "Si O2"
_cell_formula_units_Z 32
_cell_length_a 26.403362
_cell_length_b 4.936037
_cell_length_c 9.087121
_cell_angle_alpha 90.000000
_cell_angle_beta 90.000000
_cell_angle_gamma 90.000000
_cell_volume 1184.306049
_symmetry_space_group_name_H-M "P 21 21 21"
_symmetry_group_IT_number 19
_symmetry_cell_setting 'orthorhombic'
loop_
_space_group_symop_operation_xyz
x,y,z
1/2-x,-y,1/2+z
1/2+x,1/2-y,-z
-x,1/2+y,1/2-z
loop_
_atom_site_type_symbol
_atom_site_label
_atom_site_fract_x
_atom_site_fract_y
_atom_site_fract_z
Si Si1 0.758462 0.574234 0.803987
Si Si2 0.023277 0.593140 0.171212
Si Si3 0.818548 0.499900 0.517687
Si Si4 0.873067 0.988566 0.630992
Si Si5 0.466596 0.213966 0.276542
Si Si6 0.612746 0.046866 0.655254
Si Si7 0.068055 0.955402 0.497321
Si Si8 0.813089 0.062457 0.923695
O O1 0.703011 0.476824 0.853255
O O2 0.767621 0.861487 0.882313
O O3 0.797743 0.364065 0.879071
O O4 0.774062 0.581188 0.633907
O O5 0.082091 0.509250 0.193060
O O6 0.010070 0.899042 0.218229
O O7 0.989887 0.542281 0.026738
O O8 0.864181 0.700614 0.555237
O O9 0.834288 0.196784 0.554999
O O10 0.927178 0.129423 0.620656
O O11 0.855516 0.970899 0.802960
O O12 0.495722 0.462086 0.191268
O O13 0.426756 0.053328 0.170109
O O14 0.602333 0.347774 0.598733
O O15 0.667944 0.969739 0.591907
O O16 0.578771 0.843559 0.557564
#
# Coordination Sequence:
#
# PCOD9313340 Si02
#       8
#     4   4   4   4   4   4   4   4
#     4  10  21  36  60  92 116 149 189 240 299 345
#     4   8  16  28  46  73  97 136 173 214 284 336
#     4  10  21  39  64  88 119 152 195 243 297 366
#     4  10  21  37  59  86 109 153 196 241 298 349
#     4  12  24  36  56  83 113 154 201 251 282 333
#     4  10  17  30  54  79 106 140 177 240 283 330
#     4  10  19  32  51  74 109 139 190 238 283 326
#     4  10  19  32  58  89 111 139 195 243 280 351
#
# _framework density 27.020045
#
# number of rings (size 3 to 8) (size 9 to 14) (size 15 to 20)
#    0.000    2.000    1.250    3.000    3.500    0.000 
#    0.000    0.000    8.250    0.000    0.000    0.000 
#    0.000    0.000    0.000    0.000    0.000    0.000 
#
# Total GULP energy -178777.381518 kJ/mol
# GULP energy per Si atom -5586.793172 kJ/mol
# Density = 2.695855 g / cm^3
# Si number density = 27.020045 Si / 1000 Ang^3
#
#
#
# Elastic Constant Matrix: (Units=GPa)
#
#
# Indices 1 2 3 4 5 6 
#
# 1 53.5290 5.0427 20.2327 0.0000 0.0000 0.0000
# 2 5.0427 109.9515 11.9619 0.0000 0.0000 0.0000
# 3 20.2327 11.9619 56.1377 0.0000 0.0000 0.0000
# 4 0.0000 0.0000 0.0000 20.6721 0.0000 0.0000
# 5 0.0000 0.0000 0.0000 0.0000 50.5706 0.0000
# 6 0.0000 0.0000 0.0000 0.0000 0.0000 31.0379
#
#
#
# Elastic Compliance Matrix: (Units=1/GPa)
#
#
# Indices 1 2 3 4 5 6 
#
# 1 0.021630 -0.000147 -0.007764 0.000000 0.000000 0.000000
# 2 -0.000147 0.009312 -0.001931 0.000000 0.000000 0.000000
# 3 -0.007764 -0.001931 0.021023 0.000000 0.000000 0.000000
# 4 0.000000 0.000000 0.000000 0.048374 0.000000 0.000000
# 5 0.000000 0.000000 0.000000 0.000000 0.019774 0.000000
# 6 0.000000 0.000000 0.000000 0.000000 0.000000 0.032219
#
#
# Mechanical properties :
#
#
# Convention : Reuss Voigt Hill
#
# Bulk Modulus (GPa) = 30.97937 32.67698 31.82817
# Shear Modulus (GPa) = 27.35562 32.61484 29.98523
#
# Velocity S-wave (km/s) = 3.18531 3.47805 3.33489
# Velocity P-wave (km/s) = 5.00184 5.31497 5.16078
#
# Compressibility (1/GPa) = 0.03227955
#
# Stress axis : x y z
#
# Youngs Moduli (GPa) = 46.23186 107.39105 47.56647
#
# Poissons Ratio (x) = 0.01582 0.36932
# Poissons Ratio (y) = 0.00681 0.09185
# Poissons Ratio (z) = 0.35896 0.20738
#
# Static dielectric constant tensor:
#      x y z
#    x 2.153270 0.000000 0.000000 
#    y 0.000000 2.012110 0.000000 
#    z 0.000000 0.000000 2.214240 
# 
# From -- ./inp_files/2165.got.cif
#   From: 2010.05.17/outbox.cif.g08.bks.cpg/sg19_2_cif.got.tgz:2165.got - 2010.06.03 22:46:19.
