data_PCOD9313309
_publ_section_title
;
Structure prediction by ZEFSAII (Michael W. Deem and Ramdas Pophale) SiO2 
 PCOD9313309
Probable space group: P 21 21 21
;
_chemical_formula_sum "Si O2"
_cell_formula_units_Z 32
_cell_length_a 19.910484
_cell_length_b 13.640149
_cell_length_c 5.408050
_cell_angle_alpha 90.000000
_cell_angle_beta 90.000000
_cell_angle_gamma 90.000000
_cell_volume 1468.728864
_symmetry_space_group_name_H-M "P 21 21 21"
_symmetry_group_IT_number 19
_symmetry_cell_setting 'orthorhombic'
loop_
_space_group_symop_operation_xyz
x,y,z
1/2-x,-y,1/2+z
1/2+x,1/2-y,-z
-x,1/2+y,1/2-z
loop_
_atom_site_type_symbol
_atom_site_label
_atom_site_fract_x
_atom_site_fract_y
_atom_site_fract_z
Si Si1 0.200455 0.387453 0.750000
Si Si2 0.552716 0.038544 0.250000
Si Si3 0.653810 0.905168 0.750000
Si Si4 0.002389 0.690425 0.750000
Si Si5 0.072245 0.152996 0.250000
Si Si6 0.854004 0.221763 0.750000
Si Si7 0.016404 0.467661 0.250000
Si Si8 0.708422 0.243917 0.750000
O O1 0.132930 0.450786 0.750000
O O2 0.270555 0.448084 0.750000
O O3 0.199361 0.321604 0.499660
O O4 0.199361 0.321604 0.000340
O O5 0.529479 0.924486 0.250000
O O6 0.522282 0.086577 0.493750
O O7 0.522282 0.086577 0.006250
O O8 0.650655 0.840089 0.503648
O O9 0.587639 0.971643 0.750000
O O10 0.650655 0.840089 0.996353
O O11 0.959420 0.696823 0.500664
O O12 0.069322 0.755995 0.750000
O O13 0.959420 0.696823 0.999336
O O14 0.046577 0.040563 0.250000
O O15 0.150927 0.174451 0.250000
O O16 0.785100 0.283258 0.750000
#
# Coordination Sequence:
#
# PCOD9313309 Si02
#       8
#     4   4   4   4   4   4   4   4
#     4  10  21  30  41  60  94 121 144 172 215 259
#     4  10  18  28  42  63  84 116 149 187 198 243
#     4  10  16  28  40  60  84 114 148 174 206 241
#     4  10  17  30  48  64  81 112 155 183 212 239
#     4  10  18  30  47  61  80 115 154 185 210 254
#     4  10  16  30  42  61  87 110 146 181 216 246
#     4  10  17  28  44  62  80 107 157 185 208 233
#     4  10  21  32  42  61  90 123 145 173 225 261
#
# _framework density 21.787548000000001
#
# number of rings (size 3 to 8) (size 9 to 14) (size 15 to 20)
#    0.000    2.000    5.000    1.500    0.000    1.000 
#    0.000    0.000    0.000    0.000    0.000    0.000 
#    0.000    0.000    0.000   90.000    0.000    0.000 
#
# Total GULP energy -178605.748679 kJ/mol
# GULP energy per Si atom -5581.429646 kJ/mol
# Density = 2.173796 g / cm^3
# Si number density = 21.787548 Si / 1000 Ang^3
#
#
#
# Elastic Constant Matrix: (Units=GPa)
#
#
# Indices 1 2 3 4 5 6 
#
# 1 91.5329 3.2169 27.8923 0.0000 0.0000 0.0000
# 2 3.2169 29.2492 -5.3749 0.0000 0.0000 0.0000
# 3 27.8923 -5.3749 195.2039 0.0000 0.0000 0.0000
# 4 0.0000 0.0000 0.0000 -9.9636 0.0000 0.0000
# 5 0.0000 0.0000 0.0000 0.0000 22.2441 0.0000
# 6 0.0000 0.0000 0.0000 0.0000 0.0000 36.5249
#
#
#
# Elastic Compliance Matrix: (Units=1/GPa)
#
#
# Indices 1 2 3 4 5 6 
#
# 1 0.011494 -0.001574 -0.001686 0.000000 0.000000 0.000000
# 2 -0.001574 0.034578 0.001177 0.000000 0.000000 0.000000
# 3 -0.001686 0.001177 0.005396 0.000000 0.000000 0.000000
# 4 0.000000 0.000000 0.000000 -0.100365 0.000000 0.000000
# 5 0.000000 0.000000 0.000000 0.000000 0.044956 0.000000
# 6 0.000000 0.000000 0.000000 0.000000 0.000000 0.027379
#
#
# Mechanical properties :
#
#
# Convention : Reuss Voigt Hill
#
# Bulk Modulus (GPa) = 21.14018 40.82829 30.98424
# Shear Modulus (GPa) = 115.28478 29.11118 72.19798
#
# Velocity S-wave (km/s) = 7.28203 3.65929 5.76274
# Velocity P-wave (km/s) = 8.96816 6.05259 7.65055
#
# Compressibility (1/GPa) = 0.04730328
#
# Stress axis : x y z
#
# Youngs Moduli (GPa) = 87.00180 28.91986 185.31825
#
# Poissons Ratio (x) = 0.04552 0.31239
# Poissons Ratio (y) = 0.13693 -0.21812
# Poissons Ratio (z) = 0.14666 -0.03404
#
# Static dielectric constant tensor:
#      x y z
#    x 1.805240 0.000000 0.000000 
#    y 0.000000 1.798380 0.000000 
#    z 0.000000 0.000000 1.901660 
# 
# From -- ./inp_files/1883.got.cif
#   From: 2010.05.17/outbox.cif.g08.bks.cpg/sg19_1_cif.got.tgz:1883.got - 2010.06.03 22:46:19.
