data_PCOD9313399
_publ_section_title
;
Structure prediction by ZEFSAII (Michael W. Deem and Ramdas Pophale) SiO2 
 PCOD9313399
Probable space group: P 21 21 21
;
_chemical_formula_sum "Si O2"
_cell_formula_units_Z 32
_cell_length_a 11.958363
_cell_length_b 7.923713
_cell_length_c 13.836980
_cell_angle_alpha 90.000000
_cell_angle_beta 90.000000
_cell_angle_gamma 90.000000
_cell_volume 1311.118008
_symmetry_space_group_name_H-M "P 21 21 21"
_symmetry_group_IT_number 19
_symmetry_cell_setting 'orthorhombic'
loop_
_space_group_symop_operation_xyz
x,y,z
1/2-x,-y,1/2+z
1/2+x,1/2-y,-z
-x,1/2+y,1/2-z
loop_
_atom_site_type_symbol
_atom_site_label
_atom_site_fract_x
_atom_site_fract_y
_atom_site_fract_z
Si Si1 0.376188 0.135953 0.065794
Si Si2 0.504654 0.347053 0.523311
Si Si3 0.253591 0.641501 0.682614
Si Si4 0.946399 0.728870 0.697148
Si Si5 0.558899 0.091166 0.382959
Si Si6 0.490923 0.035837 0.784354
Si Si7 0.193136 0.520246 0.885484
Si Si8 0.573066 0.856496 0.613196
O O1 0.259664 0.205608 0.105902
O O2 0.449060 0.159217 0.161284
O O3 0.390889 0.955426 0.019417
O O4 0.438868 0.260868 0.988989
O O5 0.520166 0.159222 0.485414
O O6 0.514089 0.385347 0.636341
O O7 0.390979 0.417336 0.469901
O O8 0.381956 0.600142 0.699141
O O9 0.197650 0.642333 0.790615
O O10 0.179702 0.495836 0.630244
O O11 0.970890 0.544593 0.658007
O O12 0.847834 0.835463 0.649872
O O13 0.939103 0.749078 0.811113
O O14 0.484590 0.962934 0.676609
O O15 0.411167 0.190214 0.816046
O O16 0.321095 0.476616 0.905071
#
# Coordination Sequence:
#
# PCOD9313399 Si02
#       8
#     4   4   4   4   4   4   4   4
#     4   9  17  32  55  78 102 137 175 216 268 321
#     4  10  19  33  55  82 110 136 172 222 274 322
#     4   9  18  34  56  80 106 139 177 217 267 317
#     4   9  17  30  51  78 105 129 163 212 272 321
#     4  10  18  31  53  81 108 132 164 218 276 326
#     4  10  22  39  54  74 106 147 187 220 255 309
#     4   9  18  34  54  79 108 136 170 218 268 318
#     4  10  21  37  54  72 103 144 184 219 254 306
#
# _framework density 24.406649999999999
#
# number of rings (size 3 to 8) (size 9 to 14) (size 15 to 20)
#    0.000    2.500    0.000    3.750    0.000    2.000 
#    0.000   11.250    0.000    0.000    0.000    0.000 
#    0.000    0.000    0.000    0.000    0.000    0.000 
#
# Total GULP energy -178351.672554 kJ/mol
# GULP energy per Si atom -5573.489767 kJ/mol
# Density = 2.435110 g / cm^3
# Si number density = 24.406650 Si / 1000 Ang^3
#
#
#
# Elastic Constant Matrix: (Units=GPa)
#
#
# Indices 1 2 3 4 5 6 
#
# 1 61.7727 21.0228 21.5726 0.0000 0.0000 0.0000
# 2 21.0228 70.8770 37.4705 0.0000 0.0000 0.0000
# 3 21.5726 37.4705 118.6990 0.0000 0.0000 0.0000
# 4 0.0000 0.0000 0.0000 49.3005 0.0000 0.0000
# 5 0.0000 0.0000 0.0000 0.0000 22.7086 0.0000
# 6 0.0000 0.0000 0.0000 0.0000 0.0000 24.4844
#
#
#
# Elastic Compliance Matrix: (Units=1/GPa)
#
#
# Indices 1 2 3 4 5 6 
#
# 1 0.018372 -0.004422 -0.001943 0.000000 0.000000 0.000000
# 2 -0.004422 0.018000 -0.004878 0.000000 0.000000 0.000000
# 3 -0.001943 -0.004878 0.010318 0.000000 0.000000 0.000000
# 4 0.000000 0.000000 0.000000 0.020284 0.000000 0.000000
# 5 0.000000 0.000000 0.000000 0.000000 0.044036 0.000000
# 6 0.000000 0.000000 0.000000 0.000000 0.000000 0.040842
#
#
# Mechanical properties :
#
#
# Convention : Reuss Voigt Hill
#
# Bulk Modulus (GPa) = 41.31825 45.72006 43.51916
# Shear Modulus (GPa) = 27.41140 30.71756 29.06448
#
# Velocity S-wave (km/s) = 3.35492 3.55149 3.45460
# Velocity P-wave (km/s) = 5.65448 5.96579 5.81222
#
# Compressibility (1/GPa) = 0.02420238
#
# Stress axis : x y z
#
# Youngs Moduli (GPa) = 54.43107 55.55671 96.91995
#
# Poissons Ratio (x) = 0.24568 0.18831
# Poissons Ratio (y) = 0.24070 0.47281
# Poissons Ratio (z) = 0.10576 0.27103
#
# Static dielectric constant tensor:
#      x y z
#    x 2.023680 0.000000 0.000000 
#    y 0.000000 2.088040 0.000000 
#    z 0.000000 0.000000 1.985260 
# 
# From -- ./inp_files/6015.got.cif
#   From: 2010.05.17/outbox.cif.g08.bks.cpg/sg19_4_cif.got.tgz:6015.got - 2010.06.03 22:46:19.
