data_PCOD9313384
_publ_section_title
;
Structure prediction by ZEFSAII (Michael W. Deem and Ramdas Pophale) SiO2 
 PCOD9313384
Probable space group: P 21 21 21
;
_chemical_formula_sum "Si O2"
_cell_formula_units_Z 28
_cell_length_a 12.259057
_cell_length_b 12.660632
_cell_length_c 7.210361
_cell_angle_alpha 90.000000
_cell_angle_beta 90.000000
_cell_angle_gamma 90.000000
_cell_volume 1119.101451
_symmetry_space_group_name_H-M "P 21 21 21"
_symmetry_group_IT_number 19
_symmetry_cell_setting 'orthorhombic'
loop_
_space_group_symop_operation_xyz
x,y,z
1/2-x,-y,1/2+z
1/2+x,1/2-y,-z
-x,1/2+y,1/2-z
loop_
_atom_site_type_symbol
_atom_site_label
_atom_site_fract_x
_atom_site_fract_y
_atom_site_fract_z
Si Si1 0.474886 0.110913 0.747715
Si Si2 0.342821 0.586424 0.029517
Si Si3 0.100657 0.194889 0.497744
Si Si4 0.995262 0.057506 0.777879
Si Si5 0.121845 0.862497 0.636482
Si Si6 0.871816 0.607459 0.386329
Si Si7 0.832183 0.248431 0.509406
O O1 0.595257 0.078873 0.669472
O O2 0.404731 0.005540 0.701625
O O3 0.423047 0.207014 0.627141
O O4 0.457996 0.139474 0.961245
O O5 0.379789 0.489178 0.154776
O O6 0.720980 0.867589 0.978285
O O7 0.403570 0.692782 0.102096
O O8 0.229593 0.171412 0.530085
O O9 0.015050 0.115237 0.584092
O O10 0.103730 0.191161 0.275492
O O11 0.076868 0.956938 0.764107
O O12 0.050078 0.125511 0.939721
O O13 0.136621 0.764072 0.775309
O O14 0.244360 0.886853 0.565455
#
# Coordination Sequence:
#
# PCOD9313384 Si02
#       7
#     4   4   4   4   4   4   4
#     4  11  19  33  54  79 114 147 179 219 287 338
#     4   9  22  37  48  85 122 143 183 237 268 338
#     4   9  19  35  50  82 117 142 180 229 275 334
#     4  11  19  33  54  80 113 149 177 218 290 338
#     4  11  18  29  55  82 109 144 173 227 290 339
#     4  10  18  29  52  83 111 138 172 224 293 344
#     4   9  19  36  49  81 120 141 178 232 273 333
#
# _framework density 25.020074999999999
#
# number of rings (size 3 to 8) (size 9 to 14) (size 15 to 20)
#    0.857    1.143    4.286    2.571    0.000    0.000 
#    5.143    0.000    0.000    0.000    7.429    0.000 
#    0.000    0.000    0.000    0.000    0.000    0.000 
#
# Total GULP energy -156146.469014 kJ/mol
# GULP energy per Si atom -5576.659608 kJ/mol
# Density = 2.496313 g / cm^3
# Si number density = 25.020075 Si / 1000 Ang^3
#
#
#
# Elastic Constant Matrix: (Units=GPa)
#
#
# Indices 1 2 3 4 5 6 
#
# 1 82.2126 -5.6900 -4.2095 0.0000 0.0000 0.0000
# 2 -5.6900 43.2617 12.5258 0.0000 0.0000 0.0000
# 3 -4.2095 12.5258 87.1238 0.0000 0.0000 0.0000
# 4 0.0000 0.0000 0.0000 35.5466 0.0000 0.0000
# 5 0.0000 0.0000 0.0000 0.0000 26.5310 0.0000
# 6 0.0000 0.0000 0.0000 0.0000 0.0000 40.7112
#
#
#
# Elastic Compliance Matrix: (Units=1/GPa)
#
#
# Indices 1 2 3 4 5 6 
#
# 1 0.012287 0.001507 0.000377 0.000000 0.000000 0.000000
# 2 0.001507 0.024304 -0.003421 0.000000 0.000000 0.000000
# 3 0.000377 -0.003421 0.011988 0.000000 0.000000 0.000000
# 4 0.000000 0.000000 0.000000 0.028132 0.000000 0.000000
# 5 0.000000 0.000000 0.000000 0.000000 0.037692 0.000000
# 6 0.000000 0.000000 0.000000 0.000000 0.000000 0.024563
#
#
# Mechanical properties :
#
#
# Convention : Reuss Voigt Hill
#
# Bulk Modulus (GPa) = 21.97595 24.20562 23.09079
# Shear Modulus (GPa) = 31.80478 34.55591 33.18035
#
# Velocity S-wave (km/s) = 3.56922 3.72038 3.64558
# Velocity P-wave (km/s) = 5.07820 5.30570 5.19320
#
# Compressibility (1/GPa) = 0.04550429
#
# Stress axis : x y z
#
# Youngs Moduli (GPa) = 81.38565 41.14561 83.41653
#
# Poissons Ratio (x) = -0.06200 -0.03145
# Poissons Ratio (y) = -0.12264 0.28540
# Poissons Ratio (z) = -0.03068 0.14077
#
# Static dielectric constant tensor:
#      x y z
#    x 2.081080 0.000000 0.000000 
#    y 0.000000 2.097920 0.000000 
#    z 0.000000 0.000000 1.968720 
# 
# From -- ./inp_files/4012.got.cif
#   From: 2010.05.17/outbox.cif.g08.bks.cpg/sg19_3_cif.got.tgz:4012.got - 2010.06.03 22:46:19.
