data_PCOD9313947
_publ_section_title
;
Structure prediction by ZEFSAII (Michael W. Deem and Ramdas Pophale) SiO2 
 PCOD9313947
Probable space group: P 21 21 21
;
_chemical_formula_sum "Si O2"
_cell_formula_units_Z 32
_cell_length_a 9.970717
_cell_length_b 8.722063
_cell_length_c 14.631114
_cell_angle_alpha 90.000000
_cell_angle_beta 90.000000
_cell_angle_gamma 90.000000
_cell_volume 1272.398075
_symmetry_space_group_name_H-M "P 21 21 21"
_symmetry_group_IT_number 19
_symmetry_cell_setting 'orthorhombic'
loop_
_space_group_symop_operation_xyz
x,y,z
1/2-x,-y,1/2+z
1/2+x,1/2-y,-z
-x,1/2+y,1/2-z
loop_
_atom_site_type_symbol
_atom_site_label
_atom_site_fract_x
_atom_site_fract_y
_atom_site_fract_z
Si Si1 0.117330 0.588906 0.966586
Si Si2 0.546276 0.711760 0.453827
Si Si3 0.015257 0.024863 0.820863
Si Si4 0.064221 0.555254 0.170755
Si Si5 0.978887 0.215963 0.153988
Si Si6 0.235466 0.145415 0.391306
Si Si7 0.400180 0.777943 0.156896
Si Si8 0.784469 0.508062 0.410884
O O1 0.235859 0.675456 0.913651
O O2 0.072866 0.414303 0.946950
O O3 0.985807 0.689060 0.935966
O O4 0.138078 0.590217 0.075186
O O5 0.500800 0.867758 0.408432
O O6 0.590015 0.733602 0.559114
O O7 0.671736 0.639216 0.402290
O O8 0.016340 0.133683 0.734310
O O9 0.151779 0.926112 0.825266
O O10 0.899510 0.899082 0.820395
O O11 0.102477 0.643818 0.262809
O O12 0.910469 0.609127 0.147395
O O13 0.055927 0.371362 0.184430
O O14 0.079281 0.083117 0.120192
O O15 0.269070 0.058591 0.486906
O O16 0.262107 0.867463 0.150864
#
# Coordination Sequence:
#
# PCOD9313947 Si02
#       8
#     4   4   4   4   4   4   4   4
#     4   9  21  40  66  93 131 175 224 278 328 398
#     4  10  21  44  67  96 137 173 229 278 340 405
#     4  11  22  38  69 101 128 171 217 280 341 403
#     4  11  24  45  65 101 140 179 233 280 345 412
#     4  11  24  43  68  98 138 185 221 286 341 407
#     4  11  21  41  69  91 130 184 222 277 339 398
#     4  10  20  38  63  97 130 164 218 276 337 396
#     4  11  21  43  67  91 134 183 222 277 333 401
#
# _framework density 25.149362
#
# number of rings (size 3 to 8) (size 9 to 14) (size 15 to 20)
#    0.000    1.500    5.000    2.250    1.750    1.000 
#    4.500    1.250    0.000    0.000    0.000    0.000 
#    0.000    0.000    0.000    0.000    0.000    0.000 
#
# Total GULP energy -179122.327984 kJ/mol
# GULP energy per Si atom -5597.572749 kJ/mol
# Density = 2.509212 g / cm^3
# Si number density = 25.149362 Si / 1000 Ang^3
#
#
#
# Elastic Constant Matrix: (Units=GPa)
#
#
# Indices 1 2 3 4 5 6 
#
# 1 56.3785 15.2376 -0.9541 0.0000 0.0000 0.0000
# 2 15.2376 133.9250 52.0176 0.0000 0.0000 0.0000
# 3 -0.9541 52.0176 106.1859 0.0000 0.0000 0.0000
# 4 0.0000 0.0000 0.0000 46.8822 0.0000 0.0000
# 5 0.0000 0.0000 0.0000 0.0000 25.1865 0.0000
# 6 0.0000 0.0000 0.0000 0.0000 0.0000 33.7291
#
#
#
# Elastic Compliance Matrix: (Units=1/GPa)
#
#
# Indices 1 2 3 4 5 6 
#
# 1 0.018486 -0.002677 0.001478 0.000000 0.000000 0.000000
# 2 -0.002677 0.009609 -0.004731 0.000000 0.000000 0.000000
# 3 0.001478 -0.004731 0.011748 0.000000 0.000000 0.000000
# 4 0.000000 0.000000 0.000000 0.021330 0.000000 0.000000
# 5 0.000000 0.000000 0.000000 0.000000 0.039704 0.000000
# 6 0.000000 0.000000 0.000000 0.000000 0.000000 0.029648
#
#
# Mechanical properties :
#
#
# Convention : Reuss Voigt Hill
#
# Bulk Modulus (GPa) = 35.73773 47.67683 41.70728
# Shear Modulus (GPa) = 32.95667 36.50544 34.73105
#
# Velocity S-wave (km/s) = 3.62392 3.81405 3.72020
# Velocity P-wave (km/s) = 5.63484 6.19634 5.92225
#
# Compressibility (1/GPa) = 0.02798163
#
# Stress axis : x y z
#
# Youngs Moduli (GPa) = 54.09550 104.06754 85.11753
#
# Poissons Ratio (x) = 0.27861 -0.12577
# Poissons Ratio (y) = 0.14482 0.40272
# Poissons Ratio (z) = -0.07993 0.49238
#
# Static dielectric constant tensor:
#      x y z
#    x 2.001230 0.000000 0.000000 
#    y 0.000000 1.978170 0.000000 
#    z 0.000000 0.000000 2.009870 
# 
# From -- ./inp_files/6165.got.cif
#   From: 2010.05.17/outbox.cif.g08.bks.cpg/sg19_4_cif.got.tgz:6165.got - 2010.06.03 22:46:19.
