data_PCOD9313944
_publ_section_title
;
Structure prediction by ZEFSAII (Michael W. Deem and Ramdas Pophale) SiO2 
 PCOD9313944
Probable space group: P 21 21 21
;
_chemical_formula_sum "Si O2"
_cell_formula_units_Z 28
_cell_length_a 8.851864
_cell_length_b 32.096686
_cell_length_c 5.095024
_cell_angle_alpha 90.000000
_cell_angle_beta 90.000000
_cell_angle_gamma 90.000000
_cell_volume 1447.575288
_symmetry_space_group_name_H-M "P 21 21 21"
_symmetry_group_IT_number 19
_symmetry_cell_setting 'orthorhombic'
loop_
_space_group_symop_operation_xyz
x,y,z
1/2-x,-y,1/2+z
1/2+x,1/2-y,-z
-x,1/2+y,1/2-z
loop_
_atom_site_type_symbol
_atom_site_label
_atom_site_fract_x
_atom_site_fract_y
_atom_site_fract_z
Si Si1 0.926338 0.041406 0.042622
Si Si2 0.394377 0.282473 0.773071
Si Si3 0.138563 0.624388 0.199864
Si Si4 0.659541 0.128254 0.795808
Si Si5 0.352102 0.999001 0.207532
Si Si6 0.677865 0.221643 0.724590
Si Si7 0.923436 0.957469 0.374740
O O1 0.946980 0.082580 0.215717
O O2 0.947496 0.997846 0.194822
O O3 0.753085 0.041082 0.949431
O O4 0.043657 0.038935 0.805080
O O5 0.440267 0.331180 0.741017
O O6 0.542381 0.254118 0.755025
O O7 0.273849 0.273478 0.541524
O O8 0.301241 0.276396 0.041896
O O9 0.280075 0.627064 0.404808
O O10 0.201114 0.621317 0.905459
O O11 0.607384 0.174880 0.734601
O O12 0.552316 0.088402 0.757335
O O13 0.247065 0.010671 0.452250
O O14 0.468158 0.035018 0.121182
#
# Coordination Sequence:
#
# PCOD9313944 Si02
#       7
#     4   4   4   4   4   4   4
#     4  11  21  37  66  87 111 155 213 244 277 352
#     4  10  20  38  63  89 121 156 194 245 299 354
#     4   9  20  34  58  92 118 146 198 255 292 330
#     4   9  20  34  58  92 118 146 198 255 292 330
#     4  12  26  40  56  84 124 160 190 242 312 346
#     4  10  20  38  63  89 121 156 194 245 299 354
#     4  11  21  37  66  87 111 155 213 244 277 352
#
# _framework density 19.342687999999999
#
# number of rings (size 3 to 8) (size 9 to 14) (size 15 to 20)
#    0.000    1.714    2.857    1.714    4.000    0.000 
#    0.000    1.429    6.286    0.000    0.000    0.000 
#    0.000    0.000    0.000    0.000    0.000    0.000 
#
# Total GULP energy -156158.176575 kJ/mol
# GULP energy per Si atom -5577.077735 kJ/mol
# Density = 1.929866 g / cm^3
# Si number density = 19.342688 Si / 1000 Ang^3
#
#
#
# Elastic Constant Matrix: (Units=GPa)
#
#
# Indices 1 2 3 4 5 6 
#
# 1 79.0989 35.8769 25.8066 0.0000 0.0000 0.0000
# 2 35.8769 197.5183 16.9808 0.0000 0.0000 0.0000
# 3 25.8066 16.9808 87.6503 0.0000 0.0000 0.0000
# 4 0.0000 0.0000 0.0000 23.7453 0.0000 0.0000
# 5 0.0000 0.0000 0.0000 0.0000 23.0159 0.0000
# 6 0.0000 0.0000 0.0000 0.0000 0.0000 9.6062
#
#
#
# Elastic Compliance Matrix: (Units=1/GPa)
#
#
# Indices 1 2 3 4 5 6 
#
# 1 0.015017 -0.002387 -0.003959 0.000000 0.000000 0.000000
# 2 -0.002387 0.005528 -0.000368 0.000000 0.000000 0.000000
# 3 -0.003959 -0.000368 0.012646 0.000000 0.000000 0.000000
# 4 0.000000 0.000000 0.000000 0.042114 0.000000 0.000000
# 5 0.000000 0.000000 0.000000 0.000000 0.043448 0.000000
# 6 0.000000 0.000000 0.000000 0.000000 0.000000 0.104099
#
#
# Mechanical properties :
#
#
# Convention : Reuss Voigt Hill
#
# Bulk Modulus (GPa) = 50.60138 57.95513 54.27825
# Shear Modulus (GPa) = 20.58734 30.31369 25.45051
#
# Velocity S-wave (km/s) = 3.26597 3.96307 3.63129
# Velocity P-wave (km/s) = 6.35920 7.13923 6.76047
#
# Compressibility (1/GPa) = 0.01976231
#
# Stress axis : x y z
#
# Youngs Moduli (GPa) = 66.59201 180.89427 79.07709
#
# Poissons Ratio (x) = 0.43185 0.31306
# Poissons Ratio (y) = 0.15897 0.02911
# Poissons Ratio (z) = 0.26363 0.06659
#
# Static dielectric constant tensor:
#      x y z
#    x 1.668880 0.000000 0.000000 
#    y 0.000000 1.720580 0.000000 
#    z 0.000000 0.000000 1.735350 
# 
# From -- ./inp_files/659.got.cif
#   From: 2010.05.17/outbox.cif.g08.bks.cpg/sg19_1_cif.got.tgz:659.got - 2010.06.03 22:46:19.
