data_PCOD9313921
_publ_section_title
;
Structure prediction by ZEFSAII (Michael W. Deem and Ramdas Pophale) SiO2 
 PCOD9313921
Probable space group: P 21 21 21
;
_chemical_formula_sum "Si O2"
_cell_formula_units_Z 32
_cell_length_a 14.419765
_cell_length_b 6.566295
_cell_length_c 16.014418
_cell_angle_alpha 90.000000
_cell_angle_beta 90.000000
_cell_angle_gamma 90.000000
_cell_volume 1516.316053
_symmetry_space_group_name_H-M "P 21 21 21"
_symmetry_group_IT_number 19
_symmetry_cell_setting 'orthorhombic'
loop_
_space_group_symop_operation_xyz
x,y,z
1/2-x,-y,1/2+z
1/2+x,1/2-y,-z
-x,1/2+y,1/2-z
loop_
_atom_site_type_symbol
_atom_site_label
_atom_site_fract_x
_atom_site_fract_y
_atom_site_fract_z
Si Si1 0.068892 0.581598 0.024535
Si Si2 0.471459 0.586256 0.346728
Si Si3 0.093174 0.780694 0.417049
Si Si4 0.808889 0.846552 0.346125
Si Si5 0.439679 0.033937 0.628915
Si Si6 0.331366 0.271688 0.751694
Si Si7 0.886392 0.107176 0.906394
Si Si8 0.870941 0.731821 0.808741
O O1 0.154431 0.484064 0.075990
O O2 0.067529 0.819135 0.048490
O O3 0.976271 0.467261 0.061159
O O4 0.072118 0.527021 0.926861
O O5 0.516061 0.797035 0.379341
O O6 0.559277 0.455385 0.315193
O O7 0.403900 0.632472 0.270368
O O8 0.168087 0.812907 0.345235
O O9 0.133236 0.694194 0.502464
O O10 0.031546 0.597567 0.379009
O O11 0.861638 0.636975 0.358066
O O12 0.699326 0.819111 0.350301
O O13 0.831616 0.985303 0.265423
O O14 0.423112 0.183287 0.706725
O O15 0.237786 0.196609 0.705273
O O16 0.885833 0.866077 0.892239
#
# Coordination Sequence:
#
# PCOD9313921 Si02
#       8
#     4   4   4   4   4   4   4   4
#     4   9  21  37  59  90 114 156 200 241 299 366
#     4  11  21  38  62  84 118 156 205 246 302 363
#     4  10  22  36  60  86 117 159 196 246 300 360
#     4   9  20  38  61  85 121 155 192 249 298 354
#     4  10  20  38  60  83 118 155 195 242 307 352
#     4  10  23  36  58  90 117 154 203 245 297 359
#     4  10  21  40  59  87 122 156 198 248 301 352
#     4  11  22  39  61  87 117 161 201 253 300 354
#
# _framework density 21.103778999999999
#
# number of rings (size 3 to 8) (size 9 to 14) (size 15 to 20)
#    0.000    2.000    1.250    1.500    7.000    0.000 
#    0.000    0.000    0.000    0.000    0.000    0.000 
#    0.000    0.000    0.000    0.000    0.000    0.000 
#
# Total GULP energy -178511.635531 kJ/mol
# GULP energy per Si atom -5578.488610 kJ/mol
# Density = 2.105575 g / cm^3
# Si number density = 21.103779 Si / 1000 Ang^3
#
#
#
# Elastic Constant Matrix: (Units=GPa)
#
#
# Indices 1 2 3 4 5 6 
#
# 1 12.5663 10.7159 -13.7463 0.0000 0.0000 0.0000
# 2 10.7159 62.6788 3.3894 0.0000 0.0000 0.0000
# 3 -13.7463 3.3894 56.9545 0.0000 0.0000 0.0000
# 4 0.0000 0.0000 0.0000 19.7036 0.0000 0.0000
# 5 0.0000 0.0000 0.0000 0.0000 19.4550 0.0000
# 6 0.0000 0.0000 0.0000 0.0000 0.0000 29.3763
#
#
#
# Elastic Compliance Matrix: (Units=1/GPa)
#
#
# Indices 1 2 3 4 5 6 
#
# 1 0.140465 -0.025931 0.035445 0.000000 0.000000 0.000000
# 2 -0.025931 0.020793 -0.007496 0.000000 0.000000 0.000000
# 3 0.035445 -0.007496 0.026559 0.000000 0.000000 0.000000
# 4 0.000000 0.000000 0.000000 0.050752 0.000000 0.000000
# 5 0.000000 0.000000 0.000000 0.000000 0.051401 0.000000
# 6 0.000000 0.000000 0.000000 0.000000 0.000000 0.034041
#
#
# Mechanical properties :
#
#
# Convention : Reuss Voigt Hill
#
# Bulk Modulus (GPa) = 5.21234 14.76862 9.99048
# Shear Modulus (GPa) = 13.02334 22.49636 17.75985
#
# Velocity S-wave (km/s) = 2.48686 3.26849 2.90409
# Velocity P-wave (km/s) = 3.27433 4.61056 3.99866
#
# Compressibility (1/GPa) = 0.19185243
#
# Stress axis : x y z
#
# Youngs Moduli (GPa) = 7.11921 48.09289 37.65213
#
# Poissons Ratio (x) = 1.24712 -1.33459
# Poissons Ratio (y) = 0.18461 0.28224
# Poissons Ratio (z) = -0.25234 0.36051
#
# Static dielectric constant tensor:
#      x y z
#    x 1.741210 0.000000 0.000000 
#    y 0.000000 1.808140 0.000000 
#    z 0.000000 0.000000 1.806500 
# 
# From -- ./inp_files/6779.got.cif
#   From: 2010.05.17/outbox.cif.g08.bks.cpg/sg19_4_cif.got.tgz:6779.got - 2010.06.03 22:46:19.
