data_PCOD9313554
_publ_section_title
;
Structure prediction by ZEFSAII (Michael W. Deem and Ramdas Pophale) SiO2 
 PCOD9313554
Probable space group: P 21 21 21
;
_chemical_formula_sum "Si O2"
_cell_formula_units_Z 24
_cell_length_a 16.145708
_cell_length_b 7.929973
_cell_length_c 10.358840
_cell_angle_alpha 90.000000
_cell_angle_beta 90.000000
_cell_angle_gamma 90.000000
_cell_volume 1326.294375
_symmetry_space_group_name_H-M "P 21 21 21"
_symmetry_group_IT_number 19
_symmetry_cell_setting 'orthorhombic'
loop_
_space_group_symop_operation_xyz
x,y,z
1/2-x,-y,1/2+z
1/2+x,1/2-y,-z
-x,1/2+y,1/2-z
loop_
_atom_site_type_symbol
_atom_site_label
_atom_site_fract_x
_atom_site_fract_y
_atom_site_fract_z
Si Si1 0.504266 0.953004 0.867288
Si Si2 0.157217 0.148490 0.463237
Si Si3 0.761237 0.785116 0.788261
Si Si4 0.668720 0.140569 0.800846
Si Si5 0.593651 0.598087 0.867690
Si Si6 0.695660 0.381767 0.030571
O O1 0.428858 0.954970 0.968197
O O2 0.543183 0.768973 0.884245
O O3 0.580816 0.082055 0.863109
O O4 0.457607 0.983402 0.731180
O O5 0.178899 0.255286 0.590199
O O6 0.156579 0.270053 0.337627
O O7 0.230366 0.013531 0.449715
O O8 0.681797 0.660540 0.809186
O O9 0.806079 0.734345 0.656139
O O10 0.723754 0.972749 0.784615
O O11 0.708864 0.268910 0.902785
O O12 0.615334 0.493829 0.995631
#
# Coordination Sequence:
#
# PCOD9313554 Si02
#       6
#     4   4   4   4   4   4
#     4  11  19  37  61  90 111 151 203 244 279 341
#     4  11  20  37  61  86 117 156 193 242 293 348
#     4  10  22  35  57  87 120 153 189 240 300 343
#     4  11  22  37  62  87 117 154 206 245 284 353
#     4  10  19  34  59  85 115 150 190 241 280 342
#     4  11  20  38  56  87 120 152 193 244 298 347
#
# _framework density 18.095531999999999
#
# number of rings (size 3 to 8) (size 9 to 14) (size 15 to 20)
#    0.000    1.333    5.000    2.000    0.000    0.000 
#    0.000    1.667    0.000    0.000    0.000    0.000 
#    0.000    0.000    0.000    0.000    0.000    0.000 
#
# Total GULP energy -133787.785661 kJ/mol
# GULP energy per Si atom -5574.491069 kJ/mol
# Density = 1.805435 g / cm^3
# Si number density = 18.095532 Si / 1000 Ang^3
#
#
#
# Elastic Constant Matrix: (Units=GPa)
#
#
# Indices 1 2 3 4 5 6 
#
# 1 68.1185 24.4483 12.9402 0.0000 0.0000 0.0000
# 2 24.4483 101.5625 30.6261 0.0000 0.0000 0.0000
# 3 12.9402 30.6261 71.5082 0.0000 0.0000 0.0000
# 4 0.0000 0.0000 0.0000 30.5692 0.0000 0.0000
# 5 0.0000 0.0000 0.0000 0.0000 30.3215 0.0000
# 6 0.0000 0.0000 0.0000 0.0000 0.0000 32.1198
#
#
#
# Elastic Compliance Matrix: (Units=1/GPa)
#
#
# Indices 1 2 3 4 5 6 
#
# 1 0.016198 -0.003463 -0.001448 0.000000 0.000000 0.000000
# 2 -0.003463 0.012047 -0.004533 0.000000 0.000000 0.000000
# 3 -0.001448 -0.004533 0.016188 0.000000 0.000000 0.000000
# 4 0.000000 0.000000 0.000000 0.032713 0.000000 0.000000
# 5 0.000000 0.000000 0.000000 0.000000 0.032980 0.000000
# 6 0.000000 0.000000 0.000000 0.000000 0.000000 0.031133
#
#
# Mechanical properties :
#
#
# Convention : Reuss Voigt Hill
#
# Bulk Modulus (GPa) = 39.14611 41.91315 40.52963
# Shear Modulus (GPa) = 29.64530 30.14708 29.89619
#
# Velocity S-wave (km/s) = 4.05194 4.08609 4.06905
# Velocity P-wave (km/s) = 6.60083 6.74344 6.67251
#
# Compressibility (1/GPa) = 0.02554532
#
# Stress axis : x y z
#
# Youngs Moduli (GPa) = 61.73539 83.01154 61.77477
#
# Poissons Ratio (x) = 0.28743 0.08947
# Poissons Ratio (y) = 0.21376 0.28001
# Poissons Ratio (z) = 0.08941 0.37627
#
# Static dielectric constant tensor:
#      x y z
#    x 1.648170 0.000000 0.000000 
#    y 0.000000 1.649020 0.000000 
#    z 0.000000 0.000000 1.604960 
# 
# From -- ./inp_files/2812.got.cif
#   From: 2010.05.17/outbox.cif.g08.bks.cpg/sg19_2_cif.got.tgz:2812.got - 2010.06.03 22:46:19.
