data_PCOD9313525
_publ_section_title
;
Structure prediction by ZEFSAII (Michael W. Deem and Ramdas Pophale) SiO2 
 PCOD9313525
Probable space group: P 21 21 21
;
_chemical_formula_sum "Si O2"
_cell_formula_units_Z 32
_cell_length_a 8.680107
_cell_length_b 18.908171
_cell_length_c 7.412354
_cell_angle_alpha 90.000000
_cell_angle_beta 90.000000
_cell_angle_gamma 90.000000
_cell_volume 1216.552211
_symmetry_space_group_name_H-M "P 21 21 21"
_symmetry_group_IT_number 19
_symmetry_cell_setting 'orthorhombic'
loop_
_space_group_symop_operation_xyz
x,y,z
1/2-x,-y,1/2+z
1/2+x,1/2-y,-z
-x,1/2+y,1/2-z
loop_
_atom_site_type_symbol
_atom_site_label
_atom_site_fract_x
_atom_site_fract_y
_atom_site_fract_z
Si Si1 0.526754 0.788397 0.234704
Si Si2 0.155921 0.587435 0.945340
Si Si3 0.181779 0.796506 0.071608
Si Si4 0.041316 0.962705 0.429460
Si Si5 0.925949 0.178475 0.192368
Si Si6 0.496340 0.579299 0.067384
Si Si7 0.087158 0.334613 0.933549
Si Si8 0.121913 0.052315 0.074206
O O1 0.588971 0.867474 0.219674
O O2 0.357118 0.789217 0.138811
O O3 0.494867 0.741439 0.412063
O O4 0.650188 0.744663 0.115316
O O5 0.338467 0.581503 0.955140
O O6 0.080518 0.511130 0.964899
O O7 0.108363 0.631186 0.125573
O O8 0.071986 0.755774 0.214521
O O9 0.131985 0.876322 0.030340
O O10 0.084272 0.007609 0.253830
O O11 0.198689 0.948136 0.534691
O O12 0.965975 0.885936 0.409517
O O13 0.769388 0.175008 0.076119
O O14 0.059751 0.131786 0.100240
O O15 0.545110 0.497747 0.077446
O O16 0.459116 0.622002 0.250591
#
# Coordination Sequence:
#
# PCOD9313525 Si02
#       8
#     4   4   4   4   4   4   4   4
#     4   9  16  28  49  78 105 132 170 214 255 300
#     4   9  18  32  52  78 104 134 174 217 258 304
#     4   9  16  28  50  78 106 133 171 217 256 302
#     4  11  22  35  53  76 106 138 174 218 260 310
#     4   8  17  32  51  77 104 133 171 212 254 302
#     4  10  19  33  55  79 103 133 170 214 264 312
#     4   9  18  33  54  78 103 132 166 210 259 308
#     4  11  22  35  52  76 105 137 174 216 260 308
#
# _framework density 26.303844999999999
#
# number of rings (size 3 to 8) (size 9 to 14) (size 15 to 20)
#    0.000    2.500    0.000    4.500    0.000    6.000 
#    0.000    1.250    0.000   10.500    0.000    0.000 
#    0.000    0.000    0.000    0.000    0.000    0.000 
#
# Total GULP energy -179162.699161 kJ/mol
# GULP energy per Si atom -5598.834349 kJ/mol
# Density = 2.624398 g / cm^3
# Si number density = 26.303845 Si / 1000 Ang^3
#
#
#
# Elastic Constant Matrix: (Units=GPa)
#
#
# Indices 1 2 3 4 5 6 
#
# 1 94.3132 30.6059 12.0507 0.0000 0.0000 0.0000
# 2 30.6059 156.8289 2.1693 0.0000 0.0000 0.0000
# 3 12.0507 2.1693 55.8116 0.0000 0.0000 0.0000
# 4 0.0000 0.0000 0.0000 40.2169 0.0000 0.0000
# 5 0.0000 0.0000 0.0000 0.0000 23.3795 0.0000
# 6 0.0000 0.0000 0.0000 0.0000 0.0000 43.2410
#
#
#
# Elastic Compliance Matrix: (Units=1/GPa)
#
#
# Indices 1 2 3 4 5 6 
#
# 1 0.011639 -0.002238 -0.002426 0.000000 0.000000 0.000000
# 2 -0.002238 0.006810 0.000218 0.000000 0.000000 0.000000
# 3 -0.002426 0.000218 0.018433 0.000000 0.000000 0.000000
# 4 0.000000 0.000000 0.000000 0.024865 0.000000 0.000000
# 5 0.000000 0.000000 0.000000 0.000000 0.042772 0.000000
# 6 0.000000 0.000000 0.000000 0.000000 0.000000 0.023126
#
#
# Mechanical properties :
#
#
# Convention : Reuss Voigt Hill
#
# Bulk Modulus (GPa) = 35.72570 44.06726 39.89648
# Shear Modulus (GPa) = 34.27774 38.84267 36.56020
#
# Velocity S-wave (km/s) = 3.61383 3.84694 3.73221
# Velocity P-wave (km/s) = 5.56996 6.04330 5.81145
#
# Compressibility (1/GPa) = 0.02799106
#
# Stress axis : x y z
#
# Youngs Moduli (GPa) = 85.91665 146.84106 54.25117
#
# Poissons Ratio (x) = 0.32861 0.13162
# Poissons Ratio (y) = 0.19227 -0.01185
# Poissons Ratio (z) = 0.20844 -0.03208
#
# Static dielectric constant tensor:
#      x y z
#    x 1.950590 0.000000 0.000000 
#    y 0.000000 2.029830 0.000000 
#    z 0.000000 0.000000 2.187520 
# 
# From -- ./inp_files/3186.got.cif
#   From: 2010.05.17/outbox.cif.g08.bks.cpg/sg19_2_cif.got.tgz:3186.got - 2010.06.03 22:46:19.
