data_PCOD9313314
_publ_section_title
;
Structure prediction by ZEFSAII (Michael W. Deem and Ramdas Pophale) SiO2 
 PCOD9313314
Probable space group: P 21 21 21
;
_chemical_formula_sum "Si O2"
_cell_formula_units_Z 24
_cell_length_a 16.525661
_cell_length_b 13.382260
_cell_length_c 5.195921
_cell_angle_alpha 90.000000
_cell_angle_beta 90.000000
_cell_angle_gamma 90.000000
_cell_volume 1149.081526
_symmetry_space_group_name_H-M "P 21 21 21"
_symmetry_group_IT_number 19
_symmetry_cell_setting 'orthorhombic'
loop_
_space_group_symop_operation_xyz
x,y,z
1/2-x,-y,1/2+z
1/2+x,1/2-y,-z
-x,1/2+y,1/2-z
loop_
_atom_site_type_symbol
_atom_site_label
_atom_site_fract_x
_atom_site_fract_y
_atom_site_fract_z
Si Si1 0.217801 0.126195 0.958619
Si Si2 0.135728 0.306534 0.186026
Si Si3 0.008060 0.910764 0.086101
Si Si4 0.185709 0.890695 0.958606
Si Si5 0.438168 0.509159 0.422567
Si Si6 0.726315 0.936999 0.110876
O O1 0.148985 0.201205 0.054111
O O2 0.289210 0.137096 0.170181
O O3 0.189857 0.011740 0.970977
O O4 0.251377 0.147060 0.674182
O O5 0.217803 0.342377 0.326203
O O6 0.059337 0.324385 0.371840
O O7 0.115971 0.390734 0.971324
O O8 0.095228 0.864549 0.039265
O O9 0.000012 0.980764 0.339804
O O10 0.982723 0.978125 0.844601
O O11 0.369968 0.423411 0.428635
O O12 0.738474 0.007879 0.360279
#
# Coordination Sequence:
#
# PCOD9313314 Si02
#       6
#     4   4   4   4   4   4
#     4  10  22  39  59  79 105 154 190 227 260 333
#     4   9  21  32  60  81 115 140 186 223 279 325
#     4  10  19  34  57  78 108 145 173 234 275 321
#     4  10  22  40  58  78 110 147 192 225 276 314
#     4   9  18  31  55  80 111 145 170 215 286 327
#     4  10  16  30  49  80 111 145 175 206 270 344
#
# _framework density 20.886248999999999
#
# number of rings (size 3 to 8) (size 9 to 14) (size 15 to 20)
#    1.000    1.333    1.667    1.000    2.333    0.000 
#    0.000    3.333    0.000    0.000    0.000    0.000 
#    0.000    0.000    0.000    0.000    0.000    0.000 
#
# Total GULP energy -133723.749493 kJ/mol
# GULP energy per Si atom -5571.822896 kJ/mol
# Density = 2.083871 g / cm^3
# Si number density = 20.886249 Si / 1000 Ang^3
#
#
#
# Elastic Constant Matrix: (Units=GPa)
#
#
# Indices 1 2 3 4 5 6 
#
# 1 33.0243 4.6904 -18.2776 0.0000 0.0000 0.0000
# 2 4.6904 29.4801 7.9804 0.0000 0.0000 0.0000
# 3 -18.2776 7.9804 88.6446 0.0000 0.0000 0.0000
# 4 0.0000 0.0000 0.0000 15.7776 0.0000 0.0000
# 5 0.0000 0.0000 0.0000 0.0000 20.4159 0.0000
# 6 0.0000 0.0000 0.0000 0.0000 0.0000 1.4133
#
#
#
# Elastic Compliance Matrix: (Units=1/GPa)
#
#
# Indices 1 2 3 4 5 6 
#
# 1 0.035894 -0.007907 0.008113 0.000000 0.000000 0.000000
# 2 -0.007907 0.036510 -0.004917 0.000000 0.000000 0.000000
# 3 0.008113 -0.004917 0.013396 0.000000 0.000000 0.000000
# 4 0.000000 0.000000 0.000000 0.063381 0.000000 0.000000
# 5 0.000000 0.000000 0.000000 0.000000 0.048981 0.000000
# 6 0.000000 0.000000 0.000000 0.000000 0.000000 0.707575
#
#
# Mechanical properties :
#
#
# Convention : Reuss Voigt Hill
#
# Bulk Modulus (GPa) = 13.09282 15.54837 14.32060
# Shear Modulus (GPa) = 5.31564 17.97175 11.64369
#
# Velocity S-wave (km/s) = 1.59705 2.93654 2.36367
# Velocity P-wave (km/s) = 3.11175 4.35410 3.78425
#
# Compressibility (1/GPa) = 0.07637772
#
# Stress axis : x y z
#
# Youngs Moduli (GPa) = 27.85994 27.38950 74.64654
#
# Poissons Ratio (x) = 0.21657 -0.60559
# Poissons Ratio (y) = 0.22029 0.36706
# Poissons Ratio (z) = -0.22602 0.13468
#
# Static dielectric constant tensor:
#      x y z
#    x 1.791750 0.000000 0.000000 
#    y 0.000000 1.745150 0.000000 
#    z 0.000000 0.000000 1.742050 
# 
# From -- ./inp_files/1455.got.cif
#   From: 2010.05.17/outbox.cif.g08.bks.cpg/sg19_1_cif.got.tgz:1455.got - 2010.06.03 22:46:19.
