data_PCOD9313502
_publ_section_title
;
Structure prediction by ZEFSAII (Michael W. Deem and Ramdas Pophale) SiO2 
 PCOD9313502
Probable space group: P 21 21 21
;
_chemical_formula_sum "Si O2"
_cell_formula_units_Z 32
_cell_length_a 18.382115
_cell_length_b 11.264108
_cell_length_c 8.305547
_cell_angle_alpha 90.000000
_cell_angle_beta 90.000000
_cell_angle_gamma 90.000000
_cell_volume 1719.731019
_symmetry_space_group_name_H-M "P 21 21 21"
_symmetry_group_IT_number 19
_symmetry_cell_setting 'orthorhombic'
loop_
_space_group_symop_operation_xyz
x,y,z
1/2-x,-y,1/2+z
1/2+x,1/2-y,-z
-x,1/2+y,1/2-z
loop_
_atom_site_type_symbol
_atom_site_label
_atom_site_fract_x
_atom_site_fract_y
_atom_site_fract_z
Si Si1 0.164592 0.999632 0.519452
Si Si2 0.810443 0.460531 0.608169
Si Si3 0.967557 0.042468 0.151277
Si Si4 0.451258 0.589310 0.510114
Si Si5 0.451941 0.171540 0.515461
Si Si6 0.902939 0.663748 0.502518
Si Si7 0.092231 0.778857 0.381630
Si Si8 0.521283 0.392893 0.343762
O O1 0.186768 0.974338 0.701938
O O2 0.153768 0.875089 0.423896
O O3 0.229654 0.074293 0.442513
O O4 0.088269 0.068716 0.539397
O O5 0.877917 0.377851 0.560883
O O6 0.830939 0.584574 0.518199
O O7 0.907603 0.137217 0.090523
O O8 0.949097 0.990225 0.327482
O O9 0.987199 0.929975 0.040988
O O10 0.044841 0.115307 0.141341
O O11 0.392369 0.694661 0.504974
O O12 0.524616 0.668311 0.518322
O O13 0.463385 0.500199 0.362127
O O14 0.429457 0.210634 0.694847
O O15 0.484055 0.276098 0.410823
O O16 0.946355 0.630489 0.667642
#
# Coordination Sequence:
#
# PCOD9313502 Si02
#       8
#     4   4   4   4   4   4   4   4
#     4  10  21  37  56  80 115 148 192 230 280 338
#     4  10  21  37  54  81 110 151 184 234 284 338
#     4   9  17  30  48  78 108 139 178 226 280 321
#     4   9  17  31  48  77 110 138 180 226 278 325
#     4  10  19  31  53  82 114 143 187 231 281 337
#     4   9  20  31  52  78 110 143 182 231 281 331
#     4   9  17  31  51  77 107 142 181 228 272 330
#     4  10  20  32  54  83 114 148 184 236 286 332
#
# _framework density 18.607558999999998
#
# number of rings (size 3 to 8) (size 9 to 14) (size 15 to 20)
#    0.000    2.500    1.250    0.750    8.750    1.000 
#    0.000    0.000    0.000    1.500    0.000    0.000 
#    0.000    0.000    0.000    0.000    0.000    0.000 
#
# Total GULP energy -178199.194076 kJ/mol
# GULP energy per Si atom -5568.724815 kJ/mol
# Density = 1.856521 g / cm^3
# Si number density = 18.607559 Si / 1000 Ang^3
#
#
#
# Elastic Constant Matrix: (Units=GPa)
#
#
# Indices 1 2 3 4 5 6 
#
# 1 51.2943 19.6265 6.1470 0.0000 0.0000 0.0000
# 2 19.6265 105.7078 13.1497 0.0000 0.0000 0.0000
# 3 6.1470 13.1497 47.3565 0.0000 0.0000 0.0000
# 4 0.0000 0.0000 0.0000 23.1717 0.0000 0.0000
# 5 0.0000 0.0000 0.0000 0.0000 21.3670 0.0000
# 6 0.0000 0.0000 0.0000 0.0000 0.0000 16.9484
#
#
#
# Elastic Compliance Matrix: (Units=1/GPa)
#
#
# Indices 1 2 3 4 5 6 
#
# 1 0.021119 -0.003708 -0.001712 0.000000 0.000000 0.000000
# 2 -0.003708 0.010450 -0.002420 0.000000 0.000000 0.000000
# 3 -0.001712 -0.002420 0.022011 0.000000 0.000000 0.000000
# 4 0.000000 0.000000 0.000000 0.043156 0.000000 0.000000
# 5 0.000000 0.000000 0.000000 0.000000 0.046801 0.000000
# 6 0.000000 0.000000 0.000000 0.000000 0.000000 0.059003
#
#
# Mechanical properties :
#
#
# Convention : Reuss Voigt Hill
#
# Bulk Modulus (GPa) = 26.38573 31.35612 28.87092
# Shear Modulus (GPa) = 21.65881 23.32644 22.49262
#
# Velocity S-wave (km/s) = 3.41541 3.54446 3.48054
# Velocity P-wave (km/s) = 5.45567 5.79990 5.63041
#
# Compressibility (1/GPa) = 0.03789927
#
# Stress axis : x y z
#
# Youngs Moduli (GPa) = 47.34995 95.69728 45.43256
#
# Poissons Ratio (x) = 0.35487 0.07776
# Poissons Ratio (y) = 0.17559 0.10996
# Poissons Ratio (z) = 0.08105 0.23161
#
# Static dielectric constant tensor:
#      x y z
#    x 1.652380 0.000000 0.000000 
#    y 0.000000 1.728980 0.000000 
#    z 0.000000 0.000000 1.678740 
# 
# From -- ./inp_files/3706.got.cif
#   From: 2010.05.17/outbox.cif.g08.bks.cpg/sg19_2_cif.got.tgz:3706.got - 2010.06.03 22:46:19.
