data_PCOD9313729
_publ_section_title
;
Structure prediction by ZEFSAII (Michael W. Deem and Ramdas Pophale) SiO2 
 PCOD9313729
Probable space group: P 21 21 21
;
_chemical_formula_sum "Si O2"
_cell_formula_units_Z 28
_cell_length_a 8.715035
_cell_length_b 7.380362
_cell_length_c 20.076464
_cell_angle_alpha 90.000000
_cell_angle_beta 90.000000
_cell_angle_gamma 90.000000
_cell_volume 1291.320436
_symmetry_space_group_name_H-M "P 21 21 21"
_symmetry_group_IT_number 19
_symmetry_cell_setting 'orthorhombic'
loop_
_space_group_symop_operation_xyz
x,y,z
1/2-x,-y,1/2+z
1/2+x,1/2-y,-z
-x,1/2+y,1/2-z
loop_
_atom_site_type_symbol
_atom_site_label
_atom_site_fract_x
_atom_site_fract_y
_atom_site_fract_z
Si Si1 0.768129 0.973508 0.316544
Si Si2 0.230624 0.328348 0.459213
Si Si3 0.474145 0.822650 0.635705
Si Si4 0.192178 0.482019 0.835559
Si Si5 0.301118 0.738377 0.508959
Si Si6 0.972331 0.224252 0.904534
Si Si7 0.612037 0.707810 0.909351
O O1 0.893561 0.811347 0.312906
O O2 0.628157 0.918379 0.364864
O O3 0.704113 0.991946 0.242718
O O4 0.845360 0.143103 0.354117
O O5 0.310178 0.345053 0.385947
O O6 0.253757 0.537546 0.484546
O O7 0.285662 0.218703 0.523756
O O8 0.058565 0.275165 0.440041
O O9 0.650856 0.869139 0.647614
O O10 0.431898 0.727106 0.565764
O O11 0.389570 0.015194 0.627997
O O12 0.043943 0.366749 0.854282
O O13 0.384036 0.842304 0.448891
O O14 0.150109 0.813244 0.544649
#
# Coordination Sequence:
#
# PCOD9313729 Si02
#       7
#     4   4   4   4   4   4   4
#     4  11  25  48  68 102 152 188 244 294 368 445
#     4  10  22  44  69 106 142 176 245 303 353 430
#     4  10  23  43  76  97 139 190 240 295 374 433
#     4  10  24  44  71 105 144 190 247 293 369 449
#     4  10  19  42  73 101 136 177 235 301 363 416
#     4  10  20  41  71  98 136 186 229 300 356 431
#     4  11  23  44  70 107 137 185 238 308 351 436
#
# _framework density 21.683232
#
# number of rings (size 3 to 8) (size 9 to 14) (size 15 to 20)
#    0.000    1.714    2.857    2.571    4.000    4.571 
#   18.000    0.000    0.000    0.000    0.000    0.000 
#    0.000    0.000    0.000    0.000    0.000    0.000 
#
# Total GULP energy -156109.633096 kJ/mol
# GULP energy per Si atom -5575.344039 kJ/mol
# Density = 2.163388 g / cm^3
# Si number density = 21.683232 Si / 1000 Ang^3
#
#
#
# Elastic Constant Matrix: (Units=GPa)
#
#
# Indices 1 2 3 4 5 6 
#
# 1 76.6646 34.5899 33.3645 0.0000 0.0000 0.0000
# 2 34.5899 54.5252 23.2293 0.0000 0.0000 0.0000
# 3 33.3645 23.2293 105.1759 0.0000 0.0000 0.0000
# 4 0.0000 0.0000 0.0000 20.7493 0.0000 0.0000
# 5 0.0000 0.0000 0.0000 0.0000 29.4525 0.0000
# 6 0.0000 0.0000 0.0000 0.0000 0.0000 23.4286
#
#
#
# Elastic Compliance Matrix: (Units=1/GPa)
#
#
# Indices 1 2 3 4 5 6 
#
# 1 0.019577 -0.010789 -0.003828 0.000000 0.000000 0.000000
# 2 -0.010789 0.026191 -0.002362 0.000000 0.000000 0.000000
# 3 -0.003828 -0.002362 0.011244 0.000000 0.000000 0.000000
# 4 0.000000 0.000000 0.000000 0.048194 0.000000 0.000000
# 5 0.000000 0.000000 0.000000 0.000000 0.033953 0.000000
# 6 0.000000 0.000000 0.000000 0.000000 0.000000 0.042683
#
#
# Mechanical properties :
#
#
# Convention : Reuss Voigt Hill
#
# Bulk Modulus (GPa) = 43.37477 46.52589 44.95033
# Shear Modulus (GPa) = 22.37296 24.40489 23.38892
#
# Velocity S-wave (km/s) = 3.21566 3.35851 3.28787
# Velocity P-wave (km/s) = 5.81675 6.04509 5.93202
#
# Compressibility (1/GPa) = 0.02305488
#
# Stress axis : x y z
#
# Youngs Moduli (GPa) = 51.07932 38.18142 88.93818
#
# Poissons Ratio (x) = 0.41194 0.34042
# Poissons Ratio (y) = 0.55109 0.21007
# Poissons Ratio (z) = 0.19551 0.09018
#
# Static dielectric constant tensor:
#      x y z
#    x 1.812950 0.000000 0.000000 
#    y 0.000000 1.853210 0.000000 
#    z 0.000000 0.000000 1.843710 
# 
# From -- ./inp_files/7008.got.cif
#   From: 2010.05.17/outbox.cif.g08.bks.cpg/sg19_4_cif.got.tgz:7008.got - 2010.06.03 22:46:19.
