data_PCOD9313313
_publ_section_title
;
Structure prediction by ZEFSAII (Michael W. Deem and Ramdas Pophale) SiO2 
 PCOD9313313
Probable space group: P 21 21 21
;
_chemical_formula_sum "Si O2"
_cell_formula_units_Z 28
_cell_length_a 5.603798
_cell_length_b 13.354208
_cell_length_c 13.546020
_cell_angle_alpha 90.000000
_cell_angle_beta 90.000000
_cell_angle_gamma 90.000000
_cell_volume 1013.706709
_symmetry_space_group_name_H-M "P 21 21 21"
_symmetry_group_IT_number 19
_symmetry_cell_setting 'orthorhombic'
loop_
_space_group_symop_operation_xyz
x,y,z
1/2-x,-y,1/2+z
1/2+x,1/2-y,-z
-x,1/2+y,1/2-z
loop_
_atom_site_type_symbol
_atom_site_label
_atom_site_fract_x
_atom_site_fract_y
_atom_site_fract_z
Si Si1 0.227597 0.774530 0.051685
Si Si2 0.151086 0.743414 0.274945
Si Si3 0.867917 0.486060 0.220245
Si Si4 0.630967 0.965595 0.258088
Si Si5 0.142190 0.580189 0.517068
Si Si6 0.850651 0.248055 0.836783
Si Si7 0.144680 0.005928 0.508526
O O1 0.187950 0.728768 0.159258
O O2 0.467858 0.729753 0.001682
O O3 0.296005 0.890553 0.060565
O O4 0.388084 0.705854 0.328884
O O5 0.135734 0.863995 0.297278
O O6 0.631819 0.843838 0.254363
O O7 0.896348 0.701747 0.307854
O O8 0.866470 0.529455 0.109918
O O9 0.114827 0.504235 0.275723
O O10 0.379797 0.009822 0.227223
O O11 0.633650 0.979206 0.377222
O O12 0.382218 0.537164 0.468763
O O13 0.175600 0.693142 0.557586
O O14 0.875061 0.564674 0.477813
#
# Coordination Sequence:
#
# PCOD9313313 Si02
#       7
#     4   4   4   4   4   4   4
#     4  12  26  36  40  62 106 160 170 164 214 302
#     4  10  16  30  46  60  86 114 168 204 222 276
#     4   8  12  24  44  64  64  96 152 214 248 224
#     4   6  10  16  32  58  78  72 112 180 246 278
#     4   8  13  24  45  68  75  92 149 216 258 259
#     4   8  13  24  45  68  75  92 149 216 258 259
#     4  10  16  30  46  60  86 114 168 204 222 276
#
# _framework density 27.621400000000001
#
# number of rings (size 3 to 8) (size 9 to 14) (size 15 to 20)
#    0.857    2.286    2.857    1.714    0.000    0.000 
#    0.000    0.000    0.000    0.000    0.000    0.000 
#    0.000    0.000    0.000    2.571    0.000    2.571 
#
# Total GULP energy -156545.147481 kJ/mol
# GULP energy per Si atom -5590.898124 kJ/mol
# Density = 2.755853 g / cm^3
# Si number density = 27.621400 Si / 1000 Ang^3
#
#
#
# Elastic Constant Matrix: (Units=GPa)
#
#
# Indices 1 2 3 4 5 6 
#
# 1 333.3748 50.7328 53.9280 0.0000 0.0000 0.0000
# 2 50.7328 85.0868 30.7673 0.0000 0.0000 0.0000
# 3 53.9280 30.7673 94.7617 0.0000 0.0000 0.0000
# 4 0.0000 0.0000 0.0000 23.6015 0.0000 0.0000
# 5 0.0000 0.0000 0.0000 0.0000 27.2469 0.0000
# 6 0.0000 0.0000 0.0000 0.0000 0.0000 23.9609
#
#
#
# Elastic Compliance Matrix: (Units=1/GPa)
#
#
# Indices 1 2 3 4 5 6 
#
# 1 0.003472 -0.001536 -0.001477 0.000000 0.000000 0.000000
# 2 -0.001536 0.013996 -0.003670 0.000000 0.000000 0.000000
# 3 -0.001477 -0.003670 0.012585 0.000000 0.000000 0.000000
# 4 0.000000 0.000000 0.000000 0.042370 0.000000 0.000000
# 5 0.000000 0.000000 0.000000 0.000000 0.036701 0.000000
# 6 0.000000 0.000000 0.000000 0.000000 0.000000 0.041735
#
#
# Mechanical properties :
#
#
# Convention : Reuss Voigt Hill
#
# Bulk Modulus (GPa) = 59.92940 87.11992 73.52466
# Shear Modulus (GPa) = 29.44842 40.14820 34.79831
#
# Velocity S-wave (km/s) = 3.26873 3.81664 3.55326
# Velocity P-wave (km/s) = 5.99916 7.14363 6.59627
#
# Compressibility (1/GPa) = 0.01668630
#
# Stress axis : x y z
#
# Youngs Moduli (GPa) = 287.98674 71.45051 79.45922
#
# Poissons Ratio (x) = 0.10976 0.11739
# Poissons Ratio (y) = 0.44241 0.29161
# Poissons Ratio (z) = 0.42545 0.26222
#
# Static dielectric constant tensor:
#      x y z
#    x 2.159140 0.000000 0.000000 
#    y 0.000000 2.180760 0.000000 
#    z 0.000000 0.000000 2.136280 
# 
# From -- ./inp_files/1072.got.cif
#   From: 2010.05.17/outbox.cif.g08.bks.cpg/sg19_1_cif.got.tgz:1072.got - 2010.06.03 22:46:19.
