data_PCOD9313185
_publ_section_title
;
Structure prediction by ZEFSAII (Michael W. Deem and Ramdas Pophale) SiO2 
 PCOD9313185
Probable space group: P 21 21 2
;
_chemical_formula_sum "Si O2"
_cell_formula_units_Z 18
_cell_length_a 7.863825
_cell_length_b 13.921117
_cell_length_c 6.820483
_cell_angle_alpha 90.000000
_cell_angle_beta 90.000000
_cell_angle_gamma 90.000000
_cell_volume 746.660290
_symmetry_space_group_name_H-M "P 21 21 2"
_symmetry_group_IT_number 18
_symmetry_cell_setting 'orthorhombic'
loop_
_space_group_symop_operation_xyz
x,y,z
-x,-y,z
1/2+x,1/2-y,-z
1/2-x,1/2+y,-z
loop_
_atom_site_type_symbol
_atom_site_label
_atom_site_fract_x
_atom_site_fract_y
_atom_site_fract_z
Si Si1 0.089879 0.360102 0.101295
Si Si2 0.280686 0.330290 0.466355
Si Si3 0.229574 0.046413 0.996662
Si Si4 0.000000 0.000000 0.343481
Si Si5 0.408840 0.708528 0.217266
O O1 0.115872 0.355537 0.334291
O O2 0.235882 0.433594 0.030527
O O3 0.912990 0.403906 0.025481
O O4 0.104902 0.259453 0.992598
O O5 0.382923 0.423315 0.542995
O O6 0.409217 0.278797 0.316806
O O7 0.225274 0.261188 0.641935
O O8 0.127058 0.097055 0.821923
O O9 0.129245 0.056839 0.199070
#
# Coordination Sequence:
#
# PCOD9313185 Si02
#       5
#     4   4   4   2   4
#     4  11  25  50  70 110 150 201 251 313 388 449
#     4  12  27  46  77 114 151 203 265 317 378 467
#     4  11  25  47  77 102 157 198 244 322 383 452
#     4  12  26  50  78 114 152 204 256 320 390 454
#     4  12  26  45  77 110 152 201 257 314 385 455
#
# _framework density 24.107351000000001
#
# number of rings (size 3 to 8) (size 9 to 14) (size 15 to 20)
#    0.000    0.444    2.222    5.333    9.333    0.000 
#    8.000    0.000    0.000    0.000    0.000    0.000 
#    0.000    0.000    0.000    0.000    0.000    0.000 
#
# Total GULP energy -100773.894401 kJ/mol
# GULP energy per Si atom -5598.549689 kJ/mol
# Density = 2.405248 g / cm^3
# Si number density = 24.107351 Si / 1000 Ang^3
#
#
#
# Elastic Constant Matrix: (Units=GPa)
#
#
# Indices 1 2 3 4 5 6 
#
# 1 118.8052 34.3258 47.0670 0.0000 0.0000 0.0000
# 2 34.3258 94.0066 42.2574 0.0000 0.0000 0.0000
# 3 47.0670 42.2574 118.9772 0.0000 0.0000 0.0000
# 4 0.0000 0.0000 0.0000 46.2213 0.0000 0.0000
# 5 0.0000 0.0000 0.0000 0.0000 52.6771 0.0000
# 6 0.0000 0.0000 0.0000 0.0000 0.0000 34.8285
#
#
#
# Elastic Compliance Matrix: (Units=1/GPa)
#
#
# Indices 1 2 3 4 5 6 
#
# 1 0.010388 -0.002316 -0.003287 0.000000 0.000000 0.000000
# 2 -0.002316 0.013175 -0.003763 0.000000 0.000000 0.000000
# 3 -0.003287 -0.003763 0.011042 0.000000 0.000000 0.000000
# 4 0.000000 0.000000 0.000000 0.021635 0.000000 0.000000
# 5 0.000000 0.000000 0.000000 0.000000 0.018984 0.000000
# 6 0.000000 0.000000 0.000000 0.000000 0.000000 0.028712
#
#
# Mechanical properties :
#
#
# Convention : Reuss Voigt Hill
#
# Bulk Modulus (GPa) = 62.99990 64.34324 63.67157
# Shear Modulus (GPa) = 39.07501 40.62132 39.84817
#
# Velocity S-wave (km/s) = 4.03038 4.10935 4.07006
# Velocity P-wave (km/s) = 6.91725 7.01883 6.96822
#
# Compressibility (1/GPa) = 0.01587304
#
# Stress axis : x y z
#
# Youngs Moduli (GPa) = 96.26062 75.90298 90.56353
#
# Poissons Ratio (x) = 0.17576 0.29770
# Poissons Ratio (y) = 0.22290 0.34081
# Poissons Ratio (z) = 0.31643 0.28564
#
# Static dielectric constant tensor:
#      x y z
#    x 1.981970 0.000000 0.000000 
#    y 0.000000 1.902760 0.000000 
#    z 0.000000 0.000000 1.909420 
# 
# From -- ./inp_files/488.got.cif
#   From: 2010.05.17/outbox.cif.g08.bks.cpg/sg18_1_cif.got.tgz:488.got - 2010.06.03 22:40:56.
