data_PCOD9313982
_publ_section_title
;
Structure prediction by ZEFSAII (Michael W. Deem and Ramdas Pophale) SiO2 
 PCOD9313982
Probable space group: P 21 21 21
;
_chemical_formula_sum "Si O2"
_cell_formula_units_Z 28
_cell_length_a 7.717935
_cell_length_b 8.835618
_cell_length_c 17.671107
_cell_angle_alpha 90.000000
_cell_angle_beta 90.000000
_cell_angle_gamma 90.000000
_cell_volume 1205.040947
_symmetry_space_group_name_H-M "P 21 21 21"
_symmetry_group_IT_number 19
_symmetry_cell_setting 'orthorhombic'
loop_
_space_group_symop_operation_xyz
x,y,z
1/2-x,-y,1/2+z
1/2+x,1/2-y,-z
-x,1/2+y,1/2-z
loop_
_atom_site_type_symbol
_atom_site_label
_atom_site_fract_x
_atom_site_fract_y
_atom_site_fract_z
Si Si1 0.030449 0.110756 0.101342
Si Si2 0.571343 0.566770 0.039688
Si Si3 0.258414 0.958394 0.225979
Si Si4 0.077265 0.439203 0.167203
Si Si5 0.051750 0.182309 0.422590
Si Si6 0.769262 0.914022 0.177189
Si Si7 0.519343 0.183943 0.307632
O O1 0.067052 0.278370 0.128018
O O2 0.173084 0.009003 0.146422
O O3 0.840857 0.056179 0.130959
O O4 0.042758 0.078878 0.012533
O O5 0.774700 0.593324 0.054622
O O6 0.474115 0.576053 0.119318
O O7 0.504834 0.705594 0.988178
O O8 0.103301 0.967709 0.287333
O O9 0.323323 0.783689 0.224780
O O10 0.404097 0.084155 0.249172
O O11 0.091415 0.565365 0.103470
O O12 0.217581 0.443880 0.233892
O O13 0.096677 0.283899 0.349242
O O14 0.591125 0.830396 0.160734
#
# Coordination Sequence:
#
# PCOD9313982 Si02
#       7
#     4   4   4   4   4   4   4
#     4  10  21  37  65  93 123 167 216 255 313 379
#     4  10  21  42  60  89 126 172 204 251 319 391
#     4  11  23  40  63  98 128 166 209 270 320 369
#     4  11  19  39  63  91 121 159 218 267 297 372
#     4  10  20  39  63  85 125 163 206 258 309 383
#     4   9  18  37  62  89 122 161 210 248 312 382
#     4  11  22  42  62  93 133 160 211 263 326 374
#
# _framework density 23.235723
#
# number of rings (size 3 to 8) (size 9 to 14) (size 15 to 20)
#    0.000    1.714    4.286    1.714    2.000    0.000 
#    2.571    7.143    0.000    0.000    0.000    0.000 
#    0.000    0.000    0.000    0.000    0.000    0.000 
#
# Total GULP energy -156437.765996 kJ/mol
# GULP energy per Si atom -5587.063071 kJ/mol
# Density = 2.318284 g / cm^3
# Si number density = 23.235723 Si / 1000 Ang^3
#
#
#
# Elastic Constant Matrix: (Units=GPa)
#
#
# Indices 1 2 3 4 5 6 
#
# 1 56.6882 -19.9078 0.9391 0.0000 0.0000 0.0000
# 2 -19.9078 29.4928 -7.0603 0.0000 0.0000 0.0000
# 3 0.9391 -7.0603 74.3906 0.0000 0.0000 0.0000
# 4 0.0000 0.0000 0.0000 28.5772 0.0000 0.0000
# 5 0.0000 0.0000 0.0000 0.0000 24.6072 0.0000
# 6 0.0000 0.0000 0.0000 0.0000 0.0000 29.0351
#
#
#
# Elastic Compliance Matrix: (Units=1/GPa)
#
#
# Indices 1 2 3 4 5 6 
#
# 1 0.023229 0.015973 0.001223 0.000000 0.000000 0.000000
# 2 0.015973 0.045678 0.004134 0.000000 0.000000 0.000000
# 3 0.001223 0.004134 0.013819 0.000000 0.000000 0.000000
# 4 0.000000 0.000000 0.000000 0.034993 0.000000 0.000000
# 5 0.000000 0.000000 0.000000 0.000000 0.040639 0.000000
# 6 0.000000 0.000000 0.000000 0.000000 0.000000 0.034441
#
#
# Mechanical properties :
#
#
# Convention : Reuss Voigt Hill
#
# Bulk Modulus (GPa) = 7.97548 12.05707 10.01627
# Shear Modulus (GPa) = 26.05035 28.88394 27.46715
#
# Velocity S-wave (km/s) = 3.35197 3.52956 3.44191
# Velocity P-wave (km/s) = 4.29194 4.67019 4.48506
#
# Compressibility (1/GPa) = 0.12538433
#
# Stress axis : x y z
#
# Youngs Moduli (GPa) = 43.04896 21.89252 72.36187
#
# Poissons Ratio (x) = -0.34968 -0.08848
# Poissons Ratio (y) = -0.68760 -0.29911
# Poissons Ratio (z) = -0.05264 -0.09049
#
# Static dielectric constant tensor:
#      x y z
#    x 1.993690 0.000000 0.000000 
#    y 0.000000 1.884980 0.000000 
#    z 0.000000 0.000000 1.874250 
# 
# From -- ./inp_files/3030.got.cif
#   From: 2010.05.17/outbox.cif.g08.bks.cpg/sg19_2_cif.got.tgz:3030.got - 2010.06.03 22:46:19.
