data_PCOD9313724
_publ_section_title
;
Structure prediction by ZEFSAII (Michael W. Deem and Ramdas Pophale) SiO2 
 PCOD9313724
Probable space group: P 21 21 21
;
_chemical_formula_sum "Si O2"
_cell_formula_units_Z 20
_cell_length_a 8.504430
_cell_length_b 12.707350
_cell_length_c 7.310737
_cell_angle_alpha 90.000000
_cell_angle_beta 90.000000
_cell_angle_gamma 90.000000
_cell_volume 790.062345
_symmetry_space_group_name_H-M "P 21 21 21"
_symmetry_group_IT_number 19
_symmetry_cell_setting 'orthorhombic'
loop_
_space_group_symop_operation_xyz
x,y,z
1/2-x,-y,1/2+z
1/2+x,1/2-y,-z
-x,1/2+y,1/2-z
loop_
_atom_site_type_symbol
_atom_site_label
_atom_site_fract_x
_atom_site_fract_y
_atom_site_fract_z
Si Si1 0.575285 0.987463 0.501691
Si Si2 0.904863 0.310881 0.595982
Si Si3 0.426783 0.135576 0.004540
Si Si4 0.610115 0.311640 0.828398
Si Si5 0.577154 0.927572 0.079709
O O1 0.521326 0.899715 0.644627
O O2 0.563465 0.935218 0.300601
O O3 0.459795 0.087627 0.513335
O O4 0.751241 0.027414 0.530701
O O5 0.988074 0.326703 0.794403
O O6 0.932890 0.194149 0.524491
O O7 0.722473 0.315269 0.653239
O O8 0.243206 0.165526 0.012982
O O9 0.453678 0.011489 0.000362
O O10 0.529506 0.200077 0.862305
#
# Coordination Sequence:
#
# PCOD9313724 Si02
#       5
#     4   4   4   4   4
#     4  11  23  43  68  95 133 173 218 273 321 396
#     4   9  22  39  61  97 130 166 214 268 321 381
#     4   9  19  34  68  89 126 171 208 267 312 396
#     4  10  19  42  64  94 132 170 219 253 333 394
#     4  11  21  44  65  97 133 168 223 265 335 381
#
# _framework density 25.314456
#
# number of rings (size 3 to 8) (size 9 to 14) (size 15 to 20)
#    1.200    0.800    2.000    2.400    0.000    1.600 
#   10.800    0.000    0.000    0.000    0.000    0.000 
#    0.000    0.000    0.000    0.000    0.000    0.000 
#
# Total GULP energy -111949.606731 kJ/mol
# GULP energy per Si atom -5597.480337 kJ/mol
# Density = 2.525684 g / cm^3
# Si number density = 25.314456 Si / 1000 Ang^3
#
#
#
# Elastic Constant Matrix: (Units=GPa)
#
#
# Indices 1 2 3 4 5 6 
#
# 1 83.8512 11.2121 2.4714 0.0000 0.0000 0.0000
# 2 11.2121 161.8342 29.8759 0.0000 0.0000 0.0000
# 3 2.4714 29.8759 63.5604 0.0000 0.0000 0.0000
# 4 0.0000 0.0000 0.0000 41.0515 0.0000 0.0000
# 5 0.0000 0.0000 0.0000 0.0000 39.5915 0.0000
# 6 0.0000 0.0000 0.0000 0.0000 0.0000 44.2314
#
#
#
# Elastic Compliance Matrix: (Units=1/GPa)
#
#
# Indices 1 2 3 4 5 6 
#
# 1 0.012038 -0.000819 -0.000083 0.000000 0.000000 0.000000
# 2 -0.000819 0.006822 -0.003175 0.000000 0.000000 0.000000
# 3 -0.000083 -0.003175 0.017229 0.000000 0.000000 0.000000
# 4 0.000000 0.000000 0.000000 0.024360 0.000000 0.000000
# 5 0.000000 0.000000 0.000000 0.000000 0.025258 0.000000
# 6 0.000000 0.000000 0.000000 0.000000 0.000000 0.022608
#
#
# Mechanical properties :
#
#
# Convention : Reuss Voigt Hill
#
# Bulk Modulus (GPa) = 35.79736 44.04050 39.91893
# Shear Modulus (GPa) = 39.75219 42.68733 41.21976
#
# Velocity S-wave (km/s) = 3.96705 4.11089 4.03961
# Velocity P-wave (km/s) = 5.92917 6.32200 6.12873
#
# Compressibility (1/GPa) = 0.02793502
#
# Stress axis : x y z
#
# Youngs Moduli (GPa) = 83.07163 146.58528 58.04314
#
# Poissons Ratio (x) = 0.12000 0.00483
# Poissons Ratio (y) = 0.06800 0.18427
# Poissons Ratio (z) = 0.00692 0.46537
#
# Static dielectric constant tensor:
#      x y z
#    x 1.931800 0.000000 0.000000 
#    y 0.000000 1.938080 0.000000 
#    z 0.000000 0.000000 2.116910 
# 
# From -- ./inp_files/2659.got.cif
#   From: 2010.05.17/outbox.cif.g08.bks.cpg/sg19_2_cif.got.tgz:2659.got - 2010.06.03 22:46:19.
