data_PCOD9313059
_publ_section_title
;
Structure prediction by ZEFSAII (Michael W. Deem and Ramdas Pophale) SiO2 
 PCOD9313059
Probable space group: P 21 21 2
;
_chemical_formula_sum "Si O2"
_cell_formula_units_Z 24
_cell_length_a 11.373780
_cell_length_b 7.805120
_cell_length_c 10.914150
_cell_angle_alpha 90.000000
_cell_angle_beta 90.000000
_cell_angle_gamma 90.000000
_cell_volume 968.889672
_symmetry_space_group_name_H-M "P 21 21 2"
_symmetry_group_IT_number 18
_symmetry_cell_setting 'orthorhombic'
loop_
_space_group_symop_operation_xyz
x,y,z
-x,-y,z
1/2+x,1/2-y,-z
1/2-x,1/2+y,-z
loop_
_atom_site_type_symbol
_atom_site_label
_atom_site_fract_x
_atom_site_fract_y
_atom_site_fract_z
Si Si1 0.339034 0.957433 0.809466
Si Si2 0.895062 0.215128 0.793439
Si Si3 0.580998 0.141160 0.071956
Si Si4 0.751447 0.565052 0.736317
Si Si5 0.477787 0.271834 0.693247
Si Si6 0.446121 0.810109 0.427352
O O1 0.200615 0.933840 0.798116
O O2 0.411355 0.786994 0.771786
O O3 0.390258 0.108255 0.724802
O O4 0.377134 0.958947 0.951758
O O5 0.808473 0.379353 0.764269
O O6 0.980194 0.215002 0.914942
O O7 0.985176 0.212620 0.680455
O O8 0.698150 0.174463 0.148397
O O9 0.500000 0.000000 0.143061
O O10 0.612239 0.576299 0.724190
O O11 0.813310 0.650364 0.616875
O O12 0.525968 0.277486 0.555520
O O13 0.500000 0.000000 0.438858
#
# Coordination Sequence:
#
# PCOD9313059 Si02
#       6
#     4   4   4   4   4   4
#     4  11  22  35  59  84 114 144 189 227 281 324
#     4   9  21  37  62  80 109 151 188 224 278 327
#     4   9  18  39  58  80 111 151 184 222 279 344
#     4   9  21  37  62  80 109 151 188 224 278 327
#     4  11  22  35  59  84 114 144 189 227 281 324
#     4   9  18  39  58  80 111 151 184 222 279 344
#
# _framework density 24.770621999999999
#
# number of rings (size 3 to 8) (size 9 to 14) (size 15 to 20)
#    0.000    2.333    3.333    2.000    4.667    0.667 
#    0.000    3.333    7.333    0.000    0.000    0.000 
#    0.000    0.000    0.000    0.000    0.000    0.000 
#
# Total GULP energy -133674.184804 kJ/mol
# GULP energy per Si atom -5569.757700 kJ/mol
# Density = 2.471424 g / cm^3
# Si number density = 24.770622 Si / 1000 Ang^3
#
#
#
# Elastic Constant Matrix: (Units=GPa)
#
#
# Indices 1 2 3 4 5 6 
#
# 1 127.8850 -11.0623 4.4687 0.0000 0.0000 0.0000
# 2 -11.0623 64.2571 -5.1075 0.0000 0.0000 0.0000
# 3 4.4687 -5.1075 80.5436 0.0000 0.0000 0.0000
# 4 0.0000 0.0000 0.0000 2.9125 0.0000 0.0000
# 5 0.0000 0.0000 0.0000 0.0000 19.0486 0.0000
# 6 0.0000 0.0000 0.0000 0.0000 0.0000 42.8640
#
#
#
# Elastic Compliance Matrix: (Units=1/GPa)
#
#
# Indices 1 2 3 4 5 6 
#
# 1 0.007948 0.001340 -0.000356 0.000000 0.000000 0.000000
# 2 0.001340 0.015867 0.000932 0.000000 0.000000 0.000000
# 3 -0.000356 0.000932 0.012494 0.000000 0.000000 0.000000
# 4 0.000000 0.000000 0.000000 0.343346 0.000000 0.000000
# 5 0.000000 0.000000 0.000000 0.000000 0.052497 0.000000
# 6 0.000000 0.000000 0.000000 0.000000 0.000000 0.023330
#
#
# Mechanical properties :
#
#
# Convention : Reuss Voigt Hill
#
# Bulk Modulus (GPa) = 24.91200 27.69815 26.30508
# Shear Modulus (GPa) = 10.75196 31.92413 21.33804
#
# Velocity S-wave (km/s) = 2.08567 3.59387 2.93819
# Velocity P-wave (km/s) = 3.98484 5.33173 4.70671
#
# Compressibility (1/GPa) = 0.04014129
#
# Stress axis : x y z
#
# Youngs Moduli (GPa) = 125.81975 63.02290 80.03532
#
# Poissons Ratio (x) = -0.08445 0.02849
# Poissons Ratio (y) = -0.16860 -0.07458
# Poissons Ratio (z) = 0.04479 -0.05873
#
# Static dielectric constant tensor:
#      x y z
#    x 2.019850 0.000000 0.000000 
#    y 0.000000 2.401020 0.000000 
#    z 0.000000 0.000000 2.054170 
# 
# From -- ./inp_files/3731.got.cif
#   From: 2010.05.17/outbox.cif.g08.bks.cpg/sg18_2_cif.got.tgz:3731.got - 2010.06.03 22:40:56.
