data_PCOD9313029
_publ_section_title
;
Structure prediction by ZEFSAII (Michael W. Deem and Ramdas Pophale) SiO2 
 PCOD9313029
Probable space group: P 21 21 2
;
_chemical_formula_sum "Si O2"
_cell_formula_units_Z 20
_cell_length_a 13.603783
_cell_length_b 11.493581
_cell_length_c 4.952223
_cell_angle_alpha 90.000000
_cell_angle_beta 90.000000
_cell_angle_gamma 90.000000
_cell_volume 774.310680
_symmetry_space_group_name_H-M "P 21 21 2"
_symmetry_group_IT_number 18
_symmetry_cell_setting 'orthorhombic'
loop_
_space_group_symop_operation_xyz
x,y,z
-x,-y,z
1/2+x,1/2-y,-z
1/2-x,1/2+y,-z
loop_
_atom_site_type_symbol
_atom_site_label
_atom_site_fract_x
_atom_site_fract_y
_atom_site_fract_z
Si Si1 0.603217 0.953563 0.669715
Si Si2 0.268101 0.835707 0.478281
Si Si3 0.611245 0.797340 0.158094
Si Si4 0.915866 0.063028 0.328799
Si Si5 0.060813 0.164127 0.673326
O O1 0.673991 0.061536 0.623292
O O2 0.500000 0.000000 0.779366
O O3 0.585645 0.896422 0.377375
O O4 0.643551 0.861052 0.884263
O O5 0.200793 0.771047 0.699857
O O6 0.192332 0.896094 0.264728
O O7 0.346693 0.747161 0.353980
O O8 0.514039 0.717588 0.104362
O O9 0.976705 0.170938 0.442812
O O10 0.903670 0.967292 0.580562
O O11 0.000000 0.000000 0.148164
#
# Coordination Sequence:
#
# PCOD9313029 Si02
#       5
#     4   4   4   4   4
#     4  12  26  45  70 106 137 178 237 288 340 423
#     4  11  20  41  71  99 136 185 229 286 352 413
#     4  11  25  46  68 102 142 179 230 290 349 410
#     4   7  17  35  60  99 136 172 233 281 340 422
#     4   8  17  38  64  93 133 180 217 285 345 403
#
# _framework density 25.829426000000002
#
# number of rings (size 3 to 8) (size 9 to 14) (size 15 to 20)
#    1.200    0.800    2.000    1.800    0.000    1.600 
#    3.600    0.000    0.000   12.000    0.000    0.000 
#    0.000    0.000    0.000    0.000    0.000    0.000 
#
# Total GULP energy -111402.364453 kJ/mol
# GULP energy per Si atom -5570.118223 kJ/mol
# Density = 2.577064 g / cm^3
# Si number density = 25.829426 Si / 1000 Ang^3
#
#
#
# Elastic Constant Matrix: (Units=GPa)
#
#
# Indices 1 2 3 4 5 6 
#
# 1 159.1146 25.7098 -7.1002 0.0000 0.0000 0.0000
# 2 25.7098 73.0768 8.9408 0.0000 0.0000 0.0000
# 3 -7.1002 8.9408 80.5134 0.0000 0.0000 0.0000
# 4 0.0000 0.0000 0.0000 23.5180 0.0000 0.0000
# 5 0.0000 0.0000 0.0000 0.0000 -13.5538 0.0000
# 6 0.0000 0.0000 0.0000 0.0000 0.0000 77.2161
#
#
#
# Elastic Compliance Matrix: (Units=1/GPa)
#
#
# Indices 1 2 3 4 5 6 
#
# 1 0.006723 -0.002471 0.000867 0.000000 0.000000 0.000000
# 2 -0.002471 0.014781 -0.001859 0.000000 0.000000 0.000000
# 3 0.000867 -0.001859 0.012703 0.000000 0.000000 0.000000
# 4 0.000000 0.000000 0.000000 0.042521 0.000000 0.000000
# 5 0.000000 0.000000 0.000000 0.000000 -0.073780 0.000000
# 6 0.000000 0.000000 0.000000 0.000000 0.000000 0.012951
#
#
# Mechanical properties :
#
#
# Convention : Reuss Voigt Hill
#
# Bulk Modulus (GPa) = 36.65624 40.86728 38.76176
# Shear Modulus (GPa) = 156.64770 36.44636 96.54703
#
# Velocity S-wave (km/s) = 7.79607 3.76046 6.12044
# Velocity P-wave (km/s) = 9.76016 5.89161 8.06138
#
# Compressibility (1/GPa) = 0.02728048
#
# Stress axis : x y z
#
# Youngs Moduli (GPa) = 148.74766 67.65363 78.72005
#
# Poissons Ratio (x) = 0.16719 -0.06827
# Poissons Ratio (y) = 0.36760 0.14637
# Poissons Ratio (z) = -0.12901 0.12579
#
# Static dielectric constant tensor:
#      x y z
#    x 2.042490 0.000000 0.000000 
#    y 0.000000 2.211980 0.000000 
#    z 0.000000 0.000000 2.138820 
# 
# From -- ./inp_files/1453.got.cif
#   From: 2010.05.17/outbox.cif.g08.bks.cpg/sg18_1_cif.got.tgz:1453.got - 2010.06.03 22:40:56.
