data_PCOD9313310
_publ_section_title
;
Structure prediction by ZEFSAII (Michael W. Deem and Ramdas Pophale) SiO2 
 PCOD9313310
Probable space group: P 21 21 21
;
_chemical_formula_sum "Si O2"
_cell_formula_units_Z 24
_cell_length_a 6.852412
_cell_length_b 23.066452
_cell_length_c 5.884942
_cell_angle_alpha 90.000000
_cell_angle_beta 90.000000
_cell_angle_gamma 90.000000
_cell_volume 930.178832
_symmetry_space_group_name_H-M "P 21 21 21"
_symmetry_group_IT_number 19
_symmetry_cell_setting 'orthorhombic'
loop_
_space_group_symop_operation_xyz
x,y,z
1/2-x,-y,1/2+z
1/2+x,1/2-y,-z
-x,1/2+y,1/2-z
loop_
_atom_site_type_symbol
_atom_site_label
_atom_site_fract_x
_atom_site_fract_y
_atom_site_fract_z
Si Si1 0.567892 0.061663 0.542202
Si Si2 0.866223 0.560669 0.497830
Si Si3 0.305404 0.864687 0.127434
Si Si4 0.554496 0.318346 0.770489
Si Si5 0.093510 0.412188 0.950511
Si Si6 0.415852 0.206038 0.012419
O O1 0.393566 0.109535 0.518316
O O2 0.672605 0.066330 0.294823
O O3 0.465436 0.999109 0.557910
O O4 0.663774 0.071866 0.792703
O O5 0.892212 0.577579 0.760310
O O6 0.952707 0.616777 0.369461
O O7 0.632359 0.563701 0.454619
O O8 0.222884 0.823333 0.322556
O O9 0.472741 0.830490 0.993804
O O10 0.456957 0.268743 0.915285
O O11 0.779978 0.295263 0.767922
O O12 0.083461 0.341697 0.950290
#
# Coordination Sequence:
#
# PCOD9313310 Si02
#       6
#     4   4   4   4   4   4
#     4  10  16  28  47  72 110 130 171 213 279 319
#     4   9  18  25  45  75  99 135 161 220 273 312
#     4   9  18  29  45  74 103 139 170 212 270 319
#     4  10  19  35  50  75 111 135 182 215 268 320
#     4   9  17  28  45  71 100 137 169 210 263 321
#     4   9  20  33  50  75 103 144 177 220 261 319
#
# _framework density 25.801490000000001
#
# number of rings (size 3 to 8) (size 9 to 14) (size 15 to 20)
#    0.000    3.333    3.333    2.000    2.333    2.667 
#    0.000    0.000    0.000    0.000    0.000    4.667 
#    0.000    0.000    0.000    0.000    0.000    0.000 
#
# Total GULP energy -133719.985158 kJ/mol
# GULP energy per Si atom -5571.666048 kJ/mol
# Density = 2.574276 g / cm^3
# Si number density = 25.801490 Si / 1000 Ang^3
#
#
#
# Elastic Constant Matrix: (Units=GPa)
#
#
# Indices 1 2 3 4 5 6 
#
# 1 56.5732 35.4943 8.4268 0.0000 0.0000 0.0000
# 2 35.4943 98.8509 14.6047 0.0000 0.0000 0.0000
# 3 8.4268 14.6047 127.1011 0.0000 0.0000 0.0000
# 4 0.0000 0.0000 0.0000 22.7487 0.0000 0.0000
# 5 0.0000 0.0000 0.0000 0.0000 5.1176 0.0000
# 6 0.0000 0.0000 0.0000 0.0000 0.0000 26.7705
#
#
#
# Elastic Compliance Matrix: (Units=1/GPa)
#
#
# Indices 1 2 3 4 5 6 
#
# 1 0.022859 -0.008122 -0.000582 0.000000 0.000000 0.000000
# 2 -0.008122 0.013177 -0.000976 0.000000 0.000000 0.000000
# 3 -0.000582 -0.000976 0.008018 0.000000 0.000000 0.000000
# 4 0.000000 0.000000 0.000000 0.043959 0.000000 0.000000
# 5 0.000000 0.000000 0.000000 0.000000 0.195402 0.000000
# 6 0.000000 0.000000 0.000000 0.000000 0.000000 0.037355
#
#
# Mechanical properties :
#
#
# Convention : Reuss Voigt Hill
#
# Bulk Modulus (GPa) = 40.49504 44.39741 42.44623
# Shear Modulus (GPa) = 14.35297 25.86067 20.10682
#
# Velocity S-wave (km/s) = 2.36113 3.16934 2.79460
# Velocity P-wave (km/s) = 4.81271 5.53512 5.18651
#
# Compressibility (1/GPa) = 0.02469438
#
# Stress axis : x y z
#
# Youngs Moduli (GPa) = 43.74722 75.89171 124.71223
#
# Poissons Ratio (x) = 0.61638 0.07262
# Poissons Ratio (y) = 0.35531 0.12167
# Poissons Ratio (z) = 0.02547 0.07404
#
# Static dielectric constant tensor:
#      x y z
#    x 2.173710 0.000000 0.000000 
#    y 0.000000 2.005280 0.000000 
#    z 0.000000 0.000000 2.224550 
# 
# From -- ./inp_files/1090.got.cif
#   From: 2010.05.17/outbox.cif.g08.bks.cpg/sg19_1_cif.got.tgz:1090.got - 2010.06.03 22:46:19.
