data_PCOD9313489
_publ_section_title
;
Structure prediction by ZEFSAII (Michael W. Deem and Ramdas Pophale) SiO2 
 PCOD9313489
Probable space group: P 21 21 21
;
_chemical_formula_sum "Si O2"
_cell_formula_units_Z 32
_cell_length_a 11.541598
_cell_length_b 19.450146
_cell_length_c 5.195537
_cell_angle_alpha 90.000000
_cell_angle_beta 90.000000
_cell_angle_gamma 90.000000
_cell_volume 1166.324104
_symmetry_space_group_name_H-M "P 21 21 21"
_symmetry_group_IT_number 19
_symmetry_cell_setting 'orthorhombic'
loop_
_space_group_symop_operation_xyz
x,y,z
1/2-x,-y,1/2+z
1/2+x,1/2-y,-z
-x,1/2+y,1/2-z
loop_
_atom_site_type_symbol
_atom_site_label
_atom_site_fract_x
_atom_site_fract_y
_atom_site_fract_z
Si Si1 0.932731 0.517500 0.743472
Si Si2 0.975719 0.787393 0.106999
Si Si3 0.278358 0.665627 0.297101
Si Si4 0.997436 0.651661 0.903694
Si Si5 0.317644 0.474589 0.743439
Si Si6 0.189639 0.201815 0.010371
Si Si7 0.660148 0.425133 0.740031
Si Si8 0.472181 0.588855 0.587707
O O1 0.976829 0.442915 0.825118
O O2 0.869017 0.527461 0.478417
O O3 0.030677 0.578967 0.764706
O O4 0.839841 0.535486 0.970322
O O5 0.902931 0.745416 0.321487
O O6 0.035433 0.853456 0.241603
O O7 0.048770 0.727797 0.954905
O O8 0.875399 0.816474 0.916361
O O9 0.228688 0.737200 0.404474
O O10 0.352792 0.626525 0.514298
O O11 0.187451 0.608064 0.213035
O O12 0.951765 0.622015 0.173510
O O13 0.882936 0.670916 0.729877
O O14 0.258551 0.499416 0.004552
O O15 0.435414 0.518646 0.730959
O O16 0.242826 0.137281 0.165579
#
# Coordination Sequence:
#
# PCOD9313489 Si02
#       8
#     4   4   4   4   4   4   4   4
#     4   9  17  25  38  53  74  96 125 163 200 238
#     4   9  14  25  39  53  71  96 132 167 194 230
#     4   9  17  25  38  53  75 100 138 173 201 223
#     4   7  14  25  40  52  72  88 123 161 199 231
#     4  10  19  30  37  51  76 106 137 176 200 223
#     4   8  13  25  40  57  65  93 122 167 195 237
#     4   8  15  26  38  53  71  89 118 158 200 240
#     4  10  19  25  38  54  78 106 141 169 203 230
#
# _framework density 27.436630000000001
#
# number of rings (size 3 to 8) (size 9 to 14) (size 15 to 20)
#    0.750    2.500    1.250    0.000    1.750    0.000 
#    0.000    0.000    0.000    0.000    0.000    0.000 
#    0.000    0.000    0.000    0.000    0.000    7.500 
#
# Total GULP energy -178223.370236 kJ/mol
# GULP energy per Si atom -5569.480320 kJ/mol
# Density = 2.737418 g / cm^3
# Si number density = 27.436630 Si / 1000 Ang^3
#
#
#
# Elastic Constant Matrix: (Units=GPa)
#
#
# Indices 1 2 3 4 5 6 
#
# 1 -52.0352 320.7344 111.9771 0.0000 0.0000 0.0000
# 2 320.7344 -652.9328 -234.8763 0.0000 0.0000 0.0000
# 3 111.9771 -234.8763 39.0788 0.0000 0.0000 0.0000
# 4 0.0000 0.0000 0.0000 -257.7418 0.0000 0.0000
# 5 0.0000 0.0000 0.0000 0.0000 -5.6149 0.0000
# 6 0.0000 0.0000 0.0000 0.0000 0.0000 26.7409
#
#
#
# Elastic Compliance Matrix: (Units=1/GPa)
#
#
# Indices 1 2 3 4 5 6 
#
# 1 0.009486 0.004566 0.000261 0.000000 0.000000 0.000000
# 2 0.004566 0.001713 -0.002786 0.000000 0.000000 0.000000
# 3 0.000261 -0.002786 0.008100 0.000000 0.000000 0.000000
# 4 0.000000 0.000000 0.000000 -0.003880 0.000000 0.000000
# 5 0.000000 0.000000 0.000000 0.000000 -0.178098 0.000000
# 6 0.000000 0.000000 0.000000 0.000000 0.000000 0.037396
#
#
# Mechanical properties :
#
#
# Convention : Reuss Voigt Hill
#
# Bulk Modulus (GPa) = 42.77022 -30.02430 6.37296
# Shear Modulus (GPa) = -41.12780 -104.90480 -73.01630
#
# Velocity S-wave (km/s) = -3.87591 -6.19018 -5.16435
# Velocity P-wave (km/s) = 2.09944 7.87769 5.76479
#
# Compressibility (1/GPa) = 0.02338076
#
# Stress axis : x y z
#
# Youngs Moduli (GPa) = 105.42285 583.69444 123.46018
#
# Poissons Ratio (x) = -2.66496 -0.03221
# Poissons Ratio (y) = -0.48133 0.34390
# Poissons Ratio (z) = -0.02751 1.62589
#
# Static dielectric constant tensor:
#      x y z
#    x 4.534630 0.000000 0.000000 
#    y 0.000000 2.296190 0.000000 
#    z 0.000000 0.000000 2.234890 
# 
# From -- ./inp_files/2085.got.cif
#   From: 2010.05.17/outbox.cif.g08.bks.cpg/sg19_2_cif.got.tgz:2085.got - 2010.06.03 22:46:19.
