data_PCOD9313055
_publ_section_title
;
Structure prediction by ZEFSAII (Michael W. Deem and Ramdas Pophale) SiO2 
 PCOD9313055
Probable space group: P 21 21 2
;
_chemical_formula_sum "Si O2"
_cell_formula_units_Z 32
_cell_length_a 15.064905
_cell_length_b 15.976704
_cell_length_c 6.777244
_cell_angle_alpha 90.000000
_cell_angle_beta 90.000000
_cell_angle_gamma 90.000000
_cell_volume 1631.198105
_symmetry_space_group_name_H-M "P 21 21 2"
_symmetry_group_IT_number 18
_symmetry_cell_setting 'orthorhombic'
loop_
_space_group_symop_operation_xyz
x,y,z
-x,-y,z
1/2+x,1/2-y,-z
1/2-x,1/2+y,-z
loop_
_atom_site_type_symbol
_atom_site_label
_atom_site_fract_x
_atom_site_fract_y
_atom_site_fract_z
Si Si1 0.182266 0.389232 0.801246
Si Si2 0.265550 0.029793 0.514197
Si Si3 0.880434 0.707409 0.450360
Si Si4 0.353015 0.318728 0.018985
Si Si5 0.189638 0.713095 0.628855
Si Si6 0.905391 0.544061 0.189253
Si Si7 0.590626 0.542300 0.335593
Si Si8 0.452311 0.311792 0.626839
O O1 0.221842 0.455350 0.644572
O O2 0.120863 0.327608 0.672938
O O3 0.262312 0.338823 0.903057
O O4 0.128962 0.436865 0.970569
O O5 0.287813 0.117439 0.413382
O O6 0.334543 0.011335 0.690140
O O7 0.166899 0.022444 0.602350
O O8 0.779834 0.734084 0.403322
O O9 0.908422 0.632071 0.306222
O O10 0.948713 0.782137 0.418916
O O11 0.429723 0.313299 0.857023
O O12 0.343435 0.236060 0.152103
O O13 0.371155 0.394419 0.171318
O O14 0.115294 0.746757 0.478079
O O15 0.000000 0.500000 0.189523
O O16 0.500000 0.500000 0.265788
O O17 0.567193 0.599484 0.524954
#
# Coordination Sequence:
#
# PCOD9313055 Si02
#       8
#     4   4   4   4   4   4   4   4
#     4  11  21  44  68  88 129 175 213 266 330 388
#     4  11  23  41  65  94 130 171 217 270 328 388
#     4  11  23  41  66  94 129 170 214 268 331 387
#     4  11  21  45  66  90 132 176 218 273 328 389
#     4  11  23  41  64  96 131 171 220 270 330 391
#     4  11  23  40  65  95 129 167 219 271 326 391
#     4  11  23  42  66  95 130 171 221 269 328 393
#     4  11  23  42  66  92 131 172 214 273 327 389
#
# _framework density 19.617481999999999
#
# number of rings (size 3 to 8) (size 9 to 14) (size 15 to 20)
#    0.000    1.000    5.000    3.000    0.000    7.500 
#    2.250    0.000    0.000    0.000    0.000    0.000 
#    0.000    0.000    0.000    0.000    0.000    0.000 
#
# Total GULP energy -178939.405655 kJ/mol
# GULP energy per Si atom -5591.856427 kJ/mol
# Density = 1.957283 g / cm^3
# Si number density = 19.617482 Si / 1000 Ang^3
#
#
#
# Elastic Constant Matrix: (Units=GPa)
#
#
# Indices 1 2 3 4 5 6 
#
# 1 76.1625 -6.1935 19.2937 0.0000 0.0000 0.0000
# 2 -6.1935 39.0472 4.7466 0.0000 0.0000 0.0000
# 3 19.2937 4.7466 109.5726 0.0000 0.0000 0.0000
# 4 0.0000 0.0000 0.0000 13.7490 0.0000 0.0000
# 5 0.0000 0.0000 0.0000 0.0000 26.4964 0.0000
# 6 0.0000 0.0000 0.0000 0.0000 0.0000 41.2237
#
#
#
# Elastic Compliance Matrix: (Units=1/GPa)
#
#
# Indices 1 2 3 4 5 6 
#
# 1 0.013987 0.002531 -0.002573 0.000000 0.000000 0.000000
# 2 0.002531 0.026204 -0.001581 0.000000 0.000000 0.000000
# 3 -0.002573 -0.001581 0.009648 0.000000 0.000000 0.000000
# 4 0.000000 0.000000 0.000000 0.072733 0.000000 0.000000
# 5 0.000000 0.000000 0.000000 0.000000 0.037741 0.000000
# 6 0.000000 0.000000 0.000000 0.000000 0.000000 0.024258
#
#
# Mechanical properties :
#
#
# Convention : Reuss Voigt Hill
#
# Bulk Modulus (GPa) = 21.46163 28.94175 25.20169
# Shear Modulus (GPa) = 24.58860 30.08950 27.33905
#
# Velocity S-wave (km/s) = 3.54418 3.92064 3.73715
# Velocity P-wave (km/s) = 5.26423 5.93972 5.61215
#
# Compressibility (1/GPa) = 0.04659477
#
# Stress axis : x y z
#
# Youngs Moduli (GPa) = 71.49310 38.16249 103.65024
#
# Poissons Ratio (x) = -0.09660 0.26665
# Poissons Ratio (y) = -0.18097 0.16385
# Poissons Ratio (z) = 0.18392 0.06033
#
# Static dielectric constant tensor:
#      x y z
#    x 1.672560 0.000000 0.000000 
#    y 0.000000 1.679940 0.000000 
#    z 0.000000 0.000000 1.670340 
# 
# From -- ./inp_files/1631.got.cif
#   From: 2010.05.17/outbox.cif.g08.bks.cpg/sg18_1_cif.got.tgz:1631.got - 2010.06.03 22:40:56.
