data_PCOD9313143
_publ_section_title
;
Structure prediction by ZEFSAII (Michael W. Deem and Ramdas Pophale) SiO2 
 PCOD9313143
Probable space group: P 21 21 2
;
_chemical_formula_sum "Si O2"
_cell_formula_units_Z 18
_cell_length_a 8.259176
_cell_length_b 5.413067
_cell_length_c 18.379366
_cell_angle_alpha 90.000000
_cell_angle_beta 90.000000
_cell_angle_gamma 90.000000
_cell_volume 821.695010
_symmetry_space_group_name_H-M "P 21 21 2"
_symmetry_group_IT_number 18
_symmetry_cell_setting 'orthorhombic'
loop_
_space_group_symop_operation_xyz
x,y,z
-x,-y,z
1/2+x,1/2-y,-z
1/2-x,1/2+y,-z
loop_
_atom_site_type_symbol
_atom_site_label
_atom_site_fract_x
_atom_site_fract_y
_atom_site_fract_z
Si Si1 0.601253 0.746371 0.461594
Si Si2 0.100321 0.241981 0.743850
Si Si3 0.822748 0.065036 0.379936
Si Si4 0.500000 0.500000 0.967393
Si Si5 0.841327 0.678822 0.905613
O O1 0.500000 0.500000 0.446784
O O2 0.665650 0.711863 0.543551
O O3 0.500000 0.000000 0.458701
O O4 0.738733 0.807057 0.403410
O O5 0.231867 0.289759 0.682246
O O6 0.163149 0.196664 0.826103
O O7 0.000000 0.500000 0.743390
O O8 0.000000 0.000000 0.724615
O O9 0.000000 0.000000 0.354323
O O10 0.653954 0.599102 0.920777
O O11 0.400129 0.672894 0.023480
O O12 0.000000 0.500000 0.898514
#
# Coordination Sequence:
#
# PCOD9313143 Si02
#       5
#     4   4   4   2   4
#     4  11  25  45  71 102 141 188 246 301 365 428
#     4  11  27  48  70 101 152 194 232 291 371 436
#     4  11  25  44  72 106 140 185 249 305 357 427
#     4  12  22  42  78 106 144 188 246 302 354 442
#     4  11  24  43  72 111 146 190 243 297 368 432
#
# _framework density 21.905936000000001
#
# number of rings (size 3 to 8) (size 9 to 14) (size 15 to 20)
#    0.000    0.889    3.333    3.333    1.556   11.556 
#    0.000    0.000    4.889    0.000    0.000    0.000 
#    0.000    0.000    0.000    0.000    0.000    0.000 
#
# Total GULP energy -100464.545837 kJ/mol
# GULP energy per Si atom -5581.363658 kJ/mol
# Density = 2.185608 g / cm^3
# Si number density = 21.905936 Si / 1000 Ang^3
#
#
#
# Elastic Constant Matrix: (Units=GPa)
#
#
# Indices 1 2 3 4 5 6 
#
# 1 204.9107 79.9041 82.5481 0.0000 0.0000 0.0000
# 2 79.9041 118.7492 39.5097 0.0000 0.0000 0.0000
# 3 82.5481 39.5097 149.2825 0.0000 0.0000 0.0000
# 4 0.0000 0.0000 0.0000 44.6454 0.0000 0.0000
# 5 0.0000 0.0000 0.0000 0.0000 33.0241 0.0000
# 6 0.0000 0.0000 0.0000 0.0000 0.0000 25.8429
#
#
#
# Elastic Compliance Matrix: (Units=1/GPa)
#
#
# Indices 1 2 3 4 5 6 
#
# 1 0.007804 -0.004184 -0.003208 0.000000 0.000000 0.000000
# 2 -0.004184 0.011477 -0.000724 0.000000 0.000000 0.000000
# 3 -0.003208 -0.000724 0.008664 0.000000 0.000000 0.000000
# 4 0.000000 0.000000 0.000000 0.022399 0.000000 0.000000
# 5 0.000000 0.000000 0.000000 0.000000 0.030281 0.000000
# 6 0.000000 0.000000 0.000000 0.000000 0.000000 0.038695
#
#
# Mechanical properties :
#
#
# Convention : Reuss Voigt Hill
#
# Bulk Modulus (GPa) = 85.37073 97.42958 91.40016
# Shear Modulus (GPa) = 35.85336 38.76783 37.31059
#
# Velocity S-wave (km/s) = 4.05000 4.21139 4.13148
# Velocity P-wave (km/s) = 7.80552 8.25958 8.03576
#
# Compressibility (1/GPa) = 0.01171362
#
# Stress axis : x y z
#
# Youngs Moduli (GPa) = 128.13965 87.12900 115.41621
#
# Poissons Ratio (x) = 0.36453 0.37026
# Poissons Ratio (y) = 0.53611 0.08357
# Poissons Ratio (z) = 0.41108 0.06309
#
# Static dielectric constant tensor:
#      x y z
#    x 1.869300 0.000000 0.000000 
#    y 0.000000 1.652320 0.000000 
#    z 0.000000 0.000000 1.791330 
# 
# From -- ./inp_files/7266.got.cif
#   From: 2010.05.17/outbox.cif.g08.bks.cpg/sg18_4_cif.got.tgz:7266.got - 2010.06.03 22:40:56.
