data_PCOD9313781
_publ_section_title
;
Structure prediction by ZEFSAII (Michael W. Deem and Ramdas Pophale) SiO2 
 PCOD9313781
Probable space group: P 21 21 21
;
_chemical_formula_sum "Si O2"
_cell_formula_units_Z 28
_cell_length_a 12.893876
_cell_length_b 7.350525
_cell_length_c 11.037751
_cell_angle_alpha 90.000000
_cell_angle_beta 90.000000
_cell_angle_gamma 90.000000
_cell_volume 1046.122254
_symmetry_space_group_name_H-M "P 21 21 21"
_symmetry_group_IT_number 19
_symmetry_cell_setting 'orthorhombic'
loop_
_space_group_symop_operation_xyz
x,y,z
1/2-x,-y,1/2+z
1/2+x,1/2-y,-z
-x,1/2+y,1/2-z
loop_
_atom_site_type_symbol
_atom_site_label
_atom_site_fract_x
_atom_site_fract_y
_atom_site_fract_z
Si Si1 0.988971 0.700015 0.311778
Si Si2 0.351968 0.284564 0.138986
Si Si3 0.654991 0.590319 0.839772
Si Si4 0.677259 0.987460 0.575338
Si Si5 0.166890 0.339300 0.741675
Si Si6 0.828517 0.275353 0.584958
Si Si7 0.037252 0.418045 0.959378
O O1 0.885382 0.593546 0.277145
O O2 0.954898 0.860274 0.401477
O O3 0.066038 0.771120 0.209145
O O4 0.060310 0.565076 0.394609
O O5 0.389863 0.499398 0.163953
O O6 0.331865 0.203721 0.271512
O O7 0.420002 0.129033 0.075151
O O8 0.279094 0.347899 0.026809
O O9 0.767489 0.669417 0.806102
O O10 0.651541 0.572219 0.985111
O O11 0.738984 0.953352 0.699031
O O12 0.717622 0.186801 0.545616
O O13 0.093066 0.296630 0.854489
O O14 0.915398 0.117525 0.559703
#
# Coordination Sequence:
#
# PCOD9313781 Si02
#       7
#     4   4   4   4   4   4   4
#     4  10  21  36  61  84 114 157 192 249 290 351
#     4   9  16  31  57  82 110 150 192 242 282 347
#     4  11  21  38  60  87 120 152 199 244 296 355
#     4   8  16  33  54  81 103 153 198 225 287 352
#     4   9  19  34  59  79 119 154 192 242 295 359
#     4  10  20  34  58  86 114 152 201 242 292 362
#     4   9  19  36  59  83 114 152 202 242 296 346
#
# _framework density 26.765514
#
# number of rings (size 3 to 8) (size 9 to 14) (size 15 to 20)
#    0.000    2.857    1.429    0.857    0.000    4.571 
#    0.000    1.429   31.429    0.000    0.000    0.000 
#    0.000    0.000    0.000    0.000    0.000    0.000 
#
# Total GULP energy -155917.559348 kJ/mol
# GULP energy per Si atom -5568.484262 kJ/mol
# Density = 2.670459 g / cm^3
# Si number density = 26.765514 Si / 1000 Ang^3
#
#
#
# Elastic Constant Matrix: (Units=GPa)
#
#
# Indices 1 2 3 4 5 6 
#
# 1 30.7635 25.5462 3.6528 0.0000 0.0000 0.0000
# 2 25.5462 78.5040 23.6270 0.0000 0.0000 0.0000
# 3 3.6528 23.6270 78.7709 0.0000 0.0000 0.0000
# 4 0.0000 0.0000 0.0000 23.5999 0.0000 0.0000
# 5 0.0000 0.0000 0.0000 0.0000 29.4871 0.0000
# 6 0.0000 0.0000 0.0000 0.0000 0.0000 37.2613
#
#
#
# Elastic Compliance Matrix: (Units=1/GPa)
#
#
# Indices 1 2 3 4 5 6 
#
# 1 0.044998 -0.015406 0.002534 0.000000 0.000000 0.000000
# 2 -0.015406 0.019277 -0.005068 0.000000 0.000000 0.000000
# 3 0.002534 -0.005068 0.014098 0.000000 0.000000 0.000000
# 4 0.000000 0.000000 0.000000 0.042373 0.000000 0.000000
# 5 0.000000 0.000000 0.000000 0.000000 0.033913 0.000000
# 6 0.000000 0.000000 0.000000 0.000000 0.000000 0.026838
#
#
# Mechanical properties :
#
#
# Convention : Reuss Voigt Hill
#
# Bulk Modulus (GPa) = 23.53260 32.63226 28.08243
# Shear Modulus (GPa) = 21.59465 27.08381 24.33923
#
# Velocity S-wave (km/s) = 2.84352 3.18448 3.01882
# Velocity P-wave (km/s) = 4.42629 5.07342 4.76086
#
# Compressibility (1/GPa) = 0.04249424
#
# Stress axis : x y z
#
# Youngs Moduli (GPa) = 22.22311 51.87646 70.93448
#
# Poissons Ratio (x) = 0.79919 -0.17976
# Poissons Ratio (y) = 0.34236 0.35946
# Poissons Ratio (z) = -0.05632 0.26289
#
# Static dielectric constant tensor:
#      x y z
#    x 2.144270 0.000000 0.000000 
#    y 0.000000 2.179810 0.000000 
#    z 0.000000 0.000000 2.178260 
# 
# From -- ./inp_files/5195.got.cif
#   From: 2010.05.17/outbox.cif.g08.bks.cpg/sg19_3_cif.got.tgz:5195.got - 2010.06.03 22:46:19.
