data_PCOD9313136
_publ_section_title
;
Structure prediction by ZEFSAII (Michael W. Deem and Ramdas Pophale) SiO2 
 PCOD9313136
Probable space group: P 21 21 2
;
_chemical_formula_sum "Si O2"
_cell_formula_units_Z 22
_cell_length_a 28.863529
_cell_length_b 4.861600
_cell_length_c 4.993384
_cell_angle_alpha 90.000000
_cell_angle_beta 90.000000
_cell_angle_gamma 90.000000
_cell_volume 700.686286
_symmetry_space_group_name_H-M "P 21 21 2"
_symmetry_group_IT_number 18
_symmetry_cell_setting 'orthorhombic'
loop_
_space_group_symop_operation_xyz
x,y,z
-x,-y,z
1/2+x,1/2-y,-z
1/2-x,1/2+y,-z
loop_
_atom_site_type_symbol
_atom_site_label
_atom_site_fract_x
_atom_site_fract_y
_atom_site_fract_z
Si Si1 0.500000 0.000000 0.671554
Si Si2 0.251170 0.973720 0.256853
Si Si3 0.320280 0.694197 0.014391
Si Si4 0.924012 0.150975 0.619874
Si Si5 0.580768 0.136603 0.027390
Si Si6 0.676669 0.742358 0.477584
O O1 0.530542 0.781920 0.508292
O O2 0.463819 0.823941 0.847201
O O3 0.262041 0.203473 0.517971
O O4 0.311269 0.972331 0.264913
O O5 0.191660 0.968270 0.252347
O O6 0.237373 0.253888 0.020961
O O7 0.368753 0.801690 0.908096
O O8 0.325970 0.473344 0.240130
O O9 0.920328 0.318283 0.896647
O O10 0.878457 0.260236 0.462662
O O11 0.923568 0.833365 0.709604
#
# Coordination Sequence:
#
# PCOD9313136 Si02
#       6
#     2   4   4   4   4   4
#     4  12  30  54  88 112 156 214 278 334 416 466
#     4  12  22  40  70 104 142 196 236 294 370 464
#     4  11  24  41  69 106 151 191 247 304 375 458
#     4  11  28  52  80 115 157 204 264 336 395 470
#     4  11  28  52  80 115 157 204 264 336 395 470
#     4  11  24  41  69 106 151 191 247 304 375 458
#
# _framework density 31.397787000000001
#
# number of rings (size 3 to 8) (size 9 to 14) (size 15 to 20)
#    0.000    0.727    5.455    0.545    0.000   14.545 
#    0.000    0.000    0.000    0.000    0.000    0.000 
#    0.000    0.000    0.000    0.000    0.000    0.000 
#
# Total GULP energy -123158.256211 kJ/mol
# GULP energy per Si atom -5598.102555 kJ/mol
# Density = 3.132632 g / cm^3
# Si number density = 31.397787 Si / 1000 Ang^3
#
#
#
# Elastic Constant Matrix: (Units=GPa)
#
#
# Indices 1 2 3 4 5 6 
#
# 1 265.8105 34.6239 72.7266 0.0000 0.0000 0.0000
# 2 34.6239 208.0198 51.2275 0.0000 0.0000 0.0000
# 3 72.7266 51.2275 213.4302 0.0000 0.0000 0.0000
# 4 0.0000 0.0000 0.0000 80.2989 0.0000 0.0000
# 5 0.0000 0.0000 0.0000 0.0000 59.0535 0.0000
# 6 0.0000 0.0000 0.0000 0.0000 0.0000 57.8702
#
#
#
# Elastic Compliance Matrix: (Units=1/GPa)
#
#
# Indices 1 2 3 4 5 6 
#
# 1 0.004175 -0.000366 -0.001335 0.000000 0.000000 0.000000
# 2 -0.000366 0.005141 -0.001109 0.000000 0.000000 0.000000
# 3 -0.001335 -0.001109 0.005406 0.000000 0.000000 0.000000
# 4 0.000000 0.000000 0.000000 0.012453 0.000000 0.000000
# 5 0.000000 0.000000 0.000000 0.000000 0.016934 0.000000
# 6 0.000000 0.000000 0.000000 0.000000 0.000000 0.017280
#
#
# Mechanical properties :
#
#
# Convention : Reuss Voigt Hill
#
# Bulk Modulus (GPa) = 109.86130 111.60184 110.73157
# Shear Modulus (GPa) = 71.38316 74.69003 73.03659
#
# Velocity S-wave (km/s) = 4.77331 4.88262 4.82827
# Velocity P-wave (km/s) = 8.08983 8.21025 8.15026
#
# Compressibility (1/GPa) = 0.00910239
#
# Stress axis : x y z
#
# Youngs Moduli (GPa) = 239.52290 194.50132 184.96519
#
# Poissons Ratio (x) = 0.07123 0.24688
# Poissons Ratio (y) = 0.08772 0.20517
# Poissons Ratio (z) = 0.31970 0.21575
#
# Static dielectric constant tensor:
#      x y z
#    x 2.443270 0.000000 0.000000 
#    y 0.000000 2.754940 0.000000 
#    z 0.000000 0.000000 2.676510 
# 
# From -- ./inp_files/2264.got.cif
#   From: 2010.05.17/outbox.cif.g08.bks.cpg/sg18_2_cif.got.tgz:2264.got - 2010.06.03 22:40:56.
