data_PCOD9313318
_publ_section_title
;
Structure prediction by ZEFSAII (Michael W. Deem and Ramdas Pophale) SiO2 
 PCOD9313318
Probable space group: P 21 21 21
;
_chemical_formula_sum "Si O2"
_cell_formula_units_Z 32
_cell_length_a 13.834096
_cell_length_b 9.664844
_cell_length_c 13.153321
_cell_angle_alpha 90.000000
_cell_angle_beta 90.000000
_cell_angle_gamma 90.000000
_cell_volume 1758.656626
_symmetry_space_group_name_H-M "P 21 21 21"
_symmetry_group_IT_number 19
_symmetry_cell_setting 'orthorhombic'
loop_
_space_group_symop_operation_xyz
x,y,z
1/2-x,-y,1/2+z
1/2+x,1/2-y,-z
-x,1/2+y,1/2-z
loop_
_atom_site_type_symbol
_atom_site_label
_atom_site_fract_x
_atom_site_fract_y
_atom_site_fract_z
Si Si1 0.894628 0.483983 0.117702
Si Si2 0.359136 0.310738 0.098545
Si Si3 0.505276 0.492723 0.833390
Si Si4 0.349687 0.713314 0.838134
Si Si5 0.343017 0.797696 0.605361
Si Si6 0.322277 0.481740 0.299154
Si Si7 0.035614 0.377094 0.947504
Si Si8 0.170578 0.687013 0.369398
O O1 0.848043 0.634959 0.114390
O O2 0.823933 0.351928 0.121963
O O3 0.953626 0.476548 0.222637
O O4 0.967713 0.459603 0.025498
O O5 0.272884 0.197275 0.107906
O O6 0.347081 0.421976 0.188149
O O7 0.463330 0.237846 0.099483
O O8 0.338317 0.368538 0.985528
O O9 0.439964 0.619062 0.872837
O O10 0.595981 0.439138 0.898993
O O11 0.431500 0.363191 0.824119
O O12 0.364881 0.732196 0.716291
O O13 0.248867 0.632358 0.849876
O O14 0.382951 0.700145 0.515661
O O15 0.414357 0.524341 0.365529
O O16 0.254319 0.617803 0.303876
#
# Coordination Sequence:
#
# PCOD9313318 Si02
#       8
#     4   4   4   4   4   4   4   4
#     4  10  18  33  57  92 124 143 193 255 301 353
#     4  10  21  38  57  91 118 155 210 252 289 376
#     4  10  16  31  55  92 117 146 193 253 304 337
#     4   9  19  33  56  94 126 141 197 263 294 344
#     4  10  17  33  60  86 112 157 195 249 302 345
#     4  10  22  38  62  85 117 170 199 245 297 363
#     4  11  20  38  63  85 118 167 197 237 312 378
#     4  10  19  34  62  87 114 159 204 240 305 366
#
# _framework density 18.195706999999999
#
# number of rings (size 3 to 8) (size 9 to 14) (size 15 to 20)
#    0.000    2.000    5.000    0.750    0.000    0.000 
#    0.000    8.750    0.000    7.500    0.000    0.000 
#    0.000    0.000    0.000    0.000    0.000    0.000 
#
# Total GULP energy -178190.445618 kJ/mol
# GULP energy per Si atom -5568.451426 kJ/mol
# Density = 1.815429 g / cm^3
# Si number density = 18.195707 Si / 1000 Ang^3
#
#
#
# Elastic Constant Matrix: (Units=GPa)
#
#
# Indices 1 2 3 4 5 6 
#
# 1 84.6288 41.4927 31.6689 0.0000 0.0000 0.0000
# 2 41.4927 105.3668 41.5419 0.0000 0.0000 0.0000
# 3 31.6689 41.5419 84.0335 0.0000 0.0000 0.0000
# 4 0.0000 0.0000 0.0000 22.4870 0.0000 0.0000
# 5 0.0000 0.0000 0.0000 0.0000 23.6493 0.0000
# 6 0.0000 0.0000 0.0000 0.0000 0.0000 32.9003
#
#
#
# Elastic Compliance Matrix: (Units=1/GPa)
#
#
# Indices 1 2 3 4 5 6 
#
# 1 0.015426 -0.004698 -0.003491 0.000000 0.000000 0.000000
# 2 -0.004698 0.013219 -0.004764 0.000000 0.000000 0.000000
# 3 -0.003491 -0.004764 0.015571 0.000000 0.000000 0.000000
# 4 0.000000 0.000000 0.000000 0.044470 0.000000 0.000000
# 5 0.000000 0.000000 0.000000 0.000000 0.042285 0.000000
# 6 0.000000 0.000000 0.000000 0.000000 0.000000 0.030395
#
#
# Mechanical properties :
#
#
# Convention : Reuss Voigt Hill
#
# Bulk Modulus (GPa) = 54.61758 55.93735 55.27746
# Shear Modulus (GPa) = 25.85636 26.42902 26.14269
#
# Velocity S-wave (km/s) = 3.77372 3.81528 3.79456
# Velocity P-wave (km/s) = 7.00499 7.08642 7.04582
#
# Compressibility (1/GPa) = 0.01830912
#
# Stress axis : x y z
#
# Youngs Moduli (GPa) = 64.82469 75.64746 64.22279
#
# Poissons Ratio (x) = 0.35542 0.22419
# Poissons Ratio (y) = 0.30457 0.30597
# Poissons Ratio (z) = 0.22629 0.36040
#
# Static dielectric constant tensor:
#      x y z
#    x 1.666110 0.000000 0.000000 
#    y 0.000000 1.655650 0.000000 
#    z 0.000000 0.000000 1.630490 
# 
# From -- ./inp_files/6263.got.cif
#   From: 2010.05.17/outbox.cif.g08.bks.cpg/sg19_4_cif.got.tgz:6263.got - 2010.06.03 22:46:19.
