data_PCOD9313721
_publ_section_title
;
Structure prediction by ZEFSAII (Michael W. Deem and Ramdas Pophale) SiO2 
 PCOD9313721
Probable space group: P 21 21 21
;
_chemical_formula_sum "Si O2"
_cell_formula_units_Z 32
_cell_length_a 9.914924
_cell_length_b 21.553956
_cell_length_c 6.116912
_cell_angle_alpha 90.000000
_cell_angle_beta 90.000000
_cell_angle_gamma 90.000000
_cell_volume 1307.219790
_symmetry_space_group_name_H-M "P 21 21 21"
_symmetry_group_IT_number 19
_symmetry_cell_setting 'orthorhombic'
loop_
_space_group_symop_operation_xyz
x,y,z
1/2-x,-y,1/2+z
1/2+x,1/2-y,-z
-x,1/2+y,1/2-z
loop_
_atom_site_type_symbol
_atom_site_label
_atom_site_fract_x
_atom_site_fract_y
_atom_site_fract_z
Si Si1 0.197922 0.635753 0.278171
Si Si2 0.965080 0.926838 0.704799
Si Si3 0.769533 0.428030 0.531814
Si Si4 0.623681 0.646661 0.663265
Si Si5 0.969317 0.246289 0.441129
Si Si6 0.679678 0.314661 0.835624
Si Si7 0.023988 0.549089 0.008567
Si Si8 0.555609 0.837224 0.326198
O O1 0.345342 0.615140 0.200006
O O2 0.137851 0.696657 0.160150
O O3 0.191315 0.650045 0.537323
O O4 0.100909 0.577532 0.216119
O O5 0.084532 0.946765 0.872660
O O6 0.025749 0.887424 0.503327
O O7 0.907477 0.989848 0.599899
O O8 0.785153 0.404527 0.283859
O O9 0.633462 0.468561 0.548512
O O10 0.729380 0.370404 0.685557
O O11 0.566119 0.685408 0.865715
O O12 0.705493 0.695720 0.514257
O O13 0.962283 0.226799 0.692787
O O14 0.115271 0.233461 0.332745
O O15 0.555835 0.335650 0.986019
O O16 0.028066 0.607000 0.840708
#
# Coordination Sequence:
#
# PCOD9313721 Si02
#       8
#     4   4   4   4   4   4   4   4
#     4  10  24  47  66 103 135 180 237 277 347 404
#     4  11  29  42  67 106 144 175 228 299 336 409
#     4  11  23  45  65 102 138 175 232 274 349 416
#     4  11  25  42  66 100 142 177 226 293 350 402
#     4  10  22  41  70  97 132 183 228 282 343 419
#     4  10  19  42  65  96 125 174 231 273 338 409
#     4  11  23  44  72  98 133 192 227 276 344 422
#     4  10  19  41  71  92 127 176 235 268 339 409
#
# _framework density 24.479431999999999
#
# number of rings (size 3 to 8) (size 9 to 14) (size 15 to 20)
#    0.000    1.500    5.000    0.000    5.250    7.000 
#    4.500    0.000    0.000    0.000    0.000    0.000 
#    0.000    0.000    0.000    0.000    0.000    0.000 
#
# Total GULP energy -178789.436349 kJ/mol
# GULP energy per Si atom -5587.169886 kJ/mol
# Density = 2.442372 g / cm^3
# Si number density = 24.479432 Si / 1000 Ang^3
#
#
#
# Elastic Constant Matrix: (Units=GPa)
#
#
# Indices 1 2 3 4 5 6 
#
# 1 67.1575 7.0025 33.6873 0.0000 0.0000 0.0000
# 2 7.0025 53.1592 7.3827 0.0000 0.0000 0.0000
# 3 33.6873 7.3827 95.3842 0.0000 0.0000 0.0000
# 4 0.0000 0.0000 0.0000 31.8097 0.0000 0.0000
# 5 0.0000 0.0000 0.0000 0.0000 35.9137 0.0000
# 6 0.0000 0.0000 0.0000 0.0000 0.0000 20.6552
#
#
#
# Elastic Compliance Matrix: (Units=1/GPa)
#
#
# Indices 1 2 3 4 5 6 
#
# 1 0.018217 -0.001523 -0.006316 0.000000 0.000000 0.000000
# 2 -0.001523 0.019143 -0.000944 0.000000 0.000000 0.000000
# 3 -0.006316 -0.000944 0.012788 0.000000 0.000000 0.000000
# 4 0.000000 0.000000 0.000000 0.031437 0.000000 0.000000
# 5 0.000000 0.000000 0.000000 0.000000 0.027845 0.000000
# 6 0.000000 0.000000 0.000000 0.000000 0.000000 0.048414
#
#
# Mechanical properties :
#
#
# Convention : Reuss Voigt Hill
#
# Bulk Modulus (GPa) = 30.69086 34.64953 32.67020
# Shear Modulus (GPa) = 26.84279 28.85094 27.84687
#
# Velocity S-wave (km/s) = 3.31500 3.43677 3.37644
# Velocity P-wave (km/s) = 5.21699 5.47118 5.34559
#
# Compressibility (1/GPa) = 0.03258299
#
# Stress axis : x y z
#
# Youngs Moduli (GPa) = 54.89264 52.23825 78.20042
#
# Poissons Ratio (x) = 0.07953 0.49392
# Poissons Ratio (y) = 0.08358 0.07382
# Poissons Ratio (z) = 0.34671 0.04931
#
# Static dielectric constant tensor:
#      x y z
#    x 2.051320 0.000000 0.000000 
#    y 0.000000 1.935850 0.000000 
#    z 0.000000 0.000000 1.959040 
# 
# From -- ./inp_files/1305.got.cif
#   From: 2010.05.17/outbox.cif.g08.bks.cpg/sg19_1_cif.got.tgz:1305.got - 2010.06.03 22:46:19.
