data_PCOD9313549
_publ_section_title
;
Structure prediction by ZEFSAII (Michael W. Deem and Ramdas Pophale) SiO2 
 PCOD9313549
Probable space group: P 21 21 21
;
_chemical_formula_sum "Si O2"
_cell_formula_units_Z 28
_cell_length_a 10.873897
_cell_length_b 8.318784
_cell_length_c 14.749761
_cell_angle_alpha 90.000000
_cell_angle_beta 90.000000
_cell_angle_gamma 90.000000
_cell_volume 1334.227986
_symmetry_space_group_name_H-M "P 21 21 21"
_symmetry_group_IT_number 19
_symmetry_cell_setting 'orthorhombic'
loop_
_space_group_symop_operation_xyz
x,y,z
1/2-x,-y,1/2+z
1/2+x,1/2-y,-z
-x,1/2+y,1/2-z
loop_
_atom_site_type_symbol
_atom_site_label
_atom_site_fract_x
_atom_site_fract_y
_atom_site_fract_z
Si Si1 0.003208 0.380938 0.533807
Si Si2 0.848941 0.145686 0.622253
Si Si3 0.920065 0.586000 0.272645
Si Si4 0.120870 0.121126 0.424272
Si Si5 0.717390 0.429901 0.949612
Si Si6 0.768023 0.954413 0.456196
Si Si7 0.663350 0.046439 0.759650
O O1 0.018194 0.249934 0.452944
O O2 0.130974 0.473718 0.540265
O O3 0.965789 0.263982 0.617867
O O4 0.896199 0.506479 0.510496
O O5 0.739065 0.267597 0.595546
O O6 0.796798 0.064252 0.712964
O O7 0.845609 0.015401 0.542037
O O8 0.902888 0.526696 0.169043
O O9 0.824381 0.523213 0.347456
O O10 0.894160 0.775391 0.266370
O O11 0.062192 0.552548 0.296781
O O12 0.161456 0.011755 0.508748
O O13 0.731677 0.238424 0.953507
O O14 0.822543 0.015917 0.361203
#
# Coordination Sequence:
#
# PCOD9313549 Si02
#       7
#     4   4   4   4   4   4   4
#     4  10  20  38  57  77 117 158 184 227 285 340
#     4   9  19  37  55  77 111 151 189 223 274 347
#     4  10  19  34  57  82 112 142 180 233 278 325
#     4   9  19  35  57  82 112 151 184 218 283 350
#     4  10  21  36  57  87 115 142 189 241 278 327
#     4  10  21  36  57  86 114 143 191 243 283 328
#     4  10  21  36  58  85 109 143 189 231 281 341
#
# _framework density 20.985918999999999
#
# number of rings (size 3 to 8) (size 9 to 14) (size 15 to 20)
#    0.000    2.286    0.000    3.429    0.000    6.857 
#    0.000    7.143    0.000    0.000    0.000    0.000 
#    0.000    0.000    0.000    0.000    0.000    0.000 
#
# Total GULP energy -156009.971939 kJ/mol
# GULP energy per Si atom -5571.784712 kJ/mol
# Density = 2.093815 g / cm^3
# Si number density = 20.985919 Si / 1000 Ang^3
#
#
#
# Elastic Constant Matrix: (Units=GPa)
#
#
# Indices 1 2 3 4 5 6 
#
# 1 71.5687 42.1879 20.1434 0.0000 0.0000 0.0000
# 2 42.1879 62.9041 36.3868 0.0000 0.0000 0.0000
# 3 20.1434 36.3868 87.7109 0.0000 0.0000 0.0000
# 4 0.0000 0.0000 0.0000 24.9348 0.0000 0.0000
# 5 0.0000 0.0000 0.0000 0.0000 29.3320 0.0000
# 6 0.0000 0.0000 0.0000 0.0000 0.0000 33.5865
#
#
#
# Elastic Compliance Matrix: (Units=1/GPa)
#
#
# Indices 1 2 3 4 5 6 
#
# 1 0.023255 -0.016456 0.001486 0.000000 0.000000 0.000000
# 2 -0.016456 0.032561 -0.009729 0.000000 0.000000 0.000000
# 3 0.001486 -0.009729 0.015096 0.000000 0.000000 0.000000
# 4 0.000000 0.000000 0.000000 0.040105 0.000000 0.000000
# 5 0.000000 0.000000 0.000000 0.000000 0.034092 0.000000
# 6 0.000000 0.000000 0.000000 0.000000 0.000000 0.029774
#
#
# Mechanical properties :
#
#
# Convention : Reuss Voigt Hill
#
# Bulk Modulus (GPa) = 46.48007 46.62443 46.55225
# Shear Modulus (GPa) = 21.60284 25.80170 23.70227
#
# Velocity S-wave (km/s) = 3.21190 3.51019 3.36436
# Velocity P-wave (km/s) = 5.99595 6.22044 6.10922
#
# Compressibility (1/GPa) = 0.02151460
#
# Stress axis : x y z
#
# Youngs Moduli (GPa) = 43.00227 30.71135 66.24362
#
# Poissons Ratio (x) = 0.50538 -0.09844
# Poissons Ratio (y) = 0.70764 0.64447
# Poissons Ratio (z) = -0.06391 0.29879
#
# Static dielectric constant tensor:
#      x y z
#    x 1.805640 0.000000 0.000000 
#    y 0.000000 1.745270 0.000000 
#    z 0.000000 0.000000 1.845210 
# 
# From -- ./inp_files/6067.got.cif
#   From: 2010.05.17/outbox.cif.g08.bks.cpg/sg19_4_cif.got.tgz:6067.got - 2010.06.03 22:46:19.
