data_PCOD9313797
_publ_section_title
;
Structure prediction by ZEFSAII (Michael W. Deem and Ramdas Pophale) SiO2 
 PCOD9313797
Probable space group: P 21 21 21
;
_chemical_formula_sum "Si O2"
_cell_formula_units_Z 32
_cell_length_a 9.501360
_cell_length_b 8.120810
_cell_length_c 19.231310
_cell_angle_alpha 90.000000
_cell_angle_beta 90.000000
_cell_angle_gamma 90.000000
_cell_volume 1483.863635
_symmetry_space_group_name_H-M "P 21 21 21"
_symmetry_group_IT_number 19
_symmetry_cell_setting 'orthorhombic'
loop_
_space_group_symop_operation_xyz
x,y,z
1/2-x,-y,1/2+z
1/2+x,1/2-y,-z
-x,1/2+y,1/2-z
loop_
_atom_site_type_symbol
_atom_site_label
_atom_site_fract_x
_atom_site_fract_y
_atom_site_fract_z
Si Si1 0.837979 0.019406 0.404421
Si Si2 0.884212 0.840099 0.807623
Si Si3 0.256523 0.336727 0.445703
Si Si4 0.622460 0.651744 0.587068
Si Si5 0.482636 0.980471 0.560787
Si Si6 0.038720 0.495473 0.835926
Si Si7 0.698975 0.658669 0.424137
Si Si8 0.605697 0.491970 0.091919
O O1 0.767169 0.837350 0.411253
O O2 0.002322 0.979294 0.394136
O O3 0.765535 0.124601 0.343696
O O4 0.804095 0.107692 0.477528
O O5 0.945797 0.655848 0.813959
O O6 0.991467 0.949803 0.853981
O O7 0.893797 0.910737 0.730650
O O8 0.344177 0.444253 0.390531
O O9 0.305373 0.152143 0.432116
O O10 0.089229 0.367102 0.438076
O O11 0.561944 0.832518 0.599193
O O12 0.652295 0.640104 0.504141
O O13 0.774538 0.627016 0.620936
O O14 0.323079 0.977056 0.587667
O O15 0.466040 0.930968 0.479162
O O16 0.931501 0.373874 0.874651
#
# Coordination Sequence:
#
# PCOD9313797 Si02
#       8
#     4   4   4   4   4   4   4   4
#     4  11  21  35  62  92 126 159 207 257 312 374
#     4  11  24  42  61  90 122 171 206 257 314 380
#     4  11  22  36  60  93 126 158 207 262 316 364
#     4  10  20  35  57  91 121 158 197 258 308 360
#     4  10  21  35  57  92 123 155 203 255 312 363
#     4  11  25  42  63  89 128 169 212 253 315 377
#     4  10  20  36  59  91 125 159 206 253 307 372
#     4  10  23  35  59  90 125 157 204 259 308 368
#
# _framework density 21.565324
#
# number of rings (size 3 to 8) (size 9 to 14) (size 15 to 20)
#    0.000    1.500    3.750    0.750    5.250    2.000 
#    0.000    1.250    0.000    0.000    0.000    0.000 
#    0.000    0.000    0.000    0.000    0.000    0.000 
#
# Total GULP energy -178952.014372 kJ/mol
# GULP energy per Si atom -5592.250449 kJ/mol
# Density = 2.151624 g / cm^3
# Si number density = 21.565324 Si / 1000 Ang^3
#
#
#
# Elastic Constant Matrix: (Units=GPa)
#
#
# Indices 1 2 3 4 5 6 
#
# 1 87.6239 18.0609 -10.4612 0.0000 0.0000 0.0000
# 2 18.0609 45.8147 7.8167 0.0000 0.0000 0.0000
# 3 -10.4612 7.8167 29.5799 0.0000 0.0000 0.0000
# 4 0.0000 0.0000 0.0000 22.3076 0.0000 0.0000
# 5 0.0000 0.0000 0.0000 0.0000 27.3862 0.0000
# 6 0.0000 0.0000 0.0000 0.0000 0.0000 44.2509
#
#
#
# Elastic Compliance Matrix: (Units=1/GPa)
#
#
# Indices 1 2 3 4 5 6 
#
# 1 0.013512 -0.006432 0.006478 0.000000 0.000000 0.000000
# 2 -0.006432 0.025919 -0.009124 0.000000 0.000000 0.000000
# 3 0.006478 -0.009124 0.038509 0.000000 0.000000 0.000000
# 4 0.000000 0.000000 0.000000 0.044828 0.000000 0.000000
# 5 0.000000 0.000000 0.000000 0.000000 0.036515 0.000000
# 6 0.000000 0.000000 0.000000 0.000000 0.000000 0.022598
#
#
# Mechanical properties :
#
#
# Convention : Reuss Voigt Hill
#
# Bulk Modulus (GPa) = 16.72677 21.53903 19.13290
# Shear Modulus (GPa) = 22.73101 28.62909 25.68005
#
# Velocity S-wave (km/s) = 3.25014 3.64751 3.45454
# Velocity P-wave (km/s) = 4.67522 5.26769 4.98028
#
# Compressibility (1/GPa) = 0.05978442
#
# Stress axis : x y z
#
# Youngs Moduli (GPa) = 74.01102 38.58142 25.96806
#
# Poissons Ratio (x) = 0.24814 -0.16822
# Poissons Ratio (y) = 0.47602 0.23693
# Poissons Ratio (z) = -0.47945 0.35201
#
# Static dielectric constant tensor:
#      x y z
#    x 1.822460 0.000000 0.000000 
#    y 0.000000 1.842200 0.000000 
#    z 0.000000 0.000000 1.724980 
# 
# From -- ./inp_files/7051.got.cif
#   From: 2010.05.17/outbox.cif.g08.bks.cpg/sg19_4_cif.got.tgz:7051.got - 2010.06.03 22:46:19.
