data_PCOD9313364
_publ_section_title
;
Structure prediction by ZEFSAII (Michael W. Deem and Ramdas Pophale) SiO2 
 PCOD9313364
Probable space group: P 21 21 21
;
_chemical_formula_sum "Si O2"
_cell_formula_units_Z 32
_cell_length_a 5.101182
_cell_length_b 15.503125
_cell_length_c 17.877622
_cell_angle_alpha 90.000000
_cell_angle_beta 90.000000
_cell_angle_gamma 90.000000
_cell_volume 1413.838546
_symmetry_space_group_name_H-M "P 21 21 21"
_symmetry_group_IT_number 19
_symmetry_cell_setting 'orthorhombic'
loop_
_space_group_symop_operation_xyz
x,y,z
1/2-x,-y,1/2+z
1/2+x,1/2-y,-z
-x,1/2+y,1/2-z
loop_
_atom_site_type_symbol
_atom_site_label
_atom_site_fract_x
_atom_site_fract_y
_atom_site_fract_z
Si Si1 0.160396 0.426558 0.081344
Si Si2 0.993283 0.219206 0.832992
Si Si3 0.012510 0.283639 0.460048
Si Si4 0.107379 0.799368 0.522845
Si Si5 0.733433 0.813243 0.183797
Si Si6 0.943396 0.988714 0.053645
Si Si7 0.945518 0.525047 0.851834
Si Si8 0.875583 0.426160 0.219240
O O1 0.309613 0.350355 0.124978
O O2 0.011963 0.473990 0.149467
O O3 0.952712 0.382945 0.025495
O O4 0.362570 0.473006 0.026405
O O5 0.992489 0.296810 0.891662
O O6 0.247247 0.161279 0.815515
O O7 0.876158 0.241350 0.752550
O O8 0.226707 0.245717 0.516558
O O9 0.105942 0.260007 0.376445
O O10 0.041066 0.386441 0.459698
O O11 0.910301 0.727534 0.485664
O O12 0.501127 0.870324 0.146281
O O13 0.915921 0.887835 0.221474
O O14 0.713248 0.010684 0.113084
O O15 0.215781 0.008269 0.094373
O O16 0.838023 0.519381 0.766424
#
# Coordination Sequence:
#
# PCOD9313364 Si02
#       8
#     4   4   4   4   4   4   4   4
#     4  10  22  35  60  92 121 155 195 241 294 348
#     4   9  19  33  60  89 118 154 194 240 279 352
#     4  11  22  38  61  86 112 148 197 249 296 342
#     4  10  19  35  54  88 123 152 189 231 283 338
#     4   9  19  35  61  87 111 151 204 237 286 352
#     4  11  23  38  60  89 118 153 194 250 297 347
#     4  10  19  36  59  84 113 152 200 238 281 345
#     4  10  17  36  61  91 108 157 203 236 276 356
#
# _framework density 22.633417000000001
#
# number of rings (size 3 to 8) (size 9 to 14) (size 15 to 20)
#    0.000    2.000    3.750    1.500    3.500    0.000 
#    0.000    0.000    5.500    0.000    0.000    0.000 
#    0.000    0.000    0.000    0.000    0.000    0.000 
#
# Total GULP energy -178445.578639 kJ/mol
# GULP energy per Si atom -5576.424332 kJ/mol
# Density = 2.258190 g / cm^3
# Si number density = 22.633417 Si / 1000 Ang^3
#
#
#
# Elastic Constant Matrix: (Units=GPa)
#
#
# Indices 1 2 3 4 5 6 
#
# 1 108.2743 8.7253 32.2250 0.0000 0.0000 0.0000
# 2 8.7253 21.9009 12.0594 0.0000 0.0000 0.0000
# 3 32.2250 12.0594 131.5512 0.0000 0.0000 0.0000
# 4 0.0000 0.0000 0.0000 31.3183 0.0000 0.0000
# 5 0.0000 0.0000 0.0000 0.0000 43.8053 0.0000
# 6 0.0000 0.0000 0.0000 0.0000 0.0000 20.3584
#
#
#
# Elastic Compliance Matrix: (Units=1/GPa)
#
#
# Indices 1 2 3 4 5 6 
#
# 1 0.010124 -0.002810 -0.002222 0.000000 0.000000 0.000000
# 2 -0.002810 0.048867 -0.003791 0.000000 0.000000 0.000000
# 3 -0.002222 -0.003791 0.008494 0.000000 0.000000 0.000000
# 4 0.000000 0.000000 0.000000 0.031930 0.000000 0.000000
# 5 0.000000 0.000000 0.000000 0.000000 0.022828 0.000000
# 6 0.000000 0.000000 0.000000 0.000000 0.000000 0.049120
#
#
# Mechanical properties :
#
#
# Convention : Reuss Voigt Hill
#
# Bulk Modulus (GPa) = 20.06510 40.86064 30.46287
# Shear Modulus (GPa) = 24.31646 33.01084 28.66365
#
# Velocity S-wave (km/s) = 3.28130 3.82317 3.56256
# Velocity P-wave (km/s) = 4.82083 6.13036 5.51460
#
# Compressibility (1/GPa) = 0.04983777
#
# Stress axis : x y z
#
# Youngs Moduli (GPa) = 98.77881 20.46358 117.73624
#
# Poissons Ratio (x) = 0.05749 0.26165
# Poissons Ratio (y) = 0.27752 0.44640
# Poissons Ratio (z) = 0.21952 0.07759
#
# Static dielectric constant tensor:
#      x y z
#    x 1.919410 0.000000 0.000000 
#    y 0.000000 1.839880 0.000000 
#    z 0.000000 0.000000 1.925880 
# 
# From -- ./inp_files/6507.got.cif
#   From: 2010.05.17/outbox.cif.g08.bks.cpg/sg19_4_cif.got.tgz:6507.got - 2010.06.03 22:46:19.
