data_PCOD9313350
_publ_section_title
;
Structure prediction by ZEFSAII (Michael W. Deem and Ramdas Pophale) SiO2 
 PCOD9313350
Probable space group: P 21 21 21
;
_chemical_formula_sum "Si O2"
_cell_formula_units_Z 28
_cell_length_a 11.841631
_cell_length_b 7.485234
_cell_length_c 11.592563
_cell_angle_alpha 90.000000
_cell_angle_beta 90.000000
_cell_angle_gamma 90.000000
_cell_volume 1027.534400
_symmetry_space_group_name_H-M "P 21 21 21"
_symmetry_group_IT_number 19
_symmetry_cell_setting 'orthorhombic'
loop_
_space_group_symop_operation_xyz
x,y,z
1/2-x,-y,1/2+z
1/2+x,1/2-y,-z
-x,1/2+y,1/2-z
loop_
_atom_site_type_symbol
_atom_site_label
_atom_site_fract_x
_atom_site_fract_y
_atom_site_fract_z
Si Si1 0.631566 0.987644 0.501490
Si Si2 0.763747 0.267661 0.864915
Si Si3 0.074869 0.857813 0.361241
Si Si4 0.995503 0.955479 0.587292
Si Si5 0.243029 0.184263 0.393362
Si Si6 0.653180 0.633578 0.875416
Si Si7 0.896233 0.793870 0.799946
O O1 0.745175 0.898296 0.449682
O O2 0.587013 0.843341 0.590861
O O3 0.651617 0.178849 0.556463
O O4 0.571977 0.036064 0.380417
O O5 0.883388 0.354905 0.898775
O O6 0.772428 0.234151 0.729663
O O7 0.671788 0.420058 0.880249
O O8 0.986509 0.953405 0.448145
O O9 0.059882 0.838726 0.223457
O O10 0.185459 0.989549 0.375699
O O11 0.910082 0.845287 0.666893
O O12 0.023153 0.138433 0.653035
O O13 0.341500 0.183184 0.489567
O O14 0.767979 0.727698 0.825458
#
# Coordination Sequence:
#
# PCOD9313350 Si02
#       7
#     4   4   4   4   4   4   4
#     4  10  18  30  47  73  98 132 167 205 258 298
#     4   9  18  30  48  72 100 135 164 213 252 298
#     4  10  18  32  48  73 106 132 167 212 258 301
#     4  10  17  33  48  76 102 134 165 219 260 304
#     4  10  18  31  46  70 104 129 172 206 252 306
#     4   9  18  33  49  74 107 134 167 212 256 307
#     4  10  19  31  50  76 107 130 176 213 264 304
#
# _framework density 27.249694000000002
#
# number of rings (size 3 to 8) (size 9 to 14) (size 15 to 20)
#    0.000    2.286    5.714    1.714    4.000    0.000 
#    0.000    0.000    0.000    0.000    0.000   24.000 
#    0.000    0.000    0.000    0.000    0.000    0.000 
#
# Total GULP energy -156400.477627 kJ/mol
# GULP energy per Si atom -5585.731344 kJ/mol
# Density = 2.718767 g / cm^3
# Si number density = 27.249694 Si / 1000 Ang^3
#
#
#
# Elastic Constant Matrix: (Units=GPa)
#
#
# Indices 1 2 3 4 5 6 
#
# 1 79.7689 9.1754 41.0434 0.0000 0.0000 0.0000
# 2 9.1754 124.5579 26.9957 0.0000 0.0000 0.0000
# 3 41.0434 26.9957 133.3085 0.0000 0.0000 0.0000
# 4 0.0000 0.0000 0.0000 25.9753 0.0000 0.0000
# 5 0.0000 0.0000 0.0000 0.0000 43.5530 0.0000
# 6 0.0000 0.0000 0.0000 0.0000 0.0000 8.5462
#
#
#
# Elastic Compliance Matrix: (Units=1/GPa)
#
#
# Indices 1 2 3 4 5 6 
#
# 1 0.014897 -0.000108 -0.004565 0.000000 0.000000 0.000000
# 2 -0.000108 0.008398 -0.001667 0.000000 0.000000 0.000000
# 3 -0.004565 -0.001667 0.009244 0.000000 0.000000 0.000000
# 4 0.000000 0.000000 0.000000 0.038498 0.000000 0.000000
# 5 0.000000 0.000000 0.000000 0.000000 0.022961 0.000000
# 6 0.000000 0.000000 0.000000 0.000000 0.000000 0.117012
#
#
# Mechanical properties :
#
#
# Convention : Reuss Voigt Hill
#
# Bulk Modulus (GPa) = 50.35437 54.67381 52.51409
# Shear Modulus (GPa) = 21.70989 32.97628 27.34309
#
# Velocity S-wave (km/s) = 2.82565 3.48250 3.17113
# Velocity P-wave (km/s) = 5.40044 6.02312 5.72026
#
# Compressibility (1/GPa) = 0.01985925
#
# Stress axis : x y z
#
# Youngs Moduli (GPa) = 67.12607 119.08002 108.17308
#
# Poissons Ratio (x) = 0.01287 0.49378
# Poissons Ratio (y) = 0.00725 0.18036
# Poissons Ratio (z) = 0.30641 0.19854
#
# Static dielectric constant tensor:
#      x y z
#    x 2.171850 0.000000 0.000000 
#    y 0.000000 2.173670 0.000000 
#    z 0.000000 0.000000 2.211540 
# 
# From -- ./inp_files/3767.got.cif
#   From: 2010.05.17/outbox.cif.g08.bks.cpg/sg19_2_cif.got.tgz:3767.got - 2010.06.03 22:46:19.
