data_PCOD9313585
_publ_section_title
;
Structure prediction by ZEFSAII (Michael W. Deem and Ramdas Pophale) SiO2 
 PCOD9313585
Probable space group: P 21 21 21
;
_chemical_formula_sum "Si O2"
_cell_formula_units_Z 32
_cell_length_a 8.964772
_cell_length_b 22.707062
_cell_length_c 9.629124
_cell_angle_alpha 90.000000
_cell_angle_beta 90.000000
_cell_angle_gamma 90.000000
_cell_volume 1960.139470
_symmetry_space_group_name_H-M "P 21 21 21"
_symmetry_group_IT_number 19
_symmetry_cell_setting 'orthorhombic'
loop_
_space_group_symop_operation_xyz
x,y,z
1/2-x,-y,1/2+z
1/2+x,1/2-y,-z
-x,1/2+y,1/2-z
loop_
_atom_site_type_symbol
_atom_site_label
_atom_site_fract_x
_atom_site_fract_y
_atom_site_fract_z
Si Si1 0.385010 0.025270 0.591076
Si Si2 0.614991 0.525269 0.591076
Si Si3 0.789548 0.669122 0.250002
Si Si4 0.462769 0.432332 0.750001
Si Si5 0.459693 0.152590 0.479274
Si Si6 0.959693 0.347411 0.979277
Si Si7 0.288836 0.664257 0.250002
Si Si8 0.041457 0.765987 0.249999
O O1 0.331787 0.037790 0.750000
O O2 0.448248 0.084522 0.524890
O O3 0.250001 0.000001 0.499999
O O4 0.510784 0.975333 0.618250
O O5 0.489218 0.475332 0.618251
O O6 0.551752 0.584520 0.524888
O O7 0.898667 0.612920 0.250003
O O8 0.683154 0.666402 0.116574
O O9 0.683154 0.666403 0.383431
O O10 0.893276 0.726160 0.250001
O O11 0.314916 0.393868 0.750002
O O12 0.604504 0.163608 0.384326
O O13 0.457323 0.193423 0.614136
O O14 0.104504 0.336392 0.884329
O O15 0.957324 0.306580 0.114142
O O16 0.180484 0.720730 0.250002
#
# Coordination Sequence:
#
# PCOD9313585 Si02
#       8
#     4   4   4   4   4   4   4   4
#     4  10  19  35  61  84 107 145 188 225 269 333
#     4  10  19  35  61  84 107 145 188 225 269 333
#     4  10  20  34  58  75 108 149 180 224 277 329
#     4   9  19  36  54  82 110 141 179 223 275 324
#     4  11  20  37  57  82 108 145 189 226 275 331
#     4  11  20  37  57  82 108 145 189 226 275 331
#     4  10  24  36  55  82 115 148 176 229 292 317
#     4  11  21  38  55  79 111 144 189 232 270 328
#
# _framework density 16.325368999999998
#
# number of rings (size 3 to 8) (size 9 to 14) (size 15 to 20)
#    0.750    1.000    3.750    1.500    1.750    1.000 
#    0.000    0.000    2.750    0.000    0.000    0.000 
#    0.000    0.000    0.000    0.000    0.000    0.000 
#
# Total GULP energy -178353.223973 kJ/mol
# GULP energy per Si atom -5573.538249 kJ/mol
# Density = 1.628821 g / cm^3
# Si number density = 16.325369 Si / 1000 Ang^3
#
#
#
# Elastic Constant Matrix: (Units=GPa)
#
#
# Indices 1 2 3 4 5 6 
#
# 1 113.1294 71.1722 66.5348 0.0000 0.0000 0.0000
# 2 71.1722 146.7309 71.0343 0.0000 0.0000 0.0000
# 3 66.5348 71.0343 139.0118 0.0000 0.0000 0.0000
# 4 0.0000 0.0000 0.0000 -4.5695 0.0000 0.0000
# 5 0.0000 0.0000 0.0000 0.0000 12.0815 0.0000
# 6 0.0000 0.0000 0.0000 0.0000 0.0000 23.3840
#
#
#
# Elastic Compliance Matrix: (Units=1/GPa)
#
#
# Indices 1 2 3 4 5 6 
#
# 1 0.014541 -0.004895 -0.004459 0.000000 0.000000 0.000000
# 2 -0.004895 0.010703 -0.003126 0.000000 0.000000 0.000000
# 3 -0.004459 -0.003126 0.010925 0.000000 0.000000 0.000000
# 4 0.000000 0.000000 0.000000 -0.218844 0.000000 0.000000
# 5 0.000000 0.000000 0.000000 0.000000 0.082771 0.000000
# 6 0.000000 0.000000 0.000000 0.000000 0.000000 0.042764
#
#
# Mechanical properties :
#
#
# Convention : Reuss Voigt Hill
#
# Bulk Modulus (GPa) = 89.20761 90.70608 89.95685
# Shear Modulus (GPa) = -175.78628 18.85461 -78.46583
#
# Velocity S-wave (km/s) = -10.38800 3.40211 -6.94032
# Velocity P-wave (km/s) = 9.44026 8.43294 3.00033
#
# Compressibility (1/GPa) = 0.01120981
#
# Stress axis : x y z
#
# Youngs Moduli (GPa) = 68.77097 93.43243 91.53170
#
# Poissons Ratio (x) = 0.45733 0.40810
# Poissons Ratio (y) = 0.33661 0.28616
# Poissons Ratio (z) = 0.30662 0.29211
#
# Static dielectric constant tensor:
#      x y z
#    x 1.516790 0.000000 0.000000 
#    y 0.000000 1.544620 0.000000 
#    z 0.000000 0.000000 1.530700 
# 
# From -- ./inp_files/3248.got.cif
#   From: 2010.05.17/outbox.cif.g08.bks.cpg/sg19_2_cif.got.tgz:3248.got - 2010.06.03 22:46:19.
