data_PCOD9313376
_publ_section_title
;
Structure prediction by ZEFSAII (Michael W. Deem and Ramdas Pophale) SiO2 
 PCOD9313376
Probable space group: P 21 21 21
;
_chemical_formula_sum "Si O2"
_cell_formula_units_Z 32
_cell_length_a 11.262773
_cell_length_b 19.500652
_cell_length_c 5.358542
_cell_angle_alpha 90.000000
_cell_angle_beta 90.000000
_cell_angle_gamma 90.000000
_cell_volume 1176.904172
_symmetry_space_group_name_H-M "P 21 21 21"
_symmetry_group_IT_number 19
_symmetry_cell_setting 'orthorhombic'
loop_
_space_group_symop_operation_xyz
x,y,z
1/2-x,-y,1/2+z
1/2+x,1/2-y,-z
-x,1/2+y,1/2-z
loop_
_atom_site_type_symbol
_atom_site_label
_atom_site_fract_x
_atom_site_fract_y
_atom_site_fract_z
Si Si1 0.407897 0.962914 0.494774
Si Si2 0.902668 0.926544 0.023100
Si Si3 0.930249 0.175545 0.238395
Si Si4 0.673166 0.870610 0.217454
Si Si5 0.233755 0.804337 0.294255
Si Si6 0.832316 0.546435 0.998551
Si Si7 0.175570 0.228970 0.283753
Si Si8 0.466442 0.101543 0.019803
O O1 0.533490 0.999861 0.493343
O O2 0.364147 0.919748 0.260962
O O3 0.305526 0.024090 0.502000
O O4 0.379209 0.923103 0.746478
O O5 0.966660 0.892471 0.258641
O O6 0.769060 0.928960 0.131610
O O7 0.944873 0.891199 0.759216
O O8 0.909513 0.127159 0.475312
O O9 0.824261 0.229572 0.225362
O O10 0.036974 0.224314 0.339444
O O11 0.905736 0.136364 0.971517
O O12 0.755444 0.801471 0.210727
O O13 0.336654 0.791400 0.492374
O O14 0.142736 0.847618 0.469770
O O15 0.260336 0.817685 0.000382
O O16 0.908140 0.474740 0.974904
#
# Coordination Sequence:
#
# PCOD9313376 Si02
#       8
#     4   4   4   4   4   4   4   4
#     4   8  14  24  38  58  85 116 141 163 203 254
#     4  10  18  28  44  65  91 118 144 178 212 253
#     4  10  20  33  46  61  86 115 146 187 224 255
#     4  10  20  31  46  66  84 113 153 182 216 266
#     4  10  20  31  46  66  84 113 153 182 216 266
#     4   8  14  24  38  58  85 116 141 163 203 254
#     4  10  20  33  46  61  86 115 146 187 224 255
#     4  10  18  28  44  65  91 118 144 178 212 253
#
# _framework density 27.189976999999999
#
# number of rings (size 3 to 8) (size 9 to 14) (size 15 to 20)
#    0.000    2.500    0.000    3.000    0.000    4.000 
#    0.000    0.000    0.000    0.000    0.000    0.000 
#    0.000    4.000    0.000    0.250    0.000    0.500 
#
# Total GULP energy -178400.757094 kJ/mol
# GULP energy per Si atom -5575.023659 kJ/mol
# Density = 2.712809 g / cm^3
# Si number density = 27.189977 Si / 1000 Ang^3
#
#
#
# Elastic Constant Matrix: (Units=GPa)
#
#
# Indices 1 2 3 4 5 6 
#
# 1 66.1116 7.3933 27.9554 0.0000 0.0000 0.0000
# 2 7.3933 52.8956 28.5707 0.0000 0.0000 0.0000
# 3 27.9554 28.5707 221.4790 0.0000 0.0000 0.0000
# 4 0.0000 0.0000 0.0000 24.3640 0.0000 0.0000
# 5 0.0000 0.0000 0.0000 0.0000 42.7616 0.0000
# 6 0.0000 0.0000 0.0000 0.0000 0.0000 38.0231
#
#
#
# Elastic Compliance Matrix: (Units=1/GPa)
#
#
# Indices 1 2 3 4 5 6 
#
# 1 0.016054 -0.001235 -0.001867 0.000000 0.000000 0.000000
# 2 -0.001235 0.020416 -0.002478 0.000000 0.000000 0.000000
# 3 -0.001867 -0.002478 0.005070 0.000000 0.000000 0.000000
# 4 0.000000 0.000000 0.000000 0.041044 0.000000 0.000000
# 5 0.000000 0.000000 0.000000 0.000000 0.023385 0.000000
# 6 0.000000 0.000000 0.000000 0.000000 0.000000 0.026300
#
#
# Mechanical properties :
#
#
# Convention : Reuss Voigt Hill
#
# Bulk Modulus (GPa) = 32.91655 52.03610 42.47633
# Shear Modulus (GPa) = 32.56133 39.46752 36.01443
#
# Velocity S-wave (km/s) = 3.46432 3.81405 3.64338
# Velocity P-wave (km/s) = 5.30419 6.21092 5.77537
#
# Compressibility (1/GPa) = 0.03037986
#
# Stress axis : x y z
#
# Youngs Moduli (GPa) = 62.29155 48.98085 197.22414
#
# Poissons Ratio (x) = 0.06051 0.36820
# Poissons Ratio (y) = 0.07696 0.48867
# Poissons Ratio (z) = 0.11629 0.12136
#
# Static dielectric constant tensor:
#      x y z
#    x 2.218460 0.000000 0.000000 
#    y 0.000000 2.181870 0.000000 
#    z 0.000000 0.000000 2.264020 
# 
# From -- ./inp_files/1319.got.cif
#   From: 2010.05.17/outbox.cif.g08.bks.cpg/sg19_1_cif.got.tgz:1319.got - 2010.06.03 22:46:19.
