data_PCOD9313647
_publ_section_title
;
Structure prediction by ZEFSAII (Michael W. Deem and Ramdas Pophale) SiO2 
 PCOD9313647
Probable space group: P 21 21 21
;
_chemical_formula_sum "Si O2"
_cell_formula_units_Z 32
_cell_length_a 13.512801
_cell_length_b 11.420631
_cell_length_c 7.713608
_cell_angle_alpha 90.000000
_cell_angle_beta 90.000000
_cell_angle_gamma 90.000000
_cell_volume 1190.400348
_symmetry_space_group_name_H-M "P 21 21 21"
_symmetry_group_IT_number 19
_symmetry_cell_setting 'orthorhombic'
loop_
_space_group_symop_operation_xyz
x,y,z
1/2-x,-y,1/2+z
1/2+x,1/2-y,-z
-x,1/2+y,1/2-z
loop_
_atom_site_type_symbol
_atom_site_label
_atom_site_fract_x
_atom_site_fract_y
_atom_site_fract_z
Si Si1 0.752256 0.511927 0.397404
Si Si2 0.039989 0.910675 0.512779
Si Si3 0.938953 0.929964 0.130857
Si Si4 0.877886 0.692084 0.192954
Si Si5 0.126005 0.792392 0.036215
Si Si6 0.488274 0.373267 0.363806
Si Si7 0.848998 0.180234 0.096641
Si Si8 0.141811 0.203332 0.923163
O O1 0.636990 0.523919 0.412423
O O2 0.799226 0.591218 0.242318
O O3 0.785064 0.378994 0.417011
O O4 0.799026 0.582016 0.561153
O O5 0.092463 0.783128 0.504323
O O6 0.965444 0.986748 0.636205
O O7 0.993703 0.934950 0.320779
O O8 0.891871 0.050602 0.067396
O O9 0.857444 0.825700 0.135381
O O10 0.032601 0.881837 0.021994
O O11 0.956190 0.652221 0.049589
O O12 0.913635 0.711942 0.391650
O O13 0.128858 0.710363 0.204095
O O14 0.111725 0.704349 0.877142
O O15 0.561886 0.313529 0.225500
O O16 0.730072 0.200818 0.075999
#
# Coordination Sequence:
#
# PCOD9313647 Si02
#       8
#     4   4   4   4   4   4   4   4
#     4   9  20  40  62  92 133 165 219 285 327 394
#     4  10  20  35  67  96 126 177 227 274 339 402
#     4  10  20  36  66  94 133 171 224 274 339 411
#     4   9  21  41  62  94 125 172 218 277 333 406
#     4  10  20  34  64  92 127 169 216 270 333 398
#     4  11  20  39  64  95 127 177 220 275 341 396
#     4  10  19  37  61  95 126 171 215 281 331 399
#     4   9  22  40  62  90 135 166 221 280 331 394
#
# _framework density 26.881710999999999
#
# number of rings (size 3 to 8) (size 9 to 14) (size 15 to 20)
#    0.750    1.500    1.250    2.250    3.500    1.000 
#    6.750    0.000    0.000    0.000    0.000    0.000 
#    0.000    0.000    0.000    0.000    0.000    0.000 
#
# Total GULP energy -178253.104118 kJ/mol
# GULP energy per Si atom -5570.409504 kJ/mol
# Density = 2.682053 g / cm^3
# Si number density = 26.881711 Si / 1000 Ang^3
#
#
#
# Elastic Constant Matrix: (Units=GPa)
#
#
# Indices 1 2 3 4 5 6 
#
# 1 63.5420 22.9388 8.9954 0.0000 0.0000 0.0000
# 2 22.9388 137.9230 -0.1682 0.0000 0.0000 0.0000
# 3 8.9954 -0.1682 94.5686 0.0000 0.0000 0.0000
# 4 0.0000 0.0000 0.0000 21.1313 0.0000 0.0000
# 5 0.0000 0.0000 0.0000 0.0000 15.1134 0.0000
# 6 0.0000 0.0000 0.0000 0.0000 0.0000 23.0687
#
#
#
# Elastic Compliance Matrix: (Units=1/GPa)
#
#
# Indices 1 2 3 4 5 6 
#
# 1 0.016988 -0.002827 -0.001621 0.000000 0.000000 0.000000
# 2 -0.002827 0.007721 0.000283 0.000000 0.000000 0.000000
# 3 -0.001621 0.000283 0.010729 0.000000 0.000000 0.000000
# 4 0.000000 0.000000 0.000000 0.047323 0.000000 0.000000
# 5 0.000000 0.000000 0.000000 0.000000 0.066166 0.000000
# 6 0.000000 0.000000 0.000000 0.000000 0.000000 0.043349
#
#
# Mechanical properties :
#
#
# Convention : Reuss Voigt Hill
#
# Bulk Modulus (GPa) = 36.89132 39.95174 38.42153
# Shear Modulus (GPa) = 23.85012 29.48054 26.66533
#
# Velocity S-wave (km/s) = 2.98186 3.31520 3.15294
# Velocity P-wave (km/s) = 5.06051 5.43585 5.25153
#
# Compressibility (1/GPa) = 0.02710665
#
# Stress axis : x y z
#
# Youngs Moduli (GPa) = 58.86596 129.51696 93.20518
#
# Poissons Ratio (x) = 0.36619 0.15108
# Poissons Ratio (y) = 0.16643 -0.02635
# Poissons Ratio (z) = 0.09542 -0.03661
#
# Static dielectric constant tensor:
#      x y z
#    x 2.178750 0.000000 0.000000 
#    y 0.000000 2.428800 0.000000 
#    z 0.000000 0.000000 2.183740 
# 
# From -- ./inp_files/3989.got.cif
#   From: 2010.05.17/outbox.cif.g08.bks.cpg/sg19_2_cif.got.tgz:3989.got - 2010.06.03 22:46:19.
