data_PCOD9313488
_publ_section_title
;
Structure prediction by ZEFSAII (Michael W. Deem and Ramdas Pophale) SiO2 
 PCOD9313488
Probable space group: P 21 21 21
;
_chemical_formula_sum "Si O2"
_cell_formula_units_Z 24
_cell_length_a 7.994041
_cell_length_b 9.059051
_cell_length_c 15.040639
_cell_angle_alpha 90.000000
_cell_angle_beta 90.000000
_cell_angle_gamma 90.000000
_cell_volume 1089.219389
_symmetry_space_group_name_H-M "P 21 21 21"
_symmetry_group_IT_number 19
_symmetry_cell_setting 'orthorhombic'
loop_
_space_group_symop_operation_xyz
x,y,z
1/2-x,-y,1/2+z
1/2+x,1/2-y,-z
-x,1/2+y,1/2-z
loop_
_atom_site_type_symbol
_atom_site_label
_atom_site_fract_x
_atom_site_fract_y
_atom_site_fract_z
Si Si1 0.224568 0.554269 0.249664
Si Si2 0.600327 0.099733 0.587821
Si Si3 0.423775 0.125890 0.174367
Si Si4 0.600894 0.689802 0.125249
Si Si5 0.403002 0.420658 0.083811
Si Si6 0.245026 0.828962 0.136185
O O1 0.095442 0.476123 0.314526
O O2 0.394326 0.556157 0.308254
O O3 0.265513 0.471856 0.156967
O O4 0.195131 0.722604 0.218633
O O5 0.739877 0.226261 0.588314
O O6 0.415595 0.165835 0.573060
O O7 0.640205 0.976628 0.514122
O O8 0.385966 0.206182 0.267710
O O9 0.426831 0.247688 0.097665
O O10 0.294680 0.995192 0.159372
O O11 0.570046 0.515299 0.109076
O O12 0.419583 0.759615 0.100660
#
# Coordination Sequence:
#
# PCOD9313488 Si02
#       6
#     4   4   4   4   4   4
#     4  10  21  44  64  94 134 180 219 276 357 400
#     4  12  24  39  70 101 134 177 233 288 336 407
#     4  10  18  44  66  89 128 180 215 278 338 406
#     4  10  21  44  64  90 134 178 216 279 347 402
#     4  10  23  38  70  98 128 179 229 274 345 408
#     4  10  23  39  66  94 130 176 230 273 341 415
#
# _framework density 22.034127999999999
#
# number of rings (size 3 to 8) (size 9 to 14) (size 15 to 20)
#    0.000    2.000    3.333    3.000    7.000    1.333 
#    0.000    0.000    0.000    0.000    0.000    0.000 
#    0.000    0.000    0.000    0.000    0.000    0.000 
#
# Total GULP energy -133978.788086 kJ/mol
# GULP energy per Si atom -5582.449504 kJ/mol
# Density = 2.198398 g / cm^3
# Si number density = 22.034128 Si / 1000 Ang^3
#
#
#
# Elastic Constant Matrix: (Units=GPa)
#
#
# Indices 1 2 3 4 5 6 
#
# 1 101.4313 39.1201 26.8582 0.0000 0.0000 0.0000
# 2 39.1201 108.5836 16.2265 0.0000 0.0000 0.0000
# 3 26.8582 16.2265 66.6759 0.0000 0.0000 0.0000
# 4 0.0000 0.0000 0.0000 37.5204 0.0000 0.0000
# 5 0.0000 0.0000 0.0000 0.0000 31.8360 0.0000
# 6 0.0000 0.0000 0.0000 0.0000 0.0000 24.4874
#
#
#
# Elastic Compliance Matrix: (Units=1/GPa)
#
#
# Indices 1 2 3 4 5 6 
#
# 1 0.012428 -0.003870 -0.004064 0.000000 0.000000 0.000000
# 2 -0.003870 0.010762 -0.001060 0.000000 0.000000 0.000000
# 3 -0.004064 -0.001060 0.016893 0.000000 0.000000 0.000000
# 4 0.000000 0.000000 0.000000 0.026652 0.000000 0.000000
# 5 0.000000 0.000000 0.000000 0.000000 0.031411 0.000000
# 6 0.000000 0.000000 0.000000 0.000000 0.000000 0.040837
#
#
# Mechanical properties :
#
#
# Convention : Reuss Voigt Hill
#
# Bulk Modulus (GPa) = 45.26124 49.01117 47.13620
# Shear Modulus (GPa) = 30.42526 31.73450 31.07988
#
# Velocity S-wave (km/s) = 3.71998 3.79917 3.75978
# Velocity P-wave (km/s) = 6.24796 6.44488 6.34718
#
# Compressibility (1/GPa) = 0.02209396
#
# Stress axis : x y z
#
# Youngs Moduli (GPa) = 80.46559 92.91769 59.19576
#
# Poissons Ratio (x) = 0.35960 0.24059
# Poissons Ratio (y) = 0.31141 0.06276
# Poissons Ratio (z) = 0.32703 0.09851
#
# Static dielectric constant tensor:
#      x y z
#    x 1.808780 0.000000 0.000000 
#    y 0.000000 1.860650 0.000000 
#    z 0.000000 0.000000 1.857720 
# 
# From -- ./inp_files/6554.got.cif
#   From: 2010.05.17/outbox.cif.g08.bks.cpg/sg19_4_cif.got.tgz:6554.got - 2010.06.03 22:46:19.
