data_PCOD9313216
_publ_section_title
;
Structure prediction by ZEFSAII (Michael W. Deem and Ramdas Pophale) SiO2 
 PCOD9313216
Probable space group: P 21 21 2
;
_chemical_formula_sum "Si O2"
_cell_formula_units_Z 16
_cell_length_a 12.674847
_cell_length_b 8.695874
_cell_length_c 6.210702
_cell_angle_alpha 90.000000
_cell_angle_beta 90.000000
_cell_angle_gamma 90.000000
_cell_volume 684.536572
_symmetry_space_group_name_H-M "P 21 21 2"
_symmetry_group_IT_number 18
_symmetry_cell_setting 'orthorhombic'
loop_
_space_group_symop_operation_xyz
x,y,z
-x,-y,z
1/2+x,1/2-y,-z
1/2-x,1/2+y,-z
loop_
_atom_site_type_symbol
_atom_site_label
_atom_site_fract_x
_atom_site_fract_y
_atom_site_fract_z
Si Si1 0.615679 0.668601 0.023325
Si Si2 0.669459 0.027617 0.031896
Si Si3 0.000000 0.500000 0.608853
Si Si4 0.554465 0.247496 0.698052
Si Si5 0.000000 0.000000 0.602584
O O1 0.510905 0.673058 0.884450
O O2 0.655261 0.844782 0.013115
O O3 0.709610 0.566850 0.930259
O O4 0.577708 0.602510 0.250793
O O5 0.633810 0.131643 0.824607
O O6 0.592263 0.060182 0.233991
O O7 0.978404 0.361665 0.445282
O O8 0.576411 0.387265 0.535562
#
# Coordination Sequence:
#
# PCOD9313216 Si02
#       5
#     4   4   2   4   2
#     4  12  28  50  74 116 152 197 247 317 370 449
#     4  12  27  49  76 111 159 192 251 313 378 439
#     4  12  22  52  76 102 152 204 240 304 376 442
#     4  12  25  52  78 105 152 203 247 308 371 446
#     4  12  28  50  80 110 152 196 256 308 374 442
#
# _framework density 23.373479
#
# number of rings (size 3 to 8) (size 9 to 14) (size 15 to 20)
#    0.000    0.000    7.500    0.750   10.500    2.000 
#    0.000    0.000    0.000    0.000    0.000    0.000 
#    0.000    0.000    0.000    0.000    0.000    0.000 
#
# Total GULP energy -89321.927362 kJ/mol
# GULP energy per Si atom -5582.620460 kJ/mol
# Density = 2.332028 g / cm^3
# Si number density = 23.373479 Si / 1000 Ang^3
#
#
#
# Elastic Constant Matrix: (Units=GPa)
#
#
# Indices 1 2 3 4 5 6 
#
# 1 57.3333 17.8082 2.9569 0.0000 0.0000 0.0000
# 2 17.8082 153.7831 57.4763 0.0000 0.0000 0.0000
# 3 2.9569 57.4763 96.9293 0.0000 0.0000 0.0000
# 4 0.0000 0.0000 0.0000 67.1051 0.0000 0.0000
# 5 0.0000 0.0000 0.0000 0.0000 4.2027 0.0000
# 6 0.0000 0.0000 0.0000 0.0000 0.0000 44.7012
#
#
#
# Elastic Compliance Matrix: (Units=1/GPa)
#
#
# Indices 1 2 3 4 5 6 
#
# 1 0.018152 -0.002435 0.000890 0.000000 0.000000 0.000000
# 2 -0.002435 0.008681 -0.005073 0.000000 0.000000 0.000000
# 3 0.000890 -0.005073 0.013298 0.000000 0.000000 0.000000
# 4 0.000000 0.000000 0.000000 0.014902 0.000000 0.000000
# 5 0.000000 0.000000 0.000000 0.000000 0.237943 0.000000
# 6 0.000000 0.000000 0.000000 0.000000 0.000000 0.022371
#
#
# Mechanical properties :
#
#
# Convention : Reuss Voigt Hill
#
# Bulk Modulus (GPa) = 37.18152 51.61427 44.39790
# Shear Modulus (GPa) = 14.81273 38.52208 26.66741
#
# Velocity S-wave (km/s) = 2.52015 4.06410 3.38142
# Velocity P-wave (km/s) = 4.94068 6.64476 5.85505
#
# Compressibility (1/GPa) = 0.02689508
#
# Stress axis : x y z
#
# Youngs Moduli (GPa) = 55.08971 115.19835 75.19997
#
# Poissons Ratio (x) = 0.28047 -0.06692
# Poissons Ratio (y) = 0.13412 0.38150
# Poissons Ratio (z) = -0.04903 0.58442
#
# Static dielectric constant tensor:
#      x y z
#    x 1.848460 0.000000 0.000000 
#    y 0.000000 1.965700 0.000000 
#    z 0.000000 0.000000 1.892910 
# 
# From -- ./inp_files/423.got.cif
#   From: 2010.05.17/outbox.cif.g08.bks.cpg/sg18_1_cif.got.tgz:423.got - 2010.06.03 22:40:56.
