data_PCOD9313155
_publ_section_title
;
Structure prediction by ZEFSAII (Michael W. Deem and Ramdas Pophale) SiO2 
 PCOD9313155
Probable space group: P 21 21 2
;
_chemical_formula_sum "Si O2"
_cell_formula_units_Z 22
_cell_length_a 10.950922
_cell_length_b 13.436071
_cell_length_c 5.996348
_cell_angle_alpha 90.000000
_cell_angle_beta 90.000000
_cell_angle_gamma 90.000000
_cell_volume 882.286847
_symmetry_space_group_name_H-M "P 21 21 2"
_symmetry_group_IT_number 18
_symmetry_cell_setting 'orthorhombic'
loop_
_space_group_symop_operation_xyz
x,y,z
-x,-y,z
1/2+x,1/2-y,-z
1/2-x,1/2+y,-z
loop_
_atom_site_type_symbol
_atom_site_label
_atom_site_fract_x
_atom_site_fract_y
_atom_site_fract_z
Si Si1 0.728152 0.428172 0.878262
Si Si2 0.058722 0.810323 0.517622
Si Si3 0.219382 0.418644 0.545442
Si Si4 0.524357 0.872111 0.190110
Si Si5 0.000000 0.000000 0.830722
Si Si6 0.635503 0.221478 0.811873
O O1 0.728869 0.474707 0.625117
O O2 0.872741 0.440257 0.927860
O O3 0.709814 0.311415 0.917352
O O4 0.619684 0.479719 0.016171
O O5 0.174731 0.843527 0.368342
O O6 0.089326 0.711219 0.655808
O O7 0.026148 0.903553 0.676648
O O8 0.941854 0.779686 0.375531
O O9 0.202956 0.373205 0.298173
O O10 0.084255 0.411065 0.648879
O O11 0.455647 0.817509 0.994336
#
# Coordination Sequence:
#
# PCOD9313155 Si02
#       6
#     4   4   4   4   2   4
#     4  12  25  48  76 111 155 201 261 318 391 467
#     4  11  24  45  74 108 146 192 255 314 380 458
#     4  11  26  46  74 110 152 199 261 312 388 469
#     4  11  26  48  72 109 151 209 251 323 391 458
#     4  12  26  46  80 112 150 202 256 326 390 452
#     4  11  25  47  77 106 153 201 255 321 388 461
#
# _framework density 24.935199999999998
#
# number of rings (size 3 to 8) (size 9 to 14) (size 15 to 20)
#    0.000    0.727    3.636    2.727    5.091    0.000 
#    9.818    0.000    0.000    0.000    0.000    0.000 
#    0.000    0.000    0.000    0.000    0.000    0.000 
#
# Total GULP energy -122690.681875 kJ/mol
# GULP energy per Si atom -5576.849176 kJ/mol
# Density = 2.487845 g / cm^3
# Si number density = 24.935200 Si / 1000 Ang^3
#
#
#
# Elastic Constant Matrix: (Units=GPa)
#
#
# Indices 1 2 3 4 5 6 
#
# 1 130.1070 22.0936 10.4294 0.0000 0.0000 0.0000
# 2 22.0936 72.0559 12.3616 0.0000 0.0000 0.0000
# 3 10.4294 12.3616 26.8185 0.0000 0.0000 0.0000
# 4 0.0000 0.0000 0.0000 -177.7782 0.0000 0.0000
# 5 0.0000 0.0000 0.0000 0.0000 4.7654 0.0000
# 6 0.0000 0.0000 0.0000 0.0000 0.0000 52.3728
#
#
#
# Elastic Compliance Matrix: (Units=1/GPa)
#
#
# Indices 1 2 3 4 5 6 
#
# 1 0.008227 -0.002143 -0.002212 0.000000 0.000000 0.000000
# 2 -0.002143 0.015628 -0.006370 0.000000 0.000000 0.000000
# 3 -0.002212 -0.006370 0.041084 0.000000 0.000000 0.000000
# 4 0.000000 0.000000 0.000000 -0.005625 0.000000 0.000000
# 5 0.000000 0.000000 0.000000 0.000000 0.209847 0.000000
# 6 0.000000 0.000000 0.000000 0.000000 0.000000 0.019094
#
#
# Mechanical properties :
#
#
# Convention : Reuss Voigt Hill
#
# Bulk Modulus (GPa) = 22.99405 35.41673 29.20539
# Shear Modulus (GPa) = 15.42252 -11.85488 1.78382
#
# Velocity S-wave (km/s) = 2.48967 -2.18280 0.84672
# Velocity P-wave (km/s) = 4.18404 2.80741 3.56284
#
# Compressibility (1/GPa) = 0.04348950
#
# Stress axis : x y z
#
# Youngs Moduli (GPa) = 121.54802 63.98736 24.34041
#
# Poissons Ratio (x) = 0.13714 0.05383
# Poissons Ratio (y) = 0.26050 0.15505
# Poissons Ratio (z) = 0.26881 0.40760
#
# Static dielectric constant tensor:
#      x y z
#    x 2.686910 0.000000 0.000000 
#    y 0.000000 2.082210 0.000000 
#    z 0.000000 0.000000 1.977480 
# 
# From -- ./inp_files/1053.got.cif
#   From: 2010.05.17/outbox.cif.g08.bks.cpg/sg18_1_cif.got.tgz:1053.got - 2010.06.03 22:40:56.
