data_PCOD9313465
_publ_section_title
;
Structure prediction by ZEFSAII (Michael W. Deem and Ramdas Pophale) SiO2 
 PCOD9313465
Probable space group: P 21 21 21
;
_chemical_formula_sum "Si O2"
_cell_formula_units_Z 20
_cell_length_a 4.930263
_cell_length_b 5.173032
_cell_length_c 28.286510
_cell_angle_alpha 90.000000
_cell_angle_beta 90.000000
_cell_angle_gamma 90.000000
_cell_volume 721.430700
_symmetry_space_group_name_H-M "P 21 21 21"
_symmetry_group_IT_number 19
_symmetry_cell_setting 'orthorhombic'
loop_
_space_group_symop_operation_xyz
x,y,z
1/2-x,-y,1/2+z
1/2+x,1/2-y,-z
-x,1/2+y,1/2-z
loop_
_atom_site_type_symbol
_atom_site_label
_atom_site_fract_x
_atom_site_fract_y
_atom_site_fract_z
Si Si1 0.519697 0.086777 0.720959
Si Si2 0.042960 0.925229 0.665361
Si Si3 0.864470 0.250409 0.586309
Si Si4 0.119536 0.846299 0.473605
Si Si5 0.380975 0.544493 0.615480
O O1 0.585938 0.364746 0.742985
O O2 0.272628 0.120285 0.684040
O O3 0.785677 0.951491 0.698742
O O4 0.934223 0.986944 0.612901
O O5 0.223936 0.671271 0.658545
O O6 0.717708 0.361115 0.539129
O O7 0.658951 0.390587 0.624072
O O8 0.159048 0.380687 0.587011
O O9 0.385589 0.687308 0.487937
O O10 0.979897 0.750376 0.424861
#
# Coordination Sequence:
#
# PCOD9313465 Si02
#       5
#     4   4   4   4   4
#     4  12  30  49  76 115 152 196 246 319 406 449
#     4  12  26  46  76 100 152 188 258 310 362 492
#     4  10  22  39  69 101 137 192 254 290 384 429
#     4  10  18  37  66  97 146 190 242 313 370 435
#     4  10  22  39  69 101 137 192 254 290 384 429
#
# _framework density 27.722691000000001
#
# number of rings (size 3 to 8) (size 9 to 14) (size 15 to 20)
#    1.200    0.000    2.000    3.600    8.400    0.000 
#    0.000    0.000    8.800    0.000    0.000    0.000 
#    0.000    0.000    0.000    0.000    0.000    0.000 
#
# Total GULP energy -111700.448240 kJ/mol
# GULP energy per Si atom -5585.022412 kJ/mol
# Density = 2.765959 g / cm^3
# Si number density = 27.722691 Si / 1000 Ang^3
#
#
#
# Elastic Constant Matrix: (Units=GPa)
#
#
# Indices 1 2 3 4 5 6 
#
# 1 193.9204 21.7139 30.8121 0.0000 0.0000 0.0000
# 2 21.7139 89.4471 18.7941 0.0000 0.0000 0.0000
# 3 30.8121 18.7941 56.6386 0.0000 0.0000 0.0000
# 4 0.0000 0.0000 0.0000 33.2652 0.0000 0.0000
# 5 0.0000 0.0000 0.0000 0.0000 72.1348 0.0000
# 6 0.0000 0.0000 0.0000 0.0000 0.0000 49.7962
#
#
#
# Elastic Compliance Matrix: (Units=1/GPa)
#
#
# Indices 1 2 3 4 5 6 
#
# 1 0.005696 -0.000786 -0.002838 0.000000 0.000000 0.000000
# 2 -0.000786 0.012126 -0.003596 0.000000 0.000000 0.000000
# 3 -0.002838 -0.003596 0.020393 0.000000 0.000000 0.000000
# 4 0.000000 0.000000 0.000000 0.030061 0.000000 0.000000
# 5 0.000000 0.000000 0.000000 0.000000 0.013863 0.000000
# 6 0.000000 0.000000 0.000000 0.000000 0.000000 0.020082
#
#
# Mechanical properties :
#
#
# Convention : Reuss Voigt Hill
#
# Bulk Modulus (GPa) = 42.06151 53.62737 47.84444
# Shear Modulus (GPa) = 40.13302 48.95164 44.54233
#
# Velocity S-wave (km/s) = 3.80894 4.20665 4.01273
# Velocity P-wave (km/s) = 5.87786 6.55597 6.22615
#
# Compressibility (1/GPa) = 0.02377471
#
# Stress axis : x y z
#
# Youngs Moduli (GPa) = 175.57178 82.46555 49.03716
#
# Poissons Ratio (x) = 0.06486 0.13915
# Poissons Ratio (y) = 0.13808 0.17634
# Poissons Ratio (z) = 0.49819 0.29654
#
# Static dielectric constant tensor:
#      x y z
#    x 2.039700 0.000000 0.000000 
#    y 0.000000 2.363690 0.000000 
#    z 0.000000 0.000000 2.374570 
# 
# From -- ./inp_files/7432.got.cif
#   From: 2010.05.17/outbox.cif.g08.bks.cpg/sg19_4_cif.got.tgz:7432.got - 2010.06.03 22:46:19.
