data_PCOD9313271
_publ_section_title
;
Structure prediction by ZEFSAII (Michael W. Deem and Ramdas Pophale) SiO2 
 PCOD9313271
Probable space group: P 21 21 2
;
_chemical_formula_sum "Si O2"
_cell_formula_units_Z 18
_cell_length_a 18.141326
_cell_length_b 6.699593
_cell_length_c 5.468049
_cell_angle_alpha 90.000000
_cell_angle_beta 90.000000
_cell_angle_gamma 90.000000
_cell_volume 664.583945
_symmetry_space_group_name_H-M "P 21 21 2"
_symmetry_group_IT_number 18
_symmetry_cell_setting 'orthorhombic'
loop_
_space_group_symop_operation_xyz
x,y,z
-x,-y,z
1/2+x,1/2-y,-z
1/2-x,1/2+y,-z
loop_
_atom_site_type_symbol
_atom_site_label
_atom_site_fract_x
_atom_site_fract_y
_atom_site_fract_z
Si Si1 0.713090 0.562272 0.247768
Si Si2 0.085831 0.632660 0.777976
Si Si3 0.500000 0.500000 0.002432
Si Si4 0.378728 0.031994 0.722820
Si Si5 0.146719 0.011244 0.252483
O O1 0.667986 0.769573 0.239194
O O2 0.800143 0.574814 0.281049
O O3 0.678937 0.444934 0.480196
O O4 0.695799 0.456917 0.989607
O O5 0.078497 0.508639 0.530012
O O6 0.034632 0.826002 0.828000
O O7 0.082979 0.497340 0.018074
O O8 0.564926 0.420252 0.823880
O O9 0.363155 0.270127 0.734109
#
# Coordination Sequence:
#
# PCOD9313271 Si02
#       5
#     4   4   2   4   4
#     4   9  16  27  39  59  86 111 138 164 204 247
#     4   9  18  26  43  62  84 113 132 172 204 247
#     4   8  16  30  40  62  92 108 136 164 216 250
#     4   9  16  27  39  59  86 111 138 164 204 247
#     4   9  18  26  43  62  84 113 132 172 204 247
#
# _framework density 27.084619
#
# number of rings (size 3 to 8) (size 9 to 14) (size 15 to 20)
#    0.000    3.556    0.000    1.333    0.000   14.222 
#    0.000    0.000    0.000    0.000    0.000    0.000 
#    0.000  739.556    0.000    0.000    0.000    0.000 
#
# Total GULP energy -100673.432779 kJ/mol
# GULP energy per Si atom -5592.968488 kJ/mol
# Density = 2.702297 g / cm^3
# Si number density = 27.084619 Si / 1000 Ang^3
#
#
#
# Elastic Constant Matrix: (Units=GPa)
#
#
# Indices 1 2 3 4 5 6 
#
# 1 159.2012 0.5627 59.8993 0.0000 0.0000 0.0000
# 2 0.5627 89.7066 12.4948 0.0000 0.0000 0.0000
# 3 59.8993 12.4948 288.0170 0.0000 0.0000 0.0000
# 4 0.0000 0.0000 0.0000 -31.9979 0.0000 0.0000
# 5 0.0000 0.0000 0.0000 0.0000 35.9750 0.0000
# 6 0.0000 0.0000 0.0000 0.0000 0.0000 40.4366
#
#
#
# Elastic Compliance Matrix: (Units=1/GPa)
#
#
# Indices 1 2 3 4 5 6 
#
# 1 0.006817 0.000156 -0.001424 0.000000 0.000000 0.000000
# 2 0.000156 0.011219 -0.000519 0.000000 0.000000 0.000000
# 3 -0.001424 -0.000519 0.003791 0.000000 0.000000 0.000000
# 4 0.000000 0.000000 0.000000 -0.031252 0.000000 0.000000
# 5 0.000000 0.000000 0.000000 0.000000 0.027797 0.000000
# 6 0.000000 0.000000 0.000000 0.000000 0.000000 0.024730
#
#
# Mechanical properties :
#
#
# Convention : Reuss Voigt Hill
#
# Bulk Modulus (GPa) = 54.79276 75.87092 65.33184
# Shear Modulus (GPa) = 94.76744 39.81392 67.29068
#
# Velocity S-wave (km/s) = 5.92160 3.83819 4.98984
# Velocity P-wave (km/s) = 8.18706 6.90765 7.57442
#
# Compressibility (1/GPa) = 0.01825059
#
# Stress axis : x y z
#
# Youngs Moduli (GPa) = 146.69736 89.13626 263.79802
#
# Poissons Ratio (x) = -0.01387 0.37577
# Poissons Ratio (y) = -0.02283 0.13693
# Poissons Ratio (z) = 0.20896 0.04627
#
# Static dielectric constant tensor:
#      x y z
#    x 2.065610 0.000000 0.000000 
#    y 0.000000 2.133790 0.000000 
#    z 0.000000 0.000000 2.186880 
# 
# From -- ./inp_files/577.got.cif
#   From: 2010.05.17/outbox.cif.g08.bks.cpg/sg18_1_cif.got.tgz:577.got - 2010.06.03 22:40:56.
