data_PCOD9313445
_publ_section_title
;
Structure prediction by ZEFSAII (Michael W. Deem and Ramdas Pophale) SiO2 
 PCOD9313445
Probable space group: P 21 21 21
;
_chemical_formula_sum "Si O2"
_cell_formula_units_Z 32
_cell_length_a 7.083964
_cell_length_b 9.439325
_cell_length_c 19.490226
_cell_angle_alpha 90.000000
_cell_angle_beta 90.000000
_cell_angle_gamma 90.000000
_cell_volume 1303.269284
_symmetry_space_group_name_H-M "P 21 21 21"
_symmetry_group_IT_number 19
_symmetry_cell_setting 'orthorhombic'
loop_
_space_group_symop_operation_xyz
x,y,z
1/2-x,-y,1/2+z
1/2+x,1/2-y,-z
-x,1/2+y,1/2-z
loop_
_atom_site_type_symbol
_atom_site_label
_atom_site_fract_x
_atom_site_fract_y
_atom_site_fract_z
Si Si1 0.826269 0.527144 0.546769
Si Si2 0.863846 0.163114 0.348419
Si Si3 0.416132 0.026643 0.602641
Si Si4 0.654089 0.273090 0.807571
Si Si5 0.264129 0.083136 0.311812
Si Si6 0.203812 0.233478 0.778776
Si Si7 0.739242 0.079908 0.937663
Si Si8 0.276338 0.670577 0.418746
O O1 0.801720 0.476772 0.469059
O O2 0.812191 0.411806 0.607227
O O3 0.708185 0.666267 0.568749
O O4 0.038261 0.587599 0.549110
O O5 0.938038 0.316223 0.370239
O O6 0.693262 0.189149 0.294731
O O7 0.034037 0.075045 0.314324
O O8 0.806783 0.079190 0.416113
O O9 0.324305 0.930092 0.660851
O O10 0.613665 0.945641 0.591683
O O11 0.783151 0.282632 0.739298
O O12 0.434344 0.242503 0.789782
O O13 0.705287 0.171358 0.869824
O O14 0.345845 0.932608 0.285445
O O15 0.121769 0.315574 0.845113
O O16 0.639122 0.127860 0.007777
#
# Coordination Sequence:
#
# PCOD9313445 Si02
#       8
#     4   4   4   4   4   4   4   4
#     4  10  22  39  59  89 128 162 202 254 310 377
#     4  11  22  36  64  93 122 153 205 266 311 360
#     4  10  20  37  62  89 121 155 207 258 302 360
#     4  10  18  35  60  86 110 152 211 247 294 359
#     4  10  20  37  61  86 119 158 206 254 306 362
#     4   9  18  35  60  88 110 154 207 262 287 360
#     4  11  22  38  62  92 122 163 202 257 313 373
#     4   9  20  37  64  85 120 163 212 244 299 377
#
# _framework density 24.553636999999998
#
# number of rings (size 3 to 8) (size 9 to 14) (size 15 to 20)
#    0.000    2.000    3.750    0.000    0.000    2.000 
#    4.500    0.000    2.750    0.000    0.000    0.000 
#    0.000    0.000    0.000    0.000    0.000    0.000 
#
# Total GULP energy -178552.053626 kJ/mol
# GULP energy per Si atom -5579.751676 kJ/mol
# Density = 2.449775 g / cm^3
# Si number density = 24.553637 Si / 1000 Ang^3
#
#
#
# Elastic Constant Matrix: (Units=GPa)
#
#
# Indices 1 2 3 4 5 6 
#
# 1 35.7180 -1.6724 -9.3302 0.0000 0.0000 0.0000
# 2 -1.6724 110.9954 33.5292 0.0000 0.0000 0.0000
# 3 -9.3302 33.5292 125.9669 0.0000 0.0000 0.0000
# 4 0.0000 0.0000 0.0000 50.5024 0.0000 0.0000
# 5 0.0000 0.0000 0.0000 0.0000 25.9931 0.0000
# 6 0.0000 0.0000 0.0000 0.0000 0.0000 20.5095
#
#
#
# Elastic Compliance Matrix: (Units=1/GPa)
#
#
# Indices 1 2 3 4 5 6 
#
# 1 0.028555 -0.000227 0.002175 0.000000 0.000000 0.000000
# 2 -0.000227 0.009799 -0.002625 0.000000 0.000000 0.000000
# 3 0.002175 -0.002625 0.008798 0.000000 0.000000 0.000000
# 4 0.000000 0.000000 0.000000 0.019801 0.000000 0.000000
# 5 0.000000 0.000000 0.000000 0.000000 0.038472 0.000000
# 6 0.000000 0.000000 0.000000 0.000000 0.000000 0.048758
#
#
# Mechanical properties :
#
#
# Convention : Reuss Voigt Hill
#
# Bulk Modulus (GPa) = 21.83452 35.30373 28.56912
# Shear Modulus (GPa) = 29.27364 36.07792 32.67578
#
# Velocity S-wave (km/s) = 3.45662 3.83737 3.65196
# Velocity P-wave (km/s) = 4.98426 5.83466 5.42615
#
# Compressibility (1/GPa) = 0.04579903
#
# Stress axis : x y z
#
# Youngs Moduli (GPa) = 35.02049 102.05197 113.65647
#
# Poissons Ratio (x) = 0.02316 -0.24725
# Poissons Ratio (y) = 0.00795 0.29835
# Poissons Ratio (z) = -0.07618 0.26789
#
# Static dielectric constant tensor:
#      x y z
#    x 2.064140 0.000000 0.000000 
#    y 0.000000 1.910050 0.000000 
#    z 0.000000 0.000000 2.041580 
# 
# From -- ./inp_files/7042.got.cif
#   From: 2010.05.17/outbox.cif.g08.bks.cpg/sg19_4_cif.got.tgz:7042.got - 2010.06.03 22:46:19.
