data_PCOD9313231
_publ_section_title
;
Structure prediction by ZEFSAII (Michael W. Deem and Ramdas Pophale) SiO2 
 PCOD9313231
Probable space group: P 21 21 2
;
_chemical_formula_sum "Si O2"
_cell_formula_units_Z 26
_cell_length_a 15.361764
_cell_length_b 5.014329
_cell_length_c 13.962858
_cell_angle_alpha 90.000000
_cell_angle_beta 90.000000
_cell_angle_gamma 90.000000
_cell_volume 1075.544133
_symmetry_space_group_name_H-M "P 21 21 2"
_symmetry_group_IT_number 18
_symmetry_cell_setting 'orthorhombic'
loop_
_space_group_symop_operation_xyz
x,y,z
-x,-y,z
1/2+x,1/2-y,-z
1/2-x,1/2+y,-z
loop_
_atom_site_type_symbol
_atom_site_label
_atom_site_fract_x
_atom_site_fract_y
_atom_site_fract_z
Si Si1 0.285031 0.162058 0.177508
Si Si2 0.703892 0.971479 0.488223
Si Si3 0.089715 0.418029 0.683646
Si Si4 0.662996 0.822358 0.813285
Si Si5 0.940496 0.263549 0.376945
Si Si6 0.500000 0.500000 0.171966
Si Si7 0.909460 0.337180 0.977663
O O1 0.230209 0.432487 0.175444
O O2 0.323637 0.054098 0.076049
O O3 0.365050 0.147211 0.252358
O O4 0.218671 0.936535 0.211291
O O5 0.764287 0.727034 0.449792
O O6 0.641342 0.781901 0.552105
O O7 0.657937 0.127041 0.400220
O O8 0.000000 0.500000 0.634185
O O9 0.053219 0.203818 0.760056
O O10 0.594692 0.846038 0.727661
O O11 0.613193 0.781269 0.913531
O O12 0.000000 0.500000 0.412823
O O13 0.000000 0.000000 0.375066
O O14 0.428195 0.405498 0.094110
O O15 0.000000 0.500000 0.972054
#
# Coordination Sequence:
#
# PCOD9313231 Si02
#       7
#     4   4   4   4   4   2   4
#     4  12  24  47  67 112 149 202 253 320 375 455
#     4  12  28  50  78 115 153 199 252 326 396 465
#     4  12  26  46  79 110 154 202 258 321 394 464
#     4  12  28  44  76 105 157 206 253 311 389 445
#     4  12  26  51  75 111 150 201 258 311 373 474
#     4  12  24  46  76 112 156 196 264 320 376 462
#     4  12  26  44  71 108 152 202 257 316 367 466
#
# _framework density 24.17381
#
# number of rings (size 3 to 8) (size 9 to 14) (size 15 to 20)
#    0.000    0.000    3.077    6.462    5.385    0.000 
#    1.385    0.000    0.000    0.000    0.000    0.000 
#    0.000    0.000    0.000    0.000    0.000    0.000 
#
# Total GULP energy -145182.577850 kJ/mol
# GULP energy per Si atom -5583.945302 kJ/mol
# Density = 2.411879 g / cm^3
# Si number density = 24.173810 Si / 1000 Ang^3
#
#
#
# Elastic Constant Matrix: (Units=GPa)
#
#
# Indices 1 2 3 4 5 6 
#
# 1 72.6133 45.1156 31.2989 0.0000 0.0000 0.0000
# 2 45.1156 112.0008 20.2684 0.0000 0.0000 0.0000
# 3 31.2989 20.2684 139.6954 0.0000 0.0000 0.0000
# 4 0.0000 0.0000 0.0000 23.1507 0.0000 0.0000
# 5 0.0000 0.0000 0.0000 0.0000 54.5016 0.0000
# 6 0.0000 0.0000 0.0000 0.0000 0.0000 47.8283
#
#
#
# Elastic Compliance Matrix: (Units=1/GPa)
#
#
# Indices 1 2 3 4 5 6 
#
# 1 0.019800 -0.007366 -0.003367 0.000000 0.000000 0.000000
# 2 -0.007366 0.011910 -0.000078 0.000000 0.000000 0.000000
# 3 -0.003367 -0.000078 0.007924 0.000000 0.000000 0.000000
# 4 0.000000 0.000000 0.000000 0.043195 0.000000 0.000000
# 5 0.000000 0.000000 0.000000 0.000000 0.018348 0.000000
# 6 0.000000 0.000000 0.000000 0.000000 0.000000 0.020908
#
#
# Mechanical properties :
#
#
# Convention : Reuss Voigt Hill
#
# Bulk Modulus (GPa) = 55.52079 57.51949 56.52014
# Shear Modulus (GPa) = 33.39757 40.27123 36.83440
#
# Velocity S-wave (km/s) = 3.72097 4.08598 3.90774
# Velocity P-wave (km/s) = 6.44034 6.79014 6.61755
#
# Compressibility (1/GPa) = 0.01801127
#
# Stress axis : x y z
#
# Youngs Moduli (GPa) = 50.50554 83.96450 126.19644
#
# Poissons Ratio (x) = 0.61851 0.42495
# Poissons Ratio (y) = 0.37204 0.00979
# Poissons Ratio (z) = 0.17007 0.00651
#
# Static dielectric constant tensor:
#      x y z
#    x 1.822020 0.000000 0.000000 
#    y 0.000000 1.980990 0.000000 
#    z 0.000000 0.000000 1.880950 
# 
# From -- ./inp_files/6981.got.cif
#   From: 2010.05.17/outbox.cif.g08.bks.cpg/sg18_4_cif.got.tgz:6981.got - 2010.06.03 22:40:56.
