data_PCOD9313181
_publ_section_title
;
Structure prediction by ZEFSAII (Michael W. Deem and Ramdas Pophale) SiO2 
 PCOD9313181
Probable space group: P 21 21 2
;
_chemical_formula_sum "Si O2"
_cell_formula_units_Z 20
_cell_length_a 9.862408
_cell_length_b 15.105526
_cell_length_c 5.076007
_cell_angle_alpha 90.000000
_cell_angle_beta 90.000000
_cell_angle_gamma 90.000000
_cell_volume 756.207587
_symmetry_space_group_name_H-M "P 21 21 2"
_symmetry_group_IT_number 18
_symmetry_cell_setting 'orthorhombic'
loop_
_space_group_symop_operation_xyz
x,y,z
-x,-y,z
1/2+x,1/2-y,-z
1/2-x,1/2+y,-z
loop_
_atom_site_type_symbol
_atom_site_label
_atom_site_fract_x
_atom_site_fract_y
_atom_site_fract_z
Si Si1 0.707860 0.295259 0.526255
Si Si2 0.000000 0.000000 0.776040
Si Si3 0.629169 0.839312 0.987669
Si Si4 0.500000 0.000000 0.674695
Si Si5 0.025168 0.842970 0.127294
Si Si6 0.256645 0.406696 0.530328
O O1 0.761243 0.311381 0.234736
O O2 0.556406 0.324551 0.602223
O O3 0.728821 0.191172 0.588081
O O4 0.802479 0.348950 0.729675
O O5 0.872641 0.035174 0.610841
O O6 0.044123 0.080567 0.962026
O O7 0.555733 0.923166 0.865570
O O8 0.533762 0.752450 0.007108
O O9 0.382298 0.958665 0.494688
O O10 0.173945 0.882674 0.191218
#
# Coordination Sequence:
#
# PCOD9313181 Si02
#       6
#     4   2   4   2   4   4
#     4  11  25  49  74 111 152 207 250 321 388 453
#     4  12  24  46  78 106 152 196 274 310 384 468
#     4  11  26  47  76 107 157 199 254 321 384 459
#     4  12  26  52  72 118 154 206 258 322 386 462
#     4  11  25  46  74 113 151 199 258 321 387 461
#     4  11  26  47  74 110 154 205 261 316 390 455
#
# _framework density 26.447766999999999
#
# number of rings (size 3 to 8) (size 9 to 14) (size 15 to 20)
#    0.000    0.800    4.000    1.800    8.400    0.800 
#    3.600    0.000    0.000    0.000    0.000    0.000 
#    0.000    0.000    0.000    0.000    0.000    0.000 
#
# Total GULP energy -112218.587214 kJ/mol
# GULP energy per Si atom -5610.929361 kJ/mol
# Density = 2.638757 g / cm^3
# Si number density = 26.447767 Si / 1000 Ang^3
#
#
#
# Elastic Constant Matrix: (Units=GPa)
#
#
# Indices 1 2 3 4 5 6 
#
# 1 131.2972 76.1311 12.9421 0.0000 0.0000 0.0000
# 2 76.1311 180.3621 20.7119 0.0000 0.0000 0.0000
# 3 12.9421 20.7119 65.1098 0.0000 0.0000 0.0000
# 4 0.0000 0.0000 0.0000 34.8708 0.0000 0.0000
# 5 0.0000 0.0000 0.0000 0.0000 35.8703 0.0000
# 6 0.0000 0.0000 0.0000 0.0000 0.0000 53.4479
#
#
#
# Elastic Compliance Matrix: (Units=1/GPa)
#
#
# Indices 1 2 3 4 5 6 
#
# 1 0.010113 -0.004191 -0.000677 0.000000 0.000000 0.000000
# 2 -0.004191 0.007491 -0.001550 0.000000 0.000000 0.000000
# 3 -0.000677 -0.001550 0.015986 0.000000 0.000000 0.000000
# 4 0.000000 0.000000 0.000000 0.028677 0.000000 0.000000
# 5 0.000000 0.000000 0.000000 0.000000 0.027878 0.000000
# 6 0.000000 0.000000 0.000000 0.000000 0.000000 0.018710
#
#
# Mechanical properties :
#
#
# Convention : Reuss Voigt Hill
#
# Bulk Modulus (GPa) = 48.18170 66.25991 57.22081
# Shear Modulus (GPa) = 38.87703 42.63673 40.75688
#
# Velocity S-wave (km/s) = 3.83816 4.01947 3.92986
# Velocity P-wave (km/s) = 6.15623 6.83001 6.50185
#
# Compressibility (1/GPa) = 0.02075477
#
# Stress axis : x y z
#
# Youngs Moduli (GPa) = 98.88105 133.48571 62.55350
#
# Poissons Ratio (x) = 0.55944 0.04235
# Poissons Ratio (y) = 0.41441 0.09696
# Poissons Ratio (z) = 0.06694 0.20691
#
# Static dielectric constant tensor:
#      x y z
#    x 2.107160 0.000000 0.000000 
#    y 0.000000 2.030240 0.000000 
#    z 0.000000 0.000000 2.046250 
# 
# From -- ./inp_files/1013.got.cif
#   From: 2010.05.17/outbox.cif.g08.bks.cpg/sg18_1_cif.got.tgz:1013.got - 2010.06.03 22:40:56.
