data_PCOD9313636
_publ_section_title
;
Structure prediction by ZEFSAII (Michael W. Deem and Ramdas Pophale) SiO2 
 PCOD9313636
Probable space group: P 21 21 21
;
_chemical_formula_sum "Si O2"
_cell_formula_units_Z 32
_cell_length_a 7.824750
_cell_length_b 21.131934
_cell_length_c 7.962519
_cell_angle_alpha 90.000000
_cell_angle_beta 90.000000
_cell_angle_gamma 90.000000
_cell_volume 1316.619242
_symmetry_space_group_name_H-M "P 21 21 21"
_symmetry_group_IT_number 19
_symmetry_cell_setting 'orthorhombic'
loop_
_space_group_symop_operation_xyz
x,y,z
1/2-x,-y,1/2+z
1/2+x,1/2-y,-z
-x,1/2+y,1/2-z
loop_
_atom_site_type_symbol
_atom_site_label
_atom_site_fract_x
_atom_site_fract_y
_atom_site_fract_z
Si Si1 0.815411 0.793792 0.218201
Si Si2 0.582787 0.516779 0.742948
Si Si3 0.264880 0.577233 0.579847
Si Si4 0.091197 0.331078 0.849027
Si Si5 0.095310 0.086054 0.848352
Si Si6 0.245559 0.787993 0.471391
Si Si7 0.308320 0.918669 0.994502
Si Si8 0.386128 0.203427 0.476023
O O1 0.760129 0.857689 0.310396
O O2 0.807823 0.735416 0.346457
O O3 0.682071 0.771985 0.075239
O O4 0.002013 0.799934 0.141612
O O5 0.393639 0.532155 0.679415
O O6 0.640504 0.546603 0.921509
O O7 0.634763 0.446288 0.684159
O O8 0.718576 0.555185 0.623033
O O9 0.340803 0.600765 0.402900
O O10 0.068375 0.558799 0.557405
O O11 0.942632 0.313527 0.985371
O O12 0.005646 0.324907 0.669924
O O13 0.233959 0.276336 0.865043
O O14 0.061558 0.072481 0.650058
O O15 0.131583 0.158995 0.893579
O O16 0.269888 0.844780 0.989170
#
# Coordination Sequence:
#
# PCOD9313636 Si02
#       8
#     4   4   4   4   4   4   4   4
#     4  10  23  36  62  97 137 174 216 272 347 409
#     4  10  23  45  69  89 132 177 228 283 336 387
#     4  11  21  44  66  99 128 176 223 283 331 413
#     4  10  21  33  64  92 141 169 225 263 337 406
#     4  10  22  40  70  92 125 169 228 275 332 396
#     4  10  19  37  58  95 127 181 212 267 331 409
#     4  10  24  43  70  90 134 179 228 282 336 398
#     4  11  23  38  61 100 138 175 216 279 344 402
#
# _framework density 24.304672
#
# number of rings (size 3 to 8) (size 9 to 14) (size 15 to 20)
#    0.750    1.000    2.500    2.250    7.000    1.000 
#    2.250    0.000    2.750    0.000    0.000    0.000 
#    0.000    0.000    0.000    0.000    0.000    0.000 
#
# Total GULP energy -178650.681602 kJ/mol
# GULP energy per Si atom -5582.833800 kJ/mol
# Density = 2.424935 g / cm^3
# Si number density = 24.304672 Si / 1000 Ang^3
#
#
#
# Elastic Constant Matrix: (Units=GPa)
#
#
# Indices 1 2 3 4 5 6 
#
# 1 80.9111 5.5527 -2.0596 0.0000 0.0000 0.0000
# 2 5.5527 37.7343 -4.7745 0.0000 0.0000 0.0000
# 3 -2.0596 -4.7745 46.1696 0.0000 0.0000 0.0000
# 4 0.0000 0.0000 0.0000 30.8712 0.0000 0.0000
# 5 0.0000 0.0000 0.0000 0.0000 32.8618 0.0000
# 6 0.0000 0.0000 0.0000 0.0000 0.0000 33.9507
#
#
#
# Elastic Compliance Matrix: (Units=1/GPa)
#
#
# Indices 1 2 3 4 5 6 
#
# 1 0.012492 -0.001791 0.000372 0.000000 0.000000 0.000000
# 2 -0.001791 0.027109 0.002724 0.000000 0.000000 0.000000
# 3 0.000372 0.002724 0.021958 0.000000 0.000000 0.000000
# 4 0.000000 0.000000 0.000000 0.032393 0.000000 0.000000
# 5 0.000000 0.000000 0.000000 0.000000 0.030430 0.000000
# 6 0.000000 0.000000 0.000000 0.000000 0.000000 0.029454
#
#
# Mechanical properties :
#
#
# Convention : Reuss Voigt Hill
#
# Bulk Modulus (GPa) = 15.58426 18.02802 16.80614
# Shear Modulus (GPa) = 28.96599 30.60984 29.78792
#
# Velocity S-wave (km/s) = 3.45597 3.55268 3.50466
# Velocity P-wave (km/s) = 4.72768 4.92568 4.82770
#
# Compressibility (1/GPa) = 0.06416732
#
# Stress axis : x y z
#
# Youngs Moduli (GPa) = 80.05359 36.88773 45.54246
#
# Poissons Ratio (x) = 0.06607 -0.01694
# Poissons Ratio (y) = 0.14339 -0.12404
# Poissons Ratio (z) = -0.02978 -0.10046
#
# Static dielectric constant tensor:
#      x y z
#    x 1.977230 0.000000 0.000000 
#    y 0.000000 1.948330 0.000000 
#    z 0.000000 0.000000 1.989460 
# 
# From -- ./inp_files/3250.got.cif
#   From: 2010.05.17/outbox.cif.g08.bks.cpg/sg19_2_cif.got.tgz:3250.got - 2010.06.03 22:46:19.
