data_PCOD9313504
_publ_section_title
;
Structure prediction by ZEFSAII (Michael W. Deem and Ramdas Pophale) SiO2 
 PCOD9313504
Probable space group: P 21 21 21
;
_chemical_formula_sum "Si O2"
_cell_formula_units_Z 32
_cell_length_a 14.800052
_cell_length_b 5.363319
_cell_length_c 17.438408
_cell_angle_alpha 90.000000
_cell_angle_beta 90.000000
_cell_angle_gamma 90.000000
_cell_volume 1384.215489
_symmetry_space_group_name_H-M "P 21 21 21"
_symmetry_group_IT_number 19
_symmetry_cell_setting 'orthorhombic'
loop_
_space_group_symop_operation_xyz
x,y,z
1/2-x,-y,1/2+z
1/2+x,1/2-y,-z
-x,1/2+y,1/2-z
loop_
_atom_site_type_symbol
_atom_site_label
_atom_site_fract_x
_atom_site_fract_y
_atom_site_fract_z
Si Si1 0.681075 0.409533 0.671835
Si Si2 0.025225 0.926809 0.430634
Si Si3 0.603965 0.658405 0.319765
Si Si4 0.773271 0.914713 0.612171
Si Si5 0.577118 0.403016 0.171671
Si Si6 0.163692 0.607959 0.533367
Si Si7 0.010815 0.221825 0.565185
Si Si8 0.455823 0.815765 0.715416
O O1 0.587484 0.400150 0.622965
O O2 0.717847 0.683027 0.650398
O O3 0.645911 0.376897 0.758275
O O4 0.740657 0.178145 0.644640
O O5 0.969742 0.088996 0.490839
O O6 0.972256 0.744434 0.373834
O O7 0.094705 0.783724 0.486131
O O8 0.632485 0.526421 0.241477
O O9 0.525046 0.855609 0.299000
O O10 0.672303 0.785069 0.380157
O O11 0.549237 0.457333 0.369450
O O12 0.872893 0.838982 0.638926
O O13 0.749899 0.912414 0.521662
O O14 0.560226 0.586982 0.100944
O O15 0.103547 0.360286 0.539754
O O16 0.486557 0.557836 0.757889
#
# Coordination Sequence:
#
# PCOD9313504 Si02
#       8
#     4   4   4   4   4   4   4   4
#     4  10  20  37  56  90 125 168 208 255 324 381
#     4   9  18  32  60  87 120 159 212 255 313 382
#     4  10  21  39  64  92 119 163 219 277 316 378
#     4  11  23  39  64  89 130 168 211 259 331 400
#     4  11  23  38  66  92 123 165 226 272 323 380
#     4   9  19  37  60  91 119 164 200 259 331 386
#     4  10  19  37  61  88 117 156 215 268 316 379
#     4  10  19  31  57  89 121 163 217 263 302 378
#
# _framework density 23.117787
#
# number of rings (size 3 to 8) (size 9 to 14) (size 15 to 20)
#    0.000    2.000    2.500    2.250    3.500    0.000 
#    0.000    1.250    5.500    0.000    0.000    0.000 
#    0.000    0.000    0.000    0.000    0.000    0.000 
#
# Total GULP energy -178621.306084 kJ/mol
# GULP energy per Si atom -5581.915815 kJ/mol
# Density = 2.306517 g / cm^3
# Si number density = 23.117787 Si / 1000 Ang^3
#
#
#
# Elastic Constant Matrix: (Units=GPa)
#
#
# Indices 1 2 3 4 5 6 
#
# 1 54.0681 13.7872 27.2179 0.0000 0.0000 0.0000
# 2 13.7872 95.5207 23.7891 0.0000 0.0000 0.0000
# 3 27.2179 23.7891 110.3995 0.0000 0.0000 0.0000
# 4 0.0000 0.0000 0.0000 40.6777 0.0000 0.0000
# 5 0.0000 0.0000 0.0000 0.0000 28.7898 0.0000
# 6 0.0000 0.0000 0.0000 0.0000 0.0000 37.5941
#
#
#
# Elastic Compliance Matrix: (Units=1/GPa)
#
#
# Indices 1 2 3 4 5 6 
#
# 1 0.021430 -0.001878 -0.004879 0.000000 0.000000 0.000000
# 2 -0.001878 0.011227 -0.001956 0.000000 0.000000 0.000000
# 3 -0.004879 -0.001956 0.010682 0.000000 0.000000 0.000000
# 4 0.000000 0.000000 0.000000 0.024583 0.000000 0.000000
# 5 0.000000 0.000000 0.000000 0.000000 0.034734 0.000000
# 6 0.000000 0.000000 0.000000 0.000000 0.000000 0.026600
#
#
# Mechanical properties :
#
#
# Convention : Reuss Voigt Hill
#
# Bulk Modulus (GPa) = 38.58991 43.28631 40.93811
# Shear Modulus (GPa) = 32.19132 34.42527 33.30830
#
# Velocity S-wave (km/s) = 3.73566 3.86310 3.79992
# Velocity P-wave (km/s) = 5.94440 6.21796 6.08271
#
# Compressibility (1/GPa) = 0.02591351
#
# Stress axis : x y z
#
# Youngs Moduli (GPa) = 46.66351 89.06933 93.61253
#
# Poissons Ratio (x) = 0.16729 0.45670
# Poissons Ratio (y) = 0.08764 0.18313
# Poissons Ratio (z) = 0.22766 0.17424
#
# Static dielectric constant tensor:
#      x y z
#    x 1.925140 0.000000 0.000000 
#    y 0.000000 1.929870 0.000000 
#    z 0.000000 0.000000 1.918000 
# 
# From -- ./inp_files/1888.got.cif
#   From: 2010.05.17/outbox.cif.g08.bks.cpg/sg19_1_cif.got.tgz:1888.got - 2010.06.03 22:46:19.
