data_PCOD9313398
_publ_section_title
;
Structure prediction by ZEFSAII (Michael W. Deem and Ramdas Pophale) SiO2 
 PCOD9313398
Probable space group: P 21 21 21
;
_chemical_formula_sum "Si O2"
_cell_formula_units_Z 28
_cell_length_a 7.707233
_cell_length_b 16.490942
_cell_length_c 9.018309
_cell_angle_alpha 90.000000
_cell_angle_beta 90.000000
_cell_angle_gamma 90.000000
_cell_volume 1146.222857
_symmetry_space_group_name_H-M "P 21 21 21"
_symmetry_group_IT_number 19
_symmetry_cell_setting 'orthorhombic'
loop_
_space_group_symop_operation_xyz
x,y,z
1/2-x,-y,1/2+z
1/2+x,1/2-y,-z
-x,1/2+y,1/2-z
loop_
_atom_site_type_symbol
_atom_site_label
_atom_site_fract_x
_atom_site_fract_y
_atom_site_fract_z
Si Si1 0.997996 0.500671 0.865453
Si Si2 0.692636 0.189493 0.633160
Si Si3 0.140432 0.366253 0.043785
Si Si4 0.151071 0.135521 0.466839
Si Si5 0.536600 0.053142 0.460680
Si Si6 0.875157 0.588082 0.358332
Si Si7 0.856179 0.262320 0.889610
O O1 0.950725 0.593083 0.899326
O O2 0.071903 0.478906 0.704954
O O3 0.808692 0.459221 0.867591
O O4 0.110451 0.456966 0.992389
O O5 0.623610 0.268510 0.547302
O O6 0.680792 0.113991 0.523954
O O7 0.852554 0.232257 0.720426
O O8 0.597503 0.153416 0.783247
O O9 0.014610 0.314942 0.938689
O O10 0.323224 0.320850 0.022236
O O11 0.353988 0.105713 0.468009
O O12 0.077695 0.098560 0.313329
O O13 0.501254 0.972850 0.557279
O O14 0.811258 0.677907 0.408968
#
# Coordination Sequence:
#
# PCOD9313398 Si02
#       7
#     4   4   4   4   4   4   4
#     4   9  17  29  50  78 104 136 182 227 263 312
#     4   9  19  33  52  80 112 142 170 227 283 317
#     4   9  17  34  55  79 109 145 181 220 273 322
#     4   9  17  32  51  77 107 136 180 229 268 314
#     4  10  18  31  51  79 110 139 176 227 277 318
#     4   8  15  30  51  73 104 135 176 225 269 307
#     4   8  17  31  54  82 106 139 183 219 271 322
#
# _framework density 24.428059000000001
#
# number of rings (size 3 to 8) (size 9 to 14) (size 15 to 20)
#    0.857    2.286    0.000    1.714    0.000    3.429 
#    5.143    0.000    0.000    1.714    0.000    0.000 
#    0.000    0.000    0.000    0.000    0.000    0.000 
#
# Total GULP energy -156023.100094 kJ/mol
# GULP energy per Si atom -5572.253575 kJ/mol
# Density = 2.437246 g / cm^3
# Si number density = 24.428059 Si / 1000 Ang^3
#
#
#
# Elastic Constant Matrix: (Units=GPa)
#
#
# Indices 1 2 3 4 5 6 
#
# 1 55.6555 31.8434 27.1953 0.0000 0.0000 0.0000
# 2 31.8434 194.5112 58.7961 0.0000 0.0000 0.0000
# 3 27.1953 58.7961 75.7763 0.0000 0.0000 0.0000
# 4 0.0000 0.0000 0.0000 47.8502 0.0000 0.0000
# 5 0.0000 0.0000 0.0000 0.0000 9.4205 0.0000
# 6 0.0000 0.0000 0.0000 0.0000 0.0000 30.8997
#
#
#
# Elastic Compliance Matrix: (Units=1/GPa)
#
#
# Indices 1 2 3 4 5 6 
#
# 1 0.022163 -0.001599 -0.006713 0.000000 0.000000 0.000000
# 2 -0.001599 0.006832 -0.004727 0.000000 0.000000 0.000000
# 3 -0.006713 -0.004727 0.019274 0.000000 0.000000 0.000000
# 4 0.000000 0.000000 0.000000 0.020899 0.000000 0.000000
# 5 0.000000 0.000000 0.000000 0.000000 0.106152 0.000000
# 6 0.000000 0.000000 0.000000 0.000000 0.000000 0.032363
#
#
# Mechanical properties :
#
#
# Convention : Reuss Voigt Hill
#
# Bulk Modulus (GPa) = 45.06572 62.40140 53.73356
# Shear Modulus (GPa) = 20.73339 31.50795 26.12067
#
# Velocity S-wave (km/s) = 2.91650 3.59531 3.27355
# Velocity P-wave (km/s) = 5.46165 6.54488 6.02765
#
# Compressibility (1/GPa) = 0.02218981
#
# Stress axis : x y z
#
# Youngs Moduli (GPa) = 45.12041 146.37602 51.88383
#
# Poissons Ratio (x) = 0.23406 0.34831
# Poissons Ratio (y) = 0.07215 0.24525
# Poissons Ratio (z) = 0.30291 0.69192
#
# Static dielectric constant tensor:
#      x y z
#    x 2.047050 0.000000 0.000000 
#    y 0.000000 1.993130 0.000000 
#    z 0.000000 0.000000 1.926910 
# 
# From -- ./inp_files/3689.got.cif
#   From: 2010.05.17/outbox.cif.g08.bks.cpg/sg19_2_cif.got.tgz:3689.got - 2010.06.03 22:46:19.
