data_PCOD9313433
_publ_section_title
;
Structure prediction by ZEFSAII (Michael W. Deem and Ramdas Pophale) SiO2 
 PCOD9313433
Probable space group: P 21 21 21
;
_chemical_formula_sum "Si O2"
_cell_formula_units_Z 32
_cell_length_a 12.816716
_cell_length_b 8.795070
_cell_length_c 10.539191
_cell_angle_alpha 90.000000
_cell_angle_beta 90.000000
_cell_angle_gamma 90.000000
_cell_volume 1188.018864
_symmetry_space_group_name_H-M "P 21 21 21"
_symmetry_group_IT_number 19
_symmetry_cell_setting 'orthorhombic'
loop_
_space_group_symop_operation_xyz
x,y,z
1/2-x,-y,1/2+z
1/2+x,1/2-y,-z
-x,1/2+y,1/2-z
loop_
_atom_site_type_symbol
_atom_site_label
_atom_site_fract_x
_atom_site_fract_y
_atom_site_fract_z
Si Si1 0.538997 0.625216 0.375996
Si Si2 0.413715 0.676673 0.148569
Si Si3 0.592186 0.688436 0.725616
Si Si4 0.446183 0.374660 0.516212
Si Si5 0.086919 0.107368 0.006864
Si Si6 0.144369 0.378143 0.148691
Si Si7 0.373286 0.486356 0.906561
Si Si8 0.202797 0.028822 0.764159
O O1 0.454534 0.578495 0.267135
O O2 0.538084 0.495283 0.482702
O O3 0.492601 0.783444 0.424748
O O4 0.649345 0.610210 0.309148
O O5 0.342283 0.813646 0.200835
O O6 0.519081 0.751151 0.087512
O O7 0.360665 0.575417 0.039323
O O8 0.568448 0.788040 0.851401
O O9 0.478714 0.641277 0.680651
O O10 0.646313 0.808623 0.625840
O O11 0.674507 0.553746 0.741429
O O12 0.352104 0.496501 0.535647
O O13 0.158875 0.021463 0.907080
O O14 0.162457 0.218201 0.084151
O O15 0.002434 0.019293 0.092183
O O16 0.182068 0.427424 0.287840
#
# Coordination Sequence:
#
# PCOD9313433 Si02
#       8
#     4   4   4   4   4   4   4   4
#     4   9  18  34  56  77 107 149 188 220 265 340
#     4  10  18  34  55  79 106 151 186 219 270 344
#     4  10  20  35  56  84 113 138 183 240 281 315
#     4   9  18  34  56  80 105 146 189 219 268 337
#     4   9  18  34  56  80 105 146 189 219 268 337
#     4   9  18  34  56  77 107 149 188 220 265 340
#     4  10  18  34  55  79 106 151 186 219 270 344
#     4  10  20  35  56  84 113 138 183 240 281 315
#
# _framework density 26.935597000000001
#
# number of rings (size 3 to 8) (size 9 to 14) (size 15 to 20)
#    0.000    2.500    2.500    0.000    0.000    0.000 
#    9.000   10.000    0.000    1.500    0.000    0.000 
#    0.000    0.000    0.000    0.000    0.000    0.000 
#
# Total GULP energy -178295.633236 kJ/mol
# GULP energy per Si atom -5571.738539 kJ/mol
# Density = 2.687429 g / cm^3
# Si number density = 26.935597 Si / 1000 Ang^3
#
#
#
# Elastic Constant Matrix: (Units=GPa)
#
#
# Indices 1 2 3 4 5 6 
#
# 1 76.6004 4.2937 14.5748 0.0000 0.0000 0.0000
# 2 4.2937 60.8395 10.4302 0.0000 0.0000 0.0000
# 3 14.5748 10.4302 103.8522 0.0000 0.0000 0.0000
# 4 0.0000 0.0000 0.0000 39.0375 0.0000 0.0000
# 5 0.0000 0.0000 0.0000 0.0000 12.5402 0.0000
# 6 0.0000 0.0000 0.0000 0.0000 0.0000 14.7389
#
#
#
# Elastic Compliance Matrix: (Units=1/GPa)
#
#
# Indices 1 2 3 4 5 6 
#
# 1 0.013437 -0.000636 -0.001822 0.000000 0.000000 0.000000
# 2 -0.000636 0.016755 -0.001593 0.000000 0.000000 0.000000
# 3 -0.001822 -0.001593 0.010045 0.000000 0.000000 0.000000
# 4 0.000000 0.000000 0.000000 0.025616 0.000000 0.000000
# 5 0.000000 0.000000 0.000000 0.000000 0.079744 0.000000
# 6 0.000000 0.000000 0.000000 0.000000 0.000000 0.067848
#
#
# Mechanical properties :
#
#
# Convention : Reuss Voigt Hill
#
# Bulk Modulus (GPa) = 31.11980 33.32107 32.22043
# Shear Modulus (GPa) = 21.52773 27.39620 24.46197
#
# Velocity S-wave (km/s) = 2.83013 3.19266 3.01685
# Velocity P-wave (km/s) = 4.71784 5.09787 4.91153
#
# Compressibility (1/GPa) = 0.03213389
#
# Stress axis : x y z
#
# Youngs Moduli (GPa) = 74.42104 59.68459 99.55405
#
# Poissons Ratio (x) = 0.03796 0.18138
# Poissons Ratio (y) = 0.04733 0.15864
# Poissons Ratio (z) = 0.13559 0.09511
#
# Static dielectric constant tensor:
#      x y z
#    x 2.070160 0.000000 0.000000 
#    y 0.000000 2.193670 0.000000 
#    z 0.000000 0.000000 2.247740 
# 
# From -- ./inp_files/5301.got.cif
#   From: 2010.05.17/outbox.cif.g08.bks.cpg/sg19_3_cif.got.tgz:5301.got - 2010.06.03 22:46:19.
