data_PCOD9313373
_publ_section_title
;
Structure prediction by ZEFSAII (Michael W. Deem and Ramdas Pophale) SiO2 
 PCOD9313373
Probable space group: P 21 21 21
;
_chemical_formula_sum "Si O2"
_cell_formula_units_Z 28
_cell_length_a 5.622607
_cell_length_b 15.550178
_cell_length_c 11.345845
_cell_angle_alpha 90.000000
_cell_angle_beta 90.000000
_cell_angle_gamma 90.000000
_cell_volume 991.996043
_symmetry_space_group_name_H-M "P 21 21 21"
_symmetry_group_IT_number 19
_symmetry_cell_setting 'orthorhombic'
loop_
_space_group_symop_operation_xyz
x,y,z
1/2-x,-y,1/2+z
1/2+x,1/2-y,-z
-x,1/2+y,1/2-z
loop_
_atom_site_type_symbol
_atom_site_label
_atom_site_fract_x
_atom_site_fract_y
_atom_site_fract_z
Si Si1 0.848628 0.073738 0.409386
Si Si2 0.179147 0.766169 0.090698
Si Si3 0.594013 0.952829 0.639299
Si Si4 0.552938 0.307486 0.180293
Si Si5 0.648541 0.579772 0.090503
Si Si6 0.592619 0.618579 0.369394
Si Si7 0.446652 0.634299 0.730656
O O1 0.829094 0.170536 0.456426
O O2 0.862781 0.090316 0.269521
O O3 0.596614 0.032821 0.443373
O O4 0.103404 0.034190 0.434173
O O5 0.394622 0.785367 0.181245
O O6 0.962372 0.784609 0.180922
O O7 0.167903 0.835402 0.988458
O O8 0.360201 0.905423 0.588138
O O9 0.860777 0.936111 0.591364
O O10 0.533176 0.049631 0.687111
O O11 0.487421 0.218046 0.116981
O O12 0.313516 0.364090 0.173797
O O13 0.812032 0.350948 0.153837
O O14 0.625359 0.598607 0.228614
#
# Coordination Sequence:
#
# PCOD9313373 Si02
#       7
#     4   4   4   4   4   4   4
#     4  10  19  28  43  61  84 120 148 177 205 248
#     4  10  20  27  42  63  90 116 149 173 215 249
#     4  10  18  31  44  59  85 120 158 177 218 248
#     4  10  19  31  41  65  85 116 150 179 219 245
#     4  10  18  26  42  61  86 114 149 178 198 251
#     4  10  18  32  45  64  85 123 149 186 206 258
#     4  10  20  29  43  61  87 121 147 186 215 255
#
# _framework density 28.225919000000001
#
# number of rings (size 3 to 8) (size 9 to 14) (size 15 to 20)
#    0.857    1.143    2.857    4.286    2.000    0.000 
#    0.000    0.000    0.000    0.000    0.000    0.000 
#    0.000    0.000    0.000  174.857    0.000    0.000 
#
# Total GULP energy -156366.578026 kJ/mol
# GULP energy per Si atom -5584.520644 kJ/mol
# Density = 2.816168 g / cm^3
# Si number density = 28.225919 Si / 1000 Ang^3
#
#
#
# Elastic Constant Matrix: (Units=GPa)
#
#
# Indices 1 2 3 4 5 6 
#
# 1 348.6589 82.8789 32.6608 0.0000 0.0000 0.0000
# 2 82.8789 127.0678 18.6792 0.0000 0.0000 0.0000
# 3 32.6608 18.6792 50.2035 0.0000 0.0000 0.0000
# 4 0.0000 0.0000 0.0000 33.3887 0.0000 0.0000
# 5 0.0000 0.0000 0.0000 0.0000 43.7198 0.0000
# 6 0.0000 0.0000 0.0000 0.0000 0.0000 36.4725
#
#
#
# Elastic Compliance Matrix: (Units=1/GPa)
#
#
# Indices 1 2 3 4 5 6 
#
# 1 0.003499 -0.002060 -0.001510 0.000000 0.000000 0.000000
# 2 -0.002060 0.009538 -0.002208 0.000000 0.000000 0.000000
# 3 -0.001510 -0.002208 0.021723 0.000000 0.000000 0.000000
# 4 0.000000 0.000000 0.000000 0.029950 0.000000 0.000000
# 5 0.000000 0.000000 0.000000 0.000000 0.022873 0.000000
# 6 0.000000 0.000000 0.000000 0.000000 0.000000 0.027418
#
#
# Mechanical properties :
#
#
# Convention : Reuss Voigt Hill
#
# Bulk Modulus (GPa) = 43.09799 88.26310 65.68055
# Shear Modulus (GPa) = 37.23179 48.83030 43.03105
#
# Velocity S-wave (km/s) = 3.63583 4.16382 3.90875
# Velocity P-wave (km/s) = 5.73827 7.37934 6.60993
#
# Compressibility (1/GPa) = 0.02320294
#
# Stress axis : x y z
#
# Youngs Moduli (GPa) = 285.76612 104.83959 46.03429
#
# Poissons Ratio (x) = 0.21602 0.06951
# Poissons Ratio (y) = 0.58881 0.10167
# Poissons Ratio (z) = 0.43149 0.23154
#
# Static dielectric constant tensor:
#      x y z
#    x 2.316150 0.000000 0.000000 
#    y 0.000000 2.190120 0.000000 
#    z 0.000000 0.000000 2.222800 
# 
# From -- ./inp_files/6961.got.cif
#   From: 2010.05.17/outbox.cif.g08.bks.cpg/sg19_4_cif.got.tgz:6961.got - 2010.06.03 22:46:19.
