data_PCOD9313042
_publ_section_title
;
Structure prediction by ZEFSAII (Michael W. Deem and Ramdas Pophale) SiO2 
 PCOD9313042
Probable space group: P 21 21 2
;
_chemical_formula_sum "Si O2"
_cell_formula_units_Z 20
_cell_length_a 8.115593
_cell_length_b 12.006164
_cell_length_c 8.975153
_cell_angle_alpha 90.000000
_cell_angle_beta 90.000000
_cell_angle_gamma 90.000000
_cell_volume 874.513244
_symmetry_space_group_name_H-M "P 21 21 2"
_symmetry_group_IT_number 18
_symmetry_cell_setting 'orthorhombic'
loop_
_space_group_symop_operation_xyz
x,y,z
-x,-y,z
1/2+x,1/2-y,-z
1/2-x,1/2+y,-z
loop_
_atom_site_type_symbol
_atom_site_label
_atom_site_fract_x
_atom_site_fract_y
_atom_site_fract_z
Si Si1 0.668453 0.385375 0.064823
Si Si2 0.510167 0.380291 0.383024
Si Si3 0.895071 0.192231 0.158142
Si Si4 0.191022 0.512188 0.793327
Si Si5 0.181786 0.239212 0.358841
O O1 0.608761 0.406774 0.231241
O O2 0.767356 0.270329 0.074739
O O3 0.508227 0.367370 0.963994
O O4 0.780649 0.470142 0.971401
O O5 0.500000 0.500000 0.463207
O O6 0.329589 0.327563 0.355831
O O7 0.615844 0.292261 0.477915
O O8 0.017708 0.263836 0.262126
O O9 0.797330 0.096473 0.246654
O O10 0.252175 0.624073 0.713611
O O11 0.000000 0.500000 0.760298
#
# Coordination Sequence:
#
# PCOD9313042 Si02
#       5
#     4   4   4   4   4
#     4  11  22  37  63  94 130 165 214 277 326 380
#     4  12  25  43  65  95 130 169 218 280 332 382
#     4  11  21  41  63  93 130 174 221 267 325 399
#     4  11  23  41  68  96 128 177 223 265 329 401
#     4  11  25  44  65  90 129 177 220 267 330 404
#
# _framework density 22.869865000000001
#
# number of rings (size 3 to 8) (size 9 to 14) (size 15 to 20)
#    0.000    0.800    0.000   10.800    0.000    3.200 
#    0.000    3.000    0.000    0.000    0.000    0.000 
#    0.000    0.000    0.000    0.000    0.000    0.000 
#
# Total GULP energy -111900.794434 kJ/mol
# GULP energy per Si atom -5595.039722 kJ/mol
# Density = 2.281781 g / cm^3
# Si number density = 22.869865 Si / 1000 Ang^3
#
#
#
# Elastic Constant Matrix: (Units=GPa)
#
#
# Indices 1 2 3 4 5 6 
#
# 1 128.3433 47.9018 5.1618 0.0000 0.0000 0.0000
# 2 47.9018 81.7768 -11.7074 0.0000 0.0000 0.0000
# 3 5.1618 -11.7074 73.4713 0.0000 0.0000 0.0000
# 4 0.0000 0.0000 0.0000 23.8166 0.0000 0.0000
# 5 0.0000 0.0000 0.0000 0.0000 15.7176 0.0000
# 6 0.0000 0.0000 0.0000 0.0000 0.0000 50.9519
#
#
#
# Elastic Compliance Matrix: (Units=1/GPa)
#
#
# Indices 1 2 3 4 5 6 
#
# 1 0.010176 -0.006205 -0.001704 0.000000 0.000000 0.000000
# 2 -0.006205 0.016297 0.003033 0.000000 0.000000 0.000000
# 3 -0.001704 0.003033 0.014214 0.000000 0.000000 0.000000
# 4 0.000000 0.000000 0.000000 0.041988 0.000000 0.000000
# 5 0.000000 0.000000 0.000000 0.000000 0.063623 0.000000
# 6 0.000000 0.000000 0.000000 0.000000 0.000000 0.019626
#
#
# Mechanical properties :
#
#
# Convention : Reuss Voigt Hill
#
# Bulk Modulus (GPa) = 32.32496 40.70041 36.51268
# Shear Modulus (GPa) = 26.88374 34.24623 30.56498
#
# Velocity S-wave (km/s) = 3.43229 3.87387 3.65975
# Velocity P-wave (km/s) = 5.46557 6.15178 5.81880
#
# Compressibility (1/GPa) = 0.03093585
#
# Stress axis : x y z
#
# Youngs Moduli (GPa) = 98.27199 61.36116 70.35462
#
# Poissons Ratio (x) = 0.38072 0.11985
# Poissons Ratio (y) = 0.60973 -0.21337
# Poissons Ratio (z) = 0.16741 -0.18609
#
# Static dielectric constant tensor:
#      x y z
#    x 1.906390 0.000000 0.000000 
#    y 0.000000 1.864490 0.000000 
#    z 0.000000 0.000000 1.906980 
# 
# From -- ./inp_files/2966.got.cif
#   From: 2010.05.17/outbox.cif.g08.bks.cpg/sg18_2_cif.got.tgz:2966.got - 2010.06.03 22:40:56.
