data_PCOD9313731
_publ_section_title
;
Structure prediction by ZEFSAII (Michael W. Deem and Ramdas Pophale) SiO2 
 PCOD9313731
Probable space group: P 21 21 21
;
_chemical_formula_sum "Si O2"
_cell_formula_units_Z 24
_cell_length_a 12.282648
_cell_length_b 11.772624
_cell_length_c 7.733469
_cell_angle_alpha 90.000000
_cell_angle_beta 90.000000
_cell_angle_gamma 90.000000
_cell_volume 1118.251858
_symmetry_space_group_name_H-M "P 21 21 21"
_symmetry_group_IT_number 19
_symmetry_cell_setting 'orthorhombic'
loop_
_space_group_symop_operation_xyz
x,y,z
1/2-x,-y,1/2+z
1/2+x,1/2-y,-z
-x,1/2+y,1/2-z
loop_
_atom_site_type_symbol
_atom_site_label
_atom_site_fract_x
_atom_site_fract_y
_atom_site_fract_z
Si Si1 0.595126 0.598112 0.458514
Si Si2 0.552900 0.810248 0.673240
Si Si3 0.000033 0.142919 0.536632
Si Si4 0.163263 0.578694 0.654452
Si Si5 0.112962 0.329262 0.731130
Si Si6 0.190436 0.224847 0.080394
O O1 0.577819 0.680025 0.622927
O O2 0.575054 0.467053 0.491766
O O3 0.499830 0.633228 0.324956
O O4 0.713080 0.635239 0.391503
O O5 0.612495 0.888298 0.531910
O O6 0.423333 0.820812 0.647072
O O7 0.574930 0.838566 0.870303
O O8 0.076479 0.250337 0.574194
O O9 0.923390 0.120939 0.702438
O O10 0.174183 0.444421 0.679265
O O11 0.271243 0.655716 0.665101
O O12 0.174659 0.255684 0.876902
#
# Coordination Sequence:
#
# PCOD9313731 Si02
#       6
#     4   4   4   4   4   4
#     4   9  21  41  61  88 131 162 212 274 312 382
#     4  10  22  40  63  90 128 164 214 267 322 384
#     4  11  21  40  64  90 123 178 207 257 341 373
#     4  10  22  44  62  90 136 166 210 287 310 383
#     4  10  21  40  66  90 128 171 216 266 333 375
#     4  10  19  43  62  90 130 167 211 275 316 383
#
# _framework density 21.462071000000002
#
# number of rings (size 3 to 8) (size 9 to 14) (size 15 to 20)
#    0.000    2.000    5.000    0.000    2.333    2.667 
#   21.000    0.000    0.000    0.000    0.000    0.000 
#    0.000    0.000    0.000    0.000    0.000    0.000 
#
# Total GULP energy -134080.855059 kJ/mol
# GULP energy per Si atom -5586.702294 kJ/mol
# Density = 2.141322 g / cm^3
# Si number density = 21.462071 Si / 1000 Ang^3
#
#
#
# Elastic Constant Matrix: (Units=GPa)
#
#
# Indices 1 2 3 4 5 6 
#
# 1 77.9607 -8.0965 -8.1734 0.0000 0.0000 0.0000
# 2 -8.0965 78.2927 26.7314 0.0000 0.0000 0.0000
# 3 -8.1734 26.7314 91.5242 0.0000 0.0000 0.0000
# 4 0.0000 0.0000 0.0000 12.9273 0.0000 0.0000
# 5 0.0000 0.0000 0.0000 0.0000 8.4357 0.0000
# 6 0.0000 0.0000 0.0000 0.0000 0.0000 10.7846
#
#
#
# Elastic Compliance Matrix: (Units=1/GPa)
#
#
# Indices 1 2 3 4 5 6 
#
# 1 0.013026 0.001055 0.000855 0.000000 0.000000 0.000000
# 2 0.001055 0.014273 -0.004074 0.000000 0.000000 0.000000
# 3 0.000855 -0.004074 0.012192 0.000000 0.000000 0.000000
# 4 0.000000 0.000000 0.000000 0.077355 0.000000 0.000000
# 5 0.000000 0.000000 0.000000 0.000000 0.118543 0.000000
# 6 0.000000 0.000000 0.000000 0.000000 0.000000 0.092725
#
#
# Mechanical properties :
#
#
# Convention : Reuss Voigt Hill
#
# Bulk Modulus (GPa) = 28.43892 29.85563 29.14727
# Shear Modulus (GPa) = 14.52795 22.25062 18.38928
#
# Velocity S-wave (km/s) = 2.60458 3.22334 2.93034
# Velocity P-wave (km/s) = 4.72490 5.27203 5.00594
#
# Compressibility (1/GPa) = 0.03516308
#
# Stress axis : x y z
#
# Youngs Moduli (GPa) = 76.76838 70.06324 82.01802
#
# Poissons Ratio (x) = -0.07393 -0.07013
# Poissons Ratio (y) = -0.08100 0.33418
# Poissons Ratio (z) = -0.06565 0.28547
#
# Static dielectric constant tensor:
#      x y z
#    x 1.806220 0.000000 0.000000 
#    y 0.000000 1.764350 0.000000 
#    z 0.000000 0.000000 1.798570 
# 
# From -- ./inp_files/3387.got.cif
#   From: 2010.05.17/outbox.cif.g08.bks.cpg/sg19_2_cif.got.tgz:3387.got - 2010.06.03 22:46:19.
