data_PCOD9313447
_publ_section_title
;
Structure prediction by ZEFSAII (Michael W. Deem and Ramdas Pophale) SiO2 
 PCOD9313447
Probable space group: P 21 21 21
;
_chemical_formula_sum "Si O2"
_cell_formula_units_Z 32
_cell_length_a 7.991810
_cell_length_b 14.717095
_cell_length_c 10.501184
_cell_angle_alpha 90.000000
_cell_angle_beta 90.000000
_cell_angle_gamma 90.000000
_cell_volume 1235.109641
_symmetry_space_group_name_H-M "P 21 21 21"
_symmetry_group_IT_number 19
_symmetry_cell_setting 'orthorhombic'
loop_
_space_group_symop_operation_xyz
x,y,z
1/2-x,-y,1/2+z
1/2+x,1/2-y,-z
-x,1/2+y,1/2-z
loop_
_atom_site_type_symbol
_atom_site_label
_atom_site_fract_x
_atom_site_fract_y
_atom_site_fract_z
Si Si1 0.063324 0.687580 0.020229
Si Si2 0.758327 0.343034 0.356860
Si Si3 0.834549 0.781157 0.650262
Si Si4 0.311989 0.621812 0.826548
Si Si5 0.066467 0.495717 0.110872
Si Si6 0.614307 0.033082 0.284499
Si Si7 0.323148 0.044641 0.119473
Si Si8 0.229819 0.761414 0.618933
O O1 0.244739 0.663232 0.959150
O O2 0.919148 0.690503 0.914873
O O3 0.090506 0.786180 0.082033
O O4 0.014076 0.601870 0.109112
O O5 0.748079 0.307436 0.213178
O O6 0.763516 0.448135 0.390338
O O7 0.810438 0.871652 0.734289
O O8 0.765093 0.791541 0.509876
O O9 0.032022 0.765655 0.640912
O O10 0.444753 0.556906 0.747007
O O11 0.154872 0.551818 0.806810
O O12 0.308126 0.708275 0.734585
O O13 0.272148 0.501205 0.096102
O O14 0.961301 0.451360 0.996001
O O15 0.417464 0.045566 0.258453
O O16 0.212971 0.134289 0.107732
#
# Coordination Sequence:
#
# PCOD9313447 Si02
#       8
#     4   4   4   4   4   4   4   4
#     4  11  21  38  65  93 121 165 210 259 318 368
#     4  11  21  44  62  89 127 169 207 259 313 383
#     4  11  22  42  65  92 124 164 214 259 323 377
#     4  10  18  35  61  92 114 156 214 254 300 367
#     4   9  16  34  61  89 113 160 210 254 293 375
#     4   9  17  32  63  84 112 157 203 255 291 367
#     4  10  20  38  57  86 130 162 199 259 322 368
#     4  11  23  39  64  91 125 167 205 265 320 375
#
# _framework density 25.908628
#
# number of rings (size 3 to 8) (size 9 to 14) (size 15 to 20)
#    0.750    1.000    5.000    1.500    0.000    0.000 
#    6.750    2.500    0.000    0.000    0.000    0.000 
#    0.000    0.000    0.000    0.000    0.000    0.000 
#
# Total GULP energy -178371.640384 kJ/mol
# GULP energy per Si atom -5574.113762 kJ/mol
# Density = 2.584966 g / cm^3
# Si number density = 25.908628 Si / 1000 Ang^3
#
#
#
# Elastic Constant Matrix: (Units=GPa)
#
#
# Indices 1 2 3 4 5 6 
#
# 1 80.0042 13.4228 32.4393 0.0000 0.0000 0.0000
# 2 13.4228 164.8156 36.9196 0.0000 0.0000 0.0000
# 3 32.4393 36.9196 76.2821 0.0000 0.0000 0.0000
# 4 0.0000 0.0000 0.0000 36.9389 0.0000 0.0000
# 5 0.0000 0.0000 0.0000 0.0000 30.0192 0.0000
# 6 0.0000 0.0000 0.0000 0.0000 0.0000 6.2260
#
#
#
# Elastic Compliance Matrix: (Units=1/GPa)
#
#
# Indices 1 2 3 4 5 6 
#
# 1 0.015112 0.000234 -0.006540 0.000000 0.000000 0.000000
# 2 0.000234 0.006809 -0.003395 0.000000 0.000000 0.000000
# 3 -0.006540 -0.003395 0.017533 0.000000 0.000000 0.000000
# 4 0.000000 0.000000 0.000000 0.027072 0.000000 0.000000
# 5 0.000000 0.000000 0.000000 0.000000 0.033312 0.000000
# 6 0.000000 0.000000 0.000000 0.000000 0.000000 0.160616
#
#
# Mechanical properties :
#
#
# Convention : Reuss Voigt Hill
#
# Bulk Modulus (GPa) = 49.86786 54.07394 51.97090
# Shear Modulus (GPa) = 17.44967 30.52484 23.98725
#
# Velocity S-wave (km/s) = 2.59802 3.43618 3.04606
# Velocity P-wave (km/s) = 5.31874 6.05470 5.69861
#
# Compressibility (1/GPa) = 0.02005300
#
# Stress axis : x y z
#
# Youngs Moduli (GPa) = 66.17395 146.86859 57.03406
#
# Poissons Ratio (x) = -0.03440 0.37298
# Poissons Ratio (y) = -0.01550 0.19363
# Poissons Ratio (z) = 0.43276 0.49862
#
# Static dielectric constant tensor:
#      x y z
#    x 2.137120 0.000000 0.000000 
#    y 0.000000 2.077180 0.000000 
#    z 0.000000 0.000000 2.064520 
# 
# From -- ./inp_files/4743.got.cif
#   From: 2010.05.17/outbox.cif.g08.bks.cpg/sg19_3_cif.got.tgz:4743.got - 2010.06.03 22:46:19.
