data_PCOD9313149
_publ_section_title
;
Structure prediction by ZEFSAII (Michael W. Deem and Ramdas Pophale) SiO2 
 PCOD9313149
Probable space group: P 21 21 2
;
_chemical_formula_sum "Si O2"
_cell_formula_units_Z 18
_cell_length_a 11.493386
_cell_length_b 6.300863
_cell_length_c 10.077406
_cell_angle_alpha 90.000000
_cell_angle_beta 90.000000
_cell_angle_gamma 90.000000
_cell_volume 729.788113
_symmetry_space_group_name_H-M "P 21 21 2"
_symmetry_group_IT_number 18
_symmetry_cell_setting 'orthorhombic'
loop_
_space_group_symop_operation_xyz
x,y,z
-x,-y,z
1/2+x,1/2-y,-z
1/2-x,1/2+y,-z
loop_
_atom_site_type_symbol
_atom_site_label
_atom_site_fract_x
_atom_site_fract_y
_atom_site_fract_z
Si Si1 0.801737 0.390086 0.328596
Si Si2 0.614979 0.119105 0.938059
Si Si3 0.500000 0.000000 0.464970
Si Si4 0.412715 0.345110 0.275251
Si Si5 0.728460 0.490918 0.829532
O O1 0.849907 0.477937 0.188478
O O2 0.889155 0.467487 0.440883
O O3 0.678540 0.503141 0.350310
O O4 0.792112 0.139713 0.297677
O O5 0.617147 0.357443 0.879057
O O6 0.500000 0.000000 0.990201
O O7 0.713721 0.122006 0.050916
O O8 0.507502 0.796542 0.370275
O O9 0.500000 0.500000 0.195389
O O10 0.328183 0.182409 0.201917
#
# Coordination Sequence:
#
# PCOD9313149 Si02
#       5
#     4   4   2   4   4
#     4  11  26  49  73 111 146 202 258 318 390 459
#     4  11  24  44  73 110 153 200 248 316 388 459
#     4  12  28  50  76 106 150 206 254 328 388 454
#     4  11  28  46  76 107 149 202 255 323 379 463
#     4  11  25  47  75 113 153 199 259 315 386 466
#
# _framework density 24.664694999999998
#
# number of rings (size 3 to 8) (size 9 to 14) (size 15 to 20)
#    0.000    0.889    3.333    1.333   10.889    2.667 
#    0.000    0.000    0.000    0.000    0.000    0.000 
#    0.000    0.000    0.000    0.000    0.000    0.000 
#
# Total GULP energy -100633.753548 kJ/mol
# GULP energy per Si atom -5590.764086 kJ/mol
# Density = 2.460856 g / cm^3
# Si number density = 24.664695 Si / 1000 Ang^3
#
#
#
# Elastic Constant Matrix: (Units=GPa)
#
#
# Indices 1 2 3 4 5 6 
#
# 1 100.8164 74.7221 21.6564 0.0000 0.0000 0.0000
# 2 74.7221 135.7902 26.1040 0.0000 0.0000 0.0000
# 3 21.6564 26.1040 60.0070 0.0000 0.0000 0.0000
# 4 0.0000 0.0000 0.0000 3.9716 0.0000 0.0000
# 5 0.0000 0.0000 0.0000 0.0000 43.1253 0.0000
# 6 0.0000 0.0000 0.0000 0.0000 0.0000 47.1038
#
#
#
# Elastic Compliance Matrix: (Units=1/GPa)
#
#
# Indices 1 2 3 4 5 6 
#
# 1 0.017027 -0.008935 -0.002258 0.000000 0.000000 0.000000
# 2 -0.008935 0.012725 -0.002311 0.000000 0.000000 0.000000
# 3 -0.002258 -0.002311 0.018485 0.000000 0.000000 0.000000
# 4 0.000000 0.000000 0.000000 0.251790 0.000000 0.000000
# 5 0.000000 0.000000 0.000000 0.000000 0.023188 0.000000
# 6 0.000000 0.000000 0.000000 0.000000 0.000000 0.021230
#
#
# Mechanical properties :
#
#
# Convention : Reuss Voigt Hill
#
# Bulk Modulus (GPa) = 47.10633 60.17540 53.64087
# Shear Modulus (GPa) = 13.20899 30.44887 21.82893
#
# Velocity S-wave (km/s) = 2.31669 3.51737 2.97817
# Velocity P-wave (km/s) = 5.12798 6.39893 5.79838
#
# Compressibility (1/GPa) = 0.02122857
#
# Stress axis : x y z
#
# Youngs Moduli (GPa) = 58.73159 78.58262 54.09814
#
# Poissons Ratio (x) = 0.70216 0.12215
# Poissons Ratio (y) = 0.52478 0.12502
# Poissons Ratio (z) = 0.13261 0.18161
#
# Static dielectric constant tensor:
#      x y z
#    x 2.005740 0.000000 0.000000 
#    y 0.000000 2.013700 0.000000 
#    z 0.000000 0.000000 1.904760 
# 
# From -- ./inp_files/5807.got.cif
#   From: 2010.05.17/outbox.cif.g08.bks.cpg/sg18_3_cif.got.tgz:5807.got - 2010.06.03 22:40:56.
