data_PCOD9313116
_publ_section_title
;
Structure prediction by ZEFSAII (Michael W. Deem and Ramdas Pophale) SiO2 
 PCOD9313116
Probable space group: P 21 21 2
;
_chemical_formula_sum "Si O2"
_cell_formula_units_Z 32
_cell_length_a 12.687982
_cell_length_b 12.047550
_cell_length_c 9.027545
_cell_angle_alpha 90.000000
_cell_angle_beta 90.000000
_cell_angle_gamma 90.000000
_cell_volume 1379.942382
_symmetry_space_group_name_H-M "P 21 21 2"
_symmetry_group_IT_number 18
_symmetry_cell_setting 'orthorhombic'
loop_
_space_group_symop_operation_xyz
x,y,z
-x,-y,z
1/2+x,1/2-y,-z
1/2-x,1/2+y,-z
loop_
_atom_site_type_symbol
_atom_site_label
_atom_site_fract_x
_atom_site_fract_y
_atom_site_fract_z
Si Si1 0.907263 0.925579 0.806028
Si Si2 0.304081 0.152994 0.236831
Si Si3 0.192095 0.499517 0.288142
Si Si4 0.812126 0.584050 0.601221
Si Si5 0.615839 0.017441 0.022943
Si Si6 0.266536 0.755879 0.027441
Si Si7 0.368693 0.249886 0.694344
Si Si8 0.499986 0.249781 0.411190
O O1 0.812123 0.006554 0.764482
O O2 0.952164 0.861355 0.661588
O O3 0.850063 0.833669 0.907334
O O4 0.000000 0.000000 0.874283
O O5 0.232084 0.244475 0.153075
O O6 0.392950 0.219000 0.324593
O O7 0.289578 0.039465 0.332750
O O8 0.328031 0.092863 0.079167
O O9 0.174743 0.425457 0.426802
O O10 0.115169 0.479420 0.152809
O O11 0.173070 0.626566 0.337646
O O12 0.712152 0.659814 0.632980
O O13 0.919623 0.650971 0.635680
O O14 0.680393 0.125242 0.067700
O O15 0.500000 0.000000 0.085344
O O16 0.156256 0.758772 0.126479
O O17 0.472174 0.260183 0.587593
#
# Coordination Sequence:
#
# PCOD9313116 Si02
#       8
#     4   4   4   4   4   4   4   4
#     4  11  23  47  70  97 137 183 230 278 359 426
#     4  12  24  40  72 102 140 187 228 289 358 409
#     4  11  25  43  69 100 134 182 234 291 348 413
#     4  12  24  45  70 102 145 180 239 294 350 417
#     4  12  25  44  70 102 141 185 234 293 352 425
#     4  11  25  47  68 106 142 183 238 292 358 429
#     4  11  23  44  66 102 138 180 231 298 340 416
#     4  12  25  43  74 104 134 189 242 282 352 426
#
# _framework density 23.189375999999999
#
# number of rings (size 3 to 8) (size 9 to 14) (size 15 to 20)
#    0.000    0.500    7.500    2.625    5.250    0.000 
#    0.000    0.000    0.000    0.750    0.000    0.000 
#    0.000    0.000    0.000    0.000    0.000    0.000 
#
# Total GULP energy -178246.477395 kJ/mol
# GULP energy per Si atom -5570.202419 kJ/mol
# Density = 2.313660 g / cm^3
# Si number density = 23.189376 Si / 1000 Ang^3
#
#
#
# Elastic Constant Matrix: (Units=GPa)
#
#
# Indices 1 2 3 4 5 6 
#
# 1 59.2189 13.4675 5.1370 0.0000 0.0000 0.0000
# 2 13.4675 55.7645 13.7837 0.0000 0.0000 0.0000
# 3 5.1370 13.7837 105.3082 0.0000 0.0000 0.0000
# 4 0.0000 0.0000 0.0000 -47.4548 0.0000 0.0000
# 5 0.0000 0.0000 0.0000 0.0000 -1.1991 0.0000
# 6 0.0000 0.0000 0.0000 0.0000 0.0000 -9.4989
#
#
#
# Elastic Compliance Matrix: (Units=1/GPa)
#
#
# Indices 1 2 3 4 5 6 
#
# 1 0.017878 -0.004239 -0.000317 0.000000 0.000000 0.000000
# 2 -0.004239 0.019537 -0.002350 0.000000 0.000000 0.000000
# 3 -0.000317 -0.002350 0.009819 0.000000 0.000000 0.000000
# 4 0.000000 0.000000 0.000000 -0.021073 0.000000 0.000000
# 5 0.000000 0.000000 0.000000 0.000000 -0.833941 0.000000
# 6 0.000000 0.000000 0.000000 0.000000 0.000000 -0.105275
#
#
# Mechanical properties :
#
#
# Convention : Reuss Voigt Hill
#
# Bulk Modulus (GPa) = 29.92160 31.67420 30.79790
# Shear Modulus (GPa) = -5.63000 0.89633 -2.36684
#
# Velocity S-wave (km/s) = -1.55984 0.62239 -1.01137
# Velocity P-wave (km/s) = 3.11240 3.76896 3.45630
#
# Compressibility (1/GPa) = 0.03342067
#
# Stress axis : x y z
#
# Youngs Moduli (GPa) = 55.93431 51.18403 101.84280
#
# Poissons Ratio (x) = 0.21698 0.03231
# Poissons Ratio (y) = 0.23712 0.23937
# Poissons Ratio (z) = 0.01774 0.12030
#
# Static dielectric constant tensor:
#      x y z
#    x 3.487130 0.000000 0.000000 
#    y 0.000000 2.406250 0.000000 
#    z 0.000000 0.000000 2.171640 
# 
# From -- ./inp_files/4298.got.cif
#   From: 2010.05.17/outbox.cif.g08.bks.cpg/sg18_3_cif.got.tgz:4298.got - 2010.06.03 22:40:56.
