data_PCOD9313567
_publ_section_title
;
Structure prediction by ZEFSAII (Michael W. Deem and Ramdas Pophale) SiO2 
 PCOD9313567
Probable space group: P 21 21 21
;
_chemical_formula_sum "Si O2"
_cell_formula_units_Z 28
_cell_length_a 16.374744
_cell_length_b 5.149144
_cell_length_c 12.013891
_cell_angle_alpha 90.000000
_cell_angle_beta 90.000000
_cell_angle_gamma 90.000000
_cell_volume 1012.962210
_symmetry_space_group_name_H-M "P 21 21 21"
_symmetry_group_IT_number 19
_symmetry_cell_setting 'orthorhombic'
loop_
_space_group_symop_operation_xyz
x,y,z
1/2-x,-y,1/2+z
1/2+x,1/2-y,-z
-x,1/2+y,1/2-z
loop_
_atom_site_type_symbol
_atom_site_label
_atom_site_fract_x
_atom_site_fract_y
_atom_site_fract_z
Si Si1 0.961728 0.221347 0.028710
Si Si2 0.177816 0.664681 0.637582
Si Si3 0.290692 0.702859 0.305509
Si Si4 0.041882 0.070815 0.806663
Si Si5 0.249908 0.318718 0.474579
Si Si6 0.830253 0.463171 0.348434
Si Si7 0.092296 0.201417 0.345412
O O1 0.965673 0.485966 0.098164
O O2 0.935928 0.982555 0.109642
O O3 0.890364 0.287449 0.938313
O O4 0.028436 0.131810 0.938297
O O5 0.165768 0.558300 0.760442
O O6 0.190885 0.384345 0.577683
O O7 0.258826 0.828933 0.638539
O O8 0.360343 0.915632 0.290663
O O9 0.270081 0.603361 0.427425
O O10 0.205762 0.756523 0.241813
O O11 0.001051 0.305095 0.733555
O O12 0.327307 0.182560 0.532608
O O13 0.188035 0.181168 0.388363
O O14 0.901741 0.618928 0.285096
#
# Coordination Sequence:
#
# PCOD9313567 Si02
#       7
#     4   4   4   4   4   4   4
#     4  11  22  39  58  92 129 172 215 256 320 397
#     4  10  19  35  56  88 128 163 205 261 320 393
#     4  11  23  38  59  95 136 169 219 268 332 393
#     4  12  25  41  64  95 135 183 218 268 327 394
#     4  10  22  34  58  93 129 163 208 271 330 383
#     4  11  21  37  62  92 131 172 211 271 333 399
#     4  11  22  38  61  89 130 170 210 265 328 391
#
# _framework density 27.641705000000002
#
# number of rings (size 3 to 8) (size 9 to 14) (size 15 to 20)
#    0.000    1.143    4.286    3.429    4.000    0.000 
#    0.000    0.000    0.000    0.000    3.714    0.000 
#    0.000    0.000    0.000    0.000    0.000    0.000 
#
# Total GULP energy -156394.736497 kJ/mol
# GULP energy per Si atom -5585.526303 kJ/mol
# Density = 2.757879 g / cm^3
# Si number density = 27.641705 Si / 1000 Ang^3
#
#
#
# Elastic Constant Matrix: (Units=GPa)
#
#
# Indices 1 2 3 4 5 6 
#
# 1 81.2575 11.5875 20.1993 0.0000 0.0000 0.0000
# 2 11.5875 128.6847 27.0207 0.0000 0.0000 0.0000
# 3 20.1993 27.0207 57.7934 0.0000 0.0000 0.0000
# 4 0.0000 0.0000 0.0000 47.8843 0.0000 0.0000
# 5 0.0000 0.0000 0.0000 0.0000 37.2209 0.0000
# 6 0.0000 0.0000 0.0000 0.0000 0.0000 32.3086
#
#
#
# Elastic Compliance Matrix: (Units=1/GPa)
#
#
# Indices 1 2 3 4 5 6 
#
# 1 0.013485 -0.000249 -0.004597 0.000000 0.000000 0.000000
# 2 -0.000249 0.008621 -0.003944 0.000000 0.000000 0.000000
# 3 -0.004597 -0.003944 0.020753 0.000000 0.000000 0.000000
# 4 0.000000 0.000000 0.000000 0.020884 0.000000 0.000000
# 5 0.000000 0.000000 0.000000 0.000000 0.026867 0.000000
# 6 0.000000 0.000000 0.000000 0.000000 0.000000 0.030952
#
#
# Mechanical properties :
#
#
# Convention : Reuss Voigt Hill
#
# Bulk Modulus (GPa) = 39.55587 42.81672 41.18630
# Shear Modulus (GPa) = 33.88283 37.41129 35.64706
#
# Velocity S-wave (km/s) = 3.50492 3.68290 3.59501
# Velocity P-wave (km/s) = 5.54261 5.79729 5.67138
#
# Compressibility (1/GPa) = 0.02528070
#
# Stress axis : x y z
#
# Youngs Moduli (GPa) = 74.15800 115.98956 48.18471
#
# Poissons Ratio (x) = 0.02889 0.22149
# Poissons Ratio (y) = 0.01847 0.19003
# Poissons Ratio (z) = 0.34087 0.45744
#
# Static dielectric constant tensor:
#      x y z
#    x 2.270710 0.000000 0.000000 
#    y 0.000000 2.147110 0.000000 
#    z 0.000000 0.000000 2.452500 
# 
# From -- ./inp_files/1100.got.cif
#   From: 2010.05.17/outbox.cif.g08.bks.cpg/sg19_1_cif.got.tgz:1100.got - 2010.06.03 22:46:19.
