data_PCOD9313355
_publ_section_title
;
Structure prediction by ZEFSAII (Michael W. Deem and Ramdas Pophale) SiO2 
 PCOD9313355
Probable space group: P 21 21 21
;
_chemical_formula_sum "Si O2"
_cell_formula_units_Z 28
_cell_length_a 9.068493
_cell_length_b 9.900000
_cell_length_c 11.577892
_cell_angle_alpha 90.000000
_cell_angle_beta 90.000000
_cell_angle_gamma 90.000000
_cell_volume 1039.440922
_symmetry_space_group_name_H-M "P 21 21 21"
_symmetry_group_IT_number 19
_symmetry_cell_setting 'orthorhombic'
loop_
_space_group_symop_operation_xyz
x,y,z
1/2-x,-y,1/2+z
1/2+x,1/2-y,-z
-x,1/2+y,1/2-z
loop_
_atom_site_type_symbol
_atom_site_label
_atom_site_fract_x
_atom_site_fract_y
_atom_site_fract_z
Si Si1 0.431899 0.633469 0.125277
Si Si2 0.222655 0.389286 0.391365
Si Si3 0.758133 0.144823 0.859010
Si Si4 0.325094 0.231168 0.706526
Si Si5 0.526247 0.954542 0.958088
Si Si6 0.186111 0.983487 0.009396
Si Si7 0.564523 0.819632 0.562802
O O1 0.357199 0.490587 0.158683
O O2 0.597288 0.595561 0.092820
O O3 0.350160 0.733228 0.212550
O O4 0.359100 0.677286 0.001207
O O5 0.209382 0.316692 0.269086
O O6 0.393941 0.399918 0.426061
O O7 0.150187 0.539408 0.396109
O O8 0.617798 0.090331 0.929597
O O9 0.863378 0.228495 0.942641
O O10 0.417961 0.349591 0.640435
O O11 0.337407 0.099920 0.627927
O O12 0.392452 0.224581 0.832057
O O13 0.355899 0.979026 0.975991
O O14 0.097556 0.122212 0.034893
#
# Coordination Sequence:
#
# PCOD9313355 Si02
#       7
#     4   4   4   4   4   4   4
#     4   8  17  27  48  73  94 129 175 201 263 313
#     4   8  13  30  49  66  96 138 169 188 255 318
#     4   8  14  29  50  67  98 138 168 199 243 338
#     4  10  17  34  53  69 108 143 166 214 270 325
#     4   9  18  28  51  79 100 130 173 226 257 301
#     4  10  19  31  47  84 107 123 179 235 258 290
#     4   9  18  31  48  76  95 145 178 193 274 325
#
# _framework density 26.937556000000001
#
# number of rings (size 3 to 8) (size 9 to 14) (size 15 to 20)
#    0.000    4.000    2.857    0.857    0.000    0.000 
#    5.143    0.000    0.000    3.429    0.000    0.000 
#    0.000    0.000    0.000    0.000    0.000    0.000 
#
# Total GULP energy -156560.170593 kJ/mol
# GULP energy per Si atom -5591.434664 kJ/mol
# Density = 2.687625 g / cm^3
# Si number density = 26.937556 Si / 1000 Ang^3
#
#
#
# Elastic Constant Matrix: (Units=GPa)
#
#
# Indices 1 2 3 4 5 6 
#
# 1 232.4659 15.1252 35.7645 0.0000 0.0000 0.0000
# 2 15.1252 72.2818 0.2188 0.0000 0.0000 0.0000
# 3 35.7645 0.2188 111.5950 0.0000 0.0000 0.0000
# 4 0.0000 0.0000 0.0000 26.5285 0.0000 0.0000
# 5 0.0000 0.0000 0.0000 0.0000 24.8257 0.0000
# 6 0.0000 0.0000 0.0000 0.0000 0.0000 33.2670
#
#
#
# Elastic Compliance Matrix: (Units=1/GPa)
#
#
# Indices 1 2 3 4 5 6 
#
# 1 0.004590 -0.000956 -0.001469 0.000000 0.000000 0.000000
# 2 -0.000956 0.014034 0.000279 0.000000 0.000000 0.000000
# 3 -0.001469 0.000279 0.009431 0.000000 0.000000 0.000000
# 4 0.000000 0.000000 0.000000 0.037695 0.000000 0.000000
# 5 0.000000 0.000000 0.000000 0.000000 0.040281 0.000000
# 6 0.000000 0.000000 0.000000 0.000000 0.000000 0.030060
#
#
# Mechanical properties :
#
#
# Convention : Reuss Voigt Hill
#
# Bulk Modulus (GPa) = 42.08292 57.61773 49.85032
# Shear Modulus (GPa) = 33.71444 41.27320 37.49382
#
# Velocity S-wave (km/s) = 3.54160 3.91855 3.73484
# Velocity P-wave (km/s) = 5.69036 6.47373 6.09465
#
# Compressibility (1/GPa) = 0.02376261
#
# Stress axis : x y z
#
# Youngs Moduli (GPa) = 217.86817 71.25577 106.03035
#
# Poissons Ratio (x) = 0.06812 0.15577
# Poissons Ratio (y) = 0.20828 -0.02957
# Poissons Ratio (z) = 0.32008 -0.01987
#
# Static dielectric constant tensor:
#      x y z
#    x 2.175510 0.000000 0.000000 
#    y 0.000000 2.244360 0.000000 
#    z 0.000000 0.000000 2.098110 
# 
# From -- ./inp_files/5297.got.cif
#   From: 2010.05.17/outbox.cif.g08.bks.cpg/sg19_3_cif.got.tgz:5297.got - 2010.06.03 22:46:19.
