data_PCOD9313574
_publ_section_title
;
Structure prediction by ZEFSAII (Michael W. Deem and Ramdas Pophale) SiO2 
 PCOD9313574
Probable space group: P 21 21 21
;
_chemical_formula_sum "Si O2"
_cell_formula_units_Z 24
_cell_length_a 28.085601
_cell_length_b 5.300245
_cell_length_c 5.683045
_cell_angle_alpha 90.000000
_cell_angle_beta 90.000000
_cell_angle_gamma 90.000000
_cell_volume 845.981297
_symmetry_space_group_name_H-M "P 21 21 21"
_symmetry_group_IT_number 19
_symmetry_cell_setting 'orthorhombic'
loop_
_space_group_symop_operation_xyz
x,y,z
1/2-x,-y,1/2+z
1/2+x,1/2-y,-z
-x,1/2+y,1/2-z
loop_
_atom_site_type_symbol
_atom_site_label
_atom_site_fract_x
_atom_site_fract_y
_atom_site_fract_z
Si Si1 0.851078 0.941927 0.924908
Si Si2 0.562138 0.046253 0.170054
Si Si3 0.100582 0.954463 0.073322
Si Si4 0.312837 0.056033 0.828822
Si Si5 0.767545 0.884829 0.629474
Si Si6 0.481102 0.122915 0.874259
O O1 0.908029 0.924271 0.908410
O O2 0.823337 0.914804 0.676757
O O3 0.829177 0.707610 0.064908
O O4 0.834229 0.204718 0.031799
O O5 0.583551 0.276700 0.019063
O O6 0.505706 0.075535 0.126758
O O7 0.579566 0.775280 0.077429
O O8 0.157240 0.933079 0.088318
O O9 0.074292 0.919099 0.326125
O O10 0.256778 0.109766 0.838901
O O11 0.755172 0.979116 0.365330
O O12 0.494513 0.402339 0.784140
#
# Coordination Sequence:
#
# PCOD9313574 Si02
#       6
#     4   4   4   4   4   4
#     4  11  24  40  60  90 126 163 209 263 322 384
#     4  10  19  35  59  84 116 160 211 263 319 381
#     4  10  19  35  59  84 116 160 211 263 319 381
#     4  11  24  40  60  90 126 163 209 263 322 384
#     4  10  24  46  70  98 132 172 218 268 324 386
#     4   8  16  30  52  82 112 152 206 260 314 376
#
# _framework density 28.369423000000001
#
# number of rings (size 3 to 8) (size 9 to 14) (size 15 to 20)
#    0.000    2.000    0.000    3.000    0.000    9.333 
#    0.000    1.667    0.000    0.000    0.000    0.000 
#    0.000    0.000    0.000    0.000    0.000    0.833 
#
# Total GULP energy -134289.201457 kJ/mol
# GULP energy per Si atom -5595.383394 kJ/mol
# Density = 2.830485 g / cm^3
# Si number density = 28.369423 Si / 1000 Ang^3
#
#
#
# Elastic Constant Matrix: (Units=GPa)
#
#
# Indices 1 2 3 4 5 6 
#
# 1 96.7594 48.1952 33.8095 0.0000 0.0000 0.0000
# 2 48.1952 170.1244 76.9036 0.0000 0.0000 0.0000
# 3 33.8095 76.9036 88.3075 0.0000 0.0000 0.0000
# 4 0.0000 0.0000 0.0000 70.9096 0.0000 0.0000
# 5 0.0000 0.0000 0.0000 0.0000 53.8923 0.0000
# 6 0.0000 0.0000 0.0000 0.0000 0.0000 33.4597
#
#
#
# Elastic Compliance Matrix: (Units=1/GPa)
#
#
# Indices 1 2 3 4 5 6 
#
# 1 0.012437 -0.002261 -0.002793 0.000000 0.000000 0.000000
# 2 -0.002261 0.010105 -0.007935 0.000000 0.000000 0.000000
# 3 -0.002793 -0.007935 0.019303 0.000000 0.000000 0.000000
# 4 0.000000 0.000000 0.000000 0.014102 0.000000 0.000000
# 5 0.000000 0.000000 0.000000 0.000000 0.018556 0.000000
# 6 0.000000 0.000000 0.000000 0.000000 0.000000 0.029887
#
#
# Mechanical properties :
#
#
# Convention : Reuss Voigt Hill
#
# Bulk Modulus (GPa) = 63.01622 74.77864 68.89743
# Shear Modulus (GPa) = 36.85772 44.73785 40.79778
#
# Velocity S-wave (km/s) = 3.60836 3.97542 3.79633
# Velocity P-wave (km/s) = 6.29454 6.89116 6.59960
#
# Compressibility (1/GPa) = 0.01586893
#
# Stress axis : x y z
#
# Youngs Moduli (GPa) = 80.40622 98.95676 51.80429
#
# Poissons Ratio (x) = 0.22373 0.14467
# Poissons Ratio (y) = 0.18179 0.41106
# Poissons Ratio (z) = 0.22455 0.78520
#
# Static dielectric constant tensor:
#      x y z
#    x 2.229910 0.000000 0.000000 
#    y 0.000000 2.189550 0.000000 
#    z 0.000000 0.000000 2.293130 
# 
# From -- ./inp_files/228.got.cif
#   From: 2010.05.17/outbox.cif.g08.bks.cpg/sg19_1_cif.got.tgz:228.got - 2010.06.03 22:46:19.
