data_PCOD9313068
_publ_section_title
;
Structure prediction by ZEFSAII (Michael W. Deem and Ramdas Pophale) SiO2 
 PCOD9313068
Probable space group: P 21 21 2
;
_chemical_formula_sum "Si O2"
_cell_formula_units_Z 32
_cell_length_a 12.787953
_cell_length_b 17.658497
_cell_length_c 6.303691
_cell_angle_alpha 90.000000
_cell_angle_beta 90.000000
_cell_angle_gamma 90.000000
_cell_volume 1423.474474
_symmetry_space_group_name_H-M "P 21 21 2"
_symmetry_group_IT_number 18
_symmetry_cell_setting 'orthorhombic'
loop_
_space_group_symop_operation_xyz
x,y,z
-x,-y,z
1/2+x,1/2-y,-z
1/2-x,1/2+y,-z
loop_
_atom_site_type_symbol
_atom_site_label
_atom_site_fract_x
_atom_site_fract_y
_atom_site_fract_z
Si Si1 0.734511 0.398820 0.368781
Si Si2 0.614241 0.513464 0.639842
Si Si3 0.189442 0.745048 0.212946
Si Si4 0.619745 0.670146 0.398505
Si Si5 0.985127 0.283664 0.898502
Si Si6 0.184195 0.333535 0.110116
Si Si7 0.709461 0.003767 0.013391
Si Si8 0.062663 0.572143 0.648932
O O1 0.650194 0.437268 0.519481
O O2 0.725193 0.311651 0.308420
O O3 0.846759 0.403987 0.486929
O O4 0.740817 0.448496 0.158076
O O5 0.500000 0.500000 0.733398
O O6 0.609375 0.583325 0.472868
O O7 0.700919 0.526892 0.818723
O O8 0.115593 0.778551 0.392796
O O9 0.120274 0.703106 0.035477
O O10 0.247074 0.812486 0.095073
O O11 0.539499 0.705651 0.227423
O O12 0.737469 0.681561 0.304322
O O13 0.998121 0.353325 0.731839
O O14 0.079384 0.286484 0.067018
O O15 0.163433 0.422714 0.102761
O O16 0.620057 0.962775 0.146093
O O17 0.000000 0.500000 0.558692
#
# Coordination Sequence:
#
# PCOD9313068 Si02
#       8
#     4   4   4   4   4   4   4   4
#     4  11  24  43  67  98 135 178 216 283 339 396
#     4  11  26  45  69  97 129 185 238 277 334 408
#     4  11  24  44  65  98 142 175 225 280 338 406
#     4  11  24  47  65  99 143 174 234 286 334 414
#     4  11  24  42  68 100 133 179 223 273 351 409
#     4  11  24  42  70  97 133 185 220 280 342 402
#     4  11  22  44  65  97 137 170 223 280 338 398
#     4  11  22  38  67 103 135 165 219 272 336 419
#
# _framework density 22.480207
#
# number of rings (size 3 to 8) (size 9 to 14) (size 15 to 20)
#    0.000    1.000    6.250    0.000    1.750    3.000 
#    2.250    0.000    0.000    0.000    0.000    0.000 
#    0.000    0.000    0.000    0.000    0.000    0.000 
#
# Total GULP energy -178764.455784 kJ/mol
# GULP energy per Si atom -5586.389243 kJ/mol
# Density = 2.242904 g / cm^3
# Si number density = 22.480207 Si / 1000 Ang^3
#
#
#
# Elastic Constant Matrix: (Units=GPa)
#
#
# Indices 1 2 3 4 5 6 
#
# 1 48.4829 -25.8341 -7.7742 0.0000 0.0000 0.0000
# 2 -25.8341 30.7335 4.3240 0.0000 0.0000 0.0000
# 3 -7.7742 4.3240 38.0370 0.0000 0.0000 0.0000
# 4 0.0000 0.0000 0.0000 32.9222 0.0000 0.0000
# 5 0.0000 0.0000 0.0000 0.0000 10.6937 0.0000
# 6 0.0000 0.0000 0.0000 0.0000 0.0000 16.6353
#
#
#
# Elastic Compliance Matrix: (Units=1/GPa)
#
#
# Indices 1 2 3 4 5 6 
#
# 1 0.038009 0.031359 0.004204 0.000000 0.000000 0.000000
# 2 0.031359 0.058938 -0.000291 0.000000 0.000000 0.000000
# 3 0.004204 -0.000291 0.027182 0.000000 0.000000 0.000000
# 4 0.000000 0.000000 0.000000 0.030375 0.000000 0.000000
# 5 0.000000 0.000000 0.000000 0.000000 0.093513 0.000000
# 6 0.000000 0.000000 0.000000 0.000000 0.000000 0.060113
#
#
# Mechanical properties :
#
#
# Convention : Reuss Voigt Hill
#
# Bulk Modulus (GPa) = 5.13683 6.52055 5.82869
# Shear Modulus (GPa) = 16.53011 21.81944 19.17478
#
# Velocity S-wave (km/s) = 2.71462 3.11884 2.92372
# Velocity P-wave (km/s) = 3.48074 3.98452 3.74112
#
# Compressibility (1/GPa) = 0.19467259
#
# Stress axis : x y z
#
# Youngs Moduli (GPa) = 26.30941 16.96692 36.78849
#
# Poissons Ratio (x) = -0.53206 -0.15465
# Poissons Ratio (y) = -0.82502 0.01070
# Poissons Ratio (z) = -0.11060 0.00493
#
# Static dielectric constant tensor:
#      x y z
#    x 1.825360 0.000000 0.000000 
#    y 0.000000 1.815110 0.000000 
#    z 0.000000 0.000000 1.781840 
# 
# From -- ./inp_files/1645.got.cif
#   From: 2010.05.17/outbox.cif.g08.bks.cpg/sg18_1_cif.got.tgz:1645.got - 2010.06.03 22:40:56.
