data_PCOD9313971
_publ_section_title
;
Structure prediction by ZEFSAII (Michael W. Deem and Ramdas Pophale) SiO2 
 PCOD9313971
Probable space group: P 21 21 21
;
_chemical_formula_sum "Si O2"
_cell_formula_units_Z 20
_cell_length_a 7.210442
_cell_length_b 13.250028
_cell_length_c 8.860966
_cell_angle_alpha 90.000000
_cell_angle_beta 90.000000
_cell_angle_gamma 90.000000
_cell_volume 846.563918
_symmetry_space_group_name_H-M "P 21 21 21"
_symmetry_group_IT_number 19
_symmetry_cell_setting 'orthorhombic'
loop_
_space_group_symop_operation_xyz
x,y,z
1/2-x,-y,1/2+z
1/2+x,1/2-y,-z
-x,1/2+y,1/2-z
loop_
_atom_site_type_symbol
_atom_site_label
_atom_site_fract_x
_atom_site_fract_y
_atom_site_fract_z
Si Si1 0.421093 0.901995 0.326259
Si Si2 0.893239 0.313822 0.311644
Si Si3 0.771934 0.009861 0.373894
Si Si4 0.689156 0.803171 0.096860
Si Si5 0.129126 0.625639 0.399377
O O1 0.217419 0.907716 0.258756
O O2 0.528559 0.822152 0.217810
O O3 0.444448 0.867148 0.499247
O O4 0.553448 0.001001 0.325830
O O5 0.830870 0.291261 0.484347
O O6 0.833986 0.224162 0.197060
O O7 0.113665 0.307006 0.321978
O O8 0.815538 0.101722 0.483652
O O9 0.877310 0.034271 0.220520
O O10 0.783072 0.909126 0.476514
#
# Coordination Sequence:
#
# PCOD9313971 Si02
#       5
#     4   4   4   4   4
#     4  10  20  39  58  87 118 156 202 241 294 361
#     4  11  23  37  62  93 118 158 207 242 304 353
#     4   9  18  39  61  85 116 163 199 238 308 348
#     4  11  21  40  61  86 123 163 194 252 295 360
#     4   9  20  35  64  85 119 160 196 247 297 360
#
# _framework density 23.624915999999999
#
# number of rings (size 3 to 8) (size 9 to 14) (size 15 to 20)
#    1.200    0.800    4.000    0.000    2.800    0.000 
#    0.000    6.000    0.000    0.000    0.000    0.000 
#    0.000    0.000    0.000    0.000    0.000    0.000 
#
# Total GULP energy -111378.731566 kJ/mol
# GULP energy per Si atom -5568.936578 kJ/mol
# Density = 2.357115 g / cm^3
# Si number density = 23.624916 Si / 1000 Ang^3
#
#
#
# Elastic Constant Matrix: (Units=GPa)
#
#
# Indices 1 2 3 4 5 6 
#
# 1 106.4171 6.9294 43.5560 0.0000 0.0000 0.0000
# 2 6.9294 21.3274 24.0703 0.0000 0.0000 0.0000
# 3 43.5560 24.0703 156.2003 0.0000 0.0000 0.0000
# 4 0.0000 0.0000 0.0000 33.4857 0.0000 0.0000
# 5 0.0000 0.0000 0.0000 0.0000 26.5340 0.0000
# 6 0.0000 0.0000 0.0000 0.0000 0.0000 16.7368
#
#
#
# Elastic Compliance Matrix: (Units=1/GPa)
#
#
# Indices 1 2 3 4 5 6 
#
# 1 0.010608 -0.000131 -0.002938 0.000000 0.000000 0.000000
# 2 -0.000131 0.056761 -0.008710 0.000000 0.000000 0.000000
# 3 -0.002938 -0.008710 0.008563 0.000000 0.000000 0.000000
# 4 0.000000 0.000000 0.000000 0.029864 0.000000 0.000000
# 5 0.000000 0.000000 0.000000 0.000000 0.037688 0.000000
# 6 0.000000 0.000000 0.000000 0.000000 0.000000 0.059749
#
#
# Mechanical properties :
#
#
# Convention : Reuss Voigt Hill
#
# Bulk Modulus (GPa) = 19.09327 48.11737 33.60532
# Shear Modulus (GPa) = 20.47093 29.31056 24.89074
#
# Velocity S-wave (km/s) = 2.94683 3.52613 3.24941
# Velocity P-wave (km/s) = 4.43596 6.08190 5.32293
#
# Compressibility (1/GPa) = 0.05237448
#
# Stress axis : x y z
#
# Youngs Moduli (GPa) = 94.26895 17.61764 116.77478
#
# Poissons Ratio (x) = 0.00231 0.34306
# Poissons Ratio (y) = 0.01235 1.01715
# Poissons Ratio (z) = 0.27694 0.15346
#
# Static dielectric constant tensor:
#      x y z
#    x 1.931090 0.000000 0.000000 
#    y 0.000000 1.988850 0.000000 
#    z 0.000000 0.000000 1.908040 
# 
# From -- ./inp_files/385.got.cif
#   From: 2010.05.17/outbox.cif.g08.bks.cpg/sg19_1_cif.got.tgz:385.got - 2010.06.03 22:46:19.
