data_PCOD9313387
_publ_section_title
;
Structure prediction by ZEFSAII (Michael W. Deem and Ramdas Pophale) SiO2 
 PCOD9313387
Probable space group: P 21 21 21
;
_chemical_formula_sum "Si O2"
_cell_formula_units_Z 20
_cell_length_a 11.028078
_cell_length_b 13.723240
_cell_length_c 4.947334
_cell_angle_alpha 90.000000
_cell_angle_beta 90.000000
_cell_angle_gamma 90.000000
_cell_volume 748.734283
_symmetry_space_group_name_H-M "P 21 21 21"
_symmetry_group_IT_number 19
_symmetry_cell_setting 'orthorhombic'
loop_
_space_group_symop_operation_xyz
x,y,z
1/2-x,-y,1/2+z
1/2+x,1/2-y,-z
-x,1/2+y,1/2-z
loop_
_atom_site_type_symbol
_atom_site_label
_atom_site_fract_x
_atom_site_fract_y
_atom_site_fract_z
Si Si1 0.283643 0.061584 0.037140
Si Si2 0.443550 0.576337 0.227876
Si Si3 0.091564 0.552510 0.202471
Si Si4 0.018363 0.731996 0.948216
Si Si5 0.179176 0.738908 0.420823
O O1 0.232514 0.171853 0.992535
O O2 0.217500 0.994795 0.255427
O O3 0.418085 0.077091 0.157929
O O4 0.374284 0.521462 0.468191
O O5 0.438870 0.508937 0.964843
O O6 0.421455 0.689766 0.152398
O O7 0.989680 0.626313 0.073835
O O8 0.191574 0.634031 0.277475
O O9 0.088185 0.785122 0.195468
O O10 0.108538 0.713532 0.697649
#
# Coordination Sequence:
#
# PCOD9313387 Si02
#       5
#     4   4   4   4   4
#     4  11  21  32  48  71 107 148 165 191 251 321
#     4  11  19  30  50  71 101 141 168 199 260 299
#     4  10  18  30  48  70  96 139 171 210 248 294
#     4   9  17  30  44  68  98 129 158 216 244 293
#     4   9  17  32  44  66  98 135 164 210 239 287
#
# _framework density 26.711748
#
# number of rings (size 3 to 8) (size 9 to 14) (size 15 to 20)
#    1.200    0.800    2.000    6.000    0.000    0.000 
#    0.000    0.000    0.000    0.000    0.000    0.000 
#    0.000    9.600   18.000    0.000    0.000    0.000 
#
# Total GULP energy -111645.413637 kJ/mol
# GULP energy per Si atom -5582.270682 kJ/mol
# Density = 2.665095 g / cm^3
# Si number density = 26.711748 Si / 1000 Ang^3
#
#
#
# Elastic Constant Matrix: (Units=GPa)
#
#
# Indices 1 2 3 4 5 6 
#
# 1 45.3267 32.1262 12.3352 0.0000 0.0000 0.0000
# 2 32.1262 172.3272 57.6734 0.0000 0.0000 0.0000
# 3 12.3352 57.6734 200.7182 0.0000 0.0000 0.0000
# 4 0.0000 0.0000 0.0000 65.0904 0.0000 0.0000
# 5 0.0000 0.0000 0.0000 0.0000 7.7075 0.0000
# 6 0.0000 0.0000 0.0000 0.0000 0.0000 24.2771
#
#
#
# Elastic Compliance Matrix: (Units=1/GPa)
#
#
# Indices 1 2 3 4 5 6 
#
# 1 0.025430 -0.004667 -0.000222 0.000000 0.000000 0.000000
# 2 -0.004667 0.007277 -0.001804 0.000000 0.000000 0.000000
# 3 -0.000222 -0.001804 0.005514 0.000000 0.000000 0.000000
# 4 0.000000 0.000000 0.000000 0.015363 0.000000 0.000000
# 5 0.000000 0.000000 0.000000 0.000000 0.129743 0.000000
# 6 0.000000 0.000000 0.000000 0.000000 0.000000 0.041191
#
#
# Mechanical properties :
#
#
# Convention : Reuss Voigt Hill
#
# Bulk Modulus (GPa) = 40.26470 69.18243 54.72356
# Shear Modulus (GPa) = 20.31021 40.49748 30.40385
#
# Velocity S-wave (km/s) = 2.76043 3.89793 3.37741
# Velocity P-wave (km/s) = 5.02658 6.79811 5.97833
#
# Compressibility (1/GPa) = 0.02483565
#
# Stress axis : x y z
#
# Youngs Moduli (GPa) = 39.32377 137.42602 181.35267
#
# Poissons Ratio (x) = 0.64130 0.04025
# Poissons Ratio (y) = 0.18350 0.32717
# Poissons Ratio (z) = 0.00873 0.24792
#
# Static dielectric constant tensor:
#      x y z
#    x 2.259640 0.000000 0.000000 
#    y 0.000000 2.115310 0.000000 
#    z 0.000000 0.000000 2.028100 
# 
# From -- ./inp_files/1409.got.cif
#   From: 2010.05.17/outbox.cif.g08.bks.cpg/sg19_1_cif.got.tgz:1409.got - 2010.06.03 22:46:19.
