data_PCOD9313602
_publ_section_title
;
Structure prediction by ZEFSAII (Michael W. Deem and Ramdas Pophale) SiO2 
 PCOD9313602
Probable space group: P 21 21 21
;
_chemical_formula_sum "Si O2"
_cell_formula_units_Z 32
_cell_length_a 13.115232
_cell_length_b 19.149882
_cell_length_c 6.490445
_cell_angle_alpha 90.000000
_cell_angle_beta 90.000000
_cell_angle_gamma 90.000000
_cell_volume 1630.108656
_symmetry_space_group_name_H-M "P 21 21 21"
_symmetry_group_IT_number 19
_symmetry_cell_setting 'orthorhombic'
loop_
_space_group_symop_operation_xyz
x,y,z
1/2-x,-y,1/2+z
1/2+x,1/2-y,-z
-x,1/2+y,1/2-z
loop_
_atom_site_type_symbol
_atom_site_label
_atom_site_fract_x
_atom_site_fract_y
_atom_site_fract_z
Si Si1 0.377346 0.049420 0.204330
Si Si2 0.481455 0.941990 0.459637
Si Si3 0.358880 0.330863 0.012054
Si Si4 0.635541 0.339681 0.348004
Si Si5 0.859023 0.783008 0.555937
Si Si6 0.658458 0.455680 0.650126
Si Si7 0.565981 0.700003 0.215185
Si Si8 0.502008 0.759351 0.822979
O O1 0.265066 0.019839 0.256965
O O2 0.374041 0.132559 0.205775
O O3 0.458909 0.018458 0.366765
O O4 0.396141 0.015664 0.982305
O O5 0.593255 0.907865 0.459289
O O6 0.423753 0.890920 0.302967
O O7 0.421629 0.934404 0.674530
O O8 0.389694 0.272300 0.186291
O O9 0.237908 0.330360 0.988251
O O10 0.415557 0.301682 0.808349
O O11 0.682298 0.282695 0.193005
O O12 0.691938 0.390885 0.504509
O O13 0.556082 0.302258 0.500494
O O14 0.951872 0.810953 0.694700
O O15 0.916195 0.763262 0.342743
O O16 0.559534 0.703019 0.967127
#
# Coordination Sequence:
#
# PCOD9313602 Si02
#       8
#     4   4   4   4   4   4   4   4
#     4  11  25  38  61  91 127 162 207 249 317 379
#     4  11  21  41  57  89 124 161 207 250 311 376
#     4  11  22  37  65  88 122 163 208 256 310 367
#     4  10  19  36  58  89 127 150 200 251 303 376
#     4  10  22  37  58  93 125 159 210 251 311 372
#     4  11  22  37  62  91 127 162 197 254 321 373
#     4  10  24  39  58  93 127 159 206 261 310 367
#     4  10  19  39  59  90 121 160 197 262 305 354
#
# _framework density 19.630592
#
# number of rings (size 3 to 8) (size 9 to 14) (size 15 to 20)
#    0.000    1.500    6.250    0.000    5.250    3.000 
#    0.000    0.000    5.500    0.000    0.000    0.000 
#    0.000    0.000    0.000    0.000    0.000    0.000 
#
# Total GULP energy -178232.713030 kJ/mol
# GULP energy per Si atom -5569.772282 kJ/mol
# Density = 1.958591 g / cm^3
# Si number density = 19.630592 Si / 1000 Ang^3
#
#
#
# Elastic Constant Matrix: (Units=GPa)
#
#
# Indices 1 2 3 4 5 6 
#
# 1 48.2238 -16.4789 1.8376 0.0000 0.0000 0.0000
# 2 -16.4789 35.8208 11.6748 0.0000 0.0000 0.0000
# 3 1.8376 11.6748 109.1494 0.0000 0.0000 0.0000
# 4 0.0000 0.0000 0.0000 21.1303 0.0000 0.0000
# 5 0.0000 0.0000 0.0000 0.0000 12.9473 0.0000
# 6 0.0000 0.0000 0.0000 0.0000 0.0000 27.9111
#
#
#
# Elastic Compliance Matrix: (Units=1/GPa)
#
#
# Indices 1 2 3 4 5 6 
#
# 1 0.024907 0.012014 -0.001704 0.000000 0.000000 0.000000
# 2 0.012014 0.034720 -0.003916 0.000000 0.000000 0.000000
# 3 -0.001704 -0.003916 0.009609 0.000000 0.000000 0.000000
# 4 0.000000 0.000000 0.000000 0.047325 0.000000 0.000000
# 5 0.000000 0.000000 0.000000 0.000000 0.077236 0.000000
# 6 0.000000 0.000000 0.000000 0.000000 0.000000 0.035828
#
#
# Mechanical properties :
#
#
# Convention : Reuss Voigt Hill
#
# Bulk Modulus (GPa) = 12.19179 20.80680 16.49930
# Shear Modulus (GPa) = 20.47672 25.47511 22.97592
#
# Velocity S-wave (km/s) = 3.23321 3.60630 3.42484
# Velocity P-wave (km/s) = 4.49025 5.28798 4.90536
#
# Compressibility (1/GPa) = 0.08202238
#
# Stress axis : x y z
#
# Youngs Moduli (GPa) = 40.14965 28.80208 104.06582
#
# Poissons Ratio (x) = -0.34602 0.17736
# Poissons Ratio (y) = -0.48234 0.40752
# Poissons Ratio (z) = 0.06843 0.11279
#
# Static dielectric constant tensor:
#      x y z
#    x 1.690130 0.000000 0.000000 
#    y 0.000000 1.784510 0.000000 
#    z 0.000000 0.000000 1.740990 
# 
# From -- ./inp_files/1155.got.cif
#   From: 2010.05.17/outbox.cif.g08.bks.cpg/sg19_1_cif.got.tgz:1155.got - 2010.06.03 22:46:19.
