data_PCOD9313092
_publ_section_title
;
Structure prediction by ZEFSAII (Michael W. Deem and Ramdas Pophale) SiO2 
 PCOD9313092
Probable space group: P 21 21 2
;
_chemical_formula_sum "Si O2"
_cell_formula_units_Z 22
_cell_length_a 14.278173
_cell_length_b 8.057451
_cell_length_c 8.611709
_cell_angle_alpha 90.000000
_cell_angle_beta 90.000000
_cell_angle_gamma 90.000000
_cell_volume 990.739912
_symmetry_space_group_name_H-M "P 21 21 2"
_symmetry_group_IT_number 18
_symmetry_cell_setting 'orthorhombic'
loop_
_space_group_symop_operation_xyz
x,y,z
-x,-y,z
1/2+x,1/2-y,-z
1/2-x,1/2+y,-z
loop_
_atom_site_type_symbol
_atom_site_label
_atom_site_fract_x
_atom_site_fract_y
_atom_site_fract_z
Si Si1 0.000000 0.000000 0.628034
Si Si2 0.886484 0.282709 0.095792
Si Si3 0.146727 0.808122 0.438417
Si Si4 0.713795 0.439997 0.981763
Si Si5 0.943300 0.714296 0.865135
Si Si6 0.686145 0.981318 0.324622
O O1 0.982245 0.843278 0.738332
O O2 0.088241 0.953095 0.521505
O O3 0.901774 0.242036 0.276017
O O4 0.836050 0.118576 0.023821
O O5 0.809163 0.427414 0.080926
O O6 0.978296 0.315362 0.995498
O O7 0.250632 0.874424 0.399966
O O8 0.153446 0.651431 0.551278
O O9 0.746405 0.401742 0.806316
O O10 0.642179 0.308658 0.050897
O O11 0.898960 0.562081 0.770597
#
# Coordination Sequence:
#
# PCOD9313092 Si02
#       6
#     2   4   4   4   4   4
#     4  12  26  40  76 102 156 194 248 306 386 444
#     4  11  25  44  76 105 146 190 253 305 368 449
#     4  11  26  46  71 112 149 200 243 317 384 445
#     4  11  22  45  70 108 136 191 249 299 366 442
#     4  12  24  48  72 107 144 203 250 300 368 456
#     4  11  26  47  75 104 155 192 252 304 388 441
#
# _framework density 22.205625000000001
#
# number of rings (size 3 to 8) (size 9 to 14) (size 15 to 20)
#    0.000    0.727    5.455    2.182    5.091    2.909 
#    0.000    1.818    0.000    0.000    0.000    0.000 
#    0.000    0.000    0.000    0.000    0.000    0.000 
#
# Total GULP energy -123195.262853 kJ/mol
# GULP energy per Si atom -5599.784675 kJ/mol
# Density = 2.215508 g / cm^3
# Si number density = 22.205625 Si / 1000 Ang^3
#
#
#
# Elastic Constant Matrix: (Units=GPa)
#
#
# Indices 1 2 3 4 5 6 
#
# 1 131.6557 22.9729 56.4835 0.0000 0.0000 0.0000
# 2 22.9729 66.2032 51.1168 0.0000 0.0000 0.0000
# 3 56.4835 51.1168 121.6629 0.0000 0.0000 0.0000
# 4 0.0000 0.0000 0.0000 51.3437 0.0000 0.0000
# 5 0.0000 0.0000 0.0000 0.0000 31.8140 0.0000
# 6 0.0000 0.0000 0.0000 0.0000 0.0000 34.5514
#
#
#
# Elastic Compliance Matrix: (Units=1/GPa)
#
#
# Indices 1 2 3 4 5 6 
#
# 1 0.009486 0.000161 -0.004472 0.000000 0.000000 0.000000
# 2 0.000161 0.022361 -0.009470 0.000000 0.000000 0.000000
# 3 -0.004472 -0.009470 0.014274 0.000000 0.000000 0.000000
# 4 0.000000 0.000000 0.000000 0.019477 0.000000 0.000000
# 5 0.000000 0.000000 0.000000 0.000000 0.031433 0.000000
# 6 0.000000 0.000000 0.000000 0.000000 0.000000 0.028942
#
#
# Mechanical properties :
#
#
# Convention : Reuss Voigt Hill
#
# Bulk Modulus (GPa) = 53.87852 64.51870 59.19861
# Shear Modulus (GPa) = 31.30480 36.13839 33.72159
#
# Velocity S-wave (km/s) = 3.75876 4.03853 3.90116
# Velocity P-wave (km/s) = 6.56916 7.13194 6.85633
#
# Compressibility (1/GPa) = 0.01856027
#
# Stress axis : x y z
#
# Youngs Moduli (GPa) = 105.41962 44.72097 70.05698
#
# Poissons Ratio (x) = -0.00720 0.31326
# Poissons Ratio (y) = -0.01696 0.66342
# Poissons Ratio (z) = 0.47139 0.42349
#
# Static dielectric constant tensor:
#      x y z
#    x 1.816320 0.000000 0.000000 
#    y 0.000000 1.867520 0.000000 
#    z 0.000000 0.000000 1.789980 
# 
# From -- ./inp_files/4160.got.cif
#   From: 2010.05.17/outbox.cif.g08.bks.cpg/sg18_3_cif.got.tgz:4160.got - 2010.06.03 22:40:56.
