data_PCOD9313424
_publ_section_title
;
Structure prediction by ZEFSAII (Michael W. Deem and Ramdas Pophale) SiO2 
 PCOD9313424
Probable space group: P 21 21 21
;
_chemical_formula_sum "Si O2"
_cell_formula_units_Z 32
_cell_length_a 8.500157
_cell_length_b 11.710675
_cell_length_c 14.098504
_cell_angle_alpha 90.000000
_cell_angle_beta 90.000000
_cell_angle_gamma 90.000000
_cell_volume 1403.401407
_symmetry_space_group_name_H-M "P 21 21 21"
_symmetry_group_IT_number 19
_symmetry_cell_setting 'orthorhombic'
loop_
_space_group_symop_operation_xyz
x,y,z
1/2-x,-y,1/2+z
1/2+x,1/2-y,-z
-x,1/2+y,1/2-z
loop_
_atom_site_type_symbol
_atom_site_label
_atom_site_fract_x
_atom_site_fract_y
_atom_site_fract_z
Si Si1 0.665941 0.001874 0.948753
Si Si2 0.320278 0.379900 0.876851
Si Si3 0.934628 0.742818 0.686283
Si Si4 0.492127 0.482474 0.126427
Si Si5 0.259425 0.242875 0.548468
Si Si6 0.612561 0.503883 0.917795
Si Si7 0.077606 0.781594 0.863105
Si Si8 0.609084 0.654964 0.495492
O O1 0.504082 0.071705 0.943385
O O2 0.806065 0.043698 0.878303
O O3 0.659809 0.865745 0.934268
O O4 0.722999 0.030831 0.057300
O O5 0.484487 0.441145 0.851643
O O6 0.350715 0.269489 0.945225
O O7 0.214562 0.324037 0.794034
O O8 0.889178 0.617632 0.650925
O O9 0.015337 0.798086 0.595423
O O10 0.057708 0.709623 0.768692
O O11 0.547142 0.593441 0.181645
O O12 0.521757 0.517779 0.017583
O O13 0.279815 0.223286 0.435134
O O14 0.077981 0.252469 0.576412
O O15 0.327664 0.131723 0.602862
O O16 0.751869 0.418341 0.947673
#
# Coordination Sequence:
#
# PCOD9313424 Si02
#       8
#     4   4   4   4   4   4   4   4
#     4   9  18  32  57  84 118 160 200 231 289 367
#     4  10  19  33  55  87 120 153 185 246 304 345
#     4  11  21  36  60  89 120 148 198 246 303 345
#     4   9  18  36  55  84 121 154 189 248 297 340
#     4  10  21  40  59  82 115 168 200 239 298 349
#     4  10  18  33  59  84 119 158 198 237 286 367
#     4  10  23  39  62  83 118 155 206 247 292 356
#     4  11  18  31  59  93 113 154 192 238 299 363
#
# _framework density 22.801743999999999
#
# number of rings (size 3 to 8) (size 9 to 14) (size 15 to 20)
#    0.000    2.000    3.750    2.250    0.000    3.000 
#    0.000    1.250    5.500    0.000    0.000    0.000 
#    0.000    0.000    0.000    0.000    0.000    0.000 
#
# Total GULP energy -178191.285094 kJ/mol
# GULP energy per Si atom -5568.477659 kJ/mol
# Density = 2.274985 g / cm^3
# Si number density = 22.801744 Si / 1000 Ang^3
#
#
#
# Elastic Constant Matrix: (Units=GPa)
#
#
# Indices 1 2 3 4 5 6 
#
# 1 54.5869 45.4333 -8.7523 0.0000 0.0000 0.0000
# 2 45.4333 125.6918 4.8322 0.0000 0.0000 0.0000
# 3 -8.7523 4.8322 24.1457 0.0000 0.0000 0.0000
# 4 0.0000 0.0000 0.0000 -19.8311 0.0000 0.0000
# 5 0.0000 0.0000 0.0000 0.0000 22.3595 0.0000
# 6 0.0000 0.0000 0.0000 0.0000 0.0000 23.3671
#
#
#
# Elastic Compliance Matrix: (Units=1/GPa)
#
#
# Indices 1 2 3 4 5 6 
#
# 1 0.029794 -0.011271 0.013055 0.000000 0.000000 0.000000
# 2 -0.011271 0.012282 -0.006544 0.000000 0.000000 0.000000
# 3 0.013055 -0.006544 0.047457 0.000000 0.000000 0.000000
# 4 0.000000 0.000000 0.000000 -0.050426 0.000000 0.000000
# 5 0.000000 0.000000 0.000000 0.000000 0.044724 0.000000
# 6 0.000000 0.000000 0.000000 0.000000 0.000000 0.042795
#
#
# Mechanical properties :
#
#
# Convention : Reuss Voigt Hill
#
# Bulk Modulus (GPa) = 12.49784 31.93895 22.21839
# Shear Modulus (GPa) = 30.70943 16.03985 23.37464
#
# Velocity S-wave (km/s) = 3.67386 2.65514 3.20523
# Velocity P-wave (km/s) = 4.84658 4.84121 4.84390
#
# Compressibility (1/GPa) = 0.08001385
#
# Stress axis : x y z
#
# Youngs Moduli (GPa) = 33.56373 81.42146 21.07165
#
# Poissons Ratio (x) = 0.91774 -0.27510
# Poissons Ratio (y) = 0.37831 0.13788
# Poissons Ratio (z) = -0.43819 0.53279
#
# Static dielectric constant tensor:
#      x y z
#    x 1.925800 0.000000 0.000000 
#    y 0.000000 2.021020 0.000000 
#    z 0.000000 0.000000 2.567330 
# 
# From -- ./inp_files/3707.got.cif
#   From: 2010.05.17/outbox.cif.g08.bks.cpg/sg19_2_cif.got.tgz:3707.got - 2010.06.03 22:46:19.
