data_PCOD9313613
_publ_section_title
;
Structure prediction by ZEFSAII (Michael W. Deem and Ramdas Pophale) SiO2 
 PCOD9313613
Probable space group: P 21 21 21
;
_chemical_formula_sum "Si O2"
_cell_formula_units_Z 28
_cell_length_a 17.700396
_cell_length_b 5.659531
_cell_length_c 11.800188
_cell_angle_alpha 90.000000
_cell_angle_beta 90.000000
_cell_angle_gamma 90.000000
_cell_volume 1182.094924
_symmetry_space_group_name_H-M "P 21 21 21"
_symmetry_group_IT_number 19
_symmetry_cell_setting 'orthorhombic'
loop_
_space_group_symop_operation_xyz
x,y,z
1/2-x,-y,1/2+z
1/2+x,1/2-y,-z
-x,1/2+y,1/2-z
loop_
_atom_site_type_symbol
_atom_site_label
_atom_site_fract_x
_atom_site_fract_y
_atom_site_fract_z
Si Si1 0.009143 0.986395 0.812188
Si Si2 0.264392 0.414860 0.633705
Si Si3 0.907787 0.323334 0.346510
Si Si4 0.674494 0.475441 0.225007
Si Si5 0.677253 0.302882 0.690248
Si Si6 0.442624 0.449191 0.871505
Si Si7 0.632245 0.816944 0.434926
O O1 0.096495 0.043441 0.844014
O O2 0.005462 0.710994 0.773767
O O3 0.936548 0.019685 0.891724
O O4 0.339491 0.294083 0.584241
O O5 0.295641 0.602205 0.722753
O O6 0.210814 0.547928 0.546268
O O7 0.210282 0.249639 0.710858
O O8 0.863677 0.503677 0.266361
O O9 0.945192 0.133751 0.259618
O O10 0.974570 0.464729 0.405320
O O11 0.743478 0.582950 0.151005
O O12 0.650378 0.635323 0.334552
O O13 0.614796 0.169423 0.616803
O O14 0.404338 0.241002 0.946131
#
# Coordination Sequence:
#
# PCOD9313613 Si02
#       7
#     4   4   4   4   4   4   4
#     4  10  19  36  61  88 124 166 205 255 324 384
#     4   9  18  37  61  82 111 157 198 253 311 374
#     4  10  20  37  60  82 120 165 202 253 314 374
#     4   9  18  36  60  84 120 157 196 253 326 376
#     4   9  19  36  61  79 110 157 200 246 313 379
#     4  11  21  37  59  88 119 164 215 254 313 370
#     4  10  21  35  58  91 120 160 214 260 305 377
#
# _framework density 23.686762000000002
#
# number of rings (size 3 to 8) (size 9 to 14) (size 15 to 20)
#    0.000    2.286    2.857    0.000    0.000    1.143 
#    2.571    0.000   12.571    0.000    0.000    0.000 
#    0.000    0.000    0.000    0.000    0.000    0.000 
#
# Total GULP energy -155938.435345 kJ/mol
# GULP energy per Si atom -5569.229834 kJ/mol
# Density = 2.363285 g / cm^3
# Si number density = 23.686762 Si / 1000 Ang^3
#
#
#
# Elastic Constant Matrix: (Units=GPa)
#
#
# Indices 1 2 3 4 5 6 
#
# 1 182.5921 22.3256 16.4479 0.0000 0.0000 0.0000
# 2 22.3256 46.8836 0.5847 0.0000 0.0000 0.0000
# 3 16.4479 0.5847 32.4221 0.0000 0.0000 0.0000
# 4 0.0000 0.0000 0.0000 8.0534 0.0000 0.0000
# 5 0.0000 0.0000 0.0000 0.0000 24.5960 0.0000
# 6 0.0000 0.0000 0.0000 0.0000 0.0000 40.0684
#
#
#
# Elastic Compliance Matrix: (Units=1/GPa)
#
#
# Indices 1 2 3 4 5 6 
#
# 1 0.006101 -0.002868 -0.003044 0.000000 0.000000 0.000000
# 2 -0.002868 0.022682 0.001046 0.000000 0.000000 0.000000
# 3 -0.003044 0.001046 0.032368 0.000000 0.000000 0.000000
# 4 0.000000 0.000000 0.000000 0.124171 0.000000 0.000000
# 5 0.000000 0.000000 0.000000 0.000000 0.040657 0.000000
# 6 0.000000 0.000000 0.000000 0.000000 0.000000 0.024957
#
#
# Mechanical properties :
#
#
# Convention : Reuss Voigt Hill
#
# Bulk Modulus (GPa) = 19.44740 37.84603 28.64672
# Shear Modulus (GPa) = 17.99801 29.37954 23.68877
#
# Velocity S-wave (km/s) = 2.75950 3.52566 3.16584
# Velocity P-wave (km/s) = 4.28733 5.70842 5.04813
#
# Compressibility (1/GPa) = 0.05142076
#
# Stress axis : x y z
#
# Youngs Moduli (GPa) = 163.89504 44.08812 30.89443
#
# Poissons Ratio (x) = 0.12642 0.09403
# Poissons Ratio (y) = 0.46997 -0.03231
# Poissons Ratio (z) = 0.49883 -0.04610
#
# Static dielectric constant tensor:
#      x y z
#    x 1.909450 0.000000 0.000000 
#    y 0.000000 1.958320 0.000000 
#    z 0.000000 0.000000 1.995840 
# 
# From -- ./inp_files/1031.got.cif
#   From: 2010.05.17/outbox.cif.g08.bks.cpg/sg19_1_cif.got.tgz:1031.got - 2010.06.03 22:46:19.
