data_PCOD9313878
_publ_section_title
;
Structure prediction by ZEFSAII (Michael W. Deem and Ramdas Pophale) SiO2 
 PCOD9313878
Probable space group: P 21 21 21
;
_chemical_formula_sum "Si O2"
_cell_formula_units_Z 24
_cell_length_a 5.425295
_cell_length_b 16.822592
_cell_length_c 10.293286
_cell_angle_alpha 90.000000
_cell_angle_beta 90.000000
_cell_angle_gamma 90.000000
_cell_volume 939.442730
_symmetry_space_group_name_H-M "P 21 21 21"
_symmetry_group_IT_number 19
_symmetry_cell_setting 'orthorhombic'
loop_
_space_group_symop_operation_xyz
x,y,z
1/2-x,-y,1/2+z
1/2+x,1/2-y,-z
-x,1/2+y,1/2-z
loop_
_atom_site_type_symbol
_atom_site_label
_atom_site_fract_x
_atom_site_fract_y
_atom_site_fract_z
Si Si1 0.361243 0.991930 0.837516
Si Si2 0.541610 0.699795 0.311299
Si Si3 0.179669 0.558641 0.372692
Si Si4 0.868300 0.352908 0.536136
Si Si5 0.856940 0.644260 0.558318
Si Si6 0.627775 0.900110 0.045826
O O1 0.324874 0.082763 0.871038
O O2 0.419232 0.968821 0.691039
O O3 0.143444 0.942646 0.904892
O O4 0.586394 0.947931 0.910513
O O5 0.331909 0.631606 0.313122
O O6 0.655319 0.697845 0.167382
O O7 0.731296 0.679129 0.427571
O O8 0.428426 0.783953 0.349194
O O9 0.334960 0.476565 0.362522
O O10 0.096610 0.595558 0.510628
O O11 0.625521 0.350762 0.446203
O O12 0.127324 0.347969 0.463918
#
# Coordination Sequence:
#
# PCOD9313878 Si02
#       6
#     4   4   4   4   4   4
#     4  10  22  36  62  95 135 174 232 272 327 415
#     4  12  22  36  62  96 146 177 209 286 365 408
#     4  12  21  38  63  95 139 181 225 282 345 403
#     4  10  20  38  59  89 130 181 217 264 333 408
#     4  12  23  37  60 105 140 174 221 286 354 418
#     4  10  20  37  60  88 130 171 228 266 324 396
#
# _framework density 25.547060999999999
#
# number of rings (size 3 to 8) (size 9 to 14) (size 15 to 20)
#    1.000    0.000    8.333    0.000    0.000    0.000 
#    0.000    0.000    0.000    0.000    4.333    0.000 
#    0.000    0.000    0.000    0.000    0.000    0.000 
#
# Total GULP energy -134054.806785 kJ/mol
# GULP energy per Si atom -5585.616949 kJ/mol
# Density = 2.548891 g / cm^3
# Si number density = 25.547061 Si / 1000 Ang^3
#
#
#
# Elastic Constant Matrix: (Units=GPa)
#
#
# Indices 1 2 3 4 5 6 
#
# 1 141.7569 35.1230 26.1906 0.0000 0.0000 0.0000
# 2 35.1230 102.4926 58.3637 0.0000 0.0000 0.0000
# 3 26.1906 58.3637 54.1966 0.0000 0.0000 0.0000
# 4 0.0000 0.0000 0.0000 40.9540 0.0000 0.0000
# 5 0.0000 0.0000 0.0000 0.0000 32.8556 0.0000
# 6 0.0000 0.0000 0.0000 0.0000 0.0000 27.0866
#
#
#
# Elastic Compliance Matrix: (Units=1/GPa)
#
#
# Indices 1 2 3 4 5 6 
#
# 1 0.007819 -0.001365 -0.002309 0.000000 0.000000 0.000000
# 2 -0.001365 0.025464 -0.026763 0.000000 0.000000 0.000000
# 3 -0.002309 -0.026763 0.048388 0.000000 0.000000 0.000000
# 4 0.000000 0.000000 0.000000 0.024418 0.000000 0.000000
# 5 0.000000 0.000000 0.000000 0.000000 0.030436 0.000000
# 6 0.000000 0.000000 0.000000 0.000000 0.000000 0.036919
#
#
# Mechanical properties :
#
#
# Convention : Reuss Voigt Hill
#
# Bulk Modulus (GPa) = 48.08103 59.75563 53.91833
# Shear Modulus (GPa) = 20.72549 32.09716 26.41133
#
# Velocity S-wave (km/s) = 2.85137 3.54841 3.21881
# Velocity P-wave (km/s) = 5.44994 6.34267 5.91318
#
# Compressibility (1/GPa) = 0.02079822
#
# Stress axis : x y z
#
# Youngs Moduli (GPa) = 127.89275 39.27068 20.66646
#
# Poissons Ratio (x) = 0.05359 0.04772
# Poissons Ratio (y) = 0.17453 0.55309
# Poissons Ratio (z) = 0.29530 1.05099
#
# Static dielectric constant tensor:
#      x y z
#    x 2.063790 0.000000 0.000000 
#    y 0.000000 1.982400 0.000000 
#    z 0.000000 0.000000 2.040810 
# 
# From -- ./inp_files/4462.got.cif
#   From: 2010.05.17/outbox.cif.g08.bks.cpg/sg19_3_cif.got.tgz:4462.got - 2010.06.03 22:46:19.
