data_PCOD9313491
_publ_section_title
;
Structure prediction by ZEFSAII (Michael W. Deem and Ramdas Pophale) SiO2 
 PCOD9313491
Probable space group: P 21 21 21
;
_chemical_formula_sum "Si O2"
_cell_formula_units_Z 28
_cell_length_a 9.413706
_cell_length_b 17.217203
_cell_length_c 6.408059
_cell_angle_alpha 90.000000
_cell_angle_beta 90.000000
_cell_angle_gamma 90.000000
_cell_volume 1038.603382
_symmetry_space_group_name_H-M "P 21 21 21"
_symmetry_group_IT_number 19
_symmetry_cell_setting 'orthorhombic'
loop_
_space_group_symop_operation_xyz
x,y,z
1/2-x,-y,1/2+z
1/2+x,1/2-y,-z
-x,1/2+y,1/2-z
loop_
_atom_site_type_symbol
_atom_site_label
_atom_site_fract_x
_atom_site_fract_y
_atom_site_fract_z
Si Si1 0.370922 0.640056 0.131531
Si Si2 0.880279 0.039513 0.415616
Si Si3 0.468172 0.217960 0.987482
Si Si4 0.571828 0.582754 0.770533
Si Si5 0.356291 0.918638 0.651671
Si Si6 0.160248 0.218590 0.390681
Si Si7 0.016608 0.640402 0.736921
O O1 0.272478 0.565507 0.161883
O O2 0.434295 0.677056 0.338665
O O3 0.497506 0.614882 0.976977
O O4 0.276535 0.705348 0.005952
O O5 0.992299 0.085936 0.271769
O O6 0.899199 0.072370 0.647834
O O7 0.942334 0.954784 0.367352
O O8 0.401809 0.292930 0.103542
O O9 0.373725 0.153819 0.869251
O O10 0.566469 0.249783 0.800674
O O11 0.676508 0.510419 0.820869
O O12 0.263904 0.855529 0.780080
O O13 0.405005 0.898225 0.421077
O O14 0.069427 0.184668 0.582555
#
# Coordination Sequence:
#
# PCOD9313491 Si02
#       7
#     4   4   4   4   4   4   4
#     4  10  19  28  43  65 102 135 154 194 245 277
#     4   9  20  27  42  70 100 128 167 189 234 293
#     4   9  18  31  46  63  94 131 162 195 231 276
#     4   9  20  27  42  70 101 126 163 187 229 290
#     4   8  17  29  45  63  92 127 162 197 227 275
#     4   8  16  32  45  64  86 124 170 198 218 280
#     4   9  16  32  49  59  91 133 164 196 230 269
#
# _framework density 26.959278000000001
#
# number of rings (size 3 to 8) (size 9 to 14) (size 15 to 20)
#    0.857    2.286    0.000    0.000    4.000    2.286 
#    0.000    0.000    0.000    0.000    0.000    0.000 
#   25.714    0.000    0.000    0.000    0.000    0.000 
#
# Total GULP energy -156358.466823 kJ/mol
# GULP energy per Si atom -5584.230958 kJ/mol
# Density = 2.689792 g / cm^3
# Si number density = 26.959278 Si / 1000 Ang^3
#
#
#
# Elastic Constant Matrix: (Units=GPa)
#
#
# Indices 1 2 3 4 5 6 
#
# 1 63.4696 27.8969 34.9800 0.0000 0.0000 0.0000
# 2 27.8969 147.0833 92.2589 0.0000 0.0000 0.0000
# 3 34.9800 92.2589 120.5138 0.0000 0.0000 0.0000
# 4 0.0000 0.0000 0.0000 50.2570 0.0000 0.0000
# 5 0.0000 0.0000 0.0000 0.0000 20.1125 0.0000
# 6 0.0000 0.0000 0.0000 0.0000 0.0000 11.6115
#
#
#
# Elastic Compliance Matrix: (Units=1/GPa)
#
#
# Indices 1 2 3 4 5 6 
#
# 1 0.018762 -0.000274 -0.005236 0.000000 0.000000 0.000000
# 2 -0.000274 0.013084 -0.009936 0.000000 0.000000 0.000000
# 3 -0.005236 -0.009936 0.017424 0.000000 0.000000 0.000000
# 4 0.000000 0.000000 0.000000 0.019898 0.000000 0.000000
# 5 0.000000 0.000000 0.000000 0.000000 0.049720 0.000000
# 6 0.000000 0.000000 0.000000 0.000000 0.000000 0.086121
#
#
# Mechanical properties :
#
#
# Convention : Reuss Voigt Hill
#
# Bulk Modulus (GPa) = 54.41700 71.25981 62.83840
# Shear Modulus (GPa) = 20.65879 28.12492 24.39186
#
# Velocity S-wave (km/s) = 2.77121 3.23342 3.01120
# Velocity P-wave (km/s) = 5.51980 6.35844 5.95390
#
# Compressibility (1/GPa) = 0.01837661
#
# Stress axis : x y z
#
# Youngs Moduli (GPa) = 53.30003 76.43134 57.39099
#
# Poissons Ratio (x) = 0.02097 0.30048
# Poissons Ratio (y) = 0.01462 0.57027
# Poissons Ratio (z) = 0.27906 0.75946
#
# Static dielectric constant tensor:
#      x y z
#    x 2.063610 0.000000 0.000000 
#    y 0.000000 2.265340 0.000000 
#    z 0.000000 0.000000 2.056590 
# 
# From -- ./inp_files/1862.got.cif
#   From: 2010.05.17/outbox.cif.g08.bks.cpg/sg19_1_cif.got.tgz:1862.got - 2010.06.03 22:46:19.
