data_PCOD9313759
_publ_section_title
;
Structure prediction by ZEFSAII (Michael W. Deem and Ramdas Pophale) SiO2 
 PCOD9313759
Probable space group: P 21 21 21
;
_chemical_formula_sum "Si O2"
_cell_formula_units_Z 32
_cell_length_a 13.175877
_cell_length_b 11.216617
_cell_length_c 7.901787
_cell_angle_alpha 90.000000
_cell_angle_beta 90.000000
_cell_angle_gamma 90.000000
_cell_volume 1167.795350
_symmetry_space_group_name_H-M "P 21 21 21"
_symmetry_group_IT_number 19
_symmetry_cell_setting 'orthorhombic'
loop_
_space_group_symop_operation_xyz
x,y,z
1/2-x,-y,1/2+z
1/2+x,1/2-y,-z
-x,1/2+y,1/2-z
loop_
_atom_site_type_symbol
_atom_site_label
_atom_site_fract_x
_atom_site_fract_y
_atom_site_fract_z
Si Si1 0.579581 0.964416 0.300884
Si Si2 0.185123 0.541594 0.056741
Si Si3 0.225590 0.248900 0.413474
Si Si4 0.366991 0.305647 0.891928
Si Si5 0.230930 0.119447 0.070291
Si Si6 0.093192 0.059853 0.595432
Si Si7 0.419612 0.097816 0.481350
Si Si8 0.023554 0.382943 0.155452
O O1 0.635796 0.899095 0.453231
O O2 0.487756 0.886050 0.224239
O O3 0.508795 0.075983 0.347380
O O4 0.650818 0.981572 0.140864
O O5 0.145483 0.627843 0.213438
O O6 0.140388 0.419245 0.134025
O O7 0.281168 0.621827 0.999679
O O8 0.199121 0.202867 0.225461
O O9 0.155604 0.166701 0.524080
O O10 0.342814 0.204694 0.439533
O O11 0.476059 0.240309 0.910071
O O12 0.282455 0.202597 0.925752
O O13 0.147313 0.023938 0.009383
O O14 0.322140 0.037379 0.146684
O O15 0.030934 0.989975 0.449561
O O16 0.479954 0.114963 0.655902
#
# Coordination Sequence:
#
# PCOD9313759 Si02
#       8
#     4   4   4   4   4   4   4   4
#     4  11  22  36  54  85 118 159 187 230 288 360
#     4  11  23  34  53  84 115 147 200 235 285 350
#     4  11  19  33  55  88 116 144 185 242 295 350
#     4  11  22  37  56  81 120 157 195 235 289 350
#     4  10  20  33  54  88 119 150 179 239 305 350
#     4   9  20  32  53  85 119 143 183 232 296 349
#     4  11  20  33  57  85 121 148 183 238 304 353
#     4  10  20  36  52  82 116 148 192 241 280 338
#
# _framework density 27.402059999999999
#
# number of rings (size 3 to 8) (size 9 to 14) (size 15 to 20)
#    0.000    1.500    6.250    0.000    1.750    0.000 
#    0.000    0.000    0.000    0.000    9.750    0.000 
#    0.000    0.000    0.000    0.000    0.000    0.000 
#
# Total GULP energy -178697.899866 kJ/mol
# GULP energy per Si atom -5584.309371 kJ/mol
# Density = 2.733969 g / cm^3
# Si number density = 27.402060 Si / 1000 Ang^3
#
#
#
# Elastic Constant Matrix: (Units=GPa)
#
#
# Indices 1 2 3 4 5 6 
#
# 1 63.5762 19.2037 -7.4528 0.0000 0.0000 0.0000
# 2 19.2037 123.2614 18.6881 0.0000 0.0000 0.0000
# 3 -7.4528 18.6881 105.6608 0.0000 0.0000 0.0000
# 4 0.0000 0.0000 0.0000 24.9932 0.0000 0.0000
# 5 0.0000 0.0000 0.0000 0.0000 30.4144 0.0000
# 6 0.0000 0.0000 0.0000 0.0000 0.0000 44.6598
#
#
#
# Elastic Compliance Matrix: (Units=1/GPa)
#
#
# Indices 1 2 3 4 5 6 
#
# 1 0.016796 -0.002873 0.001693 0.000000 0.000000 0.000000
# 2 -0.002873 0.008828 -0.001764 0.000000 0.000000 0.000000
# 3 0.001693 -0.001764 0.009896 0.000000 0.000000 0.000000
# 4 0.000000 0.000000 0.000000 0.040011 0.000000 0.000000
# 5 0.000000 0.000000 0.000000 0.000000 0.032879 0.000000
# 6 0.000000 0.000000 0.000000 0.000000 0.000000 0.022391
#
#
# Mechanical properties :
#
#
# Convention : Reuss Voigt Hill
#
# Bulk Modulus (GPa) = 33.74950 39.26405 36.50677
# Shear Modulus (GPa) = 34.11423 37.48411 35.79917
#
# Velocity S-wave (km/s) = 3.53221 3.70257 3.61839
# Velocity P-wave (km/s) = 5.38317 5.71302 5.55055
#
# Compressibility (1/GPa) = 0.02963007
#
# Stress axis : x y z
#
# Youngs Moduli (GPa) = 59.53969 113.27654 101.05439
#
# Poissons Ratio (x) = 0.32548 -0.17107
# Poissons Ratio (y) = 0.17108 0.17827
# Poissons Ratio (z) = -0.10079 0.19983
#
# Static dielectric constant tensor:
#      x y z
#    x 2.313290 0.000000 0.000000 
#    y 0.000000 2.121460 0.000000 
#    z 0.000000 0.000000 2.190860 
# 
# From -- ./inp_files/4222.got.cif
#   From: 2010.05.17/outbox.cif.g08.bks.cpg/sg19_3_cif.got.tgz:4222.got - 2010.06.03 22:46:19.
