data_PCOD9313393
_publ_section_title
;
Structure prediction by ZEFSAII (Michael W. Deem and Ramdas Pophale) SiO2 
 PCOD9313393
Probable space group: P 21 21 21
;
_chemical_formula_sum "Si O2"
_cell_formula_units_Z 32
_cell_length_a 11.253205
_cell_length_b 13.607989
_cell_length_c 7.978800
_cell_angle_alpha 90.000000
_cell_angle_beta 90.000000
_cell_angle_gamma 90.000000
_cell_volume 1221.821489
_symmetry_space_group_name_H-M "P 21 21 21"
_symmetry_group_IT_number 19
_symmetry_cell_setting 'orthorhombic'
loop_
_space_group_symop_operation_xyz
x,y,z
1/2-x,-y,1/2+z
1/2+x,1/2-y,-z
-x,1/2+y,1/2-z
loop_
_atom_site_type_symbol
_atom_site_label
_atom_site_fract_x
_atom_site_fract_y
_atom_site_fract_z
Si Si1 0.642289 0.002349 0.358547
Si Si2 0.708387 0.493358 0.307059
Si Si3 0.324569 0.612670 0.490766
Si Si4 0.259213 0.214254 0.798973
Si Si5 0.487804 0.741600 0.801243
Si Si6 0.481874 0.437149 0.526720
Si Si7 0.093841 0.924990 0.963788
Si Si8 0.250162 0.325031 0.435341
O O1 0.678128 0.056340 0.189030
O O2 0.503791 0.005757 0.380958
O O3 0.689834 0.075451 0.500256
O O4 0.705845 0.902718 0.403812
O O5 0.719242 0.396993 0.190476
O O6 0.602416 0.468693 0.436078
O O7 0.833859 0.483426 0.397774
O O8 0.680943 0.589124 0.195788
O O9 0.323312 0.722625 0.422426
O O10 0.420963 0.540787 0.580089
O O11 0.402664 0.222611 0.828517
O O12 0.244634 0.253725 0.603433
O O13 0.534324 0.671558 0.956811
O O14 0.347120 0.714532 0.799858
O O15 0.493040 0.858283 0.830180
O O16 0.386822 0.367983 0.419045
#
# Coordination Sequence:
#
# PCOD9313393 Si02
#       8
#     4   4   4   4   4   4   4   4
#     4   9  18  35  56  82 115 147 185 250 305 341
#     4  11  21  38  60  82 119 163 202 241 314 355
#     4  10  19  36  59  88 117 149 201 249 303 365
#     4   9  18  32  56  79 114 159 191 247 292 357
#     4   9  17  34  57  85 115 150 207 252 292 350
#     4  10  18  30  59  88 108 155 192 249 301 348
#     4  10  22  40  58  86 122 156 198 259 289 368
#     4   8  15  29  51  84 110 133 196 241 280 348
#
# _framework density 26.190404000000001
#
# number of rings (size 3 to 8) (size 9 to 14) (size 15 to 20)
#    0.000    2.500    2.500    0.750    0.000    0.000 
#    9.000    1.250    2.750    0.000    0.000    0.000 
#    0.000    0.000    0.000    0.000    0.000    0.000 
#
# Total GULP energy -178205.245993 kJ/mol
# GULP energy per Si atom -5568.913937 kJ/mol
# Density = 2.613079 g / cm^3
# Si number density = 26.190404 Si / 1000 Ang^3
#
#
#
# Elastic Constant Matrix: (Units=GPa)
#
#
# Indices 1 2 3 4 5 6 
#
# 1 96.2479 18.6943 9.4371 0.0000 0.0000 0.0000
# 2 18.6943 68.7525 15.9307 0.0000 0.0000 0.0000
# 3 9.4371 15.9307 29.6602 0.0000 0.0000 0.0000
# 4 0.0000 0.0000 0.0000 34.8567 0.0000 0.0000
# 5 0.0000 0.0000 0.0000 0.0000 2.6175 0.0000
# 6 0.0000 0.0000 0.0000 0.0000 0.0000 40.2145
#
#
#
# Elastic Compliance Matrix: (Units=1/GPa)
#
#
# Indices 1 2 3 4 5 6 
#
# 1 0.011091 -0.002511 -0.002181 0.000000 0.000000 0.000000
# 2 -0.002511 0.017181 -0.008429 0.000000 0.000000 0.000000
# 3 -0.002181 -0.008429 0.038936 0.000000 0.000000 0.000000
# 4 0.000000 0.000000 0.000000 0.028689 0.000000 0.000000
# 5 0.000000 0.000000 0.000000 0.000000 0.382046 0.000000
# 6 0.000000 0.000000 0.000000 0.000000 0.000000 0.024867
#
#
# Mechanical properties :
#
#
# Convention : Reuss Voigt Hill
#
# Bulk Modulus (GPa) = 24.40930 31.42054 27.91492
# Shear Modulus (GPa) = 9.21308 25.57762 17.39535
#
# Velocity S-wave (km/s) = 1.87760 3.12845 2.57998
# Velocity P-wave (km/s) = 3.74709 5.00726 4.42229
#
# Compressibility (1/GPa) = 0.04096799
#
# Stress axis : x y z
#
# Youngs Moduli (GPa) = 90.16102 58.20490 25.68292
#
# Poissons Ratio (x) = 0.14613 0.05600
# Poissons Ratio (y) = 0.22635 0.21648
# Poissons Ratio (z) = 0.19660 0.49062
#
# Static dielectric constant tensor:
#      x y z
#    x 2.357770 0.000000 0.000000 
#    y 0.000000 2.199240 0.000000 
#    z 0.000000 0.000000 2.213120 
# 
# From -- ./inp_files/3732.got.cif
#   From: 2010.05.17/outbox.cif.g08.bks.cpg/sg19_2_cif.got.tgz:3732.got - 2010.06.03 22:46:19.
