data_PCOD9313690
_publ_section_title
;
Structure prediction by ZEFSAII (Michael W. Deem and Ramdas Pophale) SiO2 
 PCOD9313690
Probable space group: P 21 21 21
;
_chemical_formula_sum "Si O2"
_cell_formula_units_Z 28
_cell_length_a 12.122076
_cell_length_b 6.891777
_cell_length_c 13.969245
_cell_angle_alpha 90.000000
_cell_angle_beta 90.000000
_cell_angle_gamma 90.000000
_cell_volume 1167.027670
_symmetry_space_group_name_H-M "P 21 21 21"
_symmetry_group_IT_number 19
_symmetry_cell_setting 'orthorhombic'
loop_
_space_group_symop_operation_xyz
x,y,z
1/2-x,-y,1/2+z
1/2+x,1/2-y,-z
-x,1/2+y,1/2-z
loop_
_atom_site_type_symbol
_atom_site_label
_atom_site_fract_x
_atom_site_fract_y
_atom_site_fract_z
Si Si1 0.580004 0.057525 0.864545
Si Si2 0.047886 0.027174 0.533450
Si Si3 0.822814 0.972943 0.835164
Si Si4 0.351890 0.613999 0.947081
Si Si5 0.367913 0.300619 0.338152
Si Si6 0.447807 0.108772 0.677904
Si Si7 0.703628 0.484771 0.299431
O O1 0.705706 0.086382 0.833004
O O2 0.576897 0.821492 0.863159
O O3 0.496967 0.129519 0.783696
O O4 0.531792 0.106148 0.969112
O O5 0.125484 0.155822 0.464415
O O6 0.127361 0.938098 0.613509
O O7 0.968061 0.179269 0.588822
O O8 0.812313 0.748728 0.801511
O O9 0.897892 0.075952 0.756564
O O10 0.849747 0.972626 0.947091
O O11 0.237352 0.601936 0.890553
O O12 0.452201 0.530251 0.885795
O O13 0.333351 0.091237 0.297461
O O14 0.334222 0.993101 0.680586
#
# Coordination Sequence:
#
# PCOD9313690 Si02
#       7
#     4   4   4   4   4   4   4
#     4  10  19  39  65  89 127 166 215 264 314 381
#     4  10  23  39  65  92 126 170 210 268 326 378
#     4  10  22  42  64  98 128 163 217 264 316 382
#     4  10  21  41  68  91 129 172 211 267 321 379
#     4  12  23  44  70  91 129 177 208 260 336 378
#     4  10  20  38  65  91 121 173 210 261 318 378
#     4  10  24  41  61  94 132 165 215 264 317 382
#
# _framework density 23.992574999999999
#
# number of rings (size 3 to 8) (size 9 to 14) (size 15 to 20)
#    0.000    1.714    2.857    1.714    6.000    0.000 
#    2.571    2.857    3.143    0.000    0.000    0.000 
#    0.000    0.000    0.000    0.000    0.000    0.000 
#
# Total GULP energy -156497.389484 kJ/mol
# GULP energy per Si atom -5589.192482 kJ/mol
# Density = 2.393797 g / cm^3
# Si number density = 23.992575 Si / 1000 Ang^3
#
#
#
# Elastic Constant Matrix: (Units=GPa)
#
#
# Indices 1 2 3 4 5 6 
#
# 1 114.2237 5.1697 38.8804 0.0000 0.0000 0.0000
# 2 5.1697 72.0838 14.8503 0.0000 0.0000 0.0000
# 3 38.8804 14.8503 124.5042 0.0000 0.0000 0.0000
# 4 0.0000 0.0000 0.0000 32.6620 0.0000 0.0000
# 5 0.0000 0.0000 0.0000 0.0000 48.3442 0.0000
# 6 0.0000 0.0000 0.0000 0.0000 0.0000 5.2713
#
#
#
# Elastic Compliance Matrix: (Units=1/GPa)
#
#
# Indices 1 2 3 4 5 6 
#
# 1 0.009796 -0.000074 -0.003050 0.000000 0.000000 0.000000
# 2 -0.000074 0.014223 -0.001673 0.000000 0.000000 0.000000
# 3 -0.003050 -0.001673 0.009184 0.000000 0.000000 0.000000
# 4 0.000000 0.000000 0.000000 0.030617 0.000000 0.000000
# 5 0.000000 0.000000 0.000000 0.000000 0.020685 0.000000
# 6 0.000000 0.000000 0.000000 0.000000 0.000000 0.189706
#
#
# Mechanical properties :
#
#
# Convention : Reuss Voigt Hill
#
# Bulk Modulus (GPa) = 42.35928 47.62362 44.99145
# Shear Modulus (GPa) = 17.14232 34.04960 25.59596
#
# Velocity S-wave (km/s) = 2.67588 3.77128 3.26978
# Velocity P-wave (km/s) = 5.21926 6.23344 5.74876
#
# Compressibility (1/GPa) = 0.02360758
#
# Stress axis : x y z
#
# Youngs Moduli (GPa) = 102.07801 70.30978 108.88474
#
# Poissons Ratio (x) = 0.00521 0.33214
# Poissons Ratio (y) = 0.00757 0.18219
# Poissons Ratio (z) = 0.31138 0.11765
#
# Static dielectric constant tensor:
#      x y z
#    x 1.932540 0.000000 0.000000 
#    y 0.000000 1.962550 0.000000 
#    z 0.000000 0.000000 1.876020 
# 
# From -- ./inp_files/3548.got.cif
#   From: 2010.05.17/outbox.cif.g08.bks.cpg/sg19_2_cif.got.tgz:3548.got - 2010.06.03 22:46:19.
