data_PCOD9313945
_publ_section_title
;
Structure prediction by ZEFSAII (Michael W. Deem and Ramdas Pophale) SiO2 
 PCOD9313945
Probable space group: P 21 21 21
;
_chemical_formula_sum "Si O2"
_cell_formula_units_Z 28
_cell_length_a 9.836310
_cell_length_b 19.674606
_cell_length_c 5.695583
_cell_angle_alpha 90.000000
_cell_angle_beta 90.000000
_cell_angle_gamma 90.000000
_cell_volume 1102.240683
_symmetry_space_group_name_H-M "P 21 21 21"
_symmetry_group_IT_number 19
_symmetry_cell_setting 'orthorhombic'
loop_
_space_group_symop_operation_xyz
x,y,z
1/2-x,-y,1/2+z
1/2+x,1/2-y,-z
-x,1/2+y,1/2-z
loop_
_atom_site_type_symbol
_atom_site_label
_atom_site_fract_x
_atom_site_fract_y
_atom_site_fract_z
Si Si1 0.800419 0.911884 0.695709
Si Si2 0.777072 0.235613 0.242089
Si Si3 0.965109 0.717707 0.011025
Si Si4 0.311013 0.025845 0.290452
Si Si5 0.180202 0.440337 0.289605
Si Si6 0.705175 0.337266 0.887533
Si Si7 0.994830 0.089218 0.765203
O O1 0.715373 0.842465 0.670311
O O2 0.888331 0.919711 0.456331
O O3 0.699469 0.977896 0.700651
O O4 0.864859 0.912020 0.958281
O O5 0.621028 0.245505 0.314706
O O6 0.884834 0.244009 0.450136
O O7 0.802990 0.294999 0.058090
O O8 0.874417 0.720202 0.242538
O O9 0.966132 0.637476 0.952109
O O10 0.288837 0.105734 0.252424
O O11 0.265286 0.007253 0.558721
O O12 0.454303 0.987856 0.261002
O O13 0.333336 0.412716 0.251308
O O14 0.584612 0.376452 0.029059
#
# Coordination Sequence:
#
# PCOD9313945 Si02
#       7
#     4   4   4   4   4   4   4
#     4  10  22  41  64  97 133 176 229 288 346 417
#     4  11  25  43  70 101 143 194 235 295 355 436
#     4  11  23  45  69  99 142 190 242 287 363 428
#     4  10  20  38  63  94 127 170 230 288 340 410
#     4  10  21  39  67  95 128 172 235 281 353 415
#     4  10  23  40  64  96 138 185 235 283 359 422
#     4  10  20  38  67  94 129 181 228 292 354 414
#
# _framework density 25.402802000000001
#
# number of rings (size 3 to 8) (size 9 to 14) (size 15 to 20)
#    0.000    1.714    2.857    0.857    2.000    2.286 
#    5.143    0.000    0.000    0.000    0.000    0.000 
#    0.000    0.000    0.000    0.000    0.000    0.000 
#
# Total GULP energy -156290.915278 kJ/mol
# GULP energy per Si atom -5581.818403 kJ/mol
# Density = 2.534498 g / cm^3
# Si number density = 25.402802 Si / 1000 Ang^3
#
#
#
# Elastic Constant Matrix: (Units=GPa)
#
#
# Indices 1 2 3 4 5 6 
#
# 1 54.0465 16.8434 15.9885 0.0000 0.0000 0.0000
# 2 16.8434 77.5295 12.0445 0.0000 0.0000 0.0000
# 3 15.9885 12.0445 121.4221 0.0000 0.0000 0.0000
# 4 0.0000 0.0000 0.0000 26.9242 0.0000 0.0000
# 5 0.0000 0.0000 0.0000 0.0000 28.5202 0.0000
# 6 0.0000 0.0000 0.0000 0.0000 0.0000 23.8001
#
#
#
# Elastic Compliance Matrix: (Units=1/GPa)
#
#
# Indices 1 2 3 4 5 6 
#
# 1 0.020453 -0.004088 -0.002288 0.000000 0.000000 0.000000
# 2 -0.004088 0.013917 -0.000842 0.000000 0.000000 0.000000
# 3 -0.002288 -0.000842 0.008621 0.000000 0.000000 0.000000
# 4 0.000000 0.000000 0.000000 0.037141 0.000000 0.000000
# 5 0.000000 0.000000 0.000000 0.000000 0.035063 0.000000
# 6 0.000000 0.000000 0.000000 0.000000 0.000000 0.042017
#
#
# Mechanical properties :
#
#
# Convention : Reuss Voigt Hill
#
# Bulk Modulus (GPa) = 35.01999 38.08341 36.55170
# Shear Modulus (GPa) = 27.59893 29.72369 28.66131
#
# Velocity S-wave (km/s) = 3.29971 3.42438 3.36262
# Velocity P-wave (km/s) = 5.32290 5.53710 5.43106
#
# Compressibility (1/GPa) = 0.02855512
#
# Stress axis : x y z
#
# Youngs Moduli (GPa) = 48.89161 71.85300 116.00233
#
# Poissons Ratio (x) = 0.29374 0.26538
# Poissons Ratio (y) = 0.19987 0.09770
# Poissons Ratio (z) = 0.11185 0.06052
#
# Static dielectric constant tensor:
#      x y z
#    x 1.980950 0.000000 0.000000 
#    y 0.000000 1.976920 0.000000 
#    z 0.000000 0.000000 2.161860 
# 
# From -- ./inp_files/1118.got.cif
#   From: 2010.05.17/outbox.cif.g08.bks.cpg/sg19_1_cif.got.tgz:1118.got - 2010.06.03 22:46:19.
