data_PCOD9313079
_publ_section_title
;
Structure prediction by ZEFSAII (Michael W. Deem and Ramdas Pophale) SiO2 
 PCOD9313079
Probable space group: P 21 21 2
;
_chemical_formula_sum "Si O2"
_cell_formula_units_Z 22
_cell_length_a 6.326985
_cell_length_b 12.839575
_cell_length_c 12.381752
_cell_angle_alpha 90.000000
_cell_angle_beta 90.000000
_cell_angle_gamma 90.000000
_cell_volume 1005.841510
_symmetry_space_group_name_H-M "P 21 21 2"
_symmetry_group_IT_number 18
_symmetry_cell_setting 'orthorhombic'
loop_
_space_group_symop_operation_xyz
x,y,z
-x,-y,z
1/2+x,1/2-y,-z
1/2-x,1/2+y,-z
loop_
_atom_site_type_symbol
_atom_site_label
_atom_site_fract_x
_atom_site_fract_y
_atom_site_fract_z
Si Si1 0.192183 0.232396 0.858049
Si Si2 0.089485 0.153934 0.217489
Si Si3 0.867218 0.400707 0.962415
Si Si4 0.953149 0.240934 0.640515
Si Si5 0.500000 0.500000 0.615907
Si Si6 0.156419 0.418336 0.481250
O O1 0.428679 0.278448 0.850819
O O2 0.028096 0.312439 0.915186
O O3 0.121091 0.211300 0.734428
O O4 0.222623 0.136964 0.939152
O O5 0.215526 0.076723 0.139155
O O6 0.262824 0.213693 0.287241
O O7 0.956510 0.096067 0.307043
O O8 0.000000 0.500000 0.994148
O O9 0.842667 0.143649 0.580697
O O10 0.044419 0.327134 0.555001
O O11 0.285592 0.503916 0.550717
O O12 0.000000 0.500000 0.420072
#
# Coordination Sequence:
#
# PCOD9313079 Si02
#       6
#     4   4   4   4   2   4
#     4  11  23  45  72 104 144 186 234 297 362 425
#     4  11  22  41  69 104 136 181 235 303 346 425
#     4  11  24  42  72 104 142 186 237 294 357 430
#     4  11  26  44  72 101 146 184 240 302 360 426
#     4  12  22  40  72 104 132 178 254 298 350 418
#     4  12  26  45  72 106 140 191 245 304 363 428
#
# _framework density 21.872233999999999
#
# number of rings (size 3 to 8) (size 9 to 14) (size 15 to 20)
#    0.000    0.727    5.455    2.182    2.545    0.000 
#    0.000    2.727    4.000    0.000    0.000    0.000 
#    0.000    0.000    0.000    0.000    0.000    0.000 
#
# Total GULP energy -122611.398258 kJ/mol
# GULP energy per Si atom -5573.245375 kJ/mol
# Density = 2.182245 g / cm^3
# Si number density = 21.872234 Si / 1000 Ang^3
#
#
#
# Elastic Constant Matrix: (Units=GPa)
#
#
# Indices 1 2 3 4 5 6 
#
# 1 68.6021 26.1517 24.7285 0.0000 0.0000 0.0000
# 2 26.1517 73.9984 41.2608 0.0000 0.0000 0.0000
# 3 24.7285 41.2608 72.8639 0.0000 0.0000 0.0000
# 4 0.0000 0.0000 0.0000 14.7979 0.0000 0.0000
# 5 0.0000 0.0000 0.0000 0.0000 39.1853 0.0000
# 6 0.0000 0.0000 0.0000 0.0000 0.0000 50.2832
#
#
#
# Elastic Compliance Matrix: (Units=1/GPa)
#
#
# Indices 1 2 3 4 5 6 
#
# 1 0.017454 -0.004188 -0.003552 0.000000 0.000000 0.000000
# 2 -0.004188 0.020754 -0.010331 0.000000 0.000000 0.000000
# 3 -0.003552 -0.010331 0.020780 0.000000 0.000000 0.000000
# 4 0.000000 0.000000 0.000000 0.067577 0.000000 0.000000
# 5 0.000000 0.000000 0.000000 0.000000 0.025520 0.000000
# 6 0.000000 0.000000 0.000000 0.000000 0.000000 0.019887
#
#
# Mechanical properties :
#
#
# Convention : Reuss Voigt Hill
#
# Bulk Modulus (GPa) = 43.77163 44.41626 44.09395
# Shear Modulus (GPa) = 23.17710 29.07483 26.12596
#
# Velocity S-wave (km/s) = 3.25877 3.64992 3.45988
# Velocity P-wave (km/s) = 5.84939 6.17363 6.01370
#
# Compressibility (1/GPa) = 0.02284585
#
# Stress axis : x y z
#
# Youngs Moduli (GPa) = 57.29491 48.18235 48.12289
#
# Poissons Ratio (x) = 0.20177 0.17093
# Poissons Ratio (y) = 0.23993 0.49718
# Poissons Ratio (z) = 0.20351 0.49779
#
# Static dielectric constant tensor:
#      x y z
#    x 1.799890 0.000000 0.000000 
#    y 0.000000 1.823760 0.000000 
#    z 0.000000 0.000000 1.788500 
# 
# From -- ./inp_files/6430.got.cif
#   From: 2010.05.17/outbox.cif.g08.bks.cpg/sg18_4_cif.got.tgz:6430.got - 2010.06.03 22:40:56.
