data_PCOD9313920
_publ_section_title
;
Structure prediction by ZEFSAII (Michael W. Deem and Ramdas Pophale) SiO2 
 PCOD9313920
Probable space group: P 21 21 21
;
_chemical_formula_sum "Si O2"
_cell_formula_units_Z 32
_cell_length_a 6.086146
_cell_length_b 7.915805
_cell_length_c 26.492235
_cell_angle_alpha 90.000000
_cell_angle_beta 90.000000
_cell_angle_gamma 90.000000
_cell_volume 1276.309648
_symmetry_space_group_name_H-M "P 21 21 21"
_symmetry_group_IT_number 19
_symmetry_cell_setting 'orthorhombic'
loop_
_space_group_symop_operation_xyz
x,y,z
1/2-x,-y,1/2+z
1/2+x,1/2-y,-z
-x,1/2+y,1/2-z
loop_
_atom_site_type_symbol
_atom_site_label
_atom_site_fract_x
_atom_site_fract_y
_atom_site_fract_z
Si Si1 0.257730 0.742279 0.342048
Si Si2 0.481405 0.008671 0.599828
Si Si3 0.604640 0.444126 0.333655
Si Si4 0.208375 0.274413 0.316410
Si Si5 0.267706 0.612525 0.487003
Si Si6 0.489509 0.278115 0.477868
Si Si7 0.568842 0.541949 0.742047
Si Si8 0.963000 0.571620 0.569939
O O1 0.428452 0.590926 0.337949
O O2 0.388095 0.882160 0.374033
O O3 0.052021 0.664959 0.372502
O O4 0.168724 0.803546 0.289186
O O5 0.237049 0.058059 0.614338
O O6 0.564333 0.976281 0.543577
O O7 0.615658 0.153821 0.630622
O O8 0.470044 0.274887 0.321281
O O9 0.769972 0.489111 0.289017
O O10 0.081669 0.108924 0.298030
O O11 0.152907 0.402855 0.269843
O O12 0.201238 0.618779 0.545688
O O13 0.460506 0.481227 0.474321
O O14 0.315544 0.795324 0.463281
O O15 0.751336 0.252110 0.491333
O O16 0.447962 0.128651 0.437568
#
# Coordination Sequence:
#
# PCOD9313920 Si02
#       8
#     4   4   4   4   4   4   4   4
#     4  10  22  39  60  92 125 160 217 274 319 412
#     4   9  21  39  58  89 121 162 212 264 318 396
#     4  10  20  38  59  86 121 157 209 262 326 392
#     4  10  21  36  59  85 117 162 200 259 321 389
#     4  10  21  39  66  92 134 178 222 279 344 403
#     4  10  22  43  66  97 137 179 232 286 340 414
#     4  11  21  37  61  85 123 161 204 263 332 393
#     4  10  22  39  65  98 128 179 226 279 346 413
#
# _framework density 25.072282999999999
#
# number of rings (size 3 to 8) (size 9 to 14) (size 15 to 20)
#    0.000    2.000    0.000    3.750    3.500    1.000 
#    9.000    0.000    0.000    0.000    0.000    0.000 
#    0.000    0.000    0.000    0.000    0.000    0.000 
#
# Total GULP energy -178447.612740 kJ/mol
# GULP energy per Si atom -5576.487898 kJ/mol
# Density = 2.501522 g / cm^3
# Si number density = 25.072283 Si / 1000 Ang^3
#
#
#
# Elastic Constant Matrix: (Units=GPa)
#
#
# Indices 1 2 3 4 5 6 
#
# 1 73.9610 3.0143 15.4828 0.0000 0.0000 0.0000
# 2 3.0143 76.1665 -4.3899 0.0000 0.0000 0.0000
# 3 15.4828 -4.3899 65.4281 0.0000 0.0000 0.0000
# 4 0.0000 0.0000 0.0000 46.3832 0.0000 0.0000
# 5 0.0000 0.0000 0.0000 0.0000 40.1134 0.0000
# 6 0.0000 0.0000 0.0000 0.0000 0.0000 28.9678
#
#
#
# Elastic Compliance Matrix: (Units=1/GPa)
#
#
# Indices 1 2 3 4 5 6 
#
# 1 0.014269 -0.000762 -0.003428 0.000000 0.000000 0.000000
# 2 -0.000762 0.013221 0.001067 0.000000 0.000000 0.000000
# 3 -0.003428 0.001067 0.016167 0.000000 0.000000 0.000000
# 4 0.000000 0.000000 0.000000 0.021560 0.000000 0.000000
# 5 0.000000 0.000000 0.000000 0.000000 0.024929 0.000000
# 6 0.000000 0.000000 0.000000 0.000000 0.000000 0.034521
#
#
# Mechanical properties :
#
#
# Convention : Reuss Voigt Hill
#
# Bulk Modulus (GPa) = 26.72973 27.08557 26.90765
# Shear Modulus (GPa) = 34.87176 36.52278 35.69727
#
# Velocity S-wave (km/s) = 3.73345 3.82081 3.77739
# Velocity P-wave (km/s) = 5.41009 5.50375 5.45712
#
# Compressibility (1/GPa) = 0.03741152
#
# Stress axis : x y z
#
# Youngs Moduli (GPa) = 70.08066 75.63830 61.85546
#
# Poissons Ratio (x) = 0.05766 0.21203
# Poissons Ratio (y) = 0.05342 -0.06603
# Poissons Ratio (z) = 0.24022 -0.08074
#
# Static dielectric constant tensor:
#      x y z
#    x 2.040010 0.000000 0.000000 
#    y 0.000000 2.094280 0.000000 
#    z 0.000000 0.000000 1.973200 
# 
# From -- ./inp_files/2350.got.cif
#   From: 2010.05.17/outbox.cif.g08.bks.cpg/sg19_2_cif.got.tgz:2350.got - 2010.06.03 22:46:19.
