data_PCOD9313264
_publ_section_title
;
Structure prediction by ZEFSAII (Michael W. Deem and Ramdas Pophale) SiO2 
 PCOD9313264
Probable space group: P 21 21 2
;
_chemical_formula_sum "Si O2"
_cell_formula_units_Z 16
_cell_length_a 7.812248
_cell_length_b 14.127694
_cell_length_c 5.432722
_cell_angle_alpha 90.000000
_cell_angle_beta 90.000000
_cell_angle_gamma 90.000000
_cell_volume 599.604362
_symmetry_space_group_name_H-M "P 21 21 2"
_symmetry_group_IT_number 18
_symmetry_cell_setting 'orthorhombic'
loop_
_space_group_symop_operation_xyz
x,y,z
-x,-y,z
1/2+x,1/2-y,-z
1/2-x,1/2+y,-z
loop_
_atom_site_type_symbol
_atom_site_label
_atom_site_fract_x
_atom_site_fract_y
_atom_site_fract_z
Si Si1 0.357289 0.939599 0.821547
Si Si2 0.154720 0.071491 0.135840
Si Si3 0.079253 0.839436 0.499847
Si Si4 0.129527 0.266715 0.855757
O O1 0.194397 0.912286 0.655573
O O2 0.500000 0.000000 0.680063
O O3 0.416399 0.839347 0.929439
O O4 0.311167 0.006133 0.055758
O O5 0.095029 0.112875 0.398861
O O6 0.158713 0.163353 0.965588
O O7 0.000000 0.000000 0.078291
O O8 0.201859 0.806579 0.278217
O O9 0.023225 0.749688 0.662359
#
# Coordination Sequence:
#
# PCOD9313264 Si02
#       4
#     4   4   4   4
#     4  12  31  52  81 121 164 210 278 334 394 487
#     4  12  27  53  77 114 165 214 265 328 402 483
#     4  12  28  52  83 118 165 219 258 340 417 463
#     4  12  28  50  80 120 164 211 268 339 396 491
#
# _framework density 26.684263999999999
#
# number of rings (size 3 to 8) (size 9 to 14) (size 15 to 20)
#    0.000    0.000    5.000    1.500   17.500    1.000 
#    0.000    0.000    0.000    0.000    0.000    0.000 
#    0.000    0.000    0.000    0.000    0.000    0.000 
#
# Total GULP energy -89685.488579 kJ/mol
# GULP energy per Si atom -5605.343036 kJ/mol
# Density = 2.662353 g / cm^3
# Si number density = 26.684264 Si / 1000 Ang^3
#
#
#
# Elastic Constant Matrix: (Units=GPa)
#
#
# Indices 1 2 3 4 5 6 
#
# 1 82.5644 12.3760 18.8618 0.0000 0.0000 0.0000
# 2 12.3760 146.5131 35.3395 0.0000 0.0000 0.0000
# 3 18.8618 35.3395 98.9670 0.0000 0.0000 0.0000
# 4 0.0000 0.0000 0.0000 35.1737 0.0000 0.0000
# 5 0.0000 0.0000 0.0000 0.0000 41.5647 0.0000
# 6 0.0000 0.0000 0.0000 0.0000 0.0000 54.7897
#
#
#
# Elastic Compliance Matrix: (Units=1/GPa)
#
#
# Indices 1 2 3 4 5 6 
#
# 1 0.012701 -0.000535 -0.002230 0.000000 0.000000 0.000000
# 2 -0.000535 0.007491 -0.002573 0.000000 0.000000 0.000000
# 3 -0.002230 -0.002573 0.011448 0.000000 0.000000 0.000000
# 4 0.000000 0.000000 0.000000 0.028430 0.000000 0.000000
# 5 0.000000 0.000000 0.000000 0.000000 0.024059 0.000000
# 6 0.000000 0.000000 0.000000 0.000000 0.000000 0.018252
#
#
# Mechanical properties :
#
#
# Convention : Reuss Voigt Hill
#
# Bulk Modulus (GPa) = 47.69822 51.24435 49.47129
# Shear Modulus (GPa) = 41.65097 43.73675 42.69386
#
# Velocity S-wave (km/s) = 3.95509 4.05291 4.00429
# Velocity P-wave (km/s) = 6.22662 6.41460 6.32131
#
# Compressibility (1/GPa) = 0.02096514
#
# Stress axis : x y z
#
# Youngs Moduli (GPa) = 78.73192 133.49099 87.35080
#
# Poissons Ratio (x) = 0.07143 0.19476
# Poissons Ratio (y) = 0.04213 0.22475
# Poissons Ratio (z) = 0.17554 0.34347
#
# Static dielectric constant tensor:
#      x y z
#    x 2.127420 0.000000 0.000000 
#    y 0.000000 1.981990 0.000000 
#    z 0.000000 0.000000 2.116200 
# 
# From -- ./inp_files/408.got.cif
#   From: 2010.05.17/outbox.cif.g08.bks.cpg/sg18_1_cif.got.tgz:408.got - 2010.06.03 22:40:56.
