data_PCOD9313989
_publ_section_title
;
Structure prediction by ZEFSAII (Michael W. Deem and Ramdas Pophale) SiO2 
 PCOD9313989
Probable space group: P 21 21 21
;
_chemical_formula_sum "Si O2"
_cell_formula_units_Z 32
_cell_length_a 5.491650
_cell_length_b 15.385430
_cell_length_c 13.980121
_cell_angle_alpha 90.000000
_cell_angle_beta 90.000000
_cell_angle_gamma 90.000000
_cell_volume 1181.199949
_symmetry_space_group_name_H-M "P 21 21 21"
_symmetry_group_IT_number 19
_symmetry_cell_setting 'orthorhombic'
loop_
_space_group_symop_operation_xyz
x,y,z
1/2-x,-y,1/2+z
1/2+x,1/2-y,-z
-x,1/2+y,1/2-z
loop_
_atom_site_type_symbol
_atom_site_label
_atom_site_fract_x
_atom_site_fract_y
_atom_site_fract_z
Si Si1 0.915658 0.215229 0.868463
Si Si2 0.649124 0.586062 0.378130
Si Si3 0.407461 0.351692 0.435393
Si Si4 0.941831 0.944887 0.826902
Si Si5 0.651901 0.068158 0.734929
Si Si6 0.671052 0.316036 0.605935
Si Si7 0.206342 0.792923 0.221010
Si Si8 0.870921 0.068124 0.012437
O O1 0.171246 0.237468 0.818146
O O2 0.802335 0.310319 0.871405
O O3 0.803166 0.141943 0.796560
O O4 0.915816 0.164623 0.967511
O O5 0.588951 0.545304 0.274185
O O6 0.407610 0.572875 0.446006
O O7 0.902748 0.549126 0.417117
O O8 0.252221 0.418247 0.372343
O O9 0.526644 0.379392 0.534558
O O10 0.230842 0.270743 0.454121
O O11 0.612884 0.314584 0.365295
O O12 0.076408 0.857790 0.860718
O O13 0.682983 0.973914 0.780705
O O14 0.927491 0.003105 0.922861
O O15 0.394503 0.111785 0.743488
O O16 0.493574 0.276555 0.686183
#
# Coordination Sequence:
#
# PCOD9313989 Si02
#       8
#     4   4   4   4   4   4   4   4
#     4  10  23  45  75 109 138 189 257 317 374 457
#     4  12  27  51  78 113 150 204 258 319 381 455
#     4  10  20  39  64 101 135 186 251 300 368 442
#     4  11  27  48  70 110 158 200 255 314 383 474
#     4   9  22  41  65 102 143 198 232 312 384 444
#     4  11  22  41  66 106 142 192 254 311 372 453
#     4  10  20  39  72  96 138 188 242 314 379 440
#     4  11  29  50  78 113 152 203 255 315 391 453
#
# _framework density 27.091096
#
# number of rings (size 3 to 8) (size 9 to 14) (size 15 to 20)
#    0.000    1.500    1.250    3.000    8.750    2.000 
#    4.500    0.000    0.000    0.000    0.000    0.000 
#    0.000    0.000    0.000    0.000    0.000    0.000 
#
# Total GULP energy -178713.750209 kJ/mol
# GULP energy per Si atom -5584.804694 kJ/mol
# Density = 2.702944 g / cm^3
# Si number density = 27.091096 Si / 1000 Ang^3
#
#
#
# Elastic Constant Matrix: (Units=GPa)
#
#
# Indices 1 2 3 4 5 6 
#
# 1 130.3587 56.2584 67.3440 0.0000 0.0000 0.0000
# 2 56.2584 115.5030 31.9048 0.0000 0.0000 0.0000
# 3 67.3440 31.9048 134.1287 0.0000 0.0000 0.0000
# 4 0.0000 0.0000 0.0000 32.1490 0.0000 0.0000
# 5 0.0000 0.0000 0.0000 0.0000 38.0386 0.0000
# 6 0.0000 0.0000 0.0000 0.0000 0.0000 51.3544
#
#
#
# Elastic Compliance Matrix: (Units=1/GPa)
#
#
# Indices 1 2 3 4 5 6 
#
# 1 0.012264 -0.004573 -0.005070 0.000000 0.000000 0.000000
# 2 -0.004573 0.010972 -0.000314 0.000000 0.000000 0.000000
# 3 -0.005070 -0.000314 0.010076 0.000000 0.000000 0.000000
# 4 0.000000 0.000000 0.000000 0.031105 0.000000 0.000000
# 5 0.000000 0.000000 0.000000 0.000000 0.026289 0.000000
# 6 0.000000 0.000000 0.000000 0.000000 0.000000 0.019473
#
#
# Mechanical properties :
#
#
# Convention : Reuss Voigt Hill
#
# Bulk Modulus (GPa) = 74.63675 76.77830 75.70752
# Shear Modulus (GPa) = 37.15901 39.27393 38.21647
#
# Velocity S-wave (km/s) = 3.70757 3.81162 3.75996
# Velocity P-wave (km/s) = 6.77777 6.91184 6.84514
#
# Compressibility (1/GPa) = 0.01339823
#
# Stress axis : x y z
#
# Youngs Moduli (GPa) = 81.54159 91.14247 99.24990
#
# Poissons Ratio (x) = 0.41679 0.50316
# Poissons Ratio (y) = 0.37289 0.03115
# Poissons Ratio (z) = 0.41339 0.02860
#
# Static dielectric constant tensor:
#      x y z
#    x 2.131290 0.000000 0.000000 
#    y 0.000000 2.158710 0.000000 
#    z 0.000000 0.000000 2.109980 
# 
# From -- ./inp_files/5770.got.cif
#   From: 2010.05.17/outbox.cif.g08.bks.cpg/sg19_3_cif.got.tgz:5770.got - 2010.06.03 22:46:19.
