data_PCOD9313970
_publ_section_title
;
Structure prediction by ZEFSAII (Michael W. Deem and Ramdas Pophale) SiO2 
 PCOD9313970
Probable space group: P 21 21 21
;
_chemical_formula_sum "Si O2"
_cell_formula_units_Z 28
_cell_length_a 15.904629
_cell_length_b 13.043369
_cell_length_c 5.648903
_cell_angle_alpha 90.000000
_cell_angle_beta 90.000000
_cell_angle_gamma 90.000000
_cell_volume 1171.864616
_symmetry_space_group_name_H-M "P 21 21 21"
_symmetry_group_IT_number 19
_symmetry_cell_setting 'orthorhombic'
loop_
_space_group_symop_operation_xyz
x,y,z
1/2-x,-y,1/2+z
1/2+x,1/2-y,-z
-x,1/2+y,1/2-z
loop_
_atom_site_type_symbol
_atom_site_label
_atom_site_fract_x
_atom_site_fract_y
_atom_site_fract_z
Si Si1 0.851347 0.610007 0.130153
Si Si2 0.851349 0.389994 0.369852
Si Si3 0.574832 0.499999 0.250003
Si Si4 0.706236 0.831047 0.752432
Si Si5 0.482154 0.640815 0.608673
Si Si6 0.706238 0.168953 0.747576
Si Si7 0.482154 0.359184 0.891329
O O1 0.831003 0.500000 0.250002
O O2 0.799825 0.707276 0.216068
O O3 0.947241 0.639951 0.190848
O O4 0.861508 0.584680 0.854915
O O5 0.799827 0.292724 0.283939
O O6 0.861508 0.415322 0.645090
O O7 0.947242 0.360050 0.309158
O O8 0.513263 0.551793 0.437690
O O9 0.513263 0.448204 0.062316
O O10 0.750000 0.854399 0.500005
O O11 0.610386 0.868305 0.714369
O O12 0.749999 0.868065 0.000005
O O13 0.389613 0.631695 0.714365
O O14 0.500001 0.749999 0.482167
#
# Coordination Sequence:
#
# PCOD9313970 Si02
#       7
#     4   4   4   4   4   4   4
#     4   9  21  39  64  96 126 172 225 276 323 388
#     4   9  21  39  64  96 126 172 225 276 323 388
#     4  10  20  38  78  96 126 164 242 272 322 376
#     4  11  26  41  65  97 138 179 214 265 341 398
#     4   9  21  40  66  98 128 175 223 274 322 393
#     4  11  26  41  65  97 138 179 214 265 341 398
#     4   9  21  40  66  98 128 175 223 274 322 393
#
# _framework density 23.893546000000001
#
# number of rings (size 3 to 8) (size 9 to 14) (size 15 to 20)
#    0.000    2.286    0.000    0.000   16.000    2.286 
#    0.000    0.000    9.429    0.000    0.000    0.000 
#    0.000    0.000    0.000    0.000    0.000    0.000 
#
# Total GULP energy -156176.083637 kJ/mol
# GULP energy per Si atom -5577.717273 kJ/mol
# Density = 2.383916 g / cm^3
# Si number density = 23.893546 Si / 1000 Ang^3
#
#
#
# Elastic Constant Matrix: (Units=GPa)
#
#
# Indices 1 2 3 4 5 6 
#
# 1 141.2543 4.9364 56.6336 0.0000 0.0000 0.0000
# 2 4.9364 67.7199 1.2595 0.0000 0.0000 0.0000
# 3 56.6336 1.2595 113.6749 0.0000 0.0000 0.0000
# 4 0.0000 0.0000 0.0000 14.2477 0.0000 0.0000
# 5 0.0000 0.0000 0.0000 0.0000 14.4280 0.0000
# 6 0.0000 0.0000 0.0000 0.0000 0.0000 31.4682
#
#
#
# Elastic Compliance Matrix: (Units=1/GPa)
#
#
# Indices 1 2 3 4 5 6 
#
# 1 0.008868 -0.000564 -0.004412 0.000000 0.000000 0.000000
# 2 -0.000564 0.014806 0.000117 0.000000 0.000000 0.000000
# 3 -0.004412 0.000117 0.010994 0.000000 0.000000 0.000000
# 4 0.000000 0.000000 0.000000 0.070187 0.000000 0.000000
# 5 0.000000 0.000000 0.000000 0.000000 0.069310 0.000000
# 6 0.000000 0.000000 0.000000 0.000000 0.000000 0.031778
#
#
# Mechanical properties :
#
#
# Convention : Reuss Voigt Hill
#
# Bulk Modulus (GPa) = 40.08139 49.81200 44.94669
# Shear Modulus (GPa) = 22.32374 29.35007 25.83690
#
# Velocity S-wave (km/s) = 3.05995 3.50861 3.29193
# Velocity P-wave (km/s) = 5.41256 6.10791 5.77072
#
# Compressibility (1/GPa) = 0.02494923
#
# Stress axis : x y z
#
# Youngs Moduli (GPa) = 112.76482 67.54168 90.96090
#
# Poissons Ratio (x) = 0.03812 0.40131
# Poissons Ratio (y) = 0.06364 -0.01065
# Poissons Ratio (z) = 0.49750 -0.00791
#
# Static dielectric constant tensor:
#      x y z
#    x 1.932510 0.000000 0.000000 
#    y 0.000000 2.052280 0.000000 
#    z 0.000000 0.000000 1.981030 
# 
# From -- ./inp_files/1507.got.cif
#   From: 2010.05.17/outbox.cif.g08.bks.cpg/sg19_1_cif.got.tgz:1507.got - 2010.06.03 22:46:19.
