data_PCOD9313579
_publ_section_title
;
Structure prediction by ZEFSAII (Michael W. Deem and Ramdas Pophale) SiO2 
 PCOD9313579
Probable space group: P 21 21 21
;
_chemical_formula_sum "Si O2"
_cell_formula_units_Z 20
_cell_length_a 6.774379
_cell_length_b 17.381174
_cell_length_c 6.952612
_cell_angle_alpha 90.000000
_cell_angle_beta 90.000000
_cell_angle_gamma 90.000000
_cell_volume 818.646842
_symmetry_space_group_name_H-M "P 21 21 21"
_symmetry_group_IT_number 19
_symmetry_cell_setting 'orthorhombic'
loop_
_space_group_symop_operation_xyz
x,y,z
1/2-x,-y,1/2+z
1/2+x,1/2-y,-z
-x,1/2+y,1/2-z
loop_
_atom_site_type_symbol
_atom_site_label
_atom_site_fract_x
_atom_site_fract_y
_atom_site_fract_z
Si Si1 0.997170 0.504643 0.527502
Si Si2 0.855655 0.774804 0.242976
Si Si3 0.600393 0.855497 0.719497
Si Si4 0.132165 0.587135 0.870186
Si Si5 0.971163 0.343761 0.645097
O O1 0.979692 0.576285 0.383953
O O2 0.983490 0.541017 0.738862
O O3 0.214348 0.472464 0.466265
O O4 0.889612 0.422783 0.550113
O O5 0.748009 0.856299 0.279774
O O6 0.690184 0.709316 0.239801
O O7 0.033897 0.729805 0.346302
O O8 0.939089 0.795409 0.031590
O O9 0.839840 0.861593 0.718459
O O10 0.554623 0.865555 0.948514
#
# Coordination Sequence:
#
# PCOD9313579 Si02
#       5
#     4   4   4   4   4
#     4  10  19  37  58  84 113 151 189 229 286 333
#     4  10  19  37  58  84 113 151 189 229 286 333
#     4  10  20  38  60  76 116 150 180 242 276 332
#     4  10  19  35  60  83 111 151 189 226 283 343
#     4  10  19  35  60  83 111 151 189 226 283 343
#
# _framework density 24.430558999999999
#
# number of rings (size 3 to 8) (size 9 to 14) (size 15 to 20)
#    0.000    2.400    8.000    0.000    0.000    0.000 
#    7.200    0.000    0.000    0.000    0.000    0.000 
#    0.000    0.000    0.000    0.000    0.000    0.000 
#
# Total GULP energy -111342.412944 kJ/mol
# GULP energy per Si atom -5567.120647 kJ/mol
# Density = 2.437495 g / cm^3
# Si number density = 24.430559 Si / 1000 Ang^3
#
#
#
# Elastic Constant Matrix: (Units=GPa)
#
#
# Indices 1 2 3 4 5 6 
#
# 1 36.3949 17.9143 -2.1236 0.0000 0.0000 0.0000
# 2 17.9143 126.1520 33.9997 0.0000 0.0000 0.0000
# 3 -2.1236 33.9997 72.1802 0.0000 0.0000 0.0000
# 4 0.0000 0.0000 0.0000 39.0572 0.0000 0.0000
# 5 0.0000 0.0000 0.0000 0.0000 8.0651 0.0000
# 6 0.0000 0.0000 0.0000 0.0000 0.0000 39.1568
#
#
#
# Elastic Compliance Matrix: (Units=1/GPa)
#
#
# Indices 1 2 3 4 5 6 
#
# 1 0.030226 -0.005191 0.003334 0.000000 0.000000 0.000000
# 2 -0.005191 0.009971 -0.004849 0.000000 0.000000 0.000000
# 3 0.003334 -0.004849 0.016237 0.000000 0.000000 0.000000
# 4 0.000000 0.000000 0.000000 0.025603 0.000000 0.000000
# 5 0.000000 0.000000 0.000000 0.000000 0.123992 0.000000
# 6 0.000000 0.000000 0.000000 0.000000 0.000000 0.025538
#
#
# Mechanical properties :
#
#
# Convention : Reuss Voigt Hill
#
# Bulk Modulus (GPa) = 23.24408 37.14530 30.19469
# Shear Modulus (GPa) = 19.28122 29.58494 24.43308
#
# Velocity S-wave (km/s) = 2.81236 3.48369 3.16587
# Velocity P-wave (km/s) = 4.48117 5.60526 5.07443
#
# Compressibility (1/GPa) = 0.04302170
#
# Stress axis : x y z
#
# Youngs Moduli (GPa) = 33.08410 100.28993 61.58917
#
# Poissons Ratio (x) = 0.52060 -0.20536
# Poissons Ratio (y) = 0.17174 0.29868
# Poissons Ratio (z) = -0.11032 0.48636
#
# Static dielectric constant tensor:
#      x y z
#    x 2.037840 0.000000 0.000000 
#    y 0.000000 1.955630 0.000000 
#    z 0.000000 0.000000 1.990950 
# 
# From -- ./inp_files/2716.got.cif
#   From: 2010.05.17/outbox.cif.g08.bks.cpg/sg19_2_cif.got.tgz:2716.got - 2010.06.03 22:46:19.
