data_PCOD9313950
_publ_section_title
;
Structure prediction by ZEFSAII (Michael W. Deem and Ramdas Pophale) SiO2 
 PCOD9313950
Probable space group: P 21 21 21
;
_chemical_formula_sum "Si O2"
_cell_formula_units_Z 28
_cell_length_a 7.370155
_cell_length_b 12.059175
_cell_length_c 14.977421
_cell_angle_alpha 90.000000
_cell_angle_beta 90.000000
_cell_angle_gamma 90.000000
_cell_volume 1331.163058
_symmetry_space_group_name_H-M "P 21 21 21"
_symmetry_group_IT_number 19
_symmetry_cell_setting 'orthorhombic'
loop_
_space_group_symop_operation_xyz
x,y,z
1/2-x,-y,1/2+z
1/2+x,1/2-y,-z
-x,1/2+y,1/2-z
loop_
_atom_site_type_symbol
_atom_site_label
_atom_site_fract_x
_atom_site_fract_y
_atom_site_fract_z
Si Si1 0.038748 0.210578 0.606551
Si Si2 0.179680 0.690292 0.620081
Si Si3 0.797365 0.241396 0.243934
Si Si4 0.595943 0.687026 0.556919
Si Si5 0.593914 0.439060 0.560536
Si Si6 0.208553 0.228706 0.301322
Si Si7 0.310370 0.559407 0.135670
O O1 0.163847 0.187780 0.693261
O O2 0.108964 0.143157 0.522737
O O3 0.068183 0.343365 0.592325
O O4 0.828566 0.195240 0.632565
O O5 0.391924 0.682047 0.594019
O O6 0.092427 0.742424 0.532737
O O7 0.180629 0.766547 0.708551
O O8 0.116534 0.564780 0.640138
O O9 0.789733 0.263919 0.139442
O O10 0.742940 0.114860 0.269041
O O11 0.002211 0.263155 0.279725
O O12 0.659011 0.561929 0.538686
O O13 0.687325 0.388229 0.648523
O O14 0.379219 0.442847 0.582498
#
# Coordination Sequence:
#
# PCOD9313950 Si02
#       7
#     4   4   4   4   4   4   4
#     4  10  20  38  64  89 120 163 202 251 306 364
#     4  10  22  41  60  94 121 164 205 256 307 367
#     4   8  20  41  58  87 122 163 202 255 304 359
#     4  10  22  39  64  85 130 162 200 259 308 364
#     4  10  20  39  60  92 124 159 203 257 300 372
#     4  10  21  38  63  88 124 156 212 245 301 372
#     4   8  19  40  59  85 127 151 206 251 308 350
#
# _framework density 21.034237999999998
#
# number of rings (size 3 to 8) (size 9 to 14) (size 15 to 20)
#    0.857    1.714    0.000    0.857    2.000    2.286 
#   10.286    1.429    0.000    0.000    0.000    0.000 
#    0.000    0.000    0.000    0.000    0.000    0.000 
#
# Total GULP energy -155973.187193 kJ/mol
# GULP energy per Si atom -5570.470971 kJ/mol
# Density = 2.098636 g / cm^3
# Si number density = 21.034238 Si / 1000 Ang^3
#
#
#
# Elastic Constant Matrix: (Units=GPa)
#
#
# Indices 1 2 3 4 5 6 
#
# 1 47.2729 32.6313 26.4841 0.0000 0.0000 0.0000
# 2 32.6313 110.0261 78.5096 0.0000 0.0000 0.0000
# 3 26.4841 78.5096 126.3281 0.0000 0.0000 0.0000
# 4 0.0000 0.0000 0.0000 17.9244 0.0000 0.0000
# 5 0.0000 0.0000 0.0000 0.0000 25.4061 0.0000
# 6 0.0000 0.0000 0.0000 0.0000 0.0000 17.6603
#
#
#
# Elastic Compliance Matrix: (Units=1/GPa)
#
#
# Indices 1 2 3 4 5 6 
#
# 1 0.026703 -0.007052 -0.001215 0.000000 0.000000 0.000000
# 2 -0.007052 0.018193 -0.009828 0.000000 0.000000 0.000000
# 3 -0.001215 -0.009828 0.014279 0.000000 0.000000 0.000000
# 4 0.000000 0.000000 0.000000 0.055790 0.000000 0.000000
# 5 0.000000 0.000000 0.000000 0.000000 0.039361 0.000000
# 6 0.000000 0.000000 0.000000 0.000000 0.000000 0.056624
#
#
# Mechanical properties :
#
#
# Convention : Reuss Voigt Hill
#
# Bulk Modulus (GPa) = 43.51026 62.09746 52.80386
# Shear Modulus (GPa) = 19.62310 21.93161 20.77736
#
# Velocity S-wave (km/s) = 3.05768 3.23253 3.14632
# Velocity P-wave (km/s) = 5.76161 6.59686 6.19333
#
# Compressibility (1/GPa) = 0.02298309
#
# Stress axis : x y z
#
# Youngs Moduli (GPa) = 37.44956 54.96552 70.03475
#
# Poissons Ratio (x) = 0.38763 0.08511
# Poissons Ratio (y) = 0.26410 0.68831
# Poissons Ratio (z) = 0.04551 0.54021
#
# Static dielectric constant tensor:
#      x y z
#    x 1.831840 0.000000 0.000000 
#    y 0.000000 1.743430 0.000000 
#    z 0.000000 0.000000 1.746210 
# 
# From -- ./inp_files/5881.got.cif
#   From: 2010.05.17/outbox.cif.g08.bks.cpg/sg19_3_cif.got.tgz:5881.got - 2010.06.03 22:46:19.
