data_PCOD9313112
_publ_section_title
;
Structure prediction by ZEFSAII (Michael W. Deem and Ramdas Pophale) SiO2 
 PCOD9313112
Probable space group: P 21 21 2
;
_chemical_formula_sum "Si O2"
_cell_formula_units_Z 16
_cell_length_a 10.117862
_cell_length_b 8.414539
_cell_length_c 7.399394
_cell_angle_alpha 90.000000
_cell_angle_beta 90.000000
_cell_angle_gamma 90.000000
_cell_volume 629.963275
_symmetry_space_group_name_H-M "P 21 21 2"
_symmetry_group_IT_number 18
_symmetry_cell_setting 'orthorhombic'
loop_
_space_group_symop_operation_xyz
x,y,z
-x,-y,z
1/2+x,1/2-y,-z
1/2-x,1/2+y,-z
loop_
_atom_site_type_symbol
_atom_site_label
_atom_site_fract_x
_atom_site_fract_y
_atom_site_fract_z
Si Si1 0.505483 0.812780 0.646763
Si Si2 0.347468 0.526720 0.228457
Si Si3 0.734958 0.877745 0.398659
Si Si4 0.727063 0.650682 0.881014
O O1 0.593993 0.806297 0.461802
O O2 0.362747 0.734035 0.626179
O O3 0.589701 0.712043 0.792102
O O4 0.500000 0.000000 0.697736
O O5 0.500000 0.500000 0.252508
O O6 0.276714 0.527416 0.420432
O O7 0.322799 0.700697 0.143619
O O8 0.723926 0.999784 0.234240
O O9 0.707456 0.599431 0.085698
#
# Coordination Sequence:
#
# PCOD9313112 Si02
#       4
#     4   4   4   4
#     4  11  23  43  73 103 137 184 230 282 348 411
#     4  11  25  44  69 100 135 181 232 285 346 415
#     4  11  25  47  72 102 139 181 229 284 346 411
#     4  11  26  44  69 101 139 182 229 289 347 409
#
# _framework density 25.398306000000002
#
# number of rings (size 3 to 8) (size 9 to 14) (size 15 to 20)
#    0.000    1.000    0.000    6.750    0.000   16.000 
#    0.000    5.000    0.000    3.000    0.000    0.000 
#    0.000    0.000    0.000    0.000    0.000    0.000 
#
# Total GULP energy -89790.810608 kJ/mol
# GULP energy per Si atom -5611.925663 kJ/mol
# Density = 2.534050 g / cm^3
# Si number density = 25.398306 Si / 1000 Ang^3
#
#
#
# Elastic Constant Matrix: (Units=GPa)
#
#
# Indices 1 2 3 4 5 6 
#
# 1 116.9476 56.0295 19.6908 0.0000 0.0000 0.0000
# 2 56.0295 114.9418 -7.0860 0.0000 0.0000 0.0000
# 3 19.6908 -7.0860 83.5288 0.0000 0.0000 0.0000
# 4 0.0000 0.0000 0.0000 36.1920 0.0000 0.0000
# 5 0.0000 0.0000 0.0000 0.0000 30.2035 0.0000
# 6 0.0000 0.0000 0.0000 0.0000 0.0000 47.7088
#
#
#
# Elastic Compliance Matrix: (Units=1/GPa)
#
#
# Indices 1 2 3 4 5 6 
#
# 1 0.012021 -0.006066 -0.003348 0.000000 0.000000 0.000000
# 2 -0.006066 0.011807 0.002432 0.000000 0.000000 0.000000
# 3 -0.003348 0.002432 0.012968 0.000000 0.000000 0.000000
# 4 0.000000 0.000000 0.000000 0.027630 0.000000 0.000000
# 5 0.000000 0.000000 0.000000 0.000000 0.033109 0.000000
# 6 0.000000 0.000000 0.000000 0.000000 0.000000 0.020960
#
#
# Mechanical properties :
#
#
# Convention : Reuss Voigt Hill
#
# Bulk Modulus (GPa) = 43.80270 50.29853 47.05062
# Shear Modulus (GPa) = 35.69626 39.27312 37.48469
#
# Velocity S-wave (km/s) = 3.75301 3.93655 3.84588
# Velocity P-wave (km/s) = 6.00532 6.36465 6.18760
#
# Compressibility (1/GPa) = 0.02282964
#
# Stress axis : x y z
#
# Youngs Moduli (GPa) = 83.18859 84.69586 77.11567
#
# Poissons Ratio (x) = 0.51377 0.25821
# Poissons Ratio (y) = 0.50463 -0.18752
# Poissons Ratio (z) = 0.27855 -0.20595
#
# Static dielectric constant tensor:
#      x y z
#    x 1.997050 0.000000 0.000000 
#    y 0.000000 2.070950 0.000000 
#    z 0.000000 0.000000 1.971080 
# 
# From -- ./inp_files/3603.got.cif
#   From: 2010.05.17/outbox.cif.g08.bks.cpg/sg18_2_cif.got.tgz:3603.got - 2010.06.03 22:40:56.
