data_PCOD9313475
_publ_section_title
;
Structure prediction by ZEFSAII (Michael W. Deem and Ramdas Pophale) SiO2 
 PCOD9313475
Probable space group: P 21 21 21
;
_chemical_formula_sum "Si O2"
_cell_formula_units_Z 24
_cell_length_a 11.448974
_cell_length_b 13.545525
_cell_length_c 6.026383
_cell_angle_alpha 90.000000
_cell_angle_beta 90.000000
_cell_angle_gamma 90.000000
_cell_volume 934.585719
_symmetry_space_group_name_H-M "P 21 21 21"
_symmetry_group_IT_number 19
_symmetry_cell_setting 'orthorhombic'
loop_
_space_group_symop_operation_xyz
x,y,z
1/2-x,-y,1/2+z
1/2+x,1/2-y,-z
-x,1/2+y,1/2-z
loop_
_atom_site_type_symbol
_atom_site_label
_atom_site_fract_x
_atom_site_fract_y
_atom_site_fract_z
Si Si1 0.599676 0.618630 0.150830
Si Si2 0.703852 0.312429 0.393367
Si Si3 0.678814 0.875850 0.746779
Si Si4 0.100232 0.482174 0.917776
Si Si5 0.018838 0.688424 0.603184
Si Si6 0.573967 0.171287 0.721333
O O1 0.525810 0.548966 0.317364
O O2 0.588279 0.727713 0.259946
O O3 0.730064 0.608277 0.050009
O O4 0.525522 0.623234 0.926744
O O5 0.788832 0.241260 0.247918
O O6 0.594704 0.345452 0.243199
O O7 0.656498 0.229002 0.557815
O O8 0.797694 0.939422 0.737614
O O9 0.601639 0.889983 0.521902
O O10 0.612835 0.909477 0.973731
O O11 0.124148 0.415692 0.134503
O O12 0.966428 0.747495 0.395497
#
# Coordination Sequence:
#
# PCOD9313475 Si02
#       6
#     4   4   4   4   4   4
#     4  10  21  38  63  99 143 185 235 295 349 432
#     4  11  21  38  66 100 140 186 244 291 347 427
#     4  12  22  40  64 104 152 179 232 305 355 438
#     4  11  24  38  62 105 148 184 225 298 381 410
#     4  10  22  37  63 104 137 188 239 284 362 424
#     4  10  18  39  60 100 130 184 233 285 362 409
#
# _framework density 25.679829000000002
#
# number of rings (size 3 to 8) (size 9 to 14) (size 15 to 20)
#    0.000    1.333    6.667    2.000    0.000    0.000 
#    0.000    0.000    0.000    0.000    8.667   14.000 
#    0.000    0.000    0.000    0.000    0.000    0.000 
#
# Total GULP energy -134077.343072 kJ/mol
# GULP energy per Si atom -5586.555961 kJ/mol
# Density = 2.562138 g / cm^3
# Si number density = 25.679829 Si / 1000 Ang^3
#
#
#
# Elastic Constant Matrix: (Units=GPa)
#
#
# Indices 1 2 3 4 5 6 
#
# 1 56.1981 24.3446 15.9766 0.0000 0.0000 0.0000
# 2 24.3446 88.0393 23.6556 0.0000 0.0000 0.0000
# 3 15.9766 23.6556 80.5591 0.0000 0.0000 0.0000
# 4 0.0000 0.0000 0.0000 37.0534 0.0000 0.0000
# 5 0.0000 0.0000 0.0000 0.0000 50.4842 0.0000
# 6 0.0000 0.0000 0.0000 0.0000 0.0000 31.0804
#
#
#
# Elastic Compliance Matrix: (Units=1/GPa)
#
#
# Indices 1 2 3 4 5 6 
#
# 1 0.020718 -0.005021 -0.002634 0.000000 0.000000 0.000000
# 2 -0.005021 0.013548 -0.002983 0.000000 0.000000 0.000000
# 3 -0.002634 -0.002983 0.013812 0.000000 0.000000 0.000000
# 4 0.000000 0.000000 0.000000 0.026988 0.000000 0.000000
# 5 0.000000 0.000000 0.000000 0.000000 0.019808 0.000000
# 6 0.000000 0.000000 0.000000 0.000000 0.000000 0.032175
#
#
# Mechanical properties :
#
#
# Convention : Reuss Voigt Hill
#
# Bulk Modulus (GPa) = 37.31087 39.19444 38.25265
# Shear Modulus (GPa) = 31.79459 34.44491 33.11975
#
# Velocity S-wave (km/s) = 3.52250 3.66638 3.59516
# Velocity P-wave (km/s) = 5.57717 5.76359 5.67115
#
# Compressibility (1/GPa) = 0.02680184
#
# Stress axis : x y z
#
# Youngs Moduli (GPa) = 48.26655 73.80943 72.40324
#
# Poissons Ratio (x) = 0.37061 0.19074
# Poissons Ratio (y) = 0.24235 0.21595
# Poissons Ratio (z) = 0.12716 0.22014
#
# Static dielectric constant tensor:
#      x y z
#    x 2.070650 0.000000 0.000000 
#    y 0.000000 2.104840 0.000000 
#    z 0.000000 0.000000 2.061300 
# 
# From -- ./inp_files/945.got.cif
#   From: 2010.05.17/outbox.cif.g08.bks.cpg/sg19_1_cif.got.tgz:945.got - 2010.06.03 22:46:19.
