data_PCOD9313186
_publ_section_title
;
Structure prediction by ZEFSAII (Michael W. Deem and Ramdas Pophale) SiO2 
 PCOD9313186
Probable space group: P 21 21 2
;
_chemical_formula_sum "Si O2"
_cell_formula_units_Z 22
_cell_length_a 11.957221
_cell_length_b 14.759835
_cell_length_c 5.129740
_cell_angle_alpha 90.000000
_cell_angle_beta 90.000000
_cell_angle_gamma 90.000000
_cell_volume 905.330418
_symmetry_space_group_name_H-M "P 21 21 2"
_symmetry_group_IT_number 18
_symmetry_cell_setting 'orthorhombic'
loop_
_space_group_symop_operation_xyz
x,y,z
-x,-y,z
1/2+x,1/2-y,-z
1/2-x,1/2+y,-z
loop_
_atom_site_type_symbol
_atom_site_label
_atom_site_fract_x
_atom_site_fract_y
_atom_site_fract_z
Si Si1 0.500000 0.500000 0.961898
Si Si2 0.840883 0.343932 0.335077
Si Si3 0.119382 0.232952 0.781633
Si Si4 0.782430 0.013950 0.671442
Si Si5 0.585834 0.143255 0.731904
Si Si6 0.057040 0.852453 0.439059
O O1 0.493925 0.591831 0.786199
O O2 0.384253 0.496484 0.124947
O O3 0.741639 0.307148 0.148900
O O4 0.767169 0.423771 0.464242
O O5 0.889271 0.247933 0.432889
O O6 0.958649 0.392015 0.277268
O O7 0.120703 0.303619 0.535005
O O8 0.031173 0.159466 0.673723
O O9 0.079866 0.284582 0.035454
O O10 0.678299 0.068303 0.792992
O O11 0.838507 0.081640 0.470673
#
# Coordination Sequence:
#
# PCOD9313186 Si02
#       6
#     2   4   4   4   4   4
#     4  12  26  48  80 106 160 200 282 328 402 468
#     4  11  25  47  77 111 158 208 259 327 409 464
#     4  11  25  47  79 110 153 204 263 322 391 469
#     4  12  26  49  76 115 158 210 267 333 401 479
#     4  11  27  48  75 113 157 202 261 329 388 472
#     4  11  26  49  74 116 153 208 272 332 392 491
#
# _framework density 24.300522000000001
#
# number of rings (size 3 to 8) (size 9 to 14) (size 15 to 20)
#    0.000    0.727    1.818    4.364   12.727    0.000 
#    6.545    3.636    0.000    0.000    0.000    0.000 
#    0.000    0.000    0.000    0.000    0.000    0.000 
#
# Total GULP energy -122529.338809 kJ/mol
# GULP energy per Si atom -5569.515400 kJ/mol
# Density = 2.424521 g / cm^3
# Si number density = 24.300522 Si / 1000 Ang^3
#
#
#
# Elastic Constant Matrix: (Units=GPa)
#
#
# Indices 1 2 3 4 5 6 
#
# 1 205.1796 59.0191 16.8118 0.0000 0.0000 0.0000
# 2 59.0191 152.4178 22.5392 0.0000 0.0000 0.0000
# 3 16.8118 22.5392 60.9149 0.0000 0.0000 0.0000
# 4 0.0000 0.0000 0.0000 18.2876 0.0000 0.0000
# 5 0.0000 0.0000 0.0000 0.0000 14.6879 0.0000
# 6 0.0000 0.0000 0.0000 0.0000 0.0000 73.3159
#
#
#
# Elastic Compliance Matrix: (Units=1/GPa)
#
#
# Indices 1 2 3 4 5 6 
#
# 1 0.005519 -0.002022 -0.000775 0.000000 0.000000 0.000000
# 2 -0.002022 0.007682 -0.002284 0.000000 0.000000 0.000000
# 3 -0.000775 -0.002284 0.017475 0.000000 0.000000 0.000000
# 4 0.000000 0.000000 0.000000 0.054682 0.000000 0.000000
# 5 0.000000 0.000000 0.000000 0.000000 0.068083 0.000000
# 6 0.000000 0.000000 0.000000 0.000000 0.000000 0.013640
#
#
# Mechanical properties :
#
#
# Convention : Reuss Voigt Hill
#
# Bulk Modulus (GPa) = 48.74912 68.36141 58.55526
# Shear Modulus (GPa) = 27.16186 42.60108 34.88147
#
# Velocity S-wave (km/s) = 3.34690 4.19154 3.79280
# Velocity P-wave (km/s) = 5.91947 7.18457 6.58248
#
# Compressibility (1/GPa) = 0.02051319
#
# Stress axis : x y z
#
# Youngs Moduli (GPa) = 181.19128 130.17708 57.22341
#
# Poissons Ratio (x) = 0.26328 0.04434
# Poissons Ratio (y) = 0.36646 0.13071
# Poissons Ratio (z) = 0.14039 0.29735
#
# Static dielectric constant tensor:
#      x y z
#    x 1.940150 0.000000 0.000000 
#    y 0.000000 2.050190 0.000000 
#    z 0.000000 0.000000 1.978590 
# 
# From -- ./inp_files/1064.got.cif
#   From: 2010.05.17/outbox.cif.g08.bks.cpg/sg18_1_cif.got.tgz:1064.got - 2010.06.03 22:40:56.
