data_PCOD9313547
_publ_section_title
;
Structure prediction by ZEFSAII (Michael W. Deem and Ramdas Pophale) SiO2 
 PCOD9313547
Probable space group: P 21 21 21
;
_chemical_formula_sum "Si O2"
_cell_formula_units_Z 28
_cell_length_a 11.977189
_cell_length_b 12.362979
_cell_length_c 7.375078
_cell_angle_alpha 90.000000
_cell_angle_beta 90.000000
_cell_angle_gamma 90.000000
_cell_volume 1092.055353
_symmetry_space_group_name_H-M "P 21 21 21"
_symmetry_group_IT_number 19
_symmetry_cell_setting 'orthorhombic'
loop_
_space_group_symop_operation_xyz
x,y,z
1/2-x,-y,1/2+z
1/2+x,1/2-y,-z
-x,1/2+y,1/2-z
loop_
_atom_site_type_symbol
_atom_site_label
_atom_site_fract_x
_atom_site_fract_y
_atom_site_fract_z
Si Si1 0.559609 0.483612 0.878333
Si Si2 0.879876 0.171811 0.627353
Si Si3 0.290433 0.174166 0.643550
Si Si4 0.047598 0.984544 0.688847
Si Si5 0.316152 0.515608 0.945389
Si Si6 0.841310 0.851502 0.678329
Si Si7 0.252465 0.141171 0.232063
O O1 0.632283 0.578063 0.784076
O O2 0.429037 0.492865 0.834226
O O3 0.628458 0.373268 0.847004
O O4 0.557570 0.512231 0.091637
O O5 0.874530 0.232280 0.433293
O O6 0.775159 0.092535 0.642652
O O7 0.844276 0.262014 0.774052
O O8 0.989061 0.098381 0.642090
O O9 0.200367 0.231202 0.773320
O O10 0.235002 0.142326 0.450152
O O11 0.174521 0.955212 0.644898
O O12 0.963567 0.890423 0.618235
O O13 0.250299 0.403128 0.953433
O O14 0.336677 0.581715 0.130306
#
# Coordination Sequence:
#
# PCOD9313547 Si02
#       7
#     4   4   4   4   4   4   4
#     4  10  19  34  56  82 120 144 188 248 293 333
#     4   8  17  36  58  77 112 152 192 231 288 344
#     4   8  18  35  57  83 110 153 190 235 287 351
#     4   9  18  35  59  78 112 156 188 242 284 342
#     4   9  18  33  58  84 116 148 193 243 283 340
#     4   9  17  35  59  86 110 155 198 236 283 345
#     4   9  19  34  55  82 114 150 183 243 284 339
#
# _framework density 25.639724000000001
#
# number of rings (size 3 to 8) (size 9 to 14) (size 15 to 20)
#    0.857    2.286    0.000    0.000    0.000    2.286 
#    5.143    7.143   50.286    0.000    0.000    0.000 
#    0.000    0.000    0.000    0.000    0.000    0.000 
#
# Total GULP energy -155888.743760 kJ/mol
# GULP energy per Si atom -5567.455134 kJ/mol
# Density = 2.558137 g / cm^3
# Si number density = 25.639724 Si / 1000 Ang^3
#
#
#
# Elastic Constant Matrix: (Units=GPa)
#
#
# Indices 1 2 3 4 5 6 
#
# 1 98.7718 5.9793 -20.4500 0.0000 0.0000 0.0000
# 2 5.9793 37.5208 2.3822 0.0000 0.0000 0.0000
# 3 -20.4500 2.3822 39.1914 0.0000 0.0000 0.0000
# 4 0.0000 0.0000 0.0000 28.7344 0.0000 0.0000
# 5 0.0000 0.0000 0.0000 0.0000 17.0639 0.0000
# 6 0.0000 0.0000 0.0000 0.0000 0.0000 37.7401
#
#
#
# Elastic Compliance Matrix: (Units=1/GPa)
#
#
# Indices 1 2 3 4 5 6 
#
# 1 0.011533 -0.002229 0.006154 0.000000 0.000000 0.000000
# 2 -0.002229 0.027186 -0.002815 0.000000 0.000000 0.000000
# 3 0.006154 -0.002815 0.028898 0.000000 0.000000 0.000000
# 4 0.000000 0.000000 0.000000 0.034801 0.000000 0.000000
# 5 0.000000 0.000000 0.000000 0.000000 0.058603 0.000000
# 6 0.000000 0.000000 0.000000 0.000000 0.000000 0.026497
#
#
# Mechanical properties :
#
#
# Convention : Reuss Voigt Hill
#
# Bulk Modulus (GPa) = 14.31925 16.81188 15.56556
# Shear Modulus (GPa) = 23.97182 29.21252 26.59217
#
# Velocity S-wave (km/s) = 3.06101 3.37908 3.22397
# Velocity P-wave (km/s) = 4.25323 4.66856 4.46573
#
# Compressibility (1/GPa) = 0.06983606
#
# Stress axis : x y z
#
# Youngs Moduli (GPa) = 86.70543 36.78396 34.60470
#
# Poissons Ratio (x) = 0.08198 -0.21294
# Poissons Ratio (y) = 0.19323 0.09742
# Poissons Ratio (z) = -0.53354 0.10356
#
# Static dielectric constant tensor:
#      x y z
#    x 2.036890 0.000000 0.000000 
#    y 0.000000 2.182730 0.000000 
#    z 0.000000 0.000000 2.074910 
# 
# From -- ./inp_files/4981.got.cif
#   From: 2010.05.17/outbox.cif.g08.bks.cpg/sg19_3_cif.got.tgz:4981.got - 2010.06.03 22:46:19.
