data_PCOD9313706
_publ_section_title
;
Structure prediction by ZEFSAII (Michael W. Deem and Ramdas Pophale) SiO2 
 PCOD9313706
Probable space group: P 21 21 21
;
_chemical_formula_sum "Si O2"
_cell_formula_units_Z 20
_cell_length_a 7.069242
_cell_length_b 12.409303
_cell_length_c 8.014712
_cell_angle_alpha 90.000000
_cell_angle_beta 90.000000
_cell_angle_gamma 90.000000
_cell_volume 703.085529
_symmetry_space_group_name_H-M "P 21 21 21"
_symmetry_group_IT_number 19
_symmetry_cell_setting 'orthorhombic'
loop_
_space_group_symop_operation_xyz
x,y,z
1/2-x,-y,1/2+z
1/2+x,1/2-y,-z
-x,1/2+y,1/2-z
loop_
_atom_site_type_symbol
_atom_site_label
_atom_site_fract_x
_atom_site_fract_y
_atom_site_fract_z
Si Si1 0.013874 0.352935 0.494449
Si Si2 0.164171 0.016229 0.521285
Si Si3 0.387242 0.352570 0.674492
Si Si4 0.637799 0.160389 0.009557
Si Si5 0.530412 0.827815 0.280161
O O1 0.884882 0.457988 0.486444
O O2 0.947007 0.272401 0.346917
O O3 0.967155 0.275235 0.654258
O O4 0.233238 0.376662 0.527318
O O5 0.073007 0.080436 0.364150
O O6 0.081434 0.079953 0.682671
O O7 0.057580 0.904091 0.514216
O O8 0.275876 0.377397 0.841168
O O9 0.582657 0.281943 0.059394
O O10 0.762091 0.144029 0.845406
#
# Coordination Sequence:
#
# PCOD9313706 Si02
#       5
#     4   4   4   4   4
#     4  10  19  40  66  87 122 173 214 250 315 387
#     4  11  22  43  67  92 125 177 218 245 326 395
#     4  10  20  39  66  88 126 172 206 260 314 372
#     4  11  23  42  62  99 132 157 213 277 313 377
#     4  10  24  42  63  98 129 165 211 266 330 359
#
# _framework density 28.446044000000001
#
# number of rings (size 3 to 8) (size 9 to 14) (size 15 to 20)
#    0.000    1.600    6.000    1.200    2.800    0.000 
#   10.800    0.000    0.000    0.000    0.000    0.000 
#    0.000    0.000    0.000    0.000    0.000    0.000 
#
# Total GULP energy -112212.022373 kJ/mol
# GULP energy per Si atom -5610.601119 kJ/mol
# Density = 2.838130 g / cm^3
# Si number density = 28.446044 Si / 1000 Ang^3
#
#
#
# Elastic Constant Matrix: (Units=GPa)
#
#
# Indices 1 2 3 4 5 6 
#
# 1 144.2318 25.5021 5.1244 0.0000 0.0000 0.0000
# 2 25.5021 72.5688 24.5798 0.0000 0.0000 0.0000
# 3 5.1244 24.5798 80.7522 0.0000 0.0000 0.0000
# 4 0.0000 0.0000 0.0000 39.9753 0.0000 0.0000
# 5 0.0000 0.0000 0.0000 0.0000 51.5391 0.0000
# 6 0.0000 0.0000 0.0000 0.0000 0.0000 42.6856
#
#
#
# Elastic Compliance Matrix: (Units=1/GPa)
#
#
# Indices 1 2 3 4 5 6 
#
# 1 0.007402 -0.002723 0.000359 0.000000 0.000000 0.000000
# 2 -0.002723 0.016366 -0.004809 0.000000 0.000000 0.000000
# 3 0.000359 -0.004809 0.013824 0.000000 0.000000 0.000000
# 4 0.000000 0.000000 0.000000 0.025015 0.000000 0.000000
# 5 0.000000 0.000000 0.000000 0.000000 0.019403 0.000000
# 6 0.000000 0.000000 0.000000 0.000000 0.000000 0.023427
#
#
# Mechanical properties :
#
#
# Convention : Reuss Voigt Hill
#
# Bulk Modulus (GPa) = 43.01591 45.32948 44.17269
# Shear Modulus (GPa) = 39.20609 42.99643 41.10126
#
# Velocity S-wave (km/s) = 3.71652 3.89203 3.80529
# Velocity P-wave (km/s) = 5.79409 6.01390 5.90502
#
# Compressibility (1/GPa) = 0.02324722
#
# Stress axis : x y z
#
# Youngs Moduli (GPa) = 135.09945 61.10374 72.33555
#
# Poissons Ratio (x) = 0.16637 -0.02597
# Poissons Ratio (y) = 0.36785 0.34784
# Poissons Ratio (z) = -0.04851 0.29383
#
# Static dielectric constant tensor:
#      x y z
#    x 2.130460 0.000000 0.000000 
#    y 0.000000 2.196690 0.000000 
#    z 0.000000 0.000000 2.337980 
# 
# From -- ./inp_files/2633.got.cif
#   From: 2010.05.17/outbox.cif.g08.bks.cpg/sg19_2_cif.got.tgz:2633.got - 2010.06.03 22:46:19.
