data_PCOD9313235
_publ_section_title
;
Structure prediction by ZEFSAII (Michael W. Deem and Ramdas Pophale) SiO2 
 PCOD9313235
Probable space group: P 21 21 2
;
_chemical_formula_sum "Si O2"
_cell_formula_units_Z 22
_cell_length_a 13.192883
_cell_length_b 5.988905
_cell_length_c 12.182396
_cell_angle_alpha 90.000000
_cell_angle_beta 90.000000
_cell_angle_gamma 90.000000
_cell_volume 962.542352
_symmetry_space_group_name_H-M "P 21 21 2"
_symmetry_group_IT_number 18
_symmetry_cell_setting 'orthorhombic'
loop_
_space_group_symop_operation_xyz
x,y,z
-x,-y,z
1/2+x,1/2-y,-z
1/2-x,1/2+y,-z
loop_
_atom_site_type_symbol
_atom_site_label
_atom_site_fract_x
_atom_site_fract_y
_atom_site_fract_z
Si Si1 0.860942 0.871320 0.627487
Si Si2 0.646404 0.638050 0.918085
Si Si3 0.361689 0.283382 0.574823
Si Si4 0.000000 0.000000 0.246307
Si Si5 0.000000 0.500000 0.986632
Si Si6 0.644960 0.349935 0.131232
Si Si7 0.500000 0.000000 0.442277
O O1 0.752169 0.748452 0.615780
O O2 0.865465 0.965852 0.750564
O O3 0.956613 0.705583 0.624608
O O4 0.866186 0.030779 0.521379
O O5 0.590602 0.457049 0.840131
O O6 0.753020 0.704235 0.868224
O O7 0.658652 0.532120 0.037052
O O8 0.577252 0.858130 0.936961
O O9 0.442146 0.335167 0.670894
O O10 0.404789 0.063546 0.517489
O O11 0.942958 0.682092 0.910128
#
# Coordination Sequence:
#
# PCOD9313235 Si02
#       7
#     4   4   4   2   2   4   2
#     4  12  26  47  73 108 144 191 240 301 362 441
#     4  12  26  47  74 107 144 192 245 294 370 428
#     4  12  26  47  74 107 144 192 245 294 370 428
#     4  12  24  50  74 106 148 188 252 306 350 448
#     4  12  25  47  74 106 142 189 241 298 370 428
#     4  12  26  47  73 108 144 191 240 301 362 441
#     4  12  25  47  74 106 142 189 241 298 370 428
#
# _framework density 22.856137
#
# number of rings (size 3 to 8) (size 9 to 14) (size 15 to 20)
#    0.000    0.000    9.091    0.545    0.000    5.091 
#    9.818    0.000    0.000    0.000    0.000    0.000 
#    0.000    0.000    0.000    0.000    0.000    0.000 
#
# Total GULP energy -122900.293812 kJ/mol
# GULP energy per Si atom -5586.376991 kJ/mol
# Density = 2.280411 g / cm^3
# Si number density = 22.856137 Si / 1000 Ang^3
#
#
#
# Elastic Constant Matrix: (Units=GPa)
#
#
# Indices 1 2 3 4 5 6 
#
# 1 110.3838 3.3250 10.8617 0.0000 0.0000 0.0000
# 2 3.3250 24.6621 13.5938 0.0000 0.0000 0.0000
# 3 10.8617 13.5938 155.1274 0.0000 0.0000 0.0000
# 4 0.0000 0.0000 0.0000 24.0430 0.0000 0.0000
# 5 0.0000 0.0000 0.0000 0.0000 12.9810 0.0000
# 6 0.0000 0.0000 0.0000 0.0000 0.0000 47.0439
#
#
#
# Elastic Compliance Matrix: (Units=1/GPa)
#
#
# Indices 1 2 3 4 5 6 
#
# 1 0.009142 -0.000924 -0.000559 0.000000 0.000000 0.000000
# 2 -0.000924 0.042700 -0.003677 0.000000 0.000000 0.000000
# 3 -0.000559 -0.003677 0.006808 0.000000 0.000000 0.000000
# 4 0.000000 0.000000 0.000000 0.041592 0.000000 0.000000
# 5 0.000000 0.000000 0.000000 0.000000 0.077036 0.000000
# 6 0.000000 0.000000 0.000000 0.000000 0.000000 0.021257
#
#
# Mechanical properties :
#
#
# Convention : Reuss Voigt Hill
#
# Bulk Modulus (GPa) = 20.69180 38.41490 29.55335
# Shear Modulus (GPa) = 22.22576 34.30645 28.26611
#
# Velocity S-wave (km/s) = 3.12175 3.87844 3.52048
# Velocity P-wave (km/s) = 4.69749 6.07455 5.42985
#
# Compressibility (1/GPa) = 0.04832833
#
# Stress axis : x y z
#
# Youngs Moduli (GPa) = 109.38334 23.41948 146.89301
#
# Poissons Ratio (x) = 0.02165 0.08213
# Poissons Ratio (y) = 0.10111 0.54013
# Poissons Ratio (z) = 0.06116 0.08611
#
# Static dielectric constant tensor:
#      x y z
#    x 1.859980 0.000000 0.000000 
#    y 0.000000 1.925710 0.000000 
#    z 0.000000 0.000000 1.844750 
# 
# From -- ./inp_files/5109.got.cif
#   From: 2010.05.17/outbox.cif.g08.bks.cpg/sg18_3_cif.got.tgz:5109.got - 2010.06.03 22:40:56.
