data_PCOD9313887
_publ_section_title
;
Structure prediction by ZEFSAII (Michael W. Deem and Ramdas Pophale) SiO2 
 PCOD9313887
Probable space group: P 21 21 21
;
_chemical_formula_sum "Si O2"
_cell_formula_units_Z 28
_cell_length_a 26.280638
_cell_length_b 4.961066
_cell_length_c 10.152560
_cell_angle_alpha 90.000000
_cell_angle_beta 90.000000
_cell_angle_gamma 90.000000
_cell_volume 1323.690566
_symmetry_space_group_name_H-M "P 21 21 21"
_symmetry_group_IT_number 19
_symmetry_cell_setting 'orthorhombic'
loop_
_space_group_symop_operation_xyz
x,y,z
1/2-x,-y,1/2+z
1/2+x,1/2-y,-z
-x,1/2+y,1/2-z
loop_
_atom_site_type_symbol
_atom_site_label
_atom_site_fract_x
_atom_site_fract_y
_atom_site_fract_z
Si Si1 0.872337 0.487744 0.712531
Si Si2 0.341995 0.955503 0.581223
Si Si3 0.973686 0.792313 0.797121
Si Si4 0.430239 0.129600 0.765415
Si Si5 0.307594 0.504936 0.231982
Si Si6 0.968471 0.868845 0.094762
Si Si7 0.277091 0.446335 0.527201
O O1 0.871992 0.480827 0.554035
O O2 0.923788 0.624073 0.760034
O O3 0.855815 0.196224 0.764815
O O4 0.827642 0.691710 0.755833
O O5 0.321964 0.651326 0.571375
O O6 0.378052 0.032109 0.701567
O O7 0.293356 0.151107 0.575667
O O8 0.015708 0.551653 0.794762
O O9 0.970266 0.920161 0.941215
O O10 0.475291 0.107181 0.657053
O O11 0.432668 0.427974 0.824011
O O12 0.447637 0.929420 0.880570
O O13 0.276503 0.448611 0.368049
O O14 0.273641 0.469430 0.102965
#
# Coordination Sequence:
#
# PCOD9313887 Si02
#       7
#     4   4   4   4   4   4   4
#     4  10  22  39  62  87 121 157 198 247 300 354
#     4  10  20  37  62  87 111 155 205 236 290 372
#     4  12  24  40  62  90 121 160 209 243 297 364
#     4  10  20  38  58  83 121 156 194 245 297 344
#     4  10  21  41  60  87 121 158 199 255 303 365
#     4  10  22  37  57  85 123 158 193 248 297 348
#     4  10  21  38  61  87 116 152 204 244 306 359
#
# _framework density 21.152982000000002
#
# number of rings (size 3 to 8) (size 9 to 14) (size 15 to 20)
#    0.000    1.714    0.000    4.286    0.000    4.571 
#    7.714    0.000    0.000    0.000    0.000    0.000 
#    0.000    0.000    0.000    0.000    0.000    0.000 
#
# Total GULP energy -156456.115855 kJ/mol
# GULP energy per Si atom -5587.718423 kJ/mol
# Density = 2.110484 g / cm^3
# Si number density = 21.152982 Si / 1000 Ang^3
#
#
#
# Elastic Constant Matrix: (Units=GPa)
#
#
# Indices 1 2 3 4 5 6 
#
# 1 30.6610 -7.4349 14.9299 0.0000 0.0000 0.0000
# 2 -7.4349 67.5224 0.4124 0.0000 0.0000 0.0000
# 3 14.9299 0.4124 41.3773 0.0000 0.0000 0.0000
# 4 0.0000 0.0000 0.0000 18.2696 0.0000 0.0000
# 5 0.0000 0.0000 0.0000 0.0000 15.1843 0.0000
# 6 0.0000 0.0000 0.0000 0.0000 0.0000 0.4118
#
#
#
# Elastic Compliance Matrix: (Units=1/GPa)
#
#
# Indices 1 2 3 4 5 6 
#
# 1 0.040946 0.004599 -0.014820 0.000000 0.000000 0.000000
# 2 0.004599 0.015327 -0.001812 0.000000 0.000000 0.000000
# 3 -0.014820 -0.001812 0.029533 0.000000 0.000000 0.000000
# 4 0.000000 0.000000 0.000000 0.054736 0.000000 0.000000
# 5 0.000000 0.000000 0.000000 0.000000 0.065858 0.000000
# 6 0.000000 0.000000 0.000000 0.000000 0.000000 2.428289
#
#
# Mechanical properties :
#
#
# Convention : Reuss Voigt Hill
#
# Bulk Modulus (GPa) = 16.19682 17.26394 16.73038
# Shear Modulus (GPa) = 1.86613 15.55002 8.70808
#
# Velocity S-wave (km/s) = 0.94028 2.71425 2.03117
# Velocity P-wave (km/s) = 2.97531 4.24289 3.66432
#
# Compressibility (1/GPa) = 0.06174052
#
# Stress axis : x y z
#
# Youngs Moduli (GPa) = 24.42213 65.24270 33.85996
#
# Poissons Ratio (x) = -0.30006 0.50181
# Poissons Ratio (y) = -0.11232 0.06136
# Poissons Ratio (z) = 0.36194 0.11824
#
# Static dielectric constant tensor:
#      x y z
#    x 1.770950 0.000000 0.000000 
#    y 0.000000 1.740030 0.000000 
#    z 0.000000 0.000000 1.747880 
# 
# From -- ./inp_files/597.got.cif
#   From: 2010.05.17/outbox.cif.g08.bks.cpg/sg19_1_cif.got.tgz:597.got - 2010.06.03 22:46:19.
