data_PCOD9313163
_publ_section_title
;
Structure prediction by ZEFSAII (Michael W. Deem and Ramdas Pophale) SiO2 
 PCOD9313163
Probable space group: P 21 21 2
;
_chemical_formula_sum "Si O2"
_cell_formula_units_Z 20
_cell_length_a 7.548321
_cell_length_b 18.663401
_cell_length_c 6.620579
_cell_angle_alpha 90.000000
_cell_angle_beta 90.000000
_cell_angle_gamma 90.000000
_cell_volume 932.689570
_symmetry_space_group_name_H-M "P 21 21 2"
_symmetry_group_IT_number 18
_symmetry_cell_setting 'orthorhombic'
loop_
_space_group_symop_operation_xyz
x,y,z
-x,-y,z
1/2+x,1/2-y,-z
1/2-x,1/2+y,-z
loop_
_atom_site_type_symbol
_atom_site_label
_atom_site_fract_x
_atom_site_fract_y
_atom_site_fract_z
Si Si1 0.956789 0.679084 0.542633
Si Si2 0.047032 0.080724 0.021001
Si Si3 0.411210 0.077624 0.797405
Si Si4 0.693770 0.159331 0.059310
Si Si5 0.296446 0.713576 0.779125
O O1 0.045434 0.616127 0.413272
O O2 0.100430 0.710615 0.693968
O O3 0.804964 0.653730 0.698041
O O4 0.900543 0.739027 0.383783
O O5 0.862460 0.118899 0.962083
O O6 0.126257 0.134855 0.187633
O O7 0.000000 0.000000 0.086354
O O8 0.203808 0.076086 0.854516
O O9 0.500000 0.000000 0.797567
O O10 0.519000 0.122410 0.967226
O O11 0.699780 0.241545 0.987017
#
# Coordination Sequence:
#
# PCOD9313163 Si02
#       5
#     4   4   4   4   4
#     4  11  25  44  73 107 146 188 251 305 366 439
#     4  12  25  44  75 103 144 198 239 298 379 440
#     4  11  25  47  69 103 146 195 236 301 366 439
#     4  11  24  47  73  99 148 190 244 302 364 435
#     4  11  25  42  73 107 143 190 246 306 367 439
#
# _framework density 21.443363999999999
#
# number of rings (size 3 to 8) (size 9 to 14) (size 15 to 20)
#    0.000    0.800    4.000    2.400    8.400    2.400 
#    0.000    1.000    0.000    0.000    0.000    0.000 
#    0.000    0.000    0.000    0.000    0.000    0.000 
#
# Total GULP energy -111775.801035 kJ/mol
# GULP energy per Si atom -5588.790052 kJ/mol
# Density = 2.139456 g / cm^3
# Si number density = 21.443364 Si / 1000 Ang^3
#
#
#
# Elastic Constant Matrix: (Units=GPa)
#
#
# Indices 1 2 3 4 5 6 
#
# 1 113.3761 38.8216 22.7293 0.0000 0.0000 0.0000
# 2 38.8216 140.3881 48.5315 0.0000 0.0000 0.0000
# 3 22.7293 48.5315 99.9084 0.0000 0.0000 0.0000
# 4 0.0000 0.0000 0.0000 9.3530 0.0000 0.0000
# 5 0.0000 0.0000 0.0000 0.0000 24.5060 0.0000
# 6 0.0000 0.0000 0.0000 0.0000 0.0000 35.6560
#
#
#
# Elastic Compliance Matrix: (Units=1/GPa)
#
#
# Indices 1 2 3 4 5 6 
#
# 1 0.009843 -0.002341 -0.001102 0.000000 0.000000 0.000000
# 2 -0.002341 0.009117 -0.003896 0.000000 0.000000 0.000000
# 3 -0.001102 -0.003896 0.012153 0.000000 0.000000 0.000000
# 4 0.000000 0.000000 0.000000 0.106917 0.000000 0.000000
# 5 0.000000 0.000000 0.000000 0.000000 0.040806 0.000000
# 6 0.000000 0.000000 0.000000 0.000000 0.000000 0.028046
#
#
# Mechanical properties :
#
#
# Convention : Reuss Voigt Hill
#
# Bulk Modulus (GPa) = 60.84912 63.75971 62.30442
# Shear Modulus (GPa) = 22.02269 30.14235 26.08252
#
# Velocity S-wave (km/s) = 3.20819 3.75330 3.49140
# Velocity P-wave (km/s) = 6.49319 6.97005 6.73584
#
# Compressibility (1/GPa) = 0.01643409
#
# Stress axis : x y z
#
# Youngs Moduli (GPa) = 101.59831 109.68103 82.28702
#
# Poissons Ratio (x) = 0.25674 0.09069
# Poissons Ratio (y) = 0.23782 0.32062
# Poissons Ratio (z) = 0.11198 0.42735
#
# Static dielectric constant tensor:
#      x y z
#    x 1.844850 0.000000 0.000000 
#    y 0.000000 1.763500 0.000000 
#    z 0.000000 0.000000 1.794200 
# 
# From -- ./inp_files/512.got.cif
#   From: 2010.05.17/outbox.cif.g08.bks.cpg/sg18_1_cif.got.tgz:512.got - 2010.06.03 22:40:56.
