data_PCOD9313751
_publ_section_title
;
Structure prediction by ZEFSAII (Michael W. Deem and Ramdas Pophale) SiO2 
 PCOD9313751
Probable space group: P 21 21 21
;
_chemical_formula_sum "Si O2"
_cell_formula_units_Z 32
_cell_length_a 7.529431
_cell_length_b 13.832938
_cell_length_c 10.732116
_cell_angle_alpha 90.000000
_cell_angle_beta 90.000000
_cell_angle_gamma 90.000000
_cell_volume 1117.794443
_symmetry_space_group_name_H-M "P 21 21 21"
_symmetry_group_IT_number 19
_symmetry_cell_setting 'orthorhombic'
loop_
_space_group_symop_operation_xyz
x,y,z
1/2-x,-y,1/2+z
1/2+x,1/2-y,-z
-x,1/2+y,1/2-z
loop_
_atom_site_type_symbol
_atom_site_label
_atom_site_fract_x
_atom_site_fract_y
_atom_site_fract_z
Si Si1 0.287752 0.549190 0.735782
Si Si2 0.895284 0.761902 0.753550
Si Si3 0.071183 0.321803 0.463529
Si Si4 0.295243 0.922896 0.504840
Si Si5 0.679002 0.385761 0.546603
Si Si6 0.904591 0.126915 0.151224
Si Si7 0.272130 0.740825 0.627627
Si Si8 0.601235 0.452615 0.301303
O O1 0.339941 0.605448 0.864660
O O2 0.406324 0.453766 0.740691
O O3 0.311658 0.627167 0.627579
O O4 0.081794 0.517775 0.738399
O O5 0.791287 0.830763 0.659119
O O6 0.832633 0.649383 0.743182
O O7 0.102579 0.754595 0.718142
O O8 0.867761 0.805675 0.892027
O O9 0.103152 0.215013 0.407021
O O10 0.867742 0.354406 0.482958
O O11 0.507671 0.917344 0.525729
O O12 0.225781 0.813253 0.512582
O O13 0.238669 0.005915 0.406685
O O14 0.227064 0.965177 0.640559
O O15 0.540050 0.412048 0.438508
O O16 0.043306 0.212183 0.167741
#
# Coordination Sequence:
#
# PCOD9313751 Si02
#       8
#     4   4   4   4   4   4   4   4
#     4  11  19  34  54  78 111 150 175 225 281 317
#     4  10  20  33  48  77 111 142 175 224 272 321
#     4  11  19  30  49  76 111 140 170 217 286 329
#     4   8  17  32  47  69 106 140 177 214 252 323
#     4   9  17  29  44  73 106 135 167 209 265 324
#     4  10  21  32  53  70 112 143 186 223 259 334
#     4   9  20  33  48  73 106 143 181 214 263 326
#     4   8  17  31  49  74 109 139 171 220 260 328
#
# _framework density 28.627803
#
# number of rings (size 3 to 8) (size 9 to 14) (size 15 to 20)
#    1.500    1.000    1.250    3.000    5.250    0.000 
#    2.250    0.000    0.000    0.000    0.000    0.000 
#   56.250    0.000    0.000    0.000    0.000    0.000 
#
# Total GULP energy -178331.887805 kJ/mol
# GULP energy per Si atom -5572.871494 kJ/mol
# Density = 2.856264 g / cm^3
# Si number density = 28.627803 Si / 1000 Ang^3
#
#
#
# Elastic Constant Matrix: (Units=GPa)
#
#
# Indices 1 2 3 4 5 6 
#
# 1 79.5673 36.5973 21.7263 0.0000 0.0000 0.0000
# 2 36.5973 176.5170 20.0345 0.0000 0.0000 0.0000
# 3 21.7263 20.0345 93.3280 0.0000 0.0000 0.0000
# 4 0.0000 0.0000 0.0000 27.0745 0.0000 0.0000
# 5 0.0000 0.0000 0.0000 0.0000 2.0961 0.0000
# 6 0.0000 0.0000 0.0000 0.0000 0.0000 45.2257
#
#
#
# Elastic Compliance Matrix: (Units=1/GPa)
#
#
# Indices 1 2 3 4 5 6 
#
# 1 0.014580 -0.002703 -0.002814 0.000000 0.000000 0.000000
# 2 -0.002703 0.006308 -0.000725 0.000000 0.000000 0.000000
# 3 -0.002814 -0.000725 0.011526 0.000000 0.000000 0.000000
# 4 0.000000 0.000000 0.000000 0.036935 0.000000 0.000000
# 5 0.000000 0.000000 0.000000 0.000000 0.477082 0.000000
# 6 0.000000 0.000000 0.000000 0.000000 0.000000 0.022111
#
#
# Mechanical properties :
#
#
# Convention : Reuss Voigt Hill
#
# Bulk Modulus (GPa) = 50.17747 56.23650 53.20699
# Shear Modulus (GPa) = 8.50820 32.94955 20.72887
#
# Velocity S-wave (km/s) = 1.72582 3.39627 2.69380
# Velocity P-wave (km/s) = 4.64078 5.92167 5.31992
#
# Compressibility (1/GPa) = 0.01992926
#
# Stress axis : x y z
#
# Youngs Moduli (GPa) = 68.58821 158.53023 86.76411
#
# Poissons Ratio (x) = 0.42858 0.24413
# Poissons Ratio (y) = 0.18543 0.06288
# Poissons Ratio (z) = 0.19299 0.11490
#
# Static dielectric constant tensor:
#      x y z
#    x 2.186450 0.000000 0.000000 
#    y 0.000000 2.455710 0.000000 
#    z 0.000000 0.000000 2.418220 
# 
# From -- ./inp_files/6683.got.cif
#   From: 2010.05.17/outbox.cif.g08.bks.cpg/sg19_4_cif.got.tgz:6683.got - 2010.06.03 22:46:19.
