data_PCOD9313388
_publ_section_title
;
Structure prediction by ZEFSAII (Michael W. Deem and Ramdas Pophale) SiO2 
 PCOD9313388
Probable space group: P 21 21 21
;
_chemical_formula_sum "Si O2"
_cell_formula_units_Z 32
_cell_length_a 14.297207
_cell_length_b 15.867443
_cell_length_c 5.569112
_cell_angle_alpha 90.000000
_cell_angle_beta 90.000000
_cell_angle_gamma 90.000000
_cell_volume 1263.409401
_symmetry_space_group_name_H-M "P 21 21 21"
_symmetry_group_IT_number 19
_symmetry_cell_setting 'orthorhombic'
loop_
_space_group_symop_operation_xyz
x,y,z
1/2-x,-y,1/2+z
1/2+x,1/2-y,-z
-x,1/2+y,1/2-z
loop_
_atom_site_type_symbol
_atom_site_label
_atom_site_fract_x
_atom_site_fract_y
_atom_site_fract_z
Si Si1 0.527513 0.166489 0.125506
Si Si2 0.364388 0.839882 0.024623
Si Si3 0.117389 0.506455 0.887705
Si Si4 0.627217 0.172323 0.624670
Si Si5 0.339671 0.150545 0.012994
Si Si6 0.820947 0.438266 0.481627
Si Si7 0.330256 0.473131 0.885960
Si Si8 0.372964 0.866554 0.524222
O O1 0.536551 0.063300 0.104563
O O2 0.551177 0.178028 0.407300
O O3 0.429203 0.208221 0.054464
O O4 0.594927 0.189159 0.898651
O O5 0.418703 0.842262 0.273268
O O6 0.310855 0.750750 0.973460
O O7 0.289231 0.915140 0.032901
O O8 0.420065 0.850981 0.779014
O O9 0.219103 0.457172 0.884608
O O10 0.121085 0.553717 0.633305
O O11 0.123428 0.555712 0.137849
O O12 0.661579 0.076259 0.616066
O O13 0.347165 0.096978 0.258833
O O14 0.231290 0.176382 0.004442
O O15 0.359845 0.104741 0.759407
O O16 0.847442 0.534971 0.476064
#
# Coordination Sequence:
#
# PCOD9313388 Si02
#       8
#     4   4   4   4   4   4   4   4
#     4  10  19  30  45  72 105 128 166 198 241 306
#     4  10  18  30  49  74  98 125 159 211 256 283
#     4   8  14  25  41  61  87 118 154 197 237 264
#     4  10  19  30  45  72 101 129 170 205 233 290
#     4  10  18  30  49  74 101 130 148 207 261 291
#     4  10  19  33  53  79  98 120 169 221 251 292
#     4   8  14  25  41  61  86 117 155 201 232 258
#     4  10  19  33  53  79  96 119 171 220 253 292
#
# _framework density 25.328289999999999
#
# number of rings (size 3 to 8) (size 9 to 14) (size 15 to 20)
#    0.000    2.500    0.000    5.250    0.000    0.000 
#    0.000    0.000    0.000    0.000   52.000    0.000 
#    0.000    0.000    0.000    0.000    0.000    0.000 
#
# Total GULP energy -178171.839914 kJ/mol
# GULP energy per Si atom -5567.869997 kJ/mol
# Density = 2.527064 g / cm^3
# Si number density = 25.328290 Si / 1000 Ang^3
#
#
#
# Elastic Constant Matrix: (Units=GPa)
#
#
# Indices 1 2 3 4 5 6 
#
# 1 48.8562 6.4738 20.2989 0.0000 0.0000 0.0000
# 2 6.4738 26.4080 21.7290 0.0000 0.0000 0.0000
# 3 20.2989 21.7290 287.0890 0.0000 0.0000 0.0000
# 4 0.0000 0.0000 0.0000 28.0064 0.0000 0.0000
# 5 0.0000 0.0000 0.0000 0.0000 21.4466 0.0000
# 6 0.0000 0.0000 0.0000 0.0000 0.0000 7.8157
#
#
#
# Elastic Compliance Matrix: (Units=1/GPa)
#
#
# Indices 1 2 3 4 5 6 
#
# 1 0.021535 -0.004294 -0.001198 0.000000 0.000000 0.000000
# 2 -0.004294 0.041238 -0.002818 0.000000 0.000000 0.000000
# 3 -0.001198 -0.002818 0.003781 0.000000 0.000000 0.000000
# 4 0.000000 0.000000 0.000000 0.035706 0.000000 0.000000
# 5 0.000000 0.000000 0.000000 0.000000 0.046627 0.000000
# 6 0.000000 0.000000 0.000000 0.000000 0.000000 0.127947
#
#
# Mechanical properties :
#
#
# Convention : Reuss Voigt Hill
#
# Bulk Modulus (GPa) = 20.02551 51.03960 35.53256
# Shear Modulus (GPa) = 16.12391 32.37719 24.25055
#
# Velocity S-wave (km/s) = 2.52582 3.57921 3.09762
# Velocity P-wave (km/s) = 4.05339 6.10541 5.18198
#
# Compressibility (1/GPa) = 0.04993631
#
# Stress axis : x y z
#
# Youngs Moduli (GPa) = 46.43654 24.24931 264.46771
#
# Poissons Ratio (x) = 0.10412 0.31674
# Poissons Ratio (y) = 0.19938 0.74517
# Poissons Ratio (z) = 0.05561 0.06833
#
# Static dielectric constant tensor:
#      x y z
#    x 2.114910 0.000000 0.000000 
#    y 0.000000 2.110370 0.000000 
#    z 0.000000 0.000000 2.084070 
# 
# From -- ./inp_files/1573.got.cif
#   From: 2010.05.17/outbox.cif.g08.bks.cpg/sg19_1_cif.got.tgz:1573.got - 2010.06.03 22:46:19.
