data_PCOD9313726
_publ_section_title
;
Structure prediction by ZEFSAII (Michael W. Deem and Ramdas Pophale) SiO2 
 PCOD9313726
Probable space group: P 21 21 21
;
_chemical_formula_sum "Si O2"
_cell_formula_units_Z 24
_cell_length_a 9.259792
_cell_length_b 14.636189
_cell_length_c 7.929984
_cell_angle_alpha 90.000000
_cell_angle_beta 90.000000
_cell_angle_gamma 90.000000
_cell_volume 1074.735393
_symmetry_space_group_name_H-M "P 21 21 21"
_symmetry_group_IT_number 19
_symmetry_cell_setting 'orthorhombic'
loop_
_space_group_symop_operation_xyz
x,y,z
1/2-x,-y,1/2+z
1/2+x,1/2-y,-z
-x,1/2+y,1/2-z
loop_
_atom_site_type_symbol
_atom_site_label
_atom_site_fract_x
_atom_site_fract_y
_atom_site_fract_z
Si Si1 0.929504 0.196342 0.938432
Si Si2 0.926624 0.915388 0.228785
Si Si3 0.031610 0.016129 0.750909
Si Si4 0.168580 0.028831 0.379697
Si Si5 0.658149 0.277280 0.792506
Si Si6 0.230745 0.433502 0.911231
O O1 0.827435 0.265250 0.837176
O O2 0.970534 0.112315 0.817201
O O3 0.830541 0.155524 0.090324
O O4 0.070972 0.230629 0.031505
O O5 0.900339 0.809538 0.187249
O O6 0.843406 0.931033 0.406387
O O7 0.841848 0.982391 0.104698
O O8 0.087047 0.949871 0.271787
O O9 0.106258 0.026408 0.567743
O O10 0.159802 0.985347 0.873493
O O11 0.897969 0.947654 0.720690
O O12 0.134081 0.125841 0.293697
#
# Coordination Sequence:
#
# PCOD9313726 Si02
#       6
#     4   4   4   4   4   4
#     4  11  24  42  68  99 137 182 232 280 340 412
#     4  10  22  41  67  97 132 179 228 274 342 397
#     4  11  24  45  67 100 135 182 230 283 352 404
#     4  11  25  43  70  99 144 179 228 289 340 407
#     4  11  24  43  68 103 138 185 233 280 341 412
#     4  10  19  42  66  92 130 177 221 280 331 406
#
# _framework density 22.331078999999999
#
# number of rings (size 3 to 8) (size 9 to 14) (size 15 to 20)
#    0.000    1.333    5.000    1.000    9.333    0.000 
#    3.000    3.333    0.000    0.000    0.000    0.000 
#    0.000    0.000    0.000    0.000    0.000    0.000 
#
# Total GULP energy -134111.194577 kJ/mol
# GULP energy per Si atom -5587.966441 kJ/mol
# Density = 2.228025 g / cm^3
# Si number density = 22.331079 Si / 1000 Ang^3
#
#
#
# Elastic Constant Matrix: (Units=GPa)
#
#
# Indices 1 2 3 4 5 6 
#
# 1 108.6960 0.1106 22.7961 0.0000 0.0000 0.0000
# 2 0.1106 26.8601 -0.5962 0.0000 0.0000 0.0000
# 3 22.7961 -0.5962 45.9546 0.0000 0.0000 0.0000
# 4 0.0000 0.0000 0.0000 29.8755 0.0000 0.0000
# 5 0.0000 0.0000 0.0000 0.0000 38.5179 0.0000
# 6 0.0000 0.0000 0.0000 0.0000 0.0000 45.6477
#
#
#
# Elastic Compliance Matrix: (Units=1/GPa)
#
#
# Indices 1 2 3 4 5 6 
#
# 1 0.010269 -0.000155 -0.005096 0.000000 0.000000 0.000000
# 2 -0.000155 0.037243 0.000560 0.000000 0.000000 0.000000
# 3 -0.005096 0.000560 0.024296 0.000000 0.000000 0.000000
# 4 0.000000 0.000000 0.000000 0.033472 0.000000 0.000000
# 5 0.000000 0.000000 0.000000 0.000000 0.025962 0.000000
# 6 0.000000 0.000000 0.000000 0.000000 0.000000 0.021907
#
#
# Mechanical properties :
#
#
# Convention : Reuss Voigt Hill
#
# Bulk Modulus (GPa) = 16.01908 25.12574 20.57241
# Shear Modulus (GPa) = 27.27183 33.42158 30.34670
#
# Velocity S-wave (km/s) = 3.49843 3.87284 3.69039
# Velocity P-wave (km/s) = 4.84847 5.59235 5.23365
#
# Compressibility (1/GPa) = 0.06242555
#
# Stress axis : x y z
#
# Youngs Moduli (GPa) = 97.38163 26.85064 41.15948
#
# Poissons Ratio (x) = 0.00417 0.20975
# Poissons Ratio (y) = 0.01513 -0.02306
# Poissons Ratio (z) = 0.49625 -0.01504
#
# Static dielectric constant tensor:
#      x y z
#    x 1.877160 0.000000 0.000000 
#    y 0.000000 1.847770 0.000000 
#    z 0.000000 0.000000 1.820380 
# 
# From -- ./inp_files/2832.got.cif
#   From: 2010.05.17/outbox.cif.g08.bks.cpg/sg19_2_cif.got.tgz:2832.got - 2010.06.03 22:46:19.
