data_PCOD9313562
_publ_section_title
;
Structure prediction by ZEFSAII (Michael W. Deem and Ramdas Pophale) SiO2 
 PCOD9313562
Probable space group: P 21 21 21
;
_chemical_formula_sum "Si O2"
_cell_formula_units_Z 20
_cell_length_a 16.208981
_cell_length_b 4.895847
_cell_length_c 13.097371
_cell_angle_alpha 90.000000
_cell_angle_beta 90.000000
_cell_angle_gamma 90.000000
_cell_volume 1039.364023
_symmetry_space_group_name_H-M "P 21 21 21"
_symmetry_group_IT_number 19
_symmetry_cell_setting 'orthorhombic'
loop_
_space_group_symop_operation_xyz
x,y,z
1/2-x,-y,1/2+z
1/2+x,1/2-y,-z
-x,1/2+y,1/2-z
loop_
_atom_site_type_symbol
_atom_site_label
_atom_site_fract_x
_atom_site_fract_y
_atom_site_fract_z
Si Si1 0.237318 0.658972 0.130791
Si Si2 0.497254 0.505347 0.318264
Si Si3 0.843246 0.345915 0.934405
Si Si4 0.842007 0.258192 0.570780
Si Si5 0.762239 0.236009 0.136056
O O1 0.279267 0.361290 0.121216
O O2 0.425989 0.351840 0.380905
O O3 0.163214 0.704083 0.050548
O O4 0.217213 0.749878 0.245173
O O5 0.535410 0.255285 0.251745
O O6 0.566168 0.651570 0.387531
O O7 0.307977 0.856143 0.087530
O O8 0.834656 0.290135 0.054817
O O9 0.812530 0.560659 0.602095
O O10 0.770648 0.066959 0.616788
#
# Coordination Sequence:
#
# PCOD9313562 Si02
#       5
#     4   4   4   4   4
#     4  10  19  35  55  76 104 138 174 214 253 303
#     4  12  22  34  54  80 110 136 166 218 268 306
#     4  10  21  33  53  81 104 134 176 211 257 312
#     4  10  21  33  53  81 104 134 176 211 257 312
#     4  10  19  35  55  76 104 138 174 214 253 303
#
# _framework density 19.242536999999999
#
# number of rings (size 3 to 8) (size 9 to 14) (size 15 to 20)
#    0.000    1.600    0.000    7.200    0.000    0.000 
#    0.000    0.000    0.000   16.800    0.000    0.000 
#    0.000    0.000    0.000    0.000    0.000    0.000 
#
# Total GULP energy -111580.483362 kJ/mol
# GULP energy per Si atom -5579.024168 kJ/mol
# Density = 1.919874 g / cm^3
# Si number density = 19.242537 Si / 1000 Ang^3
#
#
#
# Elastic Constant Matrix: (Units=GPa)
#
#
# Indices 1 2 3 4 5 6 
#
# 1 60.1442 -0.2572 45.2374 0.0000 0.0000 0.0000
# 2 -0.2572 61.6856 4.9544 0.0000 0.0000 0.0000
# 3 45.2374 4.9544 171.2742 0.0000 0.0000 0.0000
# 4 0.0000 0.0000 0.0000 24.7594 0.0000 0.0000
# 5 0.0000 0.0000 0.0000 0.0000 31.7810 0.0000
# 6 0.0000 0.0000 0.0000 0.0000 0.0000 17.1247
#
#
#
# Elastic Compliance Matrix: (Units=1/GPa)
#
#
# Indices 1 2 3 4 5 6 
#
# 1 0.020766 0.000528 -0.005500 0.000000 0.000000 0.000000
# 2 0.000528 0.016262 -0.000610 0.000000 0.000000 0.000000
# 3 -0.005500 -0.000610 0.007309 0.000000 0.000000 0.000000
# 4 0.000000 0.000000 0.000000 0.040389 0.000000 0.000000
# 5 0.000000 0.000000 0.000000 0.000000 0.031465 0.000000
# 6 0.000000 0.000000 0.000000 0.000000 0.000000 0.058395
#
#
# Mechanical properties :
#
#
# Convention : Reuss Voigt Hill
#
# Bulk Modulus (GPa) = 30.14420 43.66369 36.90394
# Shear Modulus (GPa) = 25.40552 30.94431 28.17492
#
# Velocity S-wave (km/s) = 3.63751 4.01449 3.83064
# Velocity P-wave (km/s) = 5.77420 6.65046 6.22776
#
# Compressibility (1/GPa) = 0.03317388
#
# Stress axis : x y z
#
# Youngs Moduli (GPa) = 48.15608 61.49138 136.81929
#
# Poissons Ratio (x) = -0.03249 0.75251
# Poissons Ratio (y) = -0.02544 0.08345
# Poissons Ratio (z) = 0.26486 0.03751
#
# Static dielectric constant tensor:
#      x y z
#    x 1.661030 0.000000 0.000000 
#    y 0.000000 1.668720 0.000000 
#    z 0.000000 0.000000 1.765580 
# 
# From -- ./inp_files/1708.got.cif
#   From: 2010.05.17/outbox.cif.g08.bks.cpg/sg19_1_cif.got.tgz:1708.got - 2010.06.03 22:46:19.
