data_PCOD9313468
_publ_section_title
;
Structure prediction by ZEFSAII (Michael W. Deem and Ramdas Pophale) SiO2 
 PCOD9313468
Probable space group: P 21 21 21
;
_chemical_formula_sum "Si O2"
_cell_formula_units_Z 24
_cell_length_a 6.904964
_cell_length_b 12.853717
_cell_length_c 10.329395
_cell_angle_alpha 90.000000
_cell_angle_beta 90.000000
_cell_angle_gamma 90.000000
_cell_volume 916.779805
_symmetry_space_group_name_H-M "P 21 21 21"
_symmetry_group_IT_number 19
_symmetry_cell_setting 'orthorhombic'
loop_
_space_group_symop_operation_xyz
x,y,z
1/2-x,-y,1/2+z
1/2+x,1/2-y,-z
-x,1/2+y,1/2-z
loop_
_atom_site_type_symbol
_atom_site_label
_atom_site_fract_x
_atom_site_fract_y
_atom_site_fract_z
Si Si1 0.582964 0.769681 0.237814
Si Si2 0.463310 0.688523 0.872594
Si Si3 0.373456 0.117852 0.904592
Si Si4 0.222191 0.658401 0.494350
Si Si5 0.294318 0.356960 0.710232
Si Si6 0.421144 0.068323 0.373490
O O1 0.360690 0.742470 0.205001
O O2 0.649945 0.647877 0.238849
O O3 0.730184 0.818911 0.134246
O O4 0.613963 0.832479 0.369074
O O5 0.535393 0.644170 0.735455
O O6 0.530392 0.809764 0.870424
O O7 0.557800 0.629341 0.991203
O O8 0.264468 0.218191 0.962391
O O9 0.226493 0.023995 0.891140
O O10 0.567717 0.106714 0.990144
O O11 0.139674 0.618175 0.357143
O O12 0.150644 0.446769 0.661139
#
# Coordination Sequence:
#
# PCOD9313468 Si02
#       6
#     4   4   4   4   4   4
#     4   9  20  35  61  85 117 155 192 245 295 364
#     4  10  20  36  61  84 117 159 190 235 310 355
#     4  10  21  34  62  85 113 165 195 249 289 355
#     4  10  18  38  58  80 118 156 204 224 312 358
#     4   9  20  35  61  85 117 155 192 245 295 364
#     4  10  21  36  59  87 124 146 201 252 295 340
#
# _framework density 26.178585000000002
#
# number of rings (size 3 to 8) (size 9 to 14) (size 15 to 20)
#    1.000    1.333    1.667    1.000    4.667    0.000 
#    0.000    1.667    0.000    0.000    0.000    0.000 
#    0.000    0.000    0.000    0.000    0.000    0.000 
#
# Total GULP energy -133770.642442 kJ/mol
# GULP energy per Si atom -5573.776768 kJ/mol
# Density = 2.611900 g / cm^3
# Si number density = 26.178585 Si / 1000 Ang^3
#
#
#
# Elastic Constant Matrix: (Units=GPa)
#
#
# Indices 1 2 3 4 5 6 
#
# 1 103.9148 7.3618 12.0805 0.0000 0.0000 0.0000
# 2 7.3618 70.0878 13.7188 0.0000 0.0000 0.0000
# 3 12.0805 13.7188 109.1447 0.0000 0.0000 0.0000
# 4 0.0000 0.0000 0.0000 11.3257 0.0000 0.0000
# 5 0.0000 0.0000 0.0000 0.0000 -3.2732 0.0000
# 6 0.0000 0.0000 0.0000 0.0000 0.0000 35.0490
#
#
#
# Elastic Compliance Matrix: (Units=1/GPa)
#
#
# Indices 1 2 3 4 5 6 
#
# 1 0.009796 -0.000837 -0.000979 0.000000 0.000000 0.000000
# 2 -0.000837 0.014699 -0.001755 0.000000 0.000000 0.000000
# 3 -0.000979 -0.001755 0.009491 0.000000 0.000000 0.000000
# 4 0.000000 0.000000 0.000000 0.088294 0.000000 0.000000
# 5 0.000000 0.000000 0.000000 0.000000 -0.305509 0.000000
# 6 0.000000 0.000000 0.000000 0.000000 0.000000 0.028531
#
#
# Mechanical properties :
#
#
# Convention : Reuss Voigt Hill
#
# Bulk Modulus (GPa) = 37.25211 38.82997 38.04104
# Shear Modulus (GPa) = -36.07366 25.28606 -5.39380
#
# Velocity S-wave (km/s) = -3.71615 3.11127 -1.43696
# Velocity P-wave (km/s) = 2.03767 5.26988 3.43653
#
# Compressibility (1/GPa) = 0.02684412
#
# Stress axis : x y z
#
# Youngs Moduli (GPa) = 102.07824 68.03057 105.36190
#
# Poissons Ratio (x) = 0.05697 0.10315
# Poissons Ratio (y) = 0.08548 0.18490
# Poissons Ratio (z) = 0.09994 0.11939
#
# Static dielectric constant tensor:
#      x y z
#    x 2.127040 0.000000 0.000000 
#    y 0.000000 2.122670 0.000000 
#    z 0.000000 0.000000 2.094380 
# 
# From -- ./inp_files/4631.got.cif
#   From: 2010.05.17/outbox.cif.g08.bks.cpg/sg19_3_cif.got.tgz:4631.got - 2010.06.03 22:46:19.
