data_PCOD9313446
_publ_section_title
;
Structure prediction by ZEFSAII (Michael W. Deem and Ramdas Pophale) SiO2 
 PCOD9313446
Probable space group: P 21 21 21
;
_chemical_formula_sum "Si O2"
_cell_formula_units_Z 32
_cell_length_a 6.861902
_cell_length_b 17.717443
_cell_length_c 9.422956
_cell_angle_alpha 90.000000
_cell_angle_beta 90.000000
_cell_angle_gamma 90.000000
_cell_volume 1145.599245
_symmetry_space_group_name_H-M "P 21 21 21"
_symmetry_group_IT_number 19
_symmetry_cell_setting 'orthorhombic'
loop_
_space_group_symop_operation_xyz
x,y,z
1/2-x,-y,1/2+z
1/2+x,1/2-y,-z
-x,1/2+y,1/2-z
loop_
_atom_site_type_symbol
_atom_site_label
_atom_site_fract_x
_atom_site_fract_y
_atom_site_fract_z
Si Si1 0.372441 0.657244 0.891349
Si Si2 0.437651 0.886614 0.092855
Si Si3 0.623222 0.233431 0.314501
Si Si4 0.901703 0.638202 0.503044
Si Si5 0.069361 0.458381 0.882894
Si Si6 0.808960 0.813631 0.531835
Si Si7 0.959815 0.983868 0.951226
Si Si8 0.835705 0.689435 0.206281
O O1 0.324721 0.706840 0.030267
O O2 0.509541 0.589904 0.950258
O O3 0.164811 0.620959 0.858581
O O4 0.427776 0.724648 0.783573
O O5 0.341820 0.823334 0.193731
O O6 0.413349 0.975547 0.094284
O O7 0.403987 0.853176 0.935862
O O8 0.739059 0.186262 0.199913
O O9 0.395114 0.211235 0.297347
O O10 0.825588 0.724760 0.512656
O O11 0.873502 0.631478 0.333128
O O12 0.124113 0.657933 0.549886
O O13 0.889242 0.553416 0.563277
O O14 0.025149 0.378508 0.965202
O O15 0.086902 0.456009 0.709940
O O16 0.269092 0.483362 0.964978
#
# Coordination Sequence:
#
# PCOD9313446 Si02
#       8
#     4   4   4   4   4   4   4   4
#     4   9  18  36  62  84 118 157 211 251 306 370
#     4   9  19  35  61  88 116 157 211 254 300 374
#     4  10  18  35  61  84 123 157 198 253 315 372
#     4  11  24  39  61  90 126 163 215 262 321 370
#     4  10  21  36  64  91 121 158 216 257 316 369
#     4  11  22  39  62  83 123 164 204 260 316 375
#     4  10  21  38  63  95 121 163 212 268 306 380
#     4  10  21  36  58  95 122 161 205 259 312 382
#
# _framework density 27.932980000000001
#
# number of rings (size 3 to 8) (size 9 to 14) (size 15 to 20)
#    0.000    2.000    1.250    2.250    5.250    6.000 
#    0.000    2.500    0.000    0.000    0.000    0.000 
#    0.000    0.000    0.000    0.000    0.000    0.000 
#
# Total GULP energy -178380.793747 kJ/mol
# GULP energy per Si atom -5574.399805 kJ/mol
# Density = 2.786940 g / cm^3
# Si number density = 27.932980 Si / 1000 Ang^3
#
#
#
# Elastic Constant Matrix: (Units=GPa)
#
#
# Indices 1 2 3 4 5 6 
#
# 1 74.3955 19.2015 4.1718 0.0000 0.0000 0.0000
# 2 19.2015 190.6177 26.8917 0.0000 0.0000 0.0000
# 3 4.1718 26.8917 87.7107 0.0000 0.0000 0.0000
# 4 0.0000 0.0000 0.0000 56.9617 0.0000 0.0000
# 5 0.0000 0.0000 0.0000 0.0000 26.2368 0.0000
# 6 0.0000 0.0000 0.0000 0.0000 0.0000 54.6073
#
#
#
# Elastic Compliance Matrix: (Units=1/GPa)
#
#
# Indices 1 2 3 4 5 6 
#
# 1 0.013805 -0.001357 -0.000241 0.000000 0.000000 0.000000
# 2 -0.001357 0.005617 -0.001657 0.000000 0.000000 0.000000
# 3 -0.000241 -0.001657 0.011921 0.000000 0.000000 0.000000
# 4 0.000000 0.000000 0.000000 0.017556 0.000000 0.000000
# 5 0.000000 0.000000 0.000000 0.000000 0.038114 0.000000
# 6 0.000000 0.000000 0.000000 0.000000 0.000000 0.018313
#
#
# Mechanical properties :
#
#
# Convention : Reuss Voigt Hill
#
# Bulk Modulus (GPa) = 40.26910 50.36157 45.31533
# Shear Modulus (GPa) = 41.62758 47.72509 44.67633
#
# Velocity S-wave (km/s) = 3.86458 4.13795 4.00360
# Velocity P-wave (km/s) = 5.86182 6.39522 6.13432
#
# Compressibility (1/GPa) = 0.02483294
#
# Stress axis : x y z
#
# Youngs Moduli (GPa) = 72.43580 178.04365 83.88738
#
# Poissons Ratio (x) = 0.24155 0.02019
# Poissons Ratio (y) = 0.09827 0.13904
# Poissons Ratio (z) = 0.01743 0.29511
#
# Static dielectric constant tensor:
#      x y z
#    x 2.310120 0.000000 0.000000 
#    y 0.000000 2.331590 0.000000 
#    z 0.000000 0.000000 2.230590 
# 
# From -- ./inp_files/4791.got.cif
#   From: 2010.05.17/outbox.cif.g08.bks.cpg/sg19_3_cif.got.tgz:4791.got - 2010.06.03 22:46:19.
