data_PCOD9313396
_publ_section_title
;
Structure prediction by ZEFSAII (Michael W. Deem and Ramdas Pophale) SiO2 
 PCOD9313396
Probable space group: P 21 21 21
;
_chemical_formula_sum "Si O2"
_cell_formula_units_Z 32
_cell_length_a 14.366396
_cell_length_b 5.309776
_cell_length_c 23.826907
_cell_angle_alpha 90.000000
_cell_angle_beta 90.000000
_cell_angle_gamma 90.000000
_cell_volume 1817.572333
_symmetry_space_group_name_H-M "P 21 21 21"
_symmetry_group_IT_number 19
_symmetry_cell_setting 'orthorhombic'
loop_
_space_group_symop_operation_xyz
x,y,z
1/2-x,-y,1/2+z
1/2+x,1/2-y,-z
-x,1/2+y,1/2-z
loop_
_atom_site_type_symbol
_atom_site_label
_atom_site_fract_x
_atom_site_fract_y
_atom_site_fract_z
Si Si1 0.247616 0.593847 0.065610
Si Si2 0.445337 0.659249 0.001641
Si Si3 0.301828 0.090681 0.089946
Si Si4 0.292633 0.869042 0.399494
Si Si5 0.416947 0.019331 0.304699
Si Si6 0.885774 0.344513 0.035671
Si Si7 0.366875 0.373492 0.455249
Si Si8 0.535524 0.522556 0.322655
O O1 0.256774 0.356360 0.105689
O O2 0.174920 0.555382 0.015833
O O3 0.230828 0.861022 0.093982
O O4 0.351033 0.630025 0.038078
O O5 0.457089 0.384183 0.974522
O O6 0.529679 0.763875 0.038481
O O7 0.429158 0.880843 0.956806
O O8 0.391126 0.025833 0.127124
O O9 0.330431 0.129653 0.024188
O O10 0.188630 0.786961 0.416104
O O11 0.354820 0.628197 0.419094
O O12 0.322348 0.952602 0.337318
O O13 0.310343 0.129046 0.433695
O O14 0.463330 0.286537 0.322891
O O15 0.412326 0.008864 0.237525
O O16 0.485135 0.792287 0.322509
#
# Coordination Sequence:
#
# PCOD9313396 Si02
#       8
#     4   4   4   4   4   4   4   4
#     4  10  19  33  45  75  99 130 176 216 247 313
#     4  10  20  31  47  67 101 136 168 204 256 311
#     4  10  18  31  51  63  99 136 162 217 260 283
#     4  12  21  34  50  72 107 138 174 218 258 302
#     4  10  23  34  51  74 103 141 183 224 246 308
#     4  10  19  34  45  72 101 130 176 212 252 310
#     4  12  21  33  50  73 106 138 176 209 261 325
#     4  10  21  38  49  74 104 137 191 216 248 310
#
# _framework density 17.605902
#
# number of rings (size 3 to 8) (size 9 to 14) (size 15 to 20)
#    0.000    1.500    5.000    2.250   10.500    0.000 
#    0.000    0.000    0.000    0.000    0.000    0.000 
#    0.000    4.000    0.000    0.000    0.000    0.000 
#
# Total GULP energy -178251.696569 kJ/mol
# GULP energy per Si atom -5570.365518 kJ/mol
# Density = 1.756583 g / cm^3
# Si number density = 17.605902 Si / 1000 Ang^3
#
#
#
# Elastic Constant Matrix: (Units=GPa)
#
#
# Indices 1 2 3 4 5 6 
#
# 1 17.4447 1.6804 11.8853 0.0000 0.0000 0.0000
# 2 1.6804 144.4970 6.6953 0.0000 0.0000 0.0000
# 3 11.8853 6.6953 41.2018 0.0000 0.0000 0.0000
# 4 0.0000 0.0000 0.0000 17.3655 0.0000 0.0000
# 5 0.0000 0.0000 0.0000 0.0000 24.8142 0.0000
# 6 0.0000 0.0000 0.0000 0.0000 0.0000 23.0307
#
#
#
# Elastic Compliance Matrix: (Units=1/GPa)
#
#
# Indices 1 2 3 4 5 6 
#
# 1 0.071348 0.000125 -0.020602 0.000000 0.000000 0.000000
# 2 0.000125 0.006973 -0.001169 0.000000 0.000000 0.000000
# 3 -0.020602 -0.001169 0.030404 0.000000 0.000000 0.000000
# 4 0.000000 0.000000 0.000000 0.057585 0.000000 0.000000
# 5 0.000000 0.000000 0.000000 0.000000 0.040300 0.000000
# 6 0.000000 0.000000 0.000000 0.000000 0.000000 0.043420
#
#
# Mechanical properties :
#
#
# Convention : Reuss Voigt Hill
#
# Bulk Modulus (GPa) = 15.28281 27.07395 21.17838
# Shear Modulus (GPa) = 15.86627 25.23424 20.55025
#
# Velocity S-wave (km/s) = 3.00524 3.78998 3.42019
# Velocity P-wave (km/s) = 4.55426 5.87904 5.25854
#
# Compressibility (1/GPa) = 0.06543297
#
# Stress axis : x y z
#
# Youngs Moduli (GPa) = 14.01574 143.40452 32.89069
#
# Poissons Ratio (x) = -0.01791 0.67761
# Poissons Ratio (y) = -0.00175 0.03846
# Poissons Ratio (z) = 0.28875 0.16767
#
# Static dielectric constant tensor:
#      x y z
#    x 1.635970 0.000000 0.000000 
#    y 0.000000 1.757160 0.000000 
#    z 0.000000 0.000000 1.608400 
# 
# From -- ./inp_files/6967.got.cif
#   From: 2010.05.17/outbox.cif.g08.bks.cpg/sg19_4_cif.got.tgz:6967.got - 2010.06.03 22:46:19.
