data_PCOD9313580
_publ_section_title
;
Structure prediction by ZEFSAII (Michael W. Deem and Ramdas Pophale) SiO2 
 PCOD9313580
Probable space group: P 21 21 21
;
_chemical_formula_sum "Si O2"
_cell_formula_units_Z 32
_cell_length_a 27.040437
_cell_length_b 8.739889
_cell_length_c 5.580501
_cell_angle_alpha 90.000000
_cell_angle_beta 90.000000
_cell_angle_gamma 90.000000
_cell_volume 1318.842133
_symmetry_space_group_name_H-M "P 21 21 21"
_symmetry_group_IT_number 19
_symmetry_cell_setting 'orthorhombic'
loop_
_space_group_symop_operation_xyz
x,y,z
1/2-x,-y,1/2+z
1/2+x,1/2-y,-z
-x,1/2+y,1/2-z
loop_
_atom_site_type_symbol
_atom_site_label
_atom_site_fract_x
_atom_site_fract_y
_atom_site_fract_z
Si Si1 0.170445 0.549102 0.969176
Si Si2 0.476261 0.432532 0.487728
Si Si3 0.591312 0.196760 0.974023
Si Si4 0.072621 0.595232 0.483969
Si Si5 0.757445 0.845840 0.759223
Si Si6 0.775821 0.541920 0.007132
Si Si7 0.672186 0.729973 0.420446
Si Si8 0.918660 0.722444 0.977978
O O1 0.122670 0.460183 0.046693
O O2 0.193370 0.442858 0.765415
O O3 0.167899 0.717106 0.856226
O O4 0.214648 0.542552 0.153033
O O5 0.463038 0.616042 0.499665
O O6 0.458062 0.366740 0.744887
O O7 0.532944 0.383386 0.465705
O O8 0.450077 0.365997 0.246617
O O9 0.604957 0.285613 0.215570
O O10 0.602274 0.300179 0.744662
O O11 0.126237 0.677824 0.465572
O O12 0.073344 0.408961 0.500923
O O13 0.773225 0.720240 0.951976
O O14 0.725937 0.771245 0.539499
O O15 0.742948 0.484633 0.777043
O O16 0.827163 0.451001 0.965630
#
# Coordination Sequence:
#
# PCOD9313580 Si02
#       8
#     4   4   4   4   4   4   4   4
#     4  12  21  37  62  92 130 166 215 257 312 374
#     4  10  19  35  60  84 114 146 197 246 306 374
#     4  10  22  36  59  90 115 160 195 253 304 371
#     4  10  21  35  60  90 112 156 202 245 301 375
#     4  11  23  36  61  97 126 174 214 262 308 371
#     4  10  22  38  60  86 124 166 210 251 300 360
#     4  11  21  39  61  89 125 171 210 252 311 376
#     4  10  19  36  59  84 112 145 197 252 302 361
#
# _framework density 24.26371
#
# number of rings (size 3 to 8) (size 9 to 14) (size 15 to 20)
#    0.000    1.500    5.000    2.250    0.000    0.000 
#    0.000    0.000   16.500    0.000    0.000    0.000 
#    0.000    0.000    0.000    0.000    0.000    0.000 
#
# Total GULP energy -178184.113490 kJ/mol
# GULP energy per Si atom -5568.253547 kJ/mol
# Density = 2.420848 g / cm^3
# Si number density = 24.263710 Si / 1000 Ang^3
#
#
#
# Elastic Constant Matrix: (Units=GPa)
#
#
# Indices 1 2 3 4 5 6 
#
# 1 8.4880 -0.0795 8.9533 0.0000 0.0000 0.0000
# 2 -0.0795 39.3792 12.2986 0.0000 0.0000 0.0000
# 3 8.9533 12.2986 147.9550 0.0000 0.0000 0.0000
# 4 0.0000 0.0000 0.0000 21.4468 0.0000 0.0000
# 5 0.0000 0.0000 0.0000 0.0000 2.4161 0.0000
# 6 0.0000 0.0000 0.0000 0.0000 0.0000 34.0162
#
#
#
# Elastic Compliance Matrix: (Units=1/GPa)
#
#
# Indices 1 2 3 4 5 6 
#
# 1 0.126127 0.002709 -0.007858 0.000000 0.000000 0.000000
# 2 0.002709 0.026129 -0.002336 0.000000 0.000000 0.000000
# 3 -0.007858 -0.002336 0.007428 0.000000 0.000000 0.000000
# 4 0.000000 0.000000 0.000000 0.046627 0.000000 0.000000
# 5 0.000000 0.000000 0.000000 0.000000 0.413898 0.000000
# 6 0.000000 0.000000 0.000000 0.000000 0.000000 0.029398
#
#
# Mechanical properties :
#
#
# Convention : Reuss Voigt Hill
#
# Bulk Modulus (GPa) = 6.91013 26.46300 16.68657
# Shear Modulus (GPa) = 7.01445 23.21915 15.11680
#
# Velocity S-wave (km/s) = 1.70212 3.09682 2.49875
# Velocity P-wave (km/s) = 2.59173 4.87002 3.90091
#
# Compressibility (1/GPa) = 0.14471501
#
# Stress axis : x y z
#
# Youngs Moduli (GPa) = 7.92853 38.27152 134.61728
#
# Poissons Ratio (x) = -0.10367 1.05777
# Poissons Ratio (y) = -0.02148 0.31445
# Poissons Ratio (z) = 0.06230 0.08940
#
# Static dielectric constant tensor:
#      x y z
#    x 2.033920 0.000000 0.000000 
#    y 0.000000 2.096220 0.000000 
#    z 0.000000 0.000000 2.113880 
# 
# From -- ./inp_files/2188.got.cif
#   From: 2010.05.17/outbox.cif.g08.bks.cpg/sg19_2_cif.got.tgz:2188.got - 2010.06.03 22:46:19.
