data_PCOD9313311
_publ_section_title
;
Structure prediction by ZEFSAII (Michael W. Deem and Ramdas Pophale) SiO2 
 PCOD9313311
Probable space group: P 21 21 21
;
_chemical_formula_sum "Si O2"
_cell_formula_units_Z 28
_cell_length_a 8.332830
_cell_length_b 19.593123
_cell_length_c 6.891476
_cell_angle_alpha 90.000000
_cell_angle_beta 90.000000
_cell_angle_gamma 90.000000
_cell_volume 1125.144845
_symmetry_space_group_name_H-M "P 21 21 21"
_symmetry_group_IT_number 19
_symmetry_cell_setting 'orthorhombic'
loop_
_space_group_symop_operation_xyz
x,y,z
1/2-x,-y,1/2+z
1/2+x,1/2-y,-z
-x,1/2+y,1/2-z
loop_
_atom_site_type_symbol
_atom_site_label
_atom_site_fract_x
_atom_site_fract_y
_atom_site_fract_z
Si Si1 0.845749 0.394910 0.287113
Si Si2 0.495456 0.831681 0.218852
Si Si3 0.497699 0.324099 0.747419
Si Si4 0.078081 0.927691 0.783628
Si Si5 0.887476 0.539743 0.423382
Si Si6 0.355987 0.690456 0.219370
Si Si7 0.343538 0.688947 0.752997
O O1 0.668599 0.370790 0.222918
O O2 0.846473 0.387837 0.527536
O O3 0.887693 0.475153 0.274262
O O4 0.993935 0.351817 0.206201
O O5 0.470562 0.752429 0.273169
O O6 0.674834 0.847276 0.293370
O O7 0.497788 0.835761 0.984484
O O8 0.513966 0.396564 0.849199
O O9 0.321651 0.295339 0.792892
O O10 0.629497 0.267773 0.805557
O O11 0.203160 0.935803 0.609903
O O12 0.925291 0.883314 0.726985
O O13 0.050877 0.001762 0.882106
O O14 0.344125 0.691838 0.986990
#
# Coordination Sequence:
#
# PCOD9313311 Si02
#       7
#     4   4   4   4   4   4   4
#     4   9  18  32  47  76 110 132 177 217 274 305
#     4  10  16  28  52  76 105 131 177 229 275 301
#     4  10  16  28  48  76 107 137 167 224 275 308
#     4   9  19  34  48  77 106 145 176 215 269 324
#     4  10  19  33  51  76 113 144 178 217 273 326
#     4   9  17  28  49  79 104 130 180 231 262 315
#     4   9  17  27  49  76 105 131 175 229 266 307
#
# _framework density 24.885684000000001
#
# number of rings (size 3 to 8) (size 9 to 14) (size 15 to 20)
#    0.857    1.714    2.857    0.857    4.000    0.000 
#    2.571    1.429    0.000    0.000    7.429    0.000 
#    0.000    0.000    0.000    0.000    0.000    0.000 
#
# Total GULP energy -156286.330351 kJ/mol
# GULP energy per Si atom -5581.654655 kJ/mol
# Density = 2.482904 g / cm^3
# Si number density = 24.885684 Si / 1000 Ang^3
#
#
#
# Elastic Constant Matrix: (Units=GPa)
#
#
# Indices 1 2 3 4 5 6 
#
# 1 171.3181 76.0968 4.8376 0.0000 0.0000 0.0000
# 2 76.0968 97.4651 -17.1069 0.0000 0.0000 0.0000
# 3 4.8376 -17.1069 105.5373 0.0000 0.0000 0.0000
# 4 0.0000 0.0000 0.0000 17.4383 0.0000 0.0000
# 5 0.0000 0.0000 0.0000 0.0000 11.3793 0.0000
# 6 0.0000 0.0000 0.0000 0.0000 0.0000 47.9644
#
#
#
# Elastic Compliance Matrix: (Units=1/GPa)
#
#
# Indices 1 2 3 4 5 6 
#
# 1 0.009202 -0.007471 -0.001633 0.000000 0.000000 0.000000
# 2 -0.007471 0.016626 0.003037 0.000000 0.000000 0.000000
# 3 -0.001633 0.003037 0.010043 0.000000 0.000000 0.000000
# 4 0.000000 0.000000 0.000000 0.057345 0.000000 0.000000
# 5 0.000000 0.000000 0.000000 0.000000 0.087878 0.000000
# 6 0.000000 0.000000 0.000000 0.000000 0.000000 0.020849
#
#
# Mechanical properties :
#
#
# Convention : Reuss Voigt Hill
#
# Bulk Modulus (GPa) = 42.12664 55.77506 48.95085
# Shear Modulus (GPa) = 22.52377 36.05593 29.28985
#
# Velocity S-wave (km/s) = 3.01173 3.81052 3.43443
# Velocity P-wave (km/s) = 5.39063 6.46694 5.95316
#
# Compressibility (1/GPa) = 0.02373795
#
# Stress axis : x y z
#
# Youngs Moduli (GPa) = 108.67645 60.14632 99.57666
#
# Poissons Ratio (x) = 0.44934 0.16258
# Poissons Ratio (y) = 0.81190 -0.30246
# Poissons Ratio (z) = 0.17744 -0.18269
#
# Static dielectric constant tensor:
#      x y z
#    x 1.925550 0.000000 0.000000 
#    y 0.000000 1.953560 0.000000 
#    z 0.000000 0.000000 2.061840 
# 
# From -- ./inp_files/4836.got.cif
#   From: 2010.05.17/outbox.cif.g08.bks.cpg/sg19_3_cif.got.tgz:4836.got - 2010.06.03 22:46:19.
