data_PCOD9313943
_publ_section_title
;
Structure prediction by ZEFSAII (Michael W. Deem and Ramdas Pophale) SiO2 
 PCOD9313943
Probable space group: P 21 21 21
;
_chemical_formula_sum "Si O2"
_cell_formula_units_Z 32
_cell_length_a 7.271873
_cell_length_b 12.824929
_cell_length_c 15.167497
_cell_angle_alpha 90.000000
_cell_angle_beta 90.000000
_cell_angle_gamma 90.000000
_cell_volume 1414.539804
_symmetry_space_group_name_H-M "P 21 21 21"
_symmetry_group_IT_number 19
_symmetry_cell_setting 'orthorhombic'
loop_
_space_group_symop_operation_xyz
x,y,z
1/2-x,-y,1/2+z
1/2+x,1/2-y,-z
-x,1/2+y,1/2-z
loop_
_atom_site_type_symbol
_atom_site_label
_atom_site_fract_x
_atom_site_fract_y
_atom_site_fract_z
Si Si1 0.406574 0.411622 0.511651
Si Si2 0.859729 0.108736 0.829189
Si Si3 0.983207 0.433429 0.580713
Si Si4 0.029225 0.360195 0.041780
Si Si5 0.921857 0.762552 0.791492
Si Si6 0.890797 0.313728 0.415610
Si Si7 0.803314 0.955652 0.156972
Si Si8 0.726656 0.818783 0.617522
O O1 0.198306 0.424385 0.550691
O O2 0.514170 0.515467 0.542281
O O3 0.462701 0.297375 0.545782
O O4 0.364159 0.420167 0.407231
O O5 0.711877 0.149805 0.898129
O O6 0.758374 0.033825 0.758030
O O7 0.941464 0.194208 0.765467
O O8 0.022376 0.049390 0.881194
O O9 0.965223 0.352895 0.660374
O O10 0.869827 0.391964 0.498157
O O11 0.886027 0.277451 0.078703
O O12 0.091837 0.332233 0.942728
O O13 0.796982 0.705288 0.864195
O O14 0.778064 0.801537 0.718460
O O15 0.040306 0.368627 0.353235
O O16 0.868173 0.066868 0.116986
#
# Coordination Sequence:
#
# PCOD9313943 Si02
#       8
#     4   4   4   4   4   4   4   4
#     4   8  18  36  62  88 118 164 207 259 320 380
#     4  11  21  40  62  91 126 176 207 263 332 383
#     4   9  19  38  60  84 126 162 202 256 332 378
#     4  10  22  40  64  89 129 175 212 257 325 391
#     4  11  22  39  64  93 128 160 220 269 312 396
#     4  10  20  39  65  95 119 164 216 270 319 381
#     4  10  20  38  63  88 130 169 211 264 330 382
#     4  11  22  42  62  94 130 174 215 262 322 393
#
# _framework density 22.622198000000001
#
# number of rings (size 3 to 8) (size 9 to 14) (size 15 to 20)
#    0.000    2.000    1.250    3.000    0.000    0.000 
#    2.250   11.250    0.000    0.000    0.000    0.000 
#    0.000    0.000    0.000    0.000    0.000    0.000 
#
# Total GULP energy -178751.723168 kJ/mol
# GULP energy per Si atom -5585.991349 kJ/mol
# Density = 2.257071 g / cm^3
# Si number density = 22.622198 Si / 1000 Ang^3
#
#
#
# Elastic Constant Matrix: (Units=GPa)
#
#
# Indices 1 2 3 4 5 6 
#
# 1 32.4905 32.6831 5.7216 0.0000 0.0000 0.0000
# 2 32.6831 82.3938 10.6662 0.0000 0.0000 0.0000
# 3 5.7216 10.6662 97.5087 0.0000 0.0000 0.0000
# 4 0.0000 0.0000 0.0000 39.4186 0.0000 0.0000
# 5 0.0000 0.0000 0.0000 0.0000 33.2576 0.0000
# 6 0.0000 0.0000 0.0000 0.0000 0.0000 34.6760
#
#
#
# Elastic Compliance Matrix: (Units=1/GPa)
#
#
# Indices 1 2 3 4 5 6 
#
# 1 0.051274 -0.020236 -0.000795 0.000000 0.000000 0.000000
# 2 -0.020236 0.020298 -0.001033 0.000000 0.000000 0.000000
# 3 -0.000795 -0.001033 0.010415 0.000000 0.000000 0.000000
# 4 0.000000 0.000000 0.000000 0.025369 0.000000 0.000000
# 5 0.000000 0.000000 0.000000 0.000000 0.030068 0.000000
# 6 0.000000 0.000000 0.000000 0.000000 0.000000 0.028838
#
#
# Mechanical properties :
#
#
# Convention : Reuss Voigt Hill
#
# Bulk Modulus (GPa) = 26.41386 34.50385 30.45885
# Shear Modulus (GPa) = 22.42056 32.35857 27.38956
#
# Velocity S-wave (km/s) = 3.15157 3.78615 3.48334
# Velocity P-wave (km/s) = 4.99446 5.86503 5.44716
#
# Compressibility (1/GPa) = 0.03785892
#
# Stress axis : x y z
#
# Youngs Moduli (GPa) = 19.50304 49.26712 96.01417
#
# Poissons Ratio (x) = 0.99696 0.07634
# Poissons Ratio (y) = 0.39466 0.09917
# Poissons Ratio (z) = 0.01551 0.05089
#
# Static dielectric constant tensor:
#      x y z
#    x 1.845240 0.000000 0.000000 
#    y 0.000000 1.917510 0.000000 
#    z 0.000000 0.000000 1.835480 
# 
# From -- ./inp_files/5247.got.cif
#   From: 2010.05.17/outbox.cif.g08.bks.cpg/sg19_3_cif.got.tgz:5247.got - 2010.06.03 22:46:19.
