data_PCOD9313836
_publ_section_title
;
Structure prediction by ZEFSAII (Michael W. Deem and Ramdas Pophale) SiO2 
 PCOD9313836
Probable space group: P 21 21 21
;
_chemical_formula_sum "Si O2"
_cell_formula_units_Z 28
_cell_length_a 13.566097
_cell_length_b 8.287799
_cell_length_c 9.572400
_cell_angle_alpha 90.000000
_cell_angle_beta 90.000000
_cell_angle_gamma 90.000000
_cell_volume 1076.254464
_symmetry_space_group_name_H-M "P 21 21 21"
_symmetry_group_IT_number 19
_symmetry_cell_setting 'orthorhombic'
loop_
_space_group_symop_operation_xyz
x,y,z
1/2-x,-y,1/2+z
1/2+x,1/2-y,-z
-x,1/2+y,1/2-z
loop_
_atom_site_type_symbol
_atom_site_label
_atom_site_fract_x
_atom_site_fract_y
_atom_site_fract_z
Si Si1 0.025699 0.937146 0.438910
Si Si2 0.296307 0.943612 0.747786
Si Si3 0.878061 0.137063 0.972297
Si Si4 0.127320 0.781364 0.099691
Si Si5 0.778889 0.737166 0.656211
Si Si6 0.904740 0.864314 0.189949
Si Si7 0.596066 0.942234 0.154064
O O1 0.935944 0.957737 0.331114
O O2 0.010176 0.028233 0.583515
O O3 0.122391 0.994663 0.361147
O O4 0.034911 0.746913 0.465704
O O5 0.336107 0.030447 0.606493
O O6 0.202526 0.051139 0.796874
O O7 0.318180 0.756525 0.764787
O O8 0.897180 0.116513 0.810545
O O9 0.873376 0.973132 0.059793
O O10 0.780199 0.237545 0.011307
O O11 0.199825 0.713986 0.221043
O O12 0.011181 0.788341 0.142623
O O13 0.141009 0.687032 0.955484
O O14 0.858978 0.877067 0.653542
#
# Coordination Sequence:
#
# PCOD9313836 Si02
#       7
#     4   4   4   4   4   4   4
#     4  10  20  36  57  89 112 162 203 253 302 367
#     4   8  18  36  63  83 108 155 215 242 284 378
#     4  11  24  35  62  97 123 158 214 257 314 370
#     4   9  19  34  63  83 113 163 207 247 306 368
#     4   9  21  40  59  88 117 171 210 239 313 390
#     4  11  18  39  64  85 110 164 214 252 294 382
#     4  12  22  36  60  91 135 155 199 274 317 359
#
# _framework density 26.016151000000001
#
# number of rings (size 3 to 8) (size 9 to 14) (size 15 to 20)
#    0.857    1.143    2.857    3.429    2.000    0.000 
#    0.000    1.429    3.143    0.000    0.000    0.000 
#    0.000    0.000    0.000    0.000    0.000    0.000 
#
# Total GULP energy -156239.746576 kJ/mol
# GULP energy per Si atom -5579.990949 kJ/mol
# Density = 2.595694 g / cm^3
# Si number density = 26.016151 Si / 1000 Ang^3
#
#
#
# Elastic Constant Matrix: (Units=GPa)
#
#
# Indices 1 2 3 4 5 6 
#
# 1 46.0868 17.1599 23.5218 0.0000 0.0000 0.0000
# 2 17.1599 79.4035 38.7295 0.0000 0.0000 0.0000
# 3 23.5218 38.7295 164.8459 0.0000 0.0000 0.0000
# 4 0.0000 0.0000 0.0000 10.1215 0.0000 0.0000
# 5 0.0000 0.0000 0.0000 0.0000 34.2264 0.0000
# 6 0.0000 0.0000 0.0000 0.0000 0.0000 36.4129
#
#
#
# Elastic Compliance Matrix: (Units=1/GPa)
#
#
# Indices 1 2 3 4 5 6 
#
# 1 0.024507 -0.004055 -0.002544 0.000000 0.000000 0.000000
# 2 -0.004055 0.014895 -0.002921 0.000000 0.000000 0.000000
# 3 -0.002544 -0.002921 0.007116 0.000000 0.000000 0.000000
# 4 0.000000 0.000000 0.000000 0.098800 0.000000 0.000000
# 5 0.000000 0.000000 0.000000 0.000000 0.029217 0.000000
# 6 0.000000 0.000000 0.000000 0.000000 0.000000 0.027463
#
#
# Mechanical properties :
#
#
# Convention : Reuss Voigt Hill
#
# Bulk Modulus (GPa) = 36.39443 49.90652 43.15048
# Shear Modulus (GPa) = 21.72061 30.21381 25.96721
#
# Velocity S-wave (km/s) = 2.89258 3.41155 3.16273
# Velocity P-wave (km/s) = 5.01753 5.89430 5.47350
#
# Compressibility (1/GPa) = 0.02747673
#
# Stress axis : x y z
#
# Youngs Moduli (GPa) = 40.80536 67.13689 140.53795
#
# Poissons Ratio (x) = 0.27226 0.35754
# Poissons Ratio (y) = 0.16548 0.41049
# Poissons Ratio (z) = 0.10381 0.19610
#
# Static dielectric constant tensor:
#      x y z
#    x 2.053440 0.000000 0.000000 
#    y 0.000000 2.230440 0.000000 
#    z 0.000000 0.000000 2.007350 
# 
# From -- ./inp_files/4303.got.cif
#   From: 2010.05.17/outbox.cif.g08.bks.cpg/sg19_3_cif.got.tgz:4303.got - 2010.06.03 22:46:19.
