data_PCOD9313023
_publ_section_title
;
Structure prediction by ZEFSAII (Michael W. Deem and Ramdas Pophale) SiO2 
 PCOD9313023
Probable space group: P 21 21 2
;
_chemical_formula_sum "Si O2"
_cell_formula_units_Z 24
_cell_length_a 6.891237
_cell_length_b 9.761810
_cell_length_c 16.129874
_cell_angle_alpha 90.000000
_cell_angle_beta 90.000000
_cell_angle_gamma 90.000000
_cell_volume 1085.071887
_symmetry_space_group_name_H-M "P 21 21 2"
_symmetry_group_IT_number 18
_symmetry_cell_setting 'orthorhombic'
loop_
_space_group_symop_operation_xyz
x,y,z
-x,-y,z
1/2+x,1/2-y,-z
1/2-x,1/2+y,-z
loop_
_atom_site_type_symbol
_atom_site_label
_atom_site_fract_x
_atom_site_fract_y
_atom_site_fract_z
Si Si1 0.346104 0.880106 0.067420
Si Si2 0.662640 0.811972 0.429929
Si Si3 0.231352 0.889865 0.237789
Si Si4 0.878238 0.129043 0.902018
Si Si5 0.674485 0.791837 0.251408
Si Si6 0.787627 0.111292 0.418955
O O1 0.185242 0.866154 0.140871
O O2 0.470845 0.741885 0.063526
O O3 0.500000 0.000000 0.089902
O O4 0.253788 0.912306 0.979200
O O5 0.716357 0.738128 0.343569
O O6 0.444602 0.863805 0.414843
O O7 0.653131 0.713274 0.508275
O O8 0.797351 0.948043 0.439069
O O9 0.442591 0.816524 0.241389
O O10 0.136789 0.851892 0.326282
O O11 0.243953 0.054452 0.245192
O O12 0.766148 0.197410 0.824952
O O13 0.000000 0.000000 0.870913
#
# Coordination Sequence:
#
# PCOD9313023 Si02
#       6
#     4   4   4   4   4   4
#     4  11  20  38  59  79 113 146 186 230 271 332
#     4   9  18  34  55  77 105 139 177 223 263 318
#     4   8  14  32  58  73  96 148 183 207 254 338
#     4  11  22  34  57  88 109 142 187 230 280 320
#     4   8  15  33  53  75 104 139 181 214 259 326
#     4   9  18  33  56  80 104 136 181 220 266 317
#
# _framework density 22.118351000000001
#
# number of rings (size 3 to 8) (size 9 to 14) (size 15 to 20)
#    0.000    2.667    3.333    3.000    0.000    0.667 
#    9.000    1.667    3.667    0.000    0.000    0.000 
#    0.000    0.000    0.000    0.000    0.000    0.000 
#
# Total GULP energy -133785.003353 kJ/mol
# GULP energy per Si atom -5574.375140 kJ/mol
# Density = 2.206801 g / cm^3
# Si number density = 22.118351 Si / 1000 Ang^3
#
#
#
# Elastic Constant Matrix: (Units=GPa)
#
#
# Indices 1 2 3 4 5 6 
#
# 1 40.3942 3.7881 13.0916 0.0000 0.0000 0.0000
# 2 3.7881 51.9008 35.0040 0.0000 0.0000 0.0000
# 3 13.0916 35.0040 215.9426 0.0000 0.0000 0.0000
# 4 0.0000 0.0000 0.0000 34.6158 0.0000 0.0000
# 5 0.0000 0.0000 0.0000 0.0000 23.9212 0.0000
# 6 0.0000 0.0000 0.0000 0.0000 0.0000 25.4312
#
#
#
# Elastic Compliance Matrix: (Units=1/GPa)
#
#
# Indices 1 2 3 4 5 6 
#
# 1 0.025291 -0.000911 -0.001386 0.000000 0.000000 0.000000
# 2 -0.000911 0.021665 -0.003457 0.000000 0.000000 0.000000
# 3 -0.001386 -0.003457 0.005275 0.000000 0.000000 0.000000
# 4 0.000000 0.000000 0.000000 0.028889 0.000000 0.000000
# 5 0.000000 0.000000 0.000000 0.000000 0.041804 0.000000
# 6 0.000000 0.000000 0.000000 0.000000 0.000000 0.039322
#
#
# Mechanical properties :
#
#
# Convention : Reuss Voigt Hill
#
# Bulk Modulus (GPa) = 24.55566 45.77836 35.16701
# Shear Modulus (GPa) = 26.69127 33.88390 30.28758
#
# Velocity S-wave (km/s) = 3.47760 3.91824 3.70448
# Velocity P-wave (km/s) = 5.22024 6.41966 5.85077
#
# Compressibility (1/GPa) = 0.04072381
#
# Stress axis : x y z
#
# Youngs Moduli (GPa) = 39.54046 46.15659 189.56695
#
# Poissons Ratio (x) = 0.04207 0.26265
# Poissons Ratio (y) = 0.03604 0.65527
# Poissons Ratio (z) = 0.05478 0.15955
#
# Static dielectric constant tensor:
#      x y z
#    x 1.943140 0.000000 0.000000 
#    y 0.000000 1.771390 0.000000 
#    z 0.000000 0.000000 1.858670 
# 
# From -- ./inp_files/6654.got.cif
#   From: 2010.05.17/outbox.cif.g08.bks.cpg/sg18_4_cif.got.tgz:6654.got - 2010.06.03 22:40:56.
