data_PCOD9313587
_publ_section_title
;
Structure prediction by ZEFSAII (Michael W. Deem and Ramdas Pophale) SiO2 
 PCOD9313587
Probable space group: P 21 21 21
;
_chemical_formula_sum "Si O2"
_cell_formula_units_Z 28
_cell_length_a 7.685605
_cell_length_b 8.750753
_cell_length_c 18.926214
_cell_angle_alpha 90.000000
_cell_angle_beta 90.000000
_cell_angle_gamma 90.000000
_cell_volume 1272.879324
_symmetry_space_group_name_H-M "P 21 21 21"
_symmetry_group_IT_number 19
_symmetry_cell_setting 'orthorhombic'
loop_
_space_group_symop_operation_xyz
x,y,z
1/2-x,-y,1/2+z
1/2+x,1/2-y,-z
-x,1/2+y,1/2-z
loop_
_atom_site_type_symbol
_atom_site_label
_atom_site_fract_x
_atom_site_fract_y
_atom_site_fract_z
Si Si1 0.113591 0.306607 0.377730
Si Si2 0.784239 0.477299 0.324154
Si Si3 0.902789 0.485732 0.172682
Si Si4 0.399371 0.736801 0.329935
Si Si5 0.286709 0.403183 0.957189
Si Si6 0.400246 0.423521 0.268904
Si Si7 0.864914 0.769791 0.403781
O O1 0.168766 0.419400 0.441279
O O2 0.251589 0.348352 0.316127
O O3 0.919048 0.354825 0.354869
O O4 0.116948 0.124365 0.381963
O O5 0.882573 0.539741 0.253498
O O6 0.592488 0.417470 0.305991
O O7 0.768570 0.619290 0.376498
O O8 0.746622 0.366292 0.166994
O O9 0.072863 0.388480 0.155933
O O10 0.368128 0.648398 0.403551
O O11 0.365554 0.605498 0.270668
O O12 0.565577 0.832710 0.303499
O O13 0.456422 0.304494 0.935694
O O14 0.233748 0.361123 0.035657
#
# Coordination Sequence:
#
# PCOD9313587 Si02
#       7
#     4   4   4   4   4   4   4
#     4  10  21  38  59  90 125 157 196 261 297 360
#     4  10  21  37  62  92 118 157 206 250 301 362
#     4  10  20  39  62  90 125 159 200 257 312 349
#     4   9  19  34  58  91 117 157 196 245 297 360
#     4   9  21  38  60  86 119 162 206 241 306 366
#     4  10  19  35  61  89 126 153 200 249 308 353
#     4  10  21  39  64  86 122 161 204 249 301 374
#
# _framework density 21.997371999999999
#
# number of rings (size 3 to 8) (size 9 to 14) (size 15 to 20)
#    0.000    2.286    0.000    3.429    4.000    2.286 
#    0.000    7.143    0.000    0.000    0.000    0.000 
#    0.000    0.000    0.000    0.000    0.000    0.000 
#
# Total GULP energy -156237.508987 kJ/mol
# GULP energy per Si atom -5579.911035 kJ/mol
# Density = 2.194731 g / cm^3
# Si number density = 21.997372 Si / 1000 Ang^3
#
#
#
# Elastic Constant Matrix: (Units=GPa)
#
#
# Indices 1 2 3 4 5 6 
#
# 1 114.2933 23.6920 -5.9136 0.0000 0.0000 0.0000
# 2 23.6920 104.3083 -17.1009 0.0000 0.0000 0.0000
# 3 -5.9136 -17.1009 16.8952 0.0000 0.0000 0.0000
# 4 0.0000 0.0000 0.0000 18.0537 0.0000 0.0000
# 5 0.0000 0.0000 0.0000 0.0000 26.4904 0.0000
# 6 0.0000 0.0000 0.0000 0.0000 0.0000 35.1495
#
#
#
# Elastic Compliance Matrix: (Units=1/GPa)
#
#
# Indices 1 2 3 4 5 6 
#
# 1 0.009206 -0.001874 0.001326 0.000000 0.000000 0.000000
# 2 -0.001874 0.011876 0.011364 0.000000 0.000000 0.000000
# 3 0.001326 0.011364 0.071155 0.000000 0.000000 0.000000
# 4 0.000000 0.000000 0.000000 0.055390 0.000000 0.000000
# 5 0.000000 0.000000 0.000000 0.000000 0.037750 0.000000
# 6 0.000000 0.000000 0.000000 0.000000 0.000000 0.028450
#
#
# Mechanical properties :
#
#
# Convention : Reuss Voigt Hill
#
# Bulk Modulus (GPa) = 8.78193 26.31686 17.54940
# Shear Modulus (GPa) = 21.72491 31.59334 26.65912
#
# Velocity S-wave (km/s) = 3.14604 3.79388 3.48505
# Velocity P-wave (km/s) = 4.14701 5.58399 4.91826
#
# Compressibility (1/GPa) = 0.11387023
#
# Stress axis : x y z
#
# Youngs Moduli (GPa) = 108.61972 84.20568 14.05382
#
# Poissons Ratio (x) = 0.15778 -0.01863
# Poissons Ratio (y) = 0.20352 -0.15971
# Poissons Ratio (z) = -0.14402 -0.95694
#
# Static dielectric constant tensor:
#      x y z
#    x 1.857880 0.000000 0.000000 
#    y 0.000000 1.818480 0.000000 
#    z 0.000000 0.000000 1.833650 
# 
# From -- ./inp_files/2987.got.cif
#   From: 2010.05.17/outbox.cif.g08.bks.cpg/sg19_2_cif.got.tgz:2987.got - 2010.06.03 22:46:19.
