data_PCOD9313716
_publ_section_title
;
Structure prediction by ZEFSAII (Michael W. Deem and Ramdas Pophale) SiO2 
 PCOD9313716
Probable space group: P 21 21 21
;
_chemical_formula_sum "Si O2"
_cell_formula_units_Z 20
_cell_length_a 6.362334
_cell_length_b 16.284888
_cell_length_c 7.062684
_cell_angle_alpha 90.000000
_cell_angle_beta 90.000000
_cell_angle_gamma 90.000000
_cell_volume 731.763959
_symmetry_space_group_name_H-M "P 21 21 21"
_symmetry_group_IT_number 19
_symmetry_cell_setting 'orthorhombic'
loop_
_space_group_symop_operation_xyz
x,y,z
1/2-x,-y,1/2+z
1/2+x,1/2-y,-z
-x,1/2+y,1/2-z
loop_
_atom_site_type_symbol
_atom_site_label
_atom_site_fract_x
_atom_site_fract_y
_atom_site_fract_z
Si Si1 0.331445 0.268115 0.690940
Si Si2 0.937968 0.033799 0.842643
Si Si3 0.877824 0.833142 0.450419
Si Si4 0.977969 0.486956 0.259958
Si Si5 0.619001 0.381875 0.500409
O O1 0.533286 0.239617 0.817772
O O2 0.397471 0.336290 0.540377
O O3 0.268667 0.189438 0.568223
O O4 0.152270 0.298503 0.837715
O O5 0.846731 0.123045 0.908209
O O6 0.093417 0.055167 0.673416
O O7 0.729677 0.991571 0.761940
O O8 0.027487 0.980951 0.014466
O O9 0.030863 0.909187 0.384642
O O10 0.857796 0.567226 0.191266
#
# Coordination Sequence:
#
# PCOD9313716 Si02
#       5
#     4   4   4   4   4
#     4  12  26  46  71 109 144 187 236 300 358 418
#     4  10  19  40  73  93 136 185 236 274 351 417
#     4  10  23  45  70 101 141 188 238 286 354 421
#     4  10  20  42  69 100 137 189 235 284 350 427
#     4  12  24  43  69 105 140 187 233 290 355 423
#
# _framework density 27.331216000000001
#
# number of rings (size 3 to 8) (size 9 to 14) (size 15 to 20)
#    1.200    0.000    4.000    2.400    0.000    0.000 
#    3.600    0.000    0.000    0.000    0.000    0.000 
#    0.000    0.000    0.000    0.000    0.000    0.000 
#
# Total GULP energy -111755.383615 kJ/mol
# GULP energy per Si atom -5587.769181 kJ/mol
# Density = 2.726901 g / cm^3
# Si number density = 27.331216 Si / 1000 Ang^3
#
#
#
# Elastic Constant Matrix: (Units=GPa)
#
#
# Indices 1 2 3 4 5 6 
#
# 1 42.6811 2.1929 22.1096 0.0000 0.0000 0.0000
# 2 2.1929 109.2721 36.0383 0.0000 0.0000 0.0000
# 3 22.1096 36.0383 114.7772 0.0000 0.0000 0.0000
# 4 0.0000 0.0000 0.0000 57.3745 0.0000 0.0000
# 5 0.0000 0.0000 0.0000 0.0000 74.3119 0.0000
# 6 0.0000 0.0000 0.0000 0.0000 0.0000 41.1591
#
#
#
# Elastic Compliance Matrix: (Units=1/GPa)
#
#
# Indices 1 2 3 4 5 6 
#
# 1 0.026184 0.001269 -0.005442 0.000000 0.000000 0.000000
# 2 0.001269 0.010270 -0.003469 0.000000 0.000000 0.000000
# 3 -0.005442 -0.003469 0.010850 0.000000 0.000000 0.000000
# 4 0.000000 0.000000 0.000000 0.017429 0.000000 0.000000
# 5 0.000000 0.000000 0.000000 0.000000 0.013457 0.000000
# 6 0.000000 0.000000 0.000000 0.000000 0.000000 0.024296
#
#
# Mechanical properties :
#
#
# Convention : Reuss Voigt Hill
#
# Bulk Modulus (GPa) = 31.23078 43.04579 37.13828
# Shear Modulus (GPa) = 38.92762 48.32839 43.62800
#
# Velocity S-wave (km/s) = 3.77807 4.20962 3.99967
# Velocity P-wave (km/s) = 5.52117 6.27787 5.91164
#
# Compressibility (1/GPa) = 0.03201970
#
# Stress axis : x y z
#
# Youngs Moduli (GPa) = 38.19185 97.36963 92.16440
#
# Poissons Ratio (x) = -0.12361 0.50159
# Poissons Ratio (y) = -0.04848 0.31974
# Poissons Ratio (z) = 0.20785 0.33780
#
# Static dielectric constant tensor:
#      x y z
#    x 2.326130 0.000000 0.000000 
#    y 0.000000 2.125460 0.000000 
#    z 0.000000 0.000000 2.058560 
# 
# From -- ./inp_files/375.got.cif
#   From: 2010.05.17/outbox.cif.g08.bks.cpg/sg19_1_cif.got.tgz:375.got - 2010.06.03 22:46:19.
