data_PCOD9313725
_publ_section_title
;
Structure prediction by ZEFSAII (Michael W. Deem and Ramdas Pophale) SiO2 
 PCOD9313725
Probable space group: P 21 21 21
;
_chemical_formula_sum "Si O2"
_cell_formula_units_Z 28
_cell_length_a 5.163961
_cell_length_b 16.179471
_cell_length_c 12.942259
_cell_angle_alpha 90.000000
_cell_angle_beta 90.000000
_cell_angle_gamma 90.000000
_cell_volume 1081.327775
_symmetry_space_group_name_H-M "P 21 21 21"
_symmetry_group_IT_number 19
_symmetry_cell_setting 'orthorhombic'
loop_
_space_group_symop_operation_xyz
x,y,z
1/2-x,-y,1/2+z
1/2+x,1/2-y,-z
-x,1/2+y,1/2-z
loop_
_atom_site_type_symbol
_atom_site_label
_atom_site_fract_x
_atom_site_fract_y
_atom_site_fract_z
Si Si1 0.848420 0.030372 0.037353
Si Si2 0.945535 0.829042 0.457843
Si Si3 0.146836 0.954593 0.685364
Si Si4 0.640546 0.693377 0.892072
Si Si5 0.151457 0.643504 0.019791
Si Si6 0.823614 0.617025 0.697844
Si Si7 0.651055 0.725951 0.325038
O O1 0.615924 0.038632 0.120126
O O2 0.112454 0.030385 0.104804
O O3 0.762401 0.949039 0.972671
O O4 0.799266 0.109782 0.963956
O O5 0.916561 0.754261 0.377782
O O6 0.181471 0.879885 0.411426
O O7 0.990107 0.793609 0.570462
O O8 0.173291 0.861532 0.730193
O O9 0.117229 0.023518 0.772626
O O10 0.365111 0.683840 0.945540
O O11 0.620618 0.642929 0.787312
O O12 0.872631 0.652839 0.961931
O O13 0.668934 0.793150 0.883542
O O14 0.027763 0.691175 0.720533
#
# Coordination Sequence:
#
# PCOD9313725 Si02
#       7
#     4   4   4   4   4   4   4
#     4  11  22  45  71 101 140 188 246 289 379 432
#     4  11  25  44  74 101 147 201 237 302 364 452
#     4  11  26  45  75 103 140 191 241 314 357 429
#     4  10  22  38  68 100 137 191 230 304 361 434
#     4  10  19  42  65 100 141 181 238 292 381 427
#     4  12  25  46  71 108 144 193 254 299 364 438
#     4  11  25  48  70 103 149 193 246 300 376 428
#
# _framework density 25.894092000000001
#
# number of rings (size 3 to 8) (size 9 to 14) (size 15 to 20)
#    0.000    1.143    4.286    0.857    8.000    0.000 
#    5.143    0.000    0.000    0.000    0.000    0.000 
#    0.000    0.000    0.000    0.000    0.000    0.000 
#
# Total GULP energy -156402.108537 kJ/mol
# GULP energy per Si atom -5585.789591 kJ/mol
# Density = 2.583516 g / cm^3
# Si number density = 25.894092 Si / 1000 Ang^3
#
#
#
# Elastic Constant Matrix: (Units=GPa)
#
#
# Indices 1 2 3 4 5 6 
#
# 1 130.2082 18.3876 19.1251 0.0000 0.0000 0.0000
# 2 18.3876 190.1482 46.9607 0.0000 0.0000 0.0000
# 3 19.1251 46.9607 17.1462 0.0000 0.0000 0.0000
# 4 0.0000 0.0000 0.0000 44.1595 0.0000 0.0000
# 5 0.0000 0.0000 0.0000 0.0000 16.1376 0.0000
# 6 0.0000 0.0000 0.0000 0.0000 0.0000 31.2612
#
#
#
# Elastic Compliance Matrix: (Units=1/GPa)
#
#
# Indices 1 2 3 4 5 6 
#
# 1 0.011099 0.006132 -0.029174 0.000000 0.000000 0.000000
# 2 0.006132 0.019640 -0.060629 0.000000 0.000000 0.000000
# 3 -0.029174 -0.060629 0.256917 0.000000 0.000000 0.000000
# 4 0.000000 0.000000 0.000000 0.022645 0.000000 0.000000
# 5 0.000000 0.000000 0.000000 0.000000 0.061967 0.000000
# 6 0.000000 0.000000 0.000000 0.000000 0.000000 0.031989
#
#
# Mechanical properties :
#
#
# Convention : Reuss Voigt Hill
#
# Bulk Modulus (GPa) = 8.31171 56.27215 32.29193
# Shear Modulus (GPa) = 8.17389 35.18026 21.67707
#
# Velocity S-wave (km/s) = 1.77863 3.68995 2.89648
# Velocity P-wave (km/s) = 2.72670 6.31926 4.86662
#
# Compressibility (1/GPa) = 0.12031213
#
# Stress axis : x y z
#
# Youngs Moduli (GPa) = 90.09622 50.91742 3.89231
#
# Poissons Ratio (x) = -0.31222 0.11356
# Poissons Ratio (y) = -0.55246 0.23599
# Poissons Ratio (z) = 2.62850 3.08709
#
# Static dielectric constant tensor:
#      x y z
#    x 2.128980 0.000000 0.000000 
#    y 0.000000 2.227800 0.000000 
#    z 0.000000 0.000000 2.203110 
# 
# From -- ./inp_files/5705.got.cif
#   From: 2010.05.17/outbox.cif.g08.bks.cpg/sg19_3_cif.got.tgz:5705.got - 2010.06.03 22:46:19.
