data_PCOD9313295
_publ_section_title
;
Structure prediction by ZEFSAII (Michael W. Deem and Ramdas Pophale) SiO2 
 PCOD9313295
Probable space group: P 21 21 21
;
_chemical_formula_sum "Si O2"
_cell_formula_units_Z 32
_cell_length_a 8.142955
_cell_length_b 16.653991
_cell_length_c 8.753749
_cell_angle_alpha 90.000000
_cell_angle_beta 90.000000
_cell_angle_gamma 90.000000
_cell_volume 1187.119531
_symmetry_space_group_name_H-M "P 21 21 21"
_symmetry_group_IT_number 19
_symmetry_cell_setting 'orthorhombic'
loop_
_space_group_symop_operation_xyz
x,y,z
1/2-x,-y,1/2+z
1/2+x,1/2-y,-z
-x,1/2+y,1/2-z
loop_
_atom_site_type_symbol
_atom_site_label
_atom_site_fract_x
_atom_site_fract_y
_atom_site_fract_z
Si Si1 0.710914 0.178084 0.703443
Si Si2 0.892831 0.449954 0.107603
Si Si3 0.333377 0.178407 0.438921
Si Si4 0.666063 0.337621 0.241337
Si Si5 0.608778 0.848786 0.484131
Si Si6 0.946109 0.484611 0.463397
Si Si7 0.083880 0.557987 0.926996
Si Si8 0.994098 0.678167 0.188661
O O1 0.734509 0.174980 0.884302
O O2 0.748480 0.087429 0.650939
O O3 0.860771 0.233582 0.632994
O O4 0.554313 0.229015 0.650742
O O5 0.827273 0.361953 0.145298
O O6 0.931339 0.480329 0.279511
O O7 0.732348 0.488765 0.028774
O O8 0.039426 0.471335 0.992000
O O9 0.232274 0.196061 0.597273
O O10 0.196366 0.147729 0.313572
O O11 0.457622 0.105135 0.463915
O O12 0.541617 0.308378 0.111323
O O13 0.560340 0.413772 0.310969
O O14 0.571234 0.945024 0.489683
O O15 0.595261 0.822674 0.657440
O O16 0.075430 0.616027 0.074214
#
# Coordination Sequence:
#
# PCOD9313295 Si02
#       8
#     4   4   4   4   4   4   4   4
#     4   9  20  31  44  68 103 136 169 185 245 316
#     4  10  13  22  39  67  94 122 146 185 251 297
#     4   8  15  31  42  62 100 131 156 185 244 306
#     4   8  16  24  42  64  95 126 152 188 245 293
#     4  10  17  27  46  76  97 123 164 205 251 284
#     4  10  15  24  46  70  96 126 152 203 260 298
#     4  10  15  29  44  65  96 138 158 186 241 310
#     4   9  17  32  45  66 103 126 163 205 235 288
#
# _framework density 26.956007
#
# number of rings (size 3 to 8) (size 9 to 14) (size 15 to 20)
#    0.750    2.000    5.000    0.000    0.000    0.000 
#    2.250    0.000    0.000    0.000    0.000    1.750 
#    0.000    0.000    0.000    0.000    0.000    0.000 
#
# Total GULP energy -178220.450247 kJ/mol
# GULP energy per Si atom -5569.389070 kJ/mol
# Density = 2.689465 g / cm^3
# Si number density = 26.956007 Si / 1000 Ang^3
#
#
#
# Elastic Constant Matrix: (Units=GPa)
#
#
# Indices 1 2 3 4 5 6 
#
# 1 70.2430 12.5339 5.0229 0.0000 0.0000 0.0000
# 2 12.5339 86.1569 -3.1562 0.0000 0.0000 0.0000
# 3 5.0229 -3.1562 70.7098 0.0000 0.0000 0.0000
# 4 0.0000 0.0000 0.0000 52.0438 0.0000 0.0000
# 5 0.0000 0.0000 0.0000 0.0000 20.4065 0.0000
# 6 0.0000 0.0000 0.0000 0.0000 0.0000 38.0912
#
#
#
# Elastic Compliance Matrix: (Units=1/GPa)
#
#
# Indices 1 2 3 4 5 6 
#
# 1 0.014707 -0.002181 -0.001142 0.000000 0.000000 0.000000
# 2 -0.002181 0.011949 0.000688 0.000000 0.000000 0.000000
# 3 -0.001142 0.000688 0.014254 0.000000 0.000000 0.000000
# 4 0.000000 0.000000 0.000000 0.019215 0.000000 0.000000
# 5 0.000000 0.000000 0.000000 0.000000 0.049004 0.000000
# 6 0.000000 0.000000 0.000000 0.000000 0.000000 0.026253
#
#
# Mechanical properties :
#
#
# Convention : Reuss Voigt Hill
#
# Bulk Modulus (GPa) = 28.05810 28.43451 28.24630
# Shear Modulus (GPa) = 32.77990 36.28891 34.53440
#
# Velocity S-wave (km/s) = 3.49098 3.67308 3.58318
# Velocity P-wave (km/s) = 5.16533 5.34416 5.25551
#
# Compressibility (1/GPa) = 0.03564034
#
# Stress axis : x y z
#
# Youngs Moduli (GPa) = 67.99385 83.68693 70.15495
#
# Poissons Ratio (x) = 0.18256 0.08012
# Poissons Ratio (y) = 0.14832 -0.04829
# Poissons Ratio (z) = 0.07766 -0.05760
#
# Static dielectric constant tensor:
#      x y z
#    x 2.225460 0.000000 0.000000 
#    y 0.000000 2.245660 0.000000 
#    z 0.000000 0.000000 2.097040 
# 
# From -- ./inp_files/4041.got.cif
#   From: 2010.05.17/outbox.cif.g08.bks.cpg/sg19_3_cif.got.tgz:4041.got - 2010.06.03 22:46:19.
