data_PCOD9313324
_publ_section_title
;
Structure prediction by ZEFSAII (Michael W. Deem and Ramdas Pophale) SiO2 
 PCOD9313324
Probable space group: P 21 21 21
;
_chemical_formula_sum "Si O2"
_cell_formula_units_Z 28
_cell_length_a 9.077142
_cell_length_b 12.860405
_cell_length_c 9.148779
_cell_angle_alpha 90.000000
_cell_angle_beta 90.000000
_cell_angle_gamma 90.000000
_cell_volume 1067.989325
_symmetry_space_group_name_H-M "P 21 21 21"
_symmetry_group_IT_number 19
_symmetry_cell_setting 'orthorhombic'
loop_
_space_group_symop_operation_xyz
x,y,z
1/2-x,-y,1/2+z
1/2+x,1/2-y,-z
-x,1/2+y,1/2-z
loop_
_atom_site_type_symbol
_atom_site_label
_atom_site_fract_x
_atom_site_fract_y
_atom_site_fract_z
Si Si1 0.019763 0.839148 0.690199
Si Si2 0.804127 0.613263 0.437992
Si Si3 0.973278 0.025442 0.901577
Si Si4 0.630118 0.429282 0.599053
Si Si5 0.849777 0.241884 0.541063
Si Si6 0.865448 0.935345 0.440431
Si Si7 0.061560 0.352902 0.362329
O O1 0.168284 0.811929 0.601024
O O2 0.031063 0.763239 0.828913
O O3 0.033195 0.955604 0.767785
O O4 0.884476 0.864288 0.584088
O O5 0.717767 0.526840 0.532378
O O6 0.860144 0.585180 0.274309
O O7 0.940538 0.629217 0.548228
O O8 0.800267 0.043593 0.892525
O O9 0.993523 0.948690 0.040623
O O10 0.728011 0.335191 0.536709
O O11 0.463953 0.459026 0.549979
O O12 0.731952 0.156083 0.587244
O O13 0.951485 0.257770 0.399479
O O14 0.940439 0.873786 0.307497
#
# Coordination Sequence:
#
# PCOD9313324 Si02
#       7
#     4   4   4   4   4   4   4
#     4   9  21  38  57  84 128 162 200 259 320 372
#     4  10  16  34  57  85 115 156 201 252 309 362
#     4  11  20  37  58  96 122 152 214 271 297 363
#     4  10  18  35  59  84 120 161 200 250 315 372
#     4  10  22  42  60  87 126 168 207 251 312 388
#     4  11  22  36  64  94 122 156 213 268 313 357
#     4  11  23  42  63  92 125 167 213 251 316 384
#
# _framework density 26.217490999999999
#
# number of rings (size 3 to 8) (size 9 to 14) (size 15 to 20)
#    0.000    1.714    5.714    0.857    2.000    0.000 
#    0.000    5.714    0.000    0.000    0.000    0.000 
#    0.000    0.000    0.000    0.000    0.000    0.000 
#
# Total GULP energy -156156.832569 kJ/mol
# GULP energy per Si atom -5577.029735 kJ/mol
# Density = 2.615782 g / cm^3
# Si number density = 26.217491 Si / 1000 Ang^3
#
#
#
# Elastic Constant Matrix: (Units=GPa)
#
#
# Indices 1 2 3 4 5 6 
#
# 1 140.3548 2.0504 20.5545 0.0000 0.0000 0.0000
# 2 2.0504 33.4507 2.5863 0.0000 0.0000 0.0000
# 3 20.5545 2.5863 74.1858 0.0000 0.0000 0.0000
# 4 0.0000 0.0000 0.0000 13.3133 0.0000 0.0000
# 5 0.0000 0.0000 0.0000 0.0000 44.4205 0.0000
# 6 0.0000 0.0000 0.0000 0.0000 0.0000 38.1104
#
#
#
# Elastic Compliance Matrix: (Units=1/GPa)
#
#
# Indices 1 2 3 4 5 6 
#
# 1 0.007429 -0.000297 -0.002048 0.000000 0.000000 0.000000
# 2 -0.000297 0.029987 -0.000963 0.000000 0.000000 0.000000
# 3 -0.002048 -0.000963 0.014081 0.000000 0.000000 0.000000
# 4 0.000000 0.000000 0.000000 0.075113 0.000000 0.000000
# 5 0.000000 0.000000 0.000000 0.000000 0.022512 0.000000
# 6 0.000000 0.000000 0.000000 0.000000 0.000000 0.026240
#
#
# Mechanical properties :
#
#
# Convention : Reuss Voigt Hill
#
# Bulk Modulus (GPa) = 22.28123 33.15263 27.71693
# Shear Modulus (GPa) = 25.38866 34.02218 29.70542
#
# Velocity S-wave (km/s) = 3.11527 3.60625 3.36972
# Velocity P-wave (km/s) = 4.63216 5.47839 5.07295
#
# Compressibility (1/GPa) = 0.04488082
#
# Stress axis : x y z
#
# Youngs Moduli (GPa) = 134.60646 33.34733 71.01929
#
# Poissons Ratio (x) = 0.00991 0.14545
# Poissons Ratio (y) = 0.03998 0.06840
# Poissons Ratio (z) = 0.27567 0.03212
#
# Static dielectric constant tensor:
#      x y z
#    x 2.157610 0.000000 0.000000 
#    y 0.000000 2.311960 0.000000 
#    z 0.000000 0.000000 2.022080 
# 
# From -- ./inp_files/3040.got.cif
#   From: 2010.05.17/outbox.cif.g08.bks.cpg/sg19_2_cif.got.tgz:3040.got - 2010.06.03 22:46:19.
