data_PCOD9313874
_publ_section_title
;
Structure prediction by ZEFSAII (Michael W. Deem and Ramdas Pophale) SiO2 
 PCOD9313874
Probable space group: P 21 21 21
;
_chemical_formula_sum "Si O2"
_cell_formula_units_Z 28
_cell_length_a 11.150716
_cell_length_b 9.197892
_cell_length_c 10.428914
_cell_angle_alpha 90.000000
_cell_angle_beta 90.000000
_cell_angle_gamma 90.000000
_cell_volume 1069.621556
_symmetry_space_group_name_H-M "P 21 21 21"
_symmetry_group_IT_number 19
_symmetry_cell_setting 'orthorhombic'
loop_
_space_group_symop_operation_xyz
x,y,z
1/2-x,-y,1/2+z
1/2+x,1/2-y,-z
-x,1/2+y,1/2-z
loop_
_atom_site_type_symbol
_atom_site_label
_atom_site_fract_x
_atom_site_fract_y
_atom_site_fract_z
Si Si1 0.738713 0.437297 0.347257
Si Si2 0.912877 0.985757 0.463014
Si Si3 0.497189 0.514004 0.819582
Si Si4 0.158959 0.495527 0.686928
Si Si5 0.404026 0.197984 0.114500
Si Si6 0.791433 0.199236 0.132201
Si Si7 0.937965 0.750895 0.987272
O O1 0.650242 0.565428 0.305018
O O2 0.759083 0.316953 0.238306
O O3 0.674147 0.356189 0.464964
O O4 0.710867 0.059723 0.177186
O O5 0.992586 0.975334 0.332461
O O6 0.777551 0.988729 0.405433
O O7 0.974262 0.858573 0.548314
O O8 0.947826 0.144957 0.516751
O O9 0.423828 0.627561 0.123037
O O10 0.422147 0.372618 0.855179
O O11 0.438854 0.657500 0.882378
O O12 0.091287 0.648427 0.685191
O O13 0.302808 0.222745 0.003513
O O14 0.870346 0.495034 0.374636
#
# Coordination Sequence:
#
# PCOD9313874 Si02
#       7
#     4   4   4   4   4   4   4
#     4  10  23  38  61  97 135 167 212 280 342 385
#     4  10  23  37  62 100 126 162 227 280 322 386
#     4  11  19  36  69  95 124 162 226 280 316 383
#     4  10  22  38  64  93 132 170 210 277 334 391
#     4  11  22  40  61  98 135 166 210 286 338 388
#     4  10  21  40  58  96 128 161 224 265 324 396
#     4  10  20  37  59  93 132 164 203 276 338 385
#
# _framework density 26.177482000000001
#
# number of rings (size 3 to 8) (size 9 to 14) (size 15 to 20)
#    0.000    1.714    2.857    2.571    2.000    1.143 
#    0.000    0.000    0.000   15.429    0.000    0.000 
#    0.000    0.000    0.000    0.000    0.000    0.000 
#
# Total GULP energy -156729.361307 kJ/mol
# GULP energy per Si atom -5597.477190 kJ/mol
# Density = 2.611790 g / cm^3
# Si number density = 26.177482 Si / 1000 Ang^3
#
#
#
# Elastic Constant Matrix: (Units=GPa)
#
#
# Indices 1 2 3 4 5 6 
#
# 1 126.1642 72.6534 42.8698 0.0000 0.0000 0.0000
# 2 72.6534 170.4803 26.8061 0.0000 0.0000 0.0000
# 3 42.8698 26.8061 60.1255 0.0000 0.0000 0.0000
# 4 0.0000 0.0000 0.0000 50.0971 0.0000 0.0000
# 5 0.0000 0.0000 0.0000 0.0000 36.9963 0.0000
# 6 0.0000 0.0000 0.0000 0.0000 0.0000 53.3591
#
#
#
# Elastic Compliance Matrix: (Units=1/GPa)
#
#
# Indices 1 2 3 4 5 6 
#
# 1 0.012901 -0.004357 -0.007256 0.000000 0.000000 0.000000
# 2 -0.004357 0.007779 -0.000362 0.000000 0.000000 0.000000
# 3 -0.007256 -0.000362 0.021967 0.000000 0.000000 0.000000
# 4 0.000000 0.000000 0.000000 0.019961 0.000000 0.000000
# 5 0.000000 0.000000 0.000000 0.000000 0.027030 0.000000
# 6 0.000000 0.000000 0.000000 0.000000 0.000000 0.018741
#
#
# Mechanical properties :
#
#
# Convention : Reuss Voigt Hill
#
# Bulk Modulus (GPa) = 53.48268 71.26983 62.37626
# Shear Modulus (GPa) = 36.08539 42.38655 39.23597
#
# Velocity S-wave (km/s) = 3.71683 4.02829 3.87569
# Velocity P-wave (km/s) = 6.23658 6.99435 6.62630
#
# Compressibility (1/GPa) = 0.01869764
#
# Stress axis : x y z
#
# Youngs Moduli (GPa) = 77.51543 128.54324 45.52370
#
# Poissons Ratio (x) = 0.56006 0.33031
# Poissons Ratio (y) = 0.33773 0.01647
# Poissons Ratio (z) = 0.56243 0.04651
#
# Static dielectric constant tensor:
#      x y z
#    x 2.061590 0.000000 0.000000 
#    y 0.000000 2.071720 0.000000 
#    z 0.000000 0.000000 2.106950 
# 
# From -- ./inp_files/6256.got.cif
#   From: 2010.05.17/outbox.cif.g08.bks.cpg/sg19_4_cif.got.tgz:6256.got - 2010.06.03 22:46:19.
