data_PCOD9313501
_publ_section_title
;
Structure prediction by ZEFSAII (Michael W. Deem and Ramdas Pophale) SiO2 
 PCOD9313501
Probable space group: P 21 21 21
;
_chemical_formula_sum "Si O2"
_cell_formula_units_Z 32
_cell_length_a 5.251972
_cell_length_b 13.002736
_cell_length_c 24.231084
_cell_angle_alpha 90.000000
_cell_angle_beta 90.000000
_cell_angle_gamma 90.000000
_cell_volume 1654.740857
_symmetry_space_group_name_H-M "P 21 21 21"
_symmetry_group_IT_number 19
_symmetry_cell_setting 'orthorhombic'
loop_
_space_group_symop_operation_xyz
x,y,z
1/2-x,-y,1/2+z
1/2+x,1/2-y,-z
-x,1/2+y,1/2-z
loop_
_atom_site_type_symbol
_atom_site_label
_atom_site_fract_x
_atom_site_fract_y
_atom_site_fract_z
Si Si1 0.619366 0.840596 0.816938
Si Si2 0.875113 0.466167 0.225847
Si Si3 0.907767 0.728014 0.730952
Si Si4 0.779922 0.042443 0.113405
Si Si5 0.842395 0.760915 0.926157
Si Si6 0.272705 0.113223 0.171606
Si Si7 0.767674 0.853077 0.193508
Si Si8 0.842357 0.866755 0.042618
O O1 0.739483 0.822217 0.755279
O O2 0.801512 0.822862 0.869233
O O3 0.413159 0.750426 0.819980
O O4 0.479135 0.949496 0.816132
O O5 0.712192 0.371062 0.201747
O O6 0.749363 0.531992 0.276909
O O7 0.110227 0.406302 0.253069
O O8 0.140873 0.780016 0.699509
O O9 0.985649 0.676533 0.789455
O O10 0.799762 0.937643 0.148210
O O11 0.814746 0.989255 0.053878
O O12 0.505504 0.085923 0.130340
O O13 0.010854 0.111227 0.136934
O O14 0.608580 0.680490 0.934815
O O15 0.104056 0.696747 0.931058
O O16 0.834460 0.838207 0.977955
#
# Coordination Sequence:
#
# PCOD9313501 Si02
#       8
#     4   4   4   4   4   4   4   4
#     4  11  21  34  52  77 114 155 189 228 285 338
#     4  10  22  32  49  77 109 150 188 226 271 336
#     4  11  21  35  51  75 115 152 192 235 269 327
#     4  11  20  34  53  78 106 150 187 224 276 334
#     4  10  21  34  55  82 113 152 184 235 287 342
#     4  11  22  34  52  77 107 149 192 222 273 331
#     4  10  19  31  50  71 108 149 184 220 270 324
#     4  10  20  36  54  81 114 145 192 232 285 342
#
# _framework density 19.338376
#
# number of rings (size 3 to 8) (size 9 to 14) (size 15 to 20)
#    0.000    1.500    3.750    3.000    3.500    0.000 
#    0.000    0.000    0.000    0.000    0.000    0.000 
#    3.750    0.000    0.250    0.000    0.000    0.000 
#
# Total GULP energy -178330.224179 kJ/mol
# GULP energy per Si atom -5572.819506 kJ/mol
# Density = 1.929436 g / cm^3
# Si number density = 19.338376 Si / 1000 Ang^3
#
#
#
# Elastic Constant Matrix: (Units=GPa)
#
#
# Indices 1 2 3 4 5 6 
#
# 1 87.0555 16.7976 11.9544 0.0000 0.0000 0.0000
# 2 16.7976 67.2316 18.5256 0.0000 0.0000 0.0000
# 3 11.9544 18.5256 37.7405 0.0000 0.0000 0.0000
# 4 0.0000 0.0000 0.0000 24.8479 0.0000 0.0000
# 5 0.0000 0.0000 0.0000 0.0000 21.7271 0.0000
# 6 0.0000 0.0000 0.0000 0.0000 0.0000 33.6305
#
#
#
# Elastic Compliance Matrix: (Units=1/GPa)
#
#
# Indices 1 2 3 4 5 6 
#
# 1 0.012313 -0.002315 -0.002764 0.000000 0.000000 0.000000
# 2 -0.002315 0.017636 -0.007924 0.000000 0.000000 0.000000
# 3 -0.002764 -0.007924 0.031262 0.000000 0.000000 0.000000
# 4 0.000000 0.000000 0.000000 0.040245 0.000000 0.000000
# 5 0.000000 0.000000 0.000000 0.000000 0.046025 0.000000
# 6 0.000000 0.000000 0.000000 0.000000 0.000000 0.029735
#
#
# Mechanical properties :
#
#
# Convention : Reuss Voigt Hill
#
# Bulk Modulus (GPa) = 28.40439 31.84253 30.12346
# Shear Modulus (GPa) = 23.26063 25.69111 24.47587
#
# Velocity S-wave (km/s) = 3.47194 3.64882 3.56148
# Velocity P-wave (km/s) = 5.54909 5.85265 5.70289
#
# Compressibility (1/GPa) = 0.03520582
#
# Stress axis : x y z
#
# Youngs Moduli (GPa) = 81.21420 56.70343 31.98805
#
# Poissons Ratio (x) = 0.13126 0.08841
# Poissons Ratio (y) = 0.18799 0.25346
# Poissons Ratio (z) = 0.22447 0.44929
#
# Static dielectric constant tensor:
#      x y z
#    x 1.761280 0.000000 0.000000 
#    y 0.000000 1.706730 0.000000 
#    z 0.000000 0.000000 1.757470 
# 
# From -- ./inp_files/1331.got.cif
#   From: 2010.05.17/outbox.cif.g08.bks.cpg/sg19_1_cif.got.tgz:1331.got - 2010.06.03 22:46:19.
