data_PCOD9313946
_publ_section_title
;
Structure prediction by ZEFSAII (Michael W. Deem and Ramdas Pophale) SiO2 
 PCOD9313946
Probable space group: P 21 21 21
;
_chemical_formula_sum "Si O2"
_cell_formula_units_Z 32
_cell_length_a 27.632411
_cell_length_b 8.544481
_cell_length_c 5.570233
_cell_angle_alpha 90.000000
_cell_angle_beta 90.000000
_cell_angle_gamma 90.000000
_cell_volume 1315.157694
_symmetry_space_group_name_H-M "P 21 21 21"
_symmetry_group_IT_number 19
_symmetry_cell_setting 'orthorhombic'
loop_
_space_group_symop_operation_xyz
x,y,z
1/2-x,-y,1/2+z
1/2+x,1/2-y,-z
-x,1/2+y,1/2-z
loop_
_atom_site_type_symbol
_atom_site_label
_atom_site_fract_x
_atom_site_fract_y
_atom_site_fract_z
Si Si1 0.015708 0.740868 0.797634
Si Si2 0.732168 0.166250 0.939835
Si Si3 0.907115 0.018043 0.465083
Si Si4 0.641963 0.240289 0.245117
Si Si5 0.076033 0.226986 0.368443
Si Si6 0.812703 0.165657 0.309368
Si Si7 0.258547 0.091340 0.408832
Si Si8 0.445162 0.941847 0.464561
O O1 0.993959 0.665060 0.557780
O O2 0.043027 0.904510 0.815620
O O3 0.050116 0.618337 0.928157
O O4 0.965359 0.759039 0.939798
O O5 0.694027 0.243799 0.124684
O O6 0.785572 0.184222 0.054341
O O7 0.729039 0.258238 0.689893
O O8 0.716018 0.986946 0.911852
O O9 0.868627 0.118448 0.313447
O O10 0.877824 0.932916 0.679910
O O11 0.925837 0.872861 0.310676
O O12 0.629419 0.269100 0.520353
O O13 0.605059 0.364891 0.125215
O O14 0.064462 0.060235 0.247677
O O15 0.804781 0.319753 0.473363
O O16 0.238307 0.999568 0.647212
#
# Coordination Sequence:
#
# PCOD9313946 Si02
#       8
#     4   4   4   4   4   4   4   4
#     4  11  21  39  62  90 134 177 226 293 362 439
#     4  11  23  43  74 103 142 200 258 310 368 460
#     4  10  23  40  65 102 138 175 242 305 356 449
#     4   9  22  40  64  97 133 175 238 296 351 432
#     4  10  20  38  63  95 129 177 226 294 360 430
#     4  11  24  42  74 105 140 201 262 311 374 456
#     4  12  26  47  70 107 152 199 248 318 386 444
#     4  10  21  37  60  89 128 172 226 279 359 426
#
# _framework density 24.331682000000001
#
# number of rings (size 3 to 8) (size 9 to 14) (size 15 to 20)
#    0.000    1.500    2.500    3.000    1.750    3.000 
#    0.000    0.000    0.000    0.000    0.000    0.000 
#    0.000    0.000    0.000    0.000    0.000    0.000 
#
# Total GULP energy -178455.576347 kJ/mol
# GULP energy per Si atom -5576.736761 kJ/mol
# Density = 2.427630 g / cm^3
# Si number density = 24.331682 Si / 1000 Ang^3
#
#
#
# Elastic Constant Matrix: (Units=GPa)
#
#
# Indices 1 2 3 4 5 6 
#
# 1 58.2662 -17.3242 1.2403 0.0000 0.0000 0.0000
# 2 -17.3242 38.5424 31.7104 0.0000 0.0000 0.0000
# 3 1.2403 31.7104 58.6215 0.0000 0.0000 0.0000
# 4 0.0000 0.0000 0.0000 38.2590 0.0000 0.0000
# 5 0.0000 0.0000 0.0000 0.0000 28.1551 0.0000
# 6 0.0000 0.0000 0.0000 0.0000 0.0000 21.4895
#
#
#
# Elastic Compliance Matrix: (Units=1/GPa)
#
#
# Indices 1 2 3 4 5 6 
#
# 1 0.023202 0.019520 -0.011050 0.000000 0.000000 0.000000
# 2 0.019520 0.063175 -0.034587 0.000000 0.000000 0.000000
# 3 -0.011050 -0.034587 0.036001 0.000000 0.000000 0.000000
# 4 0.000000 0.000000 0.000000 0.026138 0.000000 0.000000
# 5 0.000000 0.000000 0.000000 0.000000 0.035517 0.000000
# 6 0.000000 0.000000 0.000000 0.000000 0.000000 0.046534
#
#
# Mechanical properties :
#
#
# Convention : Reuss Voigt Hill
#
# Bulk Modulus (GPa) = 14.25609 20.74255 17.49932
# Shear Modulus (GPa) = 16.33011 26.90097 21.61554
#
# Velocity S-wave (km/s) = 2.59346 3.32866 2.98379
# Velocity P-wave (km/s) = 3.85225 4.82873 4.36787
#
# Compressibility (1/GPa) = 0.07014545
#
# Stress axis : x y z
#
# Youngs Moduli (GPa) = 43.10021 15.82897 27.77666
#
# Poissons Ratio (x) = -0.30898 0.30693
# Poissons Ratio (y) = -0.84132 0.96070
# Poissons Ratio (z) = 0.47626 0.54747
#
# Static dielectric constant tensor:
#      x y z
#    x 1.903740 0.000000 0.000000 
#    y 0.000000 2.024160 0.000000 
#    z 0.000000 0.000000 2.143320 
# 
# From -- ./inp_files/2349.got.cif
#   From: 2010.05.17/outbox.cif.g08.bks.cpg/sg19_2_cif.got.tgz:2349.got - 2010.06.03 22:46:19.
