data_PCOD9313028
_publ_section_title
;
Structure prediction by ZEFSAII (Michael W. Deem and Ramdas Pophale) SiO2 
 PCOD9313028
Probable space group: P 21 21 2
;
_chemical_formula_sum "Si O2"
_cell_formula_units_Z 30
_cell_length_a 15.123414
_cell_length_b 11.569678
_cell_length_c 8.883669
_cell_angle_alpha 90.000000
_cell_angle_beta 90.000000
_cell_angle_gamma 90.000000
_cell_volume 1554.402485
_symmetry_space_group_name_H-M "P 21 21 2"
_symmetry_group_IT_number 18
_symmetry_cell_setting 'orthorhombic'
loop_
_space_group_symop_operation_xyz
x,y,z
-x,-y,z
1/2+x,1/2-y,-z
1/2-x,1/2+y,-z
loop_
_atom_site_type_symbol
_atom_site_label
_atom_site_fract_x
_atom_site_fract_y
_atom_site_fract_z
Si Si1 0.586436 0.932627 0.669634
Si Si2 0.826698 0.065258 0.307324
Si Si3 0.040999 0.626989 0.664513
Si Si4 0.231797 0.664852 0.802970
Si Si5 0.500000 0.500000 0.553134
Si Si6 0.289790 0.856384 0.581950
Si Si7 0.603235 0.309265 0.362395
Si Si8 0.229111 0.707135 0.154185
O O1 0.560670 0.865788 0.515558
O O2 0.640453 0.852986 0.782373
O O3 0.500000 0.000000 0.728463
O O4 0.654427 0.032153 0.622522
O O5 0.785372 0.103996 0.466739
O O6 0.787810 0.157385 0.188733
O O7 0.931015 0.065342 0.338054
O O8 0.793015 0.938250 0.261275
O O9 0.132065 0.635707 0.753444
O O10 0.000000 0.500000 0.687016
O O11 0.972464 0.727243 0.708282
O O12 0.254778 0.785757 0.723221
O O13 0.240996 0.677988 0.980664
O O14 0.556966 0.416595 0.444535
O O15 0.352037 0.768992 0.490763
O O16 0.683978 0.333527 0.247865
#
# Coordination Sequence:
#
# PCOD9313028 Si02
#       8
#     4   4   4   4   2   4   4   4
#     4  11  21  40  70  98 126 167 228 282 318 386
#     4  11  24  43  69  94 130 174 224 277 322 395
#     4  11  20  41  71  97 121 162 233 281 320 378
#     4  12  25  44  64  97 136 181 209 268 345 405
#     4  12  22  40  72  96 126 168 238 272 328 374
#     4  11  21  41  70  91 125 171 227 270 322 380
#     4  11  21  42  66  97 128 171 221 286 318 392
#     4  11  27  43  62  98 145 174 216 262 354 405
#
# _framework density 19.300021999999998
#
# number of rings (size 3 to 8) (size 9 to 14) (size 15 to 20)
#    0.000    0.800    5.333    4.800    1.867    0.533 
#    4.800    0.000    0.000    0.000    0.000    0.000 
#    0.000    0.000    0.000    0.000    0.000    0.000 
#
# Total GULP energy -167655.990189 kJ/mol
# GULP energy per Si atom -5588.533006 kJ/mol
# Density = 1.925609 g / cm^3
# Si number density = 19.300022 Si / 1000 Ang^3
#
#
#
# Elastic Constant Matrix: (Units=GPa)
#
#
# Indices 1 2 3 4 5 6 
#
# 1 94.5674 25.1063 24.9623 0.0000 0.0000 0.0000
# 2 25.1063 43.7585 25.6424 0.0000 0.0000 0.0000
# 3 24.9623 25.6424 73.8975 0.0000 0.0000 0.0000
# 4 0.0000 0.0000 0.0000 -11.1811 0.0000 0.0000
# 5 0.0000 0.0000 0.0000 0.0000 13.5268 0.0000
# 6 0.0000 0.0000 0.0000 0.0000 0.0000 43.7014
#
#
#
# Elastic Compliance Matrix: (Units=1/GPa)
#
#
# Indices 1 2 3 4 5 6 
#
# 1 0.012759 -0.006019 -0.002221 0.000000 0.000000 0.000000
# 2 -0.006019 0.031525 -0.008906 0.000000 0.000000 0.000000
# 3 -0.002221 -0.008906 0.017373 0.000000 0.000000 0.000000
# 4 0.000000 0.000000 0.000000 -0.089437 0.000000 0.000000
# 5 0.000000 0.000000 0.000000 0.000000 0.073927 0.000000
# 6 0.000000 0.000000 0.000000 0.000000 0.000000 0.022883
#
#
# Mechanical properties :
#
#
# Convention : Reuss Voigt Hill
#
# Bulk Modulus (GPa) = 36.54368 40.40504 38.47436
# Shear Modulus (GPa) = 44.46688 18.31024 31.38856
#
# Velocity S-wave (km/s) = 4.80519 3.08346 4.03718
# Velocity P-wave (km/s) = 7.05422 5.80152 6.45832
#
# Compressibility (1/GPa) = 0.02736451
#
# Stress axis : x y z
#
# Youngs Moduli (GPa) = 78.37806 31.72115 57.56044
#
# Poissons Ratio (x) = 0.19091 0.12787
# Poissons Ratio (y) = 0.47172 0.51264
# Poissons Ratio (z) = 0.17411 0.28251
#
# Static dielectric constant tensor:
#      x y z
#    x 1.697570 0.000000 0.000000 
#    y 0.000000 1.668860 0.000000 
#    z 0.000000 0.000000 1.646610 
# 
# From -- ./inp_files/4287.got.cif
#   From: 2010.05.17/outbox.cif.g08.bks.cpg/sg18_3_cif.got.tgz:4287.got - 2010.06.03 22:40:56.
