data_PCOD9313506
_publ_section_title
;
Structure prediction by ZEFSAII (Michael W. Deem and Ramdas Pophale) SiO2 
 PCOD9313506
Probable space group: P 21 21 21
;
_chemical_formula_sum "Si O2"
_cell_formula_units_Z 32
_cell_length_a 17.279330
_cell_length_b 19.317667
_cell_length_c 5.232609
_cell_angle_alpha 90.000000
_cell_angle_beta 90.000000
_cell_angle_gamma 90.000000
_cell_volume 1746.625748
_symmetry_space_group_name_H-M "P 21 21 21"
_symmetry_group_IT_number 19
_symmetry_cell_setting 'orthorhombic'
loop_
_space_group_symop_operation_xyz
x,y,z
1/2-x,-y,1/2+z
1/2+x,1/2-y,-z
-x,1/2+y,1/2-z
loop_
_atom_site_type_symbol
_atom_site_label
_atom_site_fract_x
_atom_site_fract_y
_atom_site_fract_z
Si Si1 0.481074 0.777280 0.121467
Si Si2 0.800778 0.214480 0.924042
Si Si3 0.838737 0.785248 0.140391
Si Si4 0.555161 0.102245 0.894938
Si Si5 0.405698 0.386090 0.374476
Si Si6 0.758774 0.101471 0.321221
Si Si7 0.944419 0.287145 0.127923
Si Si8 0.610923 0.023631 0.396306
O O1 0.509905 0.855698 0.068432
O O2 0.506189 0.753437 0.405827
O O3 0.392777 0.759329 0.046566
O O4 0.528488 0.733856 0.909848
O O5 0.727359 0.252636 0.803224
O O6 0.859164 0.181672 0.718735
O O7 0.769062 0.144695 0.061679
O O8 0.855974 0.262797 0.093098
O O9 0.893001 0.830304 0.327551
O O10 0.789350 0.842463 0.987029
O O11 0.468413 0.132734 0.901081
O O12 0.577372 0.050708 0.664141
O O13 0.576203 0.070334 0.166944
O O14 0.346041 0.413934 0.587142
O O15 0.410170 0.445004 0.162648
O O16 0.703533 0.035146 0.356389
#
# Coordination Sequence:
#
# PCOD9313506 Si02
#       8
#     4   4   4   4   4   4   4   4
#     4  10  20  34  53  75 106 147 178 228 272 315
#     4  10  19  33  51  78 107 140 178 224 274 323
#     4   9  19  32  50  74 106 137 181 220 271 317
#     4  10  20  35  50  73 101 147 181 219 261 312
#     4  10  23  33  49  78 111 151 183 217 262 327
#     4  10  19  32  47  75 106 146 177 217 260 317
#     4  10  19  34  54  73 105 139 181 229 275 313
#     4  11  23  33  52  72 112 151 187 208 255 328
#
# _framework density 18.321041000000001
#
# number of rings (size 3 to 8) (size 9 to 14) (size 15 to 20)
#    0.000    2.000    2.500    2.250    5.250    0.000 
#    0.000    0.000    0.000    0.000    0.000    0.000 
#    3.750    0.000    0.000    0.000    0.000    0.000 
#
# Total GULP energy -178181.163291 kJ/mol
# GULP energy per Si atom -5568.161353 kJ/mol
# Density = 1.827934 g / cm^3
# Si number density = 18.321041 Si / 1000 Ang^3
#
#
#
# Elastic Constant Matrix: (Units=GPa)
#
#
# Indices 1 2 3 4 5 6 
#
# 1 51.9880 29.2682 -8.5002 0.0000 0.0000 0.0000
# 2 29.2682 47.8897 -6.7950 0.0000 0.0000 0.0000
# 3 -8.5002 -6.7950 26.6509 0.0000 0.0000 0.0000
# 4 0.0000 0.0000 0.0000 25.9753 0.0000 0.0000
# 5 0.0000 0.0000 0.0000 0.0000 31.4093 0.0000
# 6 0.0000 0.0000 0.0000 0.0000 0.0000 26.8072
#
#
#
# Elastic Compliance Matrix: (Units=1/GPa)
#
#
# Indices 1 2 3 4 5 6 
#
# 1 0.029972 -0.017598 0.005073 0.000000 0.000000 0.000000
# 2 -0.017598 0.031997 0.002545 0.000000 0.000000 0.000000
# 3 0.005073 0.002545 0.039789 0.000000 0.000000 0.000000
# 4 0.000000 0.000000 0.000000 0.038498 0.000000 0.000000
# 5 0.000000 0.000000 0.000000 0.000000 0.031838 0.000000
# 6 0.000000 0.000000 0.000000 0.000000 0.000000 0.037303
#
#
# Mechanical properties :
#
#
# Convention : Reuss Voigt Hill
#
# Bulk Modulus (GPa) = 12.22512 17.16385 14.69448
# Shear Modulus (GPa) = 19.48381 24.34207 21.91294
#
# Velocity S-wave (km/s) = 3.26462 3.64901 3.46215
# Velocity P-wave (km/s) = 4.57138 5.20983 4.90102
#
# Compressibility (1/GPa) = 0.08179882
#
# Stress axis : x y z
#
# Youngs Moduli (GPa) = 33.36470 31.25246 25.13256
#
# Poissons Ratio (x) = 0.54997 -0.12749
# Poissons Ratio (y) = 0.58714 -0.06397
# Poissons Ratio (z) = -0.16925 -0.07955
#
# Static dielectric constant tensor:
#      x y z
#    x 1.734110 0.000000 0.000000 
#    y 0.000000 1.658080 0.000000 
#    z 0.000000 0.000000 1.728250 
# 
# From -- ./inp_files/1878.got.cif
#   From: 2010.05.17/outbox.cif.g08.bks.cpg/sg19_1_cif.got.tgz:1878.got - 2010.06.03 22:46:19.
