data_PCOD9313652
_publ_section_title
;
Structure prediction by ZEFSAII (Michael W. Deem and Ramdas Pophale) SiO2 
 PCOD9313652
Probable space group: P 21 21 21
;
_chemical_formula_sum "Si O2"
_cell_formula_units_Z 32
_cell_length_a 5.236351
_cell_length_b 15.027609
_cell_length_c 19.179832
_cell_angle_alpha 90.000000
_cell_angle_beta 90.000000
_cell_angle_gamma 90.000000
_cell_volume 1509.257823
_symmetry_space_group_name_H-M "P 21 21 21"
_symmetry_group_IT_number 19
_symmetry_cell_setting 'orthorhombic'
loop_
_space_group_symop_operation_xyz
x,y,z
1/2-x,-y,1/2+z
1/2+x,1/2-y,-z
-x,1/2+y,1/2-z
loop_
_atom_site_type_symbol
_atom_site_label
_atom_site_fract_x
_atom_site_fract_y
_atom_site_fract_z
Si Si1 0.905343 0.661575 0.346592
Si Si2 0.913019 0.734391 0.088775
Si Si3 0.907726 0.654747 0.949466
Si Si4 0.415401 0.320136 0.102948
Si Si5 0.042267 0.981364 0.642116
Si Si6 0.117453 0.771095 0.232928
Si Si7 0.884567 0.113435 0.754679
Si Si8 0.274565 0.664389 0.456867
O O1 0.706253 0.741940 0.349976
O O2 0.786329 0.568616 0.325600
O O3 0.121884 0.701371 0.296636
O O4 0.993193 0.652437 0.425992
O O5 0.132361 0.802702 0.064374
O O6 0.002119 0.717455 0.167255
O O7 0.639345 0.783261 0.080003
O O8 0.932462 0.654497 0.033384
O O9 0.909719 0.562047 0.910422
O O10 0.456537 0.393812 0.162684
O O11 0.637442 0.264599 0.063511
O O12 0.232451 0.349876 0.039507
O O13 0.920144 0.906797 0.591466
O O14 0.896277 0.025296 0.707203
O O15 0.389803 0.820073 0.225834
O O16 0.899944 0.846440 0.245390
#
# Coordination Sequence:
#
# PCOD9313652 Si02
#       8
#     4   4   4   4   4   4   4   4
#     4  10  23  37  64  90 124 163 218 267 316 388
#     4  10  19  37  63  88 118 171 219 248 305 397
#     4  10  21  36  61  90 125 165 211 260 313 385
#     4  10  21  41  65  92 120 176 223 262 315 400
#     4  11  24  39  60  98 128 167 205 279 337 376
#     4  11  20  40  64  92 119 174 216 257 311 395
#     4  11  23  39  68  92 129 168 215 260 331 391
#     4  11  21  39  65  92 125 166 223 267 324 382
#
# _framework density 21.202473999999999
#
# number of rings (size 3 to 8) (size 9 to 14) (size 15 to 20)
#    0.000    1.500    5.000    0.000    3.500    0.000 
#    0.000    2.500    0.000    0.000    0.000    0.000 
#    0.000    0.000    0.000    0.000    0.000    0.000 
#
# Total GULP energy -178137.008901 kJ/mol
# GULP energy per Si atom -5566.781528 kJ/mol
# Density = 2.115422 g / cm^3
# Si number density = 21.202474 Si / 1000 Ang^3
#
#
#
# Elastic Constant Matrix: (Units=GPa)
#
#
# Indices 1 2 3 4 5 6 
#
# 1 76.8285 15.9603 6.4721 0.0000 0.0000 0.0000
# 2 15.9603 65.0826 37.9315 0.0000 0.0000 0.0000
# 3 6.4721 37.9315 136.5418 0.0000 0.0000 0.0000
# 4 0.0000 0.0000 0.0000 29.4816 0.0000 0.0000
# 5 0.0000 0.0000 0.0000 0.0000 27.4101 0.0000
# 6 0.0000 0.0000 0.0000 0.0000 0.0000 14.7536
#
#
#
# Elastic Compliance Matrix: (Units=1/GPa)
#
#
# Indices 1 2 3 4 5 6 
#
# 1 0.013728 -0.003564 0.000339 0.000000 0.000000 0.000000
# 2 -0.003564 0.019259 -0.005181 0.000000 0.000000 0.000000
# 3 0.000339 -0.005181 0.008747 0.000000 0.000000 0.000000
# 4 0.000000 0.000000 0.000000 0.033919 0.000000 0.000000
# 5 0.000000 0.000000 0.000000 0.000000 0.036483 0.000000
# 6 0.000000 0.000000 0.000000 0.000000 0.000000 0.067780
#
#
# Mechanical properties :
#
#
# Convention : Reuss Voigt Hill
#
# Bulk Modulus (GPa) = 40.12580 44.35341 42.23961
# Shear Modulus (GPa) = 24.38600 28.86833 26.62716
#
# Velocity S-wave (km/s) = 3.39506 3.69393 3.54764
# Velocity P-wave (km/s) = 5.85959 6.25762 6.06187
#
# Compressibility (1/GPa) = 0.02492162
#
# Stress axis : x y z
#
# Youngs Moduli (GPa) = 72.84455 51.92401 114.32466
#
# Poissons Ratio (x) = 0.18508 -0.03881
# Poissons Ratio (y) = 0.25965 0.59234
# Poissons Ratio (z) = -0.02473 0.26903
#
# Static dielectric constant tensor:
#      x y z
#    x 1.858500 0.000000 0.000000 
#    y 0.000000 1.788430 0.000000 
#    z 0.000000 0.000000 1.875560 
# 
# From -- ./inp_files/6475.got.cif
#   From: 2010.05.17/outbox.cif.g08.bks.cpg/sg19_4_cif.got.tgz:6475.got - 2010.06.03 22:46:19.
