data_PCOD9313548
_publ_section_title
;
Structure prediction by ZEFSAII (Michael W. Deem and Ramdas Pophale) SiO2 
 PCOD9313548
Probable space group: P 21 21 21
;
_chemical_formula_sum "Si O2"
_cell_formula_units_Z 24
_cell_length_a 9.453396
_cell_length_b 7.940432
_cell_length_c 15.815892
_cell_angle_alpha 90.000000
_cell_angle_beta 90.000000
_cell_angle_gamma 90.000000
_cell_volume 1187.204878
_symmetry_space_group_name_H-M "P 21 21 21"
_symmetry_group_IT_number 19
_symmetry_cell_setting 'orthorhombic'
loop_
_space_group_symop_operation_xyz
x,y,z
1/2-x,-y,1/2+z
1/2+x,1/2-y,-z
-x,1/2+y,1/2-z
loop_
_atom_site_type_symbol
_atom_site_label
_atom_site_fract_x
_atom_site_fract_y
_atom_site_fract_z
Si Si1 0.944409 0.614382 0.658882
Si Si2 0.360342 0.831852 0.082484
Si Si3 0.031905 0.996152 0.194618
Si Si4 0.426679 0.090706 0.502174
Si Si5 0.721653 0.812756 0.755694
Si Si6 0.671267 0.640114 0.294052
O O1 0.945802 0.564390 0.561592
O O2 0.835304 0.762760 0.684706
O O3 0.887607 0.450784 0.709735
O O4 0.094873 0.683103 0.691478
O O5 0.492724 0.749264 0.037699
O O6 0.301434 0.702173 0.154353
O O7 0.378155 0.007364 0.132735
O O8 0.236863 0.864289 0.015386
O O9 0.158309 0.135497 0.202947
O O10 0.880517 0.035272 0.233917
O O11 0.109077 0.840138 0.238808
O O12 0.017091 0.954196 0.095418
#
# Coordination Sequence:
#
# PCOD9313548 Si02
#       6
#     4   4   4   4   4   4
#     4  10  19  34  57  82 108 140 182 225 265 319
#     4   9  21  39  54  77 111 143 180 224 271 322
#     4   9  21  37  53  77 110 143 178 221 271 325
#     4  10  21  37  56  82 110 138 180 231 272 314
#     4   9  20  37  54  77 108 144 181 216 266 330
#     4   9  20  36  54  79 111 144 179 221 269 328
#
# _framework density 20.215551999999999
#
# number of rings (size 3 to 8) (size 9 to 14) (size 15 to 20)
#    0.000    3.333    0.000    2.000    0.000   12.000 
#    0.000    0.000    0.000    0.000    0.000    0.000 
#    0.000    0.000    0.000    0.000    0.000    0.000 
#
# Total GULP energy -133805.476203 kJ/mol
# GULP energy per Si atom -5575.228175 kJ/mol
# Density = 2.016954 g / cm^3
# Si number density = 20.215552 Si / 1000 Ang^3
#
#
#
# Elastic Constant Matrix: (Units=GPa)
#
#
# Indices 1 2 3 4 5 6 
#
# 1 46.9181 6.6623 19.3978 0.0000 0.0000 0.0000
# 2 6.6623 24.1122 7.1521 0.0000 0.0000 0.0000
# 3 19.3978 7.1521 15.4790 0.0000 0.0000 0.0000
# 4 0.0000 0.0000 0.0000 12.4764 0.0000 0.0000
# 5 0.0000 0.0000 0.0000 0.0000 26.8405 0.0000
# 6 0.0000 0.0000 0.0000 0.0000 0.0000 36.9334
#
#
#
# Elastic Compliance Matrix: (Units=1/GPa)
#
#
# Indices 1 2 3 4 5 6 
#
# 1 0.044733 0.004946 -0.058342 0.000000 0.000000 0.000000
# 2 0.004946 0.048606 -0.028656 0.000000 0.000000 0.000000
# 3 -0.058342 -0.028656 0.150957 0.000000 0.000000 0.000000
# 4 0.000000 0.000000 0.000000 0.080151 0.000000 0.000000
# 5 0.000000 0.000000 0.000000 0.000000 0.037257 0.000000
# 6 0.000000 0.000000 0.000000 0.000000 0.000000 0.027076
#
#
# Mechanical properties :
#
#
# Convention : Reuss Voigt Hill
#
# Bulk Modulus (GPa) = 12.47044 16.99261 14.73153
# Shear Modulus (GPa) = 8.62640 18.80322 13.71481
#
# Velocity S-wave (km/s) = 2.06796 3.05312 2.60749
# Velocity P-wave (km/s) = 3.44733 4.56648 4.04579
#
# Compressibility (1/GPa) = 0.08018965
#
# Stress axis : x y z
#
# Youngs Moduli (GPa) = 22.35509 20.57350 6.62439
#
# Poissons Ratio (x) = -0.10175 0.38648
# Poissons Ratio (y) = -0.11056 0.18983
# Poissons Ratio (z) = 1.30425 0.58956
#
# Static dielectric constant tensor:
#      x y z
#    x 1.741470 0.000000 0.000000 
#    y 0.000000 1.772040 0.000000 
#    z 0.000000 0.000000 1.698770 
# 
# From -- ./inp_files/2794.got.cif
#   From: 2010.05.17/outbox.cif.g08.bks.cpg/sg19_2_cif.got.tgz:2794.got - 2010.06.03 22:46:19.
