data_PCOD9313349
_publ_section_title
;
Structure prediction by ZEFSAII (Michael W. Deem and Ramdas Pophale) SiO2 
 PCOD9313349
Probable space group: P 21 21 21
;
_chemical_formula_sum "Si O2"
_cell_formula_units_Z 32
_cell_length_a 17.450661
_cell_length_b 8.847896
_cell_length_c 9.450284
_cell_angle_alpha 90.000000
_cell_angle_beta 90.000000
_cell_angle_gamma 90.000000
_cell_volume 1459.139288
_symmetry_space_group_name_H-M "P 21 21 21"
_symmetry_group_IT_number 19
_symmetry_cell_setting 'orthorhombic'
loop_
_space_group_symop_operation_xyz
x,y,z
1/2-x,-y,1/2+z
1/2+x,1/2-y,-z
-x,1/2+y,1/2-z
loop_
_atom_site_type_symbol
_atom_site_label
_atom_site_fract_x
_atom_site_fract_y
_atom_site_fract_z
Si Si1 0.887488 0.289940 0.436080
Si Si2 0.848064 0.427452 0.144949
Si Si3 0.266409 0.793245 0.772101
Si Si4 0.265271 0.455565 0.461921
Si Si5 0.984837 0.031762 0.309298
Si Si6 0.146722 0.668125 0.591070
Si Si7 0.125495 0.300797 0.027441
Si Si8 0.514255 0.453688 0.028014
O O1 0.847056 0.379171 0.308733
O O2 0.823182 0.174634 0.488631
O O3 0.952780 0.190995 0.359975
O O4 0.933254 0.397399 0.544624
O O5 0.784984 0.560534 0.133221
O O6 0.846580 0.279924 0.045311
O O7 0.931513 0.502282 0.126502
O O8 0.284935 0.633976 0.848534
O O9 0.179862 0.771057 0.717057
O O10 0.319630 0.792749 0.632813
O O11 0.207328 0.532027 0.571267
O O12 0.322059 0.594667 0.427249
O O13 0.991408 0.036033 0.139511
O O14 0.927542 0.906856 0.373294
O O15 0.064242 0.590512 0.606167
O O16 0.070572 0.186704 0.948631
#
# Coordination Sequence:
#
# PCOD9313349 Si02
#       8
#     4   4   4   4   4   4   4   4
#     4  10  21  36  62  95 123 163 195 263 327 363
#     4  11  22  35  63  92 126 155 205 261 312 365
#     4  11  24  40  58  90 129 168 205 246 320 384
#     4  10  25  39  60  84 138 162 203 249 320 383
#     4  10  17  32  60  93 121 146 202 262 318 349
#     4  11  24  40  64  94 125 169 209 259 315 378
#     4  10  19  37  60  89 120 162 203 262 311 361
#     4  11  18  35  63  93 120 155 216 266 303 361
#
# _framework density 21.930734000000001
#
# number of rings (size 3 to 8) (size 9 to 14) (size 15 to 20)
#    0.000    1.500    5.000    1.500    7.000    0.000 
#    0.000    1.250    0.000    0.000    0.000    0.000 
#    0.000    0.000    0.000    0.000    0.000    0.000 
#
# Total GULP energy -178480.249398 kJ/mol
# GULP energy per Si atom -5577.507794 kJ/mol
# Density = 2.188082 g / cm^3
# Si number density = 21.930734 Si / 1000 Ang^3
#
#
#
# Elastic Constant Matrix: (Units=GPa)
#
#
# Indices 1 2 3 4 5 6 
#
# 1 105.1718 44.7758 14.3751 0.0000 0.0000 0.0000
# 2 44.7758 111.9244 12.7333 0.0000 0.0000 0.0000
# 3 14.3751 12.7333 21.1348 0.0000 0.0000 0.0000
# 4 0.0000 0.0000 0.0000 7.6867 0.0000 0.0000
# 5 0.0000 0.0000 0.0000 0.0000 29.3301 0.0000
# 6 0.0000 0.0000 0.0000 0.0000 0.0000 47.7078
#
#
#
# Elastic Compliance Matrix: (Units=1/GPa)
#
#
# Indices 1 2 3 4 5 6 
#
# 1 0.012065 -0.004180 -0.005688 0.000000 0.000000 0.000000
# 2 -0.004180 0.011040 -0.003809 0.000000 0.000000 0.000000
# 3 -0.005688 -0.003809 0.053479 0.000000 0.000000 0.000000
# 4 0.000000 0.000000 0.000000 0.130095 0.000000 0.000000
# 5 0.000000 0.000000 0.000000 0.000000 0.034095 0.000000
# 6 0.000000 0.000000 0.000000 0.000000 0.000000 0.020961
#
#
# Mechanical properties :
#
#
# Convention : Reuss Voigt Hill
#
# Bulk Modulus (GPa) = 20.31228 42.44441 31.37835
# Shear Modulus (GPa) = 16.36674 28.03470 22.20072
#
# Velocity S-wave (km/s) = 2.73480 3.57925 3.18513
# Velocity P-wave (km/s) = 4.38797 6.03964 5.27880
#
# Compressibility (1/GPa) = 0.04923130
#
# Stress axis : x y z
#
# Youngs Moduli (GPa) = 82.88345 90.58012 18.69899
#
# Poissons Ratio (x) = 0.37859 0.10636
# Poissons Ratio (y) = 0.34642 0.07122
# Poissons Ratio (z) = 0.47145 0.34498
#
# Static dielectric constant tensor:
#      x y z
#    x 1.836750 0.000000 0.000000 
#    y 0.000000 1.837960 0.000000 
#    z 0.000000 0.000000 1.848190 
# 
# From -- ./inp_files/5271.got.cif
#   From: 2010.05.17/outbox.cif.g08.bks.cpg/sg19_3_cif.got.tgz:5271.got - 2010.06.03 22:46:19.
