data_PCOD9313236
_publ_section_title
;
Structure prediction by ZEFSAII (Michael W. Deem and Ramdas Pophale) SiO2 
 PCOD9313236
Probable space group: P 21 21 2
;
_chemical_formula_sum "Si O2"
_cell_formula_units_Z 20
_cell_length_a 27.419695
_cell_length_b 4.923388
_cell_length_c 5.814978
_cell_angle_alpha 90.000000
_cell_angle_beta 90.000000
_cell_angle_gamma 90.000000
_cell_volume 785.009222
_symmetry_space_group_name_H-M "P 21 21 2"
_symmetry_group_IT_number 18
_symmetry_cell_setting 'orthorhombic'
loop_
_space_group_symop_operation_xyz
x,y,z
-x,-y,z
1/2+x,1/2-y,-z
1/2-x,1/2+y,-z
loop_
_atom_site_type_symbol
_atom_site_label
_atom_site_fract_x
_atom_site_fract_y
_atom_site_fract_z
Si Si1 0.358480 0.354902 0.355373
Si Si2 0.253539 0.476446 0.147618
Si Si3 0.000000 0.000000 0.332842
Si Si4 0.849548 0.638768 0.345028
Si Si5 0.078920 0.218777 0.977289
Si Si6 0.000000 0.500000 0.659611
O O1 0.304671 0.379421 0.247609
O O2 0.356717 0.553575 0.575642
O O3 0.395761 0.487607 0.176396
O O4 0.367982 0.057192 0.453300
O O5 0.207150 0.424462 0.307368
O O6 0.244244 0.290379 0.922963
O O7 0.985918 0.250706 0.495125
O O8 0.044416 0.088538 0.171699
O O9 0.879654 0.609025 0.109848
O O10 0.043275 0.396804 0.821181
#
# Coordination Sequence:
#
# PCOD9313236 Si02
#       6
#     4   4   2   4   4   2
#     4  12  28  49  80 118 161 210 264 318 395 469
#     4  12  24  50  78 114 166 212 254 322 388 464
#     4  12  30  56  84 114 158 208 268 334 410 468
#     4  12  28  49  80 118 161 210 264 318 395 469
#     4  12  30  54  82 118 160 208 266 342 384 484
#     4  12  30  56  84 114 158 208 268 334 410 468
#
# _framework density 25.477405000000001
#
# number of rings (size 3 to 8) (size 9 to 14) (size 15 to 20)
#    0.000    0.000    2.000    6.000    0.000   16.000 
#    0.000    0.000    0.000    0.000    0.000    0.000 
#    0.000    0.000    0.000    0.000    0.000    0.000 
#
# Total GULP energy -112444.736691 kJ/mol
# GULP energy per Si atom -5622.236835 kJ/mol
# Density = 2.541942 g / cm^3
# Si number density = 25.477405 Si / 1000 Ang^3
#
#
#
# Elastic Constant Matrix: (Units=GPa)
#
#
# Indices 1 2 3 4 5 6 
#
# 1 134.0717 31.0592 45.3809 0.0000 0.0000 0.0000
# 2 31.0592 94.1939 22.2121 0.0000 0.0000 0.0000
# 3 45.3809 22.2121 98.9129 0.0000 0.0000 0.0000
# 4 0.0000 0.0000 0.0000 43.3984 0.0000 0.0000
# 5 0.0000 0.0000 0.0000 0.0000 27.9425 0.0000
# 6 0.0000 0.0000 0.0000 0.0000 0.0000 38.0811
#
#
#
# Elastic Compliance Matrix: (Units=1/GPa)
#
#
# Indices 1 2 3 4 5 6 
#
# 1 0.009228 -0.002159 -0.003749 0.000000 0.000000 0.000000
# 2 -0.002159 0.011715 -0.001640 0.000000 0.000000 0.000000
# 3 -0.003749 -0.001640 0.012198 0.000000 0.000000 0.000000
# 4 0.000000 0.000000 0.000000 0.023042 0.000000 0.000000
# 5 0.000000 0.000000 0.000000 0.000000 0.035788 0.000000
# 6 0.000000 0.000000 0.000000 0.000000 0.000000 0.026260
#
#
# Mechanical properties :
#
#
# Convention : Reuss Voigt Hill
#
# Bulk Modulus (GPa) = 55.41660 58.27586 56.84623
# Shear Modulus (GPa) = 35.88300 37.11948 36.50124
#
# Velocity S-wave (km/s) = 3.75697 3.82115 3.78920
# Velocity P-wave (km/s) = 6.37325 6.51087 6.44243
#
# Compressibility (1/GPa) = 0.01804513
#
# Stress axis : x y z
#
# Youngs Moduli (GPa) = 108.36933 85.36060 81.97904
#
# Poissons Ratio (x) = 0.18427 0.30733
# Poissons Ratio (y) = 0.23393 0.13447
# Poissons Ratio (z) = 0.40626 0.14002
#
# Static dielectric constant tensor:
#      x y z
#    x 1.981300 0.000000 0.000000 
#    y 0.000000 1.941430 0.000000 
#    z 0.000000 0.000000 1.996180 
# 
# From -- ./inp_files/2238.got.cif
#   From: 2010.05.17/outbox.cif.g08.bks.cpg/sg18_2_cif.got.tgz:2238.got - 2010.06.03 22:40:56.
