data_PCOD9313164
_publ_section_title
;
Structure prediction by ZEFSAII (Michael W. Deem and Ramdas Pophale) SiO2 
 PCOD9313164
Probable space group: P 21 21 2
;
_chemical_formula_sum "Si O2"
_cell_formula_units_Z 18
_cell_length_a 11.677767
_cell_length_b 5.904235
_cell_length_c 10.922342
_cell_angle_alpha 90.000000
_cell_angle_beta 90.000000
_cell_angle_gamma 90.000000
_cell_volume 753.076701
_symmetry_space_group_name_H-M "P 21 21 2"
_symmetry_group_IT_number 18
_symmetry_cell_setting 'orthorhombic'
loop_
_space_group_symop_operation_xyz
x,y,z
-x,-y,z
1/2+x,1/2-y,-z
1/2-x,1/2+y,-z
loop_
_atom_site_type_symbol
_atom_site_label
_atom_site_fract_x
_atom_site_fract_y
_atom_site_fract_z
Si Si1 0.929256 0.794353 0.189869
Si Si2 0.394953 0.331516 0.413409
Si Si3 0.675344 0.904659 0.641622
Si Si4 0.000000 0.500000 0.983552
Si Si5 0.698278 0.009756 0.206756
O O1 0.889646 0.590991 0.277825
O O2 0.806152 0.883153 0.147072
O O3 0.000000 0.000000 0.249739
O O4 0.007017 0.708648 0.078000
O O5 0.500000 0.500000 0.385366
O O6 0.407885 0.204439 0.541654
O O7 0.278328 0.473288 0.430283
O O8 0.365833 0.152175 0.306071
O O9 0.743527 0.723105 0.725387
O O10 0.106490 0.445812 0.897501
#
# Coordination Sequence:
#
# PCOD9313164 Si02
#       5
#     4   4   4   2   4
#     4  11  28  48  77 112 152 207 258 328 386 464
#     4  11  24  47  79 112 159 204 255 323 394 469
#     4  11  24  50  76 117 155 201 259 321 390 478
#     4  12  28  48  78 106 154 210 260 320 388 466
#     4  11  26  49  76 114 155 205 263 318 398 466
#
# _framework density 23.901945999999999
#
# number of rings (size 3 to 8) (size 9 to 14) (size 15 to 20)
#    0.000    0.889    2.222    2.667    6.222    5.333 
#    4.000    0.000    0.000    0.000    0.000    0.000 
#    0.000    0.000    0.000    0.000    0.000    0.000 
#
# Total GULP energy -100731.130614 kJ/mol
# GULP energy per Si atom -5596.173923 kJ/mol
# Density = 2.384754 g / cm^3
# Si number density = 23.901946 Si / 1000 Ang^3
#
#
#
# Elastic Constant Matrix: (Units=GPa)
#
#
# Indices 1 2 3 4 5 6 
#
# 1 122.2214 50.8358 42.4343 0.0000 0.0000 0.0000
# 2 50.8358 132.3193 62.6523 0.0000 0.0000 0.0000
# 3 42.4343 62.6523 102.3894 0.0000 0.0000 0.0000
# 4 0.0000 0.0000 0.0000 29.4606 0.0000 0.0000
# 5 0.0000 0.0000 0.0000 0.0000 40.2813 0.0000
# 6 0.0000 0.0000 0.0000 0.0000 0.0000 67.6003
#
#
#
# Elastic Compliance Matrix: (Units=1/GPa)
#
#
# Indices 1 2 3 4 5 6 
#
# 1 0.010199 -0.002699 -0.002575 0.000000 0.000000 0.000000
# 2 -0.002699 0.011354 -0.005829 0.000000 0.000000 0.000000
# 3 -0.002575 -0.005829 0.014401 0.000000 0.000000 0.000000
# 4 0.000000 0.000000 0.000000 0.033944 0.000000 0.000000
# 5 0.000000 0.000000 0.000000 0.000000 0.024825 0.000000
# 6 0.000000 0.000000 0.000000 0.000000 0.000000 0.014793
#
#
# Mechanical properties :
#
#
# Convention : Reuss Voigt Hill
#
# Bulk Modulus (GPa) = 72.74267 74.30830 73.52549
# Shear Modulus (GPa) = 36.68247 40.86896 38.77572
#
# Velocity S-wave (km/s) = 3.92178 4.13953 4.03213
# Velocity P-wave (km/s) = 7.14192 7.34874 7.24607
#
# Compressibility (1/GPa) = 0.01374709
#
# Stress axis : x y z
#
# Youngs Moduli (GPa) = 98.05361 88.07098 69.44007
#
# Poissons Ratio (x) = 0.23769 0.17883
# Poissons Ratio (y) = 0.26463 0.40479
# Poissons Ratio (z) = 0.25251 0.51340
#
# Static dielectric constant tensor:
#      x y z
#    x 1.906830 0.000000 0.000000 
#    y 0.000000 2.021010 0.000000 
#    z 0.000000 0.000000 1.861120 
# 
# From -- ./inp_files/5803.got.cif
#   From: 2010.05.17/outbox.cif.g08.bks.cpg/sg18_3_cif.got.tgz:5803.got - 2010.06.03 22:40:56.
