data_PCOD9313586
_publ_section_title
;
Structure prediction by ZEFSAII (Michael W. Deem and Ramdas Pophale) SiO2 
 PCOD9313586
Probable space group: P 21 21 21
;
_chemical_formula_sum "Si O2"
_cell_formula_units_Z 32
_cell_length_a 8.511786
_cell_length_b 7.658048
_cell_length_c 18.789289
_cell_angle_alpha 90.000000
_cell_angle_beta 90.000000
_cell_angle_gamma 90.000000
_cell_volume 1224.754734
_symmetry_space_group_name_H-M "P 21 21 21"
_symmetry_group_IT_number 19
_symmetry_cell_setting 'orthorhombic'
loop_
_space_group_symop_operation_xyz
x,y,z
1/2-x,-y,1/2+z
1/2+x,1/2-y,-z
-x,1/2+y,1/2-z
loop_
_atom_site_type_symbol
_atom_site_label
_atom_site_fract_x
_atom_site_fract_y
_atom_site_fract_z
Si Si1 0.790960 0.000343 0.404900
Si Si2 0.382754 0.349441 0.269787
Si Si3 0.862486 0.508146 0.462425
Si Si4 0.373531 0.355981 0.733161
Si Si5 0.713264 0.822813 0.539534
Si Si6 0.056180 0.825335 0.907258
Si Si7 0.813086 0.626137 0.321217
Si Si8 0.190991 0.128982 0.823391
O O1 0.900443 0.110973 0.350812
O O2 0.809874 0.955939 0.488566
O O3 0.617815 0.089580 0.400578
O O4 0.798913 0.807635 0.368141
O O5 0.260750 0.504016 0.254729
O O6 0.307773 0.168422 0.241145
O O7 0.527101 0.362170 0.216821
O O8 0.430781 0.334003 0.352348
O O9 0.737052 0.636703 0.499967
O O10 0.801205 0.482971 0.382807
O O11 0.033239 0.607974 0.459089
O O12 0.896478 0.336838 0.509801
O O13 0.521080 0.381489 0.782966
O O14 0.311314 0.169276 0.759760
O O15 0.777709 0.782266 0.617914
O O16 0.181196 0.960695 0.873010
#
# Coordination Sequence:
#
# PCOD9313586 Si02
#       8
#     4   4   4   4   4   4   4   4
#     4   9  18  36  54  86 118 149 197 252 295 345
#     4  11  22  38  57  88 123 159 197 242 301 372
#     4   9  18  33  54  87 112 151 194 255 299 345
#     4  11  21  35  59  86 124 156 192 245 305 366
#     4   9  18  30  56  85 116 145 197 257 303 336
#     4  10  19  35  61  85 115 152 201 250 294 354
#     4  10  20  36  55  85 123 157 196 249 298 359
#     4  11  18  35  60  90 111 157 200 244 303 357
#
# _framework density 26.127680000000002
#
# number of rings (size 3 to 8) (size 9 to 14) (size 15 to 20)
#    0.000    2.000    5.000    0.000    1.750    2.000 
#    2.250    0.000    0.000    7.500    0.000    0.000 
#    0.000    0.000    0.000    0.000    0.000    0.000 
#
# Total GULP energy -178615.579066 kJ/mol
# GULP energy per Si atom -5581.736846 kJ/mol
# Density = 2.606821 g / cm^3
# Si number density = 26.127680 Si / 1000 Ang^3
#
#
#
# Elastic Constant Matrix: (Units=GPa)
#
#
# Indices 1 2 3 4 5 6 
#
# 1 85.3673 24.6065 19.7036 0.0000 0.0000 0.0000
# 2 24.6065 51.9418 -8.6072 0.0000 0.0000 0.0000
# 3 19.7036 -8.6072 115.7723 0.0000 0.0000 0.0000
# 4 0.0000 0.0000 0.0000 72.9428 0.0000 0.0000
# 5 0.0000 0.0000 0.0000 0.0000 33.6555 0.0000
# 6 0.0000 0.0000 0.0000 0.0000 0.0000 102.0330
#
#
#
# Elastic Compliance Matrix: (Units=1/GPa)
#
#
# Indices 1 2 3 4 5 6 
#
# 1 0.014542 -0.007390 -0.003024 0.000000 0.000000 0.000000
# 2 -0.007390 0.023248 0.002986 0.000000 0.000000 0.000000
# 3 -0.003024 0.002986 0.009374 0.000000 0.000000 0.000000
# 4 0.000000 0.000000 0.000000 0.013709 0.000000 0.000000
# 5 0.000000 0.000000 0.000000 0.000000 0.029713 0.000000
# 6 0.000000 0.000000 0.000000 0.000000 0.000000 0.009801
#
#
# Mechanical properties :
#
#
# Convention : Reuss Voigt Hill
#
# Bulk Modulus (GPa) = 30.95235 36.05415 33.50325
# Shear Modulus (GPa) = 39.67799 56.21816 47.94808
#
# Velocity S-wave (km/s) = 3.90117 4.64364 4.28851
# Velocity P-wave (km/s) = 5.67138 6.52537 6.11330
#
# Compressibility (1/GPa) = 0.03230773
#
# Stress axis : x y z
#
# Youngs Moduli (GPa) = 68.76452 43.01405 106.67357
#
# Poissons Ratio (x) = 0.31789 0.32263
# Poissons Ratio (y) = 0.50820 -0.31855
# Poissons Ratio (z) = 0.20798 -0.12845
#
# Static dielectric constant tensor:
#      x y z
#    x 1.503990 0.000000 0.000000 
#    y 0.000000 2.187560 0.000000 
#    z 0.000000 0.000000 1.915770 
# 
# From -- ./inp_files/7088.got.cif
#   From: 2010.05.17/outbox.cif.g08.bks.cpg/sg19_4_cif.got.tgz:7088.got - 2010.06.03 22:46:19.
