data_PCOD9313242
_publ_section_title
;
Structure prediction by ZEFSAII (Michael W. Deem and Ramdas Pophale) SiO2 
 PCOD9313242
Probable space group: P 21 21 2
;
_chemical_formula_sum "Si O2"
_cell_formula_units_Z 14
_cell_length_a 8.218389
_cell_length_b 4.862527
_cell_length_c 14.316713
_cell_angle_alpha 90.000000
_cell_angle_beta 90.000000
_cell_angle_gamma 90.000000
_cell_volume 572.126466
_symmetry_space_group_name_H-M "P 21 21 2"
_symmetry_group_IT_number 18
_symmetry_cell_setting 'orthorhombic'
loop_
_space_group_symop_operation_xyz
x,y,z
-x,-y,z
1/2+x,1/2-y,-z
1/2-x,1/2+y,-z
loop_
_atom_site_type_symbol
_atom_site_label
_atom_site_fract_x
_atom_site_fract_y
_atom_site_fract_z
Si Si1 0.789462 0.427616 0.875407
Si Si2 0.000000 0.000000 0.985570
Si Si3 0.306425 0.049992 0.760350
Si Si4 0.184612 0.109301 0.555328
O O1 0.760411 0.738105 0.838611
O O2 0.932489 0.255945 0.926285
O O3 0.768842 0.246825 0.781954
O O4 0.641014 0.386196 0.947432
O O5 0.500000 0.000000 0.766588
O O6 0.251742 0.151658 0.659494
O O7 0.296429 0.883550 0.504501
O O8 0.000000 0.000000 0.558021
#
# Coordination Sequence:
#
# PCOD9313242 Si02
#       4
#     4   2   4   4
#     4  12  28  48  78 110 163 209 267 332 394 472
#     4  12  28  52  76 116 156 218 274 330 402 472
#     4  12  25  49  76 116 158 210 261 328 401 472
#     4  12  27  51  83 118 157 203 256 322 398 481
#
# _framework density 24.470116999999998
#
# number of rings (size 3 to 8) (size 9 to 14) (size 15 to 20)
#    0.000    0.000    2.857    6.000    2.000    5.714 
#    0.000    0.000    0.000    0.000    0.000    0.000 
#    0.000    0.000    0.000    0.000    0.000    0.000 
#
# Total GULP energy -78398.464425 kJ/mol
# GULP energy per Si atom -5599.890316 kJ/mol
# Density = 2.441442 g / cm^3
# Si number density = 24.470117 Si / 1000 Ang^3
#
#
#
# Elastic Constant Matrix: (Units=GPa)
#
#
# Indices 1 2 3 4 5 6 
#
# 1 140.5901 33.6758 60.2721 0.0000 0.0000 0.0000
# 2 33.6758 130.4732 22.0789 0.0000 0.0000 0.0000
# 3 60.2721 22.0789 129.8264 0.0000 0.0000 0.0000
# 4 0.0000 0.0000 0.0000 -97.7161 0.0000 0.0000
# 5 0.0000 0.0000 0.0000 0.0000 40.5383 0.0000
# 6 0.0000 0.0000 0.0000 0.0000 0.0000 34.1261
#
#
#
# Elastic Compliance Matrix: (Units=1/GPa)
#
#
# Indices 1 2 3 4 5 6 
#
# 1 0.009235 -0.001707 -0.003997 0.000000 0.000000 0.000000
# 2 -0.001707 0.008207 -0.000603 0.000000 0.000000 0.000000
# 3 -0.003997 -0.000603 0.009661 0.000000 0.000000 0.000000
# 4 0.000000 0.000000 0.000000 -0.010234 0.000000 0.000000
# 5 0.000000 0.000000 0.000000 0.000000 0.024668 0.000000
# 6 0.000000 0.000000 0.000000 0.000000 0.000000 0.029303
#
#
# Mechanical properties :
#
#
# Convention : Reuss Voigt Hill
#
# Bulk Modulus (GPa) = 69.02184 70.32705 69.67444
# Shear Modulus (GPa) = 56.63439 14.38052 35.50745
#
# Velocity S-wave (km/s) = 4.81607 2.42683 3.81340
# Velocity P-wave (km/s) = 7.69376 6.05434 6.92275
#
# Compressibility (1/GPa) = 0.01448817
#
# Stress axis : x y z
#
# Youngs Moduli (GPa) = 108.27811 121.84522 103.51018
#
# Poissons Ratio (x) = 0.20803 0.41375
# Poissons Ratio (y) = 0.18486 0.06243
# Poissons Ratio (z) = 0.43281 0.07349
#
# Static dielectric constant tensor:
#      x y z
#    x 2.243250 0.000000 0.000000 
#    y 0.000000 1.903820 0.000000 
#    z 0.000000 0.000000 1.832900 
# 
# From -- ./inp_files/6592.got.cif
#   From: 2010.05.17/outbox.cif.g08.bks.cpg/sg18_4_cif.got.tgz:6592.got - 2010.06.03 22:40:56.
