data_PCOD9313180
_publ_section_title
;
Structure prediction by ZEFSAII (Michael W. Deem and Ramdas Pophale) SiO2 
 PCOD9313180
Probable space group: P 21 21 2
;
_chemical_formula_sum "Si O2"
_cell_formula_units_Z 18
_cell_length_a 7.787565
_cell_length_b 8.321225
_cell_length_c 11.558299
_cell_angle_alpha 90.000000
_cell_angle_beta 90.000000
_cell_angle_gamma 90.000000
_cell_volume 749.001823
_symmetry_space_group_name_H-M "P 21 21 2"
_symmetry_group_IT_number 18
_symmetry_cell_setting 'orthorhombic'
loop_
_space_group_symop_operation_xyz
x,y,z
-x,-y,z
1/2+x,1/2-y,-z
1/2-x,1/2+y,-z
loop_
_atom_site_type_symbol
_atom_site_label
_atom_site_fract_x
_atom_site_fract_y
_atom_site_fract_z
Si Si1 0.000000 0.000000 0.484833
Si Si2 0.500000 0.000000 0.247845
Si Si3 0.176288 0.692388 0.554992
Si Si4 0.601963 0.254546 0.087879
Si Si5 0.000000 0.500000 0.346897
Si Si6 0.770926 0.592307 0.135757
O O1 0.133161 0.123622 0.427800
O O2 0.869329 0.120971 0.547856
O O3 0.425017 0.127343 0.336218
O O4 0.633000 0.098670 0.168848
O O5 0.104270 0.616312 0.434563
O O6 0.727141 0.405856 0.105727
O O7 0.412975 0.318525 0.123202
O O8 0.614361 0.184333 0.959135
O O9 0.869439 0.587811 0.257551
#
# Coordination Sequence:
#
# PCOD9313180 Si02
#       6
#     2   2   4   4   2   4
#     4  12  28  56  72 120 158 216 252 328 388 486
#     4  11  25  46  72 114 147 213 248 326 378 479
#     4  11  28  47  78 110 164 196 266 312 398 464
#     4  11  25  46  74 108 153 203 258 321 388 463
#     4  11  25  46  72 114 147 213 248 326 378 479
#     4  11  25  46  74 108 153 203 258 321 388 463
#
# _framework density 24.031984000000001
#
# number of rings (size 3 to 8) (size 9 to 14) (size 15 to 20)
#    0.000    0.889    0.000    6.000   12.444    0.000 
#    0.000    0.000    0.000    0.000    0.000    0.000 
#    0.000    0.000    0.000    0.000    0.000    0.000 
#
# Total GULP energy -100547.496355 kJ/mol
# GULP energy per Si atom -5585.972020 kJ/mol
# Density = 2.397729 g / cm^3
# Si number density = 24.031984 Si / 1000 Ang^3
#
#
#
# Elastic Constant Matrix: (Units=GPa)
#
#
# Indices 1 2 3 4 5 6 
#
# 1 80.4814 26.3324 34.6392 0.0000 0.0000 0.0000
# 2 26.3324 161.1645 54.9627 0.0000 0.0000 0.0000
# 3 34.6392 54.9627 166.2048 0.0000 0.0000 0.0000
# 4 0.0000 0.0000 0.0000 33.5374 0.0000 0.0000
# 5 0.0000 0.0000 0.0000 0.0000 29.1368 0.0000
# 6 0.0000 0.0000 0.0000 0.0000 0.0000 55.9969
#
#
#
# Elastic Compliance Matrix: (Units=1/GPa)
#
#
# Indices 1 2 3 4 5 6 
#
# 1 0.013944 -0.001451 -0.002426 0.000000 0.000000 0.000000
# 2 -0.001451 0.007145 -0.002060 0.000000 0.000000 0.000000
# 3 -0.002426 -0.002060 0.007204 0.000000 0.000000 0.000000
# 4 0.000000 0.000000 0.000000 0.029817 0.000000 0.000000
# 5 0.000000 0.000000 0.000000 0.000000 0.034321 0.000000
# 6 0.000000 0.000000 0.000000 0.000000 0.000000 0.017858
#
#
# Mechanical properties :
#
#
# Convention : Reuss Voigt Hill
#
# Bulk Modulus (GPa) = 60.91078 71.07993 65.99536
# Shear Modulus (GPa) = 39.17378 43.19530 41.18454
#
# Velocity S-wave (km/s) = 4.04179 4.24419 4.14422
# Velocity P-wave (km/s) = 6.86893 7.32522 7.10074
#
# Compressibility (1/GPa) = 0.01641746
#
# Stress axis : x y z
#
# Youngs Moduli (GPa) = 71.71423 139.96755 138.81806
#
# Poissons Ratio (x) = 0.20307 0.33682
# Poissons Ratio (y) = 0.10405 0.28600
# Poissons Ratio (z) = 0.17401 0.28837
#
# Static dielectric constant tensor:
#      x y z
#    x 2.031500 0.000000 0.000000 
#    y 0.000000 2.094960 0.000000 
#    z 0.000000 0.000000 1.855660 
# 
# From -- ./inp_files/5386.got.cif
#   From: 2010.05.17/outbox.cif.g08.bks.cpg/sg18_3_cif.got.tgz:5386.got - 2010.06.03 22:40:56.
