data_PCOD9313625
_publ_section_title
;
Structure prediction by ZEFSAII (Michael W. Deem and Ramdas Pophale) SiO2 
 PCOD9313625
Probable space group: P 21 21 21
;
_chemical_formula_sum "Si O2"
_cell_formula_units_Z 28
_cell_length_a 8.556853
_cell_length_b 18.082407
_cell_length_c 9.065861
_cell_angle_alpha 90.000000
_cell_angle_beta 90.000000
_cell_angle_gamma 90.000000
_cell_volume 1402.747061
_symmetry_space_group_name_H-M "P 21 21 21"
_symmetry_group_IT_number 19
_symmetry_cell_setting 'orthorhombic'
loop_
_space_group_symop_operation_xyz
x,y,z
1/2-x,-y,1/2+z
1/2+x,1/2-y,-z
-x,1/2+y,1/2-z
loop_
_atom_site_type_symbol
_atom_site_label
_atom_site_fract_x
_atom_site_fract_y
_atom_site_fract_z
Si Si1 0.303211 0.028482 0.081559
Si Si2 0.582917 0.043162 0.281495
Si Si3 0.439867 0.172275 0.459674
Si Si4 0.046105 0.108400 0.900427
Si Si5 0.189189 0.225808 0.684973
Si Si6 0.159543 0.096633 0.355093
Si Si7 0.638587 0.864401 0.696490
O O1 0.468455 0.056952 0.141832
O O2 0.195716 0.036092 0.227591
O O3 0.209894 0.077891 0.965391
O O4 0.325112 0.948329 0.007619
O O5 0.532646 0.095836 0.420298
O O6 0.753797 0.064293 0.227523
O O7 0.547100 0.960010 0.329282
O O8 0.341624 0.189294 0.607450
O O9 0.565319 0.235884 0.426874
O O10 0.292626 0.159619 0.348442
O O11 0.090665 0.169279 0.781997
O O12 0.945794 0.135834 0.039426
O O13 0.253412 0.293359 0.782661
O O14 0.994261 0.131770 0.321472
#
# Coordination Sequence:
#
# PCOD9313625 Si02
#       7
#     4   4   4   4   4   4   4
#     4  10  19  36  63  94 121 170 210 270 323 387
#     4  10  22  40  63  95 130 164 224 279 318 398
#     4  10  21  41  64  93 130 169 223 259 333 381
#     4  11  23  41  67  94 128 175 218 265 339 383
#     4  11  24  42  65  95 133 179 216 271 328 405
#     4  10  20  38  64  90 131 165 217 268 326 392
#     4  10  25  40  60  97 135 168 218 274 321 396
#
# _framework density 19.960833000000001
#
# number of rings (size 3 to 8) (size 9 to 14) (size 15 to 20)
#    0.000    1.714    2.857    1.714    2.000    4.571 
#    2.571    1.429    0.000    0.000    0.000    0.000 
#    0.000    0.000    0.000    0.000    0.000    0.000 
#
# Total GULP energy -155998.805515 kJ/mol
# GULP energy per Si atom -5571.385911 kJ/mol
# Density = 1.991540 g / cm^3
# Si number density = 19.960833 Si / 1000 Ang^3
#
#
#
# Elastic Constant Matrix: (Units=GPa)
#
#
# Indices 1 2 3 4 5 6 
#
# 1 72.5185 20.2103 12.0211 0.0000 0.0000 0.0000
# 2 20.2103 83.1479 44.4502 0.0000 0.0000 0.0000
# 3 12.0211 44.4502 61.3384 0.0000 0.0000 0.0000
# 4 0.0000 0.0000 0.0000 18.0335 0.0000 0.0000
# 5 0.0000 0.0000 0.0000 0.0000 36.9220 0.0000
# 6 0.0000 0.0000 0.0000 0.0000 0.0000 19.8046
#
#
#
# Elastic Compliance Matrix: (Units=1/GPa)
#
#
# Indices 1 2 3 4 5 6 
#
# 1 0.014800 -0.003341 -0.000479 0.000000 0.000000 0.000000
# 2 -0.003341 0.020387 -0.014119 0.000000 0.000000 0.000000
# 3 -0.000479 -0.014119 0.026629 0.000000 0.000000 0.000000
# 4 0.000000 0.000000 0.000000 0.055452 0.000000 0.000000
# 5 0.000000 0.000000 0.000000 0.000000 0.027084 0.000000
# 6 0.000000 0.000000 0.000000 0.000000 0.000000 0.050493
#
#
# Mechanical properties :
#
#
# Convention : Reuss Voigt Hill
#
# Bulk Modulus (GPa) = 38.55541 41.15201 39.85371
# Shear Modulus (GPa) = 20.88820 24.30689 22.59755
#
# Velocity S-wave (km/s) = 3.23841 3.49338 3.36831
# Velocity P-wave (km/s) = 5.77413 6.07723 5.92762
#
# Compressibility (1/GPa) = 0.02593670
#
# Stress axis : x y z
#
# Youngs Moduli (GPa) = 67.56675 49.05147 37.55375
#
# Poissons Ratio (x) = 0.16389 0.01800
# Poissons Ratio (y) = 0.22575 0.53022
# Poissons Ratio (z) = 0.03239 0.69255
#
# Static dielectric constant tensor:
#      x y z
#    x 1.706550 0.000000 0.000000 
#    y 0.000000 1.734390 0.000000 
#    z 0.000000 0.000000 1.729090 
# 
# From -- ./inp_files/3035.got.cif
#   From: 2010.05.17/outbox.cif.g08.bks.cpg/sg19_2_cif.got.tgz:3035.got - 2010.06.03 22:46:19.
