data_PCOD9313782
_publ_section_title
;
Structure prediction by ZEFSAII (Michael W. Deem and Ramdas Pophale) SiO2 
 PCOD9313782
Probable space group: P 21 21 21
;
_chemical_formula_sum "Si O2"
_cell_formula_units_Z 20
_cell_length_a 6.659697
_cell_length_b 12.124747
_cell_length_c 9.502465
_cell_angle_alpha 90.000000
_cell_angle_beta 90.000000
_cell_angle_gamma 90.000000
_cell_volume 767.296883
_symmetry_space_group_name_H-M "P 21 21 21"
_symmetry_group_IT_number 19
_symmetry_cell_setting 'orthorhombic'
loop_
_space_group_symop_operation_xyz
x,y,z
1/2-x,-y,1/2+z
1/2+x,1/2-y,-z
-x,1/2+y,1/2-z
loop_
_atom_site_type_symbol
_atom_site_label
_atom_site_fract_x
_atom_site_fract_y
_atom_site_fract_z
Si Si1 0.017634 0.364121 0.876087
Si Si2 0.127177 0.057277 0.261589
Si Si3 0.281945 0.299959 0.625353
Si Si4 0.109504 0.132078 0.823297
Si Si5 0.251165 0.435586 0.364936
O O1 0.788061 0.389039 0.844532
O O2 0.122745 0.366346 0.721753
O O3 0.074202 0.239610 0.922224
O O4 0.129061 0.466322 0.948767
O O5 0.258260 0.974374 0.359690
O O6 0.957692 0.986657 0.181586
O O7 0.999641 0.153205 0.335453
O O8 0.731841 0.319675 0.313406
O O9 0.237741 0.331362 0.466971
O O10 0.892992 0.100033 0.763791
#
# Coordination Sequence:
#
# PCOD9313782 Si02
#       5
#     4   4   4   4   4
#     4   8  20  37  52  84 116 141 185 230 274 328
#     4  10  20  37  57  80 116 152 174 236 287 318
#     4   9  21  34  58  87 114 146 186 234 272 330
#     4   9  21  34  57  86 111 142 188 230 274 330
#     4  10  20  34  58  87 113 147 189 226 279 330
#
# _framework density 26.065529000000002
#
# number of rings (size 3 to 8) (size 9 to 14) (size 15 to 20)
#    1.200    1.600    0.000    0.000    5.600    3.200 
#    0.000    0.000   13.200    0.000    0.000    0.000 
#    0.000    0.000    0.000    0.000    0.000    0.000 
#
# Total GULP energy -111648.183808 kJ/mol
# GULP energy per Si atom -5582.409190 kJ/mol
# Density = 2.600620 g / cm^3
# Si number density = 26.065529 Si / 1000 Ang^3
#
#
#
# Elastic Constant Matrix: (Units=GPa)
#
#
# Indices 1 2 3 4 5 6 
#
# 1 181.8186 65.8461 39.1617 0.0000 0.0000 0.0000
# 2 65.8461 111.3551 9.8195 0.0000 0.0000 0.0000
# 3 39.1617 9.8195 44.8878 0.0000 0.0000 0.0000
# 4 0.0000 0.0000 0.0000 17.9188 0.0000 0.0000
# 5 0.0000 0.0000 0.0000 0.0000 18.9577 0.0000
# 6 0.0000 0.0000 0.0000 0.0000 0.0000 51.9676
#
#
#
# Elastic Compliance Matrix: (Units=1/GPa)
#
#
# Indices 1 2 3 4 5 6 
#
# 1 0.008503 -0.004460 -0.006442 0.000000 0.000000 0.000000
# 2 -0.004460 0.011496 0.001376 0.000000 0.000000 0.000000
# 3 -0.006442 0.001376 0.027597 0.000000 0.000000 0.000000
# 4 0.000000 0.000000 0.000000 0.055807 0.000000 0.000000
# 5 0.000000 0.000000 0.000000 0.000000 0.052749 0.000000
# 6 0.000000 0.000000 0.000000 0.000000 0.000000 0.019243
#
#
# Mechanical properties :
#
#
# Convention : Reuss Voigt Hill
#
# Bulk Modulus (GPa) = 35.03395 63.07957 49.05676
# Shear Modulus (GPa) = 24.51435 32.65111 28.58273
#
# Velocity S-wave (km/s) = 3.07007 3.54313 3.31505
# Velocity P-wave (km/s) = 5.10264 6.40244 5.78914
#
# Compressibility (1/GPa) = 0.02854374
#
# Stress axis : x y z
#
# Youngs Moduli (GPa) = 117.60957 86.98659 36.23527
#
# Poissons Ratio (x) = 0.38793 0.23345
# Poissons Ratio (y) = 0.52450 -0.04986
# Poissons Ratio (z) = 0.75770 -0.11969
#
# Static dielectric constant tensor:
#      x y z
#    x 1.996540 0.000000 0.000000 
#    y 0.000000 2.164110 0.000000 
#    z 0.000000 0.000000 2.090880 
# 
# From -- ./inp_files/1396.got.cif
#   From: 2010.05.17/outbox.cif.g08.bks.cpg/sg19_1_cif.got.tgz:1396.got - 2010.06.03 22:46:19.
