data_PCOD9313371
_publ_section_title
;
Structure prediction by ZEFSAII (Michael W. Deem and Ramdas Pophale) SiO2 
 PCOD9313371
Probable space group: P 21 21 21
;
_chemical_formula_sum "Si O2"
_cell_formula_units_Z 32
_cell_length_a 14.119983
_cell_length_b 11.460513
_cell_length_c 9.516743
_cell_angle_alpha 90.000000
_cell_angle_beta 90.000000
_cell_angle_gamma 90.000000
_cell_volume 1540.020753
_symmetry_space_group_name_H-M "P 21 21 21"
_symmetry_group_IT_number 19
_symmetry_cell_setting 'orthorhombic'
loop_
_space_group_symop_operation_xyz
x,y,z
1/2-x,-y,1/2+z
1/2+x,1/2-y,-z
-x,1/2+y,1/2-z
loop_
_atom_site_type_symbol
_atom_site_label
_atom_site_fract_x
_atom_site_fract_y
_atom_site_fract_z
Si Si1 0.942413 0.024771 0.041118
Si Si2 0.937141 0.788181 0.171235
Si Si3 0.043768 0.914773 0.412857
Si Si4 0.781534 0.136636 0.219219
Si Si5 0.589813 0.861092 0.977758
Si Si6 0.714352 0.705946 0.471173
Si Si7 0.860536 0.566341 0.306812
Si Si8 0.658657 0.909602 0.273388
O O1 0.923033 0.048679 0.879734
O O2 0.901730 0.898390 0.084762
O O3 0.878958 0.108683 0.137111
O O4 0.048636 0.044119 0.093017
O O5 0.871849 0.680339 0.208256
O O6 0.975852 0.834892 0.319371
O O7 0.023874 0.740023 0.080896
O O8 0.105387 0.839192 0.520522
O O9 0.125366 0.963213 0.305889
O O10 0.974974 0.020753 0.461433
O O11 0.816935 0.144679 0.379503
O O12 0.747793 0.245570 0.123059
O O13 0.713456 0.024523 0.218504
O O14 0.618139 0.846839 0.137728
O O15 0.773396 0.598861 0.405833
O O16 0.719361 0.819141 0.367787
#
# Coordination Sequence:
#
# PCOD9313371 Si02
#       8
#     4   4   4   4   4   4   4   4
#     4  10  20  40  62  88 125 159 211 251 313 375
#     4  10  17  37  67  84 111 175 204 245 310 386
#     4  10  21  41  65  88 124 171 214 249 314 400
#     4  11  20  40  65  92 120 163 213 252 311 382
#     4  11  21  39  64  90 124 162 211 253 316 387
#     4  11  23  42  64  94 129 168 210 269 323 365
#     4  10  21  39  66  90 120 174 215 253 313 392
#     4  11  25  38  59 102 127 150 210 282 304 357
#
# _framework density 20.778942000000001
#
# number of rings (size 3 to 8) (size 9 to 14) (size 15 to 20)
#    0.000    1.500    5.000    3.000    1.750    1.000 
#    9.000    1.250    0.000    0.000    0.000    0.000 
#    0.000    0.000    0.000    0.000    0.000    0.000 
#
# Total GULP energy -178350.541679 kJ/mol
# GULP energy per Si atom -5573.454427 kJ/mol
# Density = 2.073165 g / cm^3
# Si number density = 20.778942 Si / 1000 Ang^3
#
#
#
# Elastic Constant Matrix: (Units=GPa)
#
#
# Indices 1 2 3 4 5 6 
#
# 1 24.7935 -9.9498 11.8647 0.0000 0.0000 0.0000
# 2 -9.9498 36.8499 -4.5279 0.0000 0.0000 0.0000
# 3 11.8647 -4.5279 83.1118 0.0000 0.0000 0.0000
# 4 0.0000 0.0000 0.0000 13.9212 0.0000 0.0000
# 5 0.0000 0.0000 0.0000 0.0000 23.0917 0.0000
# 6 0.0000 0.0000 0.0000 0.0000 0.0000 25.3729
#
#
#
# Elastic Compliance Matrix: (Units=1/GPa)
#
#
# Indices 1 2 3 4 5 6 
#
# 1 0.048227 0.012258 -0.006217 0.000000 0.000000 0.000000
# 2 0.012258 0.030436 -0.000092 0.000000 0.000000 0.000000
# 3 -0.006217 -0.000092 0.012914 0.000000 0.000000 0.000000
# 4 0.000000 0.000000 0.000000 0.071833 0.000000 0.000000
# 5 0.000000 0.000000 0.000000 0.000000 0.043306 0.000000
# 6 0.000000 0.000000 0.000000 0.000000 0.000000 0.039412
#
#
# Mechanical properties :
#
#
# Convention : Reuss Voigt Hill
#
# Bulk Modulus (GPa) = 9.66406 15.50322 12.58364
# Shear Modulus (GPa) = 18.60662 22.30170 20.45416
#
# Velocity S-wave (km/s) = 2.99566 3.27966 3.14087
# Velocity P-wave (km/s) = 4.07754 4.67105 4.38435
#
# Compressibility (1/GPa) = 0.10347618
#
# Stress axis : x y z
#
# Youngs Moduli (GPa) = 20.73509 32.85622 77.43241
#
# Poissons Ratio (x) = -0.40275 0.48139
# Poissons Ratio (y) = -0.25417 0.00711
# Poissons Ratio (z) = 0.12891 0.00302
#
# Static dielectric constant tensor:
#      x y z
#    x 1.769430 0.000000 0.000000 
#    y 0.000000 1.803880 0.000000 
#    z 0.000000 0.000000 1.755700 
# 
# From -- ./inp_files/3962.got.cif
#   From: 2010.05.17/outbox.cif.g08.bks.cpg/sg19_2_cif.got.tgz:3962.got - 2010.06.03 22:46:19.
