data_PCOD9313957
_publ_section_title
;
Structure prediction by ZEFSAII (Michael W. Deem and Ramdas Pophale) SiO2 
 PCOD9313957
Probable space group: P 21 21 21
;
_chemical_formula_sum "Si O2"
_cell_formula_units_Z 32
_cell_length_a 13.045138
_cell_length_b 6.171563
_cell_length_c 19.343236
_cell_angle_alpha 90.000000
_cell_angle_beta 90.000000
_cell_angle_gamma 90.000000
_cell_volume 1557.302479
_symmetry_space_group_name_H-M "P 21 21 21"
_symmetry_group_IT_number 19
_symmetry_cell_setting 'orthorhombic'
loop_
_space_group_symop_operation_xyz
x,y,z
1/2-x,-y,1/2+z
1/2+x,1/2-y,-z
-x,1/2+y,1/2-z
loop_
_atom_site_type_symbol
_atom_site_label
_atom_site_fract_x
_atom_site_fract_y
_atom_site_fract_z
Si Si1 0.677986 0.024182 0.633540
Si Si2 0.332625 0.125304 0.416213
Si Si3 0.468098 0.803795 0.324163
Si Si4 0.134029 0.861836 0.449910
Si Si5 0.994829 0.572804 0.930415
Si Si6 0.051171 0.094376 0.314950
Si Si7 0.123492 0.342904 0.678146
Si Si8 0.663193 0.752585 0.764683
O O1 0.653175 0.891581 0.564212
O O2 0.703761 0.852267 0.692522
O O3 0.767467 0.194866 0.623896
O O4 0.584663 0.168047 0.660845
O O5 0.415295 0.268585 0.458460
O O6 0.395326 0.978738 0.362156
O O7 0.245355 0.979952 0.452824
O O8 0.464408 0.591698 0.371789
O O9 0.430905 0.757658 0.246588
O O10 0.582007 0.909993 0.322771
O O11 0.064105 0.931103 0.513357
O O12 0.073200 0.946228 0.381767
O O13 0.917358 0.729532 0.890530
O O14 0.935178 0.112930 0.290205
O O15 0.122216 0.987392 0.255060
O O16 0.242795 0.289191 0.684617
#
# Coordination Sequence:
#
# PCOD9313957 Si02
#       8
#     4   4   4   4   4   4   4   4
#     4  10  20  38  65  88 127 167 211 260 312 398
#     4  10  22  41  68  87 121 172 216 257 319 396
#     4  11  22  41  63  97 124 169 210 278 324 382
#     4  10  23  41  63  92 123 176 214 257 323 390
#     4  11  24  42  62  94 131 165 214 274 316 393
#     4  10  21  39  63  92 133 162 217 258 322 385
#     4  11  23  37  64  92 131 161 218 266 334 373
#     4  11  21  37  62 100 124 170 204 272 324 379
#
# _framework density 20.548355000000001
#
# number of rings (size 3 to 8) (size 9 to 14) (size 15 to 20)
#    0.000    1.500    2.500    3.750    1.750    6.000 
#    0.000    2.500    0.000    0.000    0.000    0.000 
#    0.000    0.000    0.000    0.000    0.000    0.000 
#
# Total GULP energy -178568.572272 kJ/mol
# GULP energy per Si atom -5580.267883 kJ/mol
# Density = 2.050159 g / cm^3
# Si number density = 20.548355 Si / 1000 Ang^3
#
#
#
# Elastic Constant Matrix: (Units=GPa)
#
#
# Indices 1 2 3 4 5 6 
#
# 1 108.3481 18.5797 8.2117 0.0000 0.0000 0.0000
# 2 18.5797 63.2466 -10.0150 0.0000 0.0000 0.0000
# 3 8.2117 -10.0150 23.6314 0.0000 0.0000 0.0000
# 4 0.0000 0.0000 0.0000 14.8674 0.0000 0.0000
# 5 0.0000 0.0000 0.0000 0.0000 26.2712 0.0000
# 6 0.0000 0.0000 0.0000 0.0000 0.0000 30.4603
#
#
#
# Elastic Compliance Matrix: (Units=1/GPa)
#
#
# Indices 1 2 3 4 5 6 
#
# 1 0.010283 -0.003845 -0.005203 0.000000 0.000000 0.000000
# 2 -0.003845 0.018386 0.009128 0.000000 0.000000 0.000000
# 3 -0.005203 0.009128 0.047993 0.000000 0.000000 0.000000
# 4 0.000000 0.000000 0.000000 0.067261 0.000000 0.000000
# 5 0.000000 0.000000 0.000000 0.000000 0.038064 0.000000
# 6 0.000000 0.000000 0.000000 0.000000 0.000000 0.032830
#
#
# Mechanical properties :
#
#
# Convention : Reuss Voigt Hill
#
# Bulk Modulus (GPa) = 13.01689 25.41989 19.21839
# Shear Modulus (GPa) = 20.81046 26.21643 23.51344
#
# Velocity S-wave (km/s) = 3.18583 3.57577 3.38642
# Velocity P-wave (km/s) = 4.45884 5.42639 4.96624
#
# Compressibility (1/GPa) = 0.07682324
#
# Stress axis : x y z
#
# Youngs Moduli (GPa) = 97.24686 54.38940 20.83639
#
# Poissons Ratio (x) = 0.20911 0.10840
# Poissons Ratio (y) = 0.37388 -0.19019
# Poissons Ratio (z) = 0.50594 -0.49646
#
# Static dielectric constant tensor:
#      x y z
#    x 1.779850 0.000000 0.000000 
#    y 0.000000 1.772750 0.000000 
#    z 0.000000 0.000000 1.719430 
# 
# From -- ./inp_files/7176.got.cif
#   From: 2010.05.17/outbox.cif.g08.bks.cpg/sg19_4_cif.got.tgz:7176.got - 2010.06.03 22:46:19.
