data_PCOD9313259
_publ_section_title
;
Structure prediction by ZEFSAII (Michael W. Deem and Ramdas Pophale) SiO2 
 PCOD9313259
Probable space group: P 21 21 2
;
_chemical_formula_sum "Si O2"
_cell_formula_units_Z 22
_cell_length_a 13.280006
_cell_length_b 6.294170
_cell_length_c 11.811347
_cell_angle_alpha 90.000000
_cell_angle_beta 90.000000
_cell_angle_gamma 90.000000
_cell_volume 987.270519
_symmetry_space_group_name_H-M "P 21 21 2"
_symmetry_group_IT_number 18
_symmetry_cell_setting 'orthorhombic'
loop_
_space_group_symop_operation_xyz
x,y,z
-x,-y,z
1/2+x,1/2-y,-z
1/2-x,1/2+y,-z
loop_
_atom_site_type_symbol
_atom_site_label
_atom_site_fract_x
_atom_site_fract_y
_atom_site_fract_z
Si Si1 0.856766 0.863708 0.634999
Si Si2 0.639790 0.295361 0.932515
Si Si3 0.360209 0.295362 0.567485
Si Si4 0.000000 0.000000 0.250000
Si Si5 0.000000 0.500000 0.931145
Si Si6 0.643235 0.636291 0.134998
Si Si7 0.500000 0.000000 0.431147
O O1 0.750905 0.745083 0.614757
O O2 0.947385 0.693962 0.634431
O O3 0.865082 0.019699 0.526877
O O4 0.854946 0.999999 0.750001
O O5 0.569589 0.358882 0.829178
O O6 0.750903 0.254915 0.885243
O O7 0.634918 0.480303 0.026876
O O8 0.590075 0.092016 0.992081
O O9 0.430409 0.358888 0.670823
O O10 0.409925 0.092015 0.507922
O O11 0.052616 0.693962 0.865567
#
# Coordination Sequence:
#
# PCOD9313259 Si02
#       7
#     4   4   4   2   2   4   2
#     4  12  29  51  83 120 163 212 272 337 406 482
#     4  12  28  49  78 122 155 214 270 329 409 477
#     4  12  28  49  78 122 155 214 270 329 409 477
#     4  12  28  50  78 114 158 208 276 324 396 490
#     4  12  26  54  80 112 166 207 271 332 404 484
#     4  12  29  51  83 120 163 212 272 337 406 482
#     4  12  26  54  80 112 166 207 271 332 404 484
#
# _framework density 22.283660000000001
#
# number of rings (size 3 to 8) (size 9 to 14) (size 15 to 20)
#    0.000    0.000    7.273    0.000   10.182    5.818 
#    0.000    0.000    0.000    0.000    0.000    0.000 
#    0.000    0.000    0.000    0.000    0.000    0.000 
#
# Total GULP energy -123319.166791 kJ/mol
# GULP energy per Si atom -5605.416672 kJ/mol
# Density = 2.223294 g / cm^3
# Si number density = 22.283660 Si / 1000 Ang^3
#
#
#
# Elastic Constant Matrix: (Units=GPa)
#
#
# Indices 1 2 3 4 5 6 
#
# 1 150.2227 49.6636 74.9145 0.0000 0.0000 0.0000
# 2 49.6636 105.1547 78.6537 0.0000 0.0000 0.0000
# 3 74.9145 78.6537 181.0856 0.0000 0.0000 0.0000
# 4 0.0000 0.0000 0.0000 37.0223 0.0000 0.0000
# 5 0.0000 0.0000 0.0000 0.0000 61.1248 0.0000
# 6 0.0000 0.0000 0.0000 0.0000 0.0000 66.3159
#
#
#
# Elastic Compliance Matrix: (Units=1/GPa)
#
#
# Indices 1 2 3 4 5 6 
#
# 1 0.008688 -0.002096 -0.002684 0.000000 0.000000 0.000000
# 2 -0.002096 0.014592 -0.005471 0.000000 0.000000 0.000000
# 3 -0.002684 -0.005471 0.009009 0.000000 0.000000 0.000000
# 4 0.000000 0.000000 0.000000 0.027011 0.000000 0.000000
# 5 0.000000 0.000000 0.000000 0.000000 0.016360 0.000000
# 6 0.000000 0.000000 0.000000 0.000000 0.000000 0.015079
#
#
# Mechanical properties :
#
#
# Convention : Reuss Voigt Hill
#
# Bulk Modulus (GPa) = 84.83544 93.65851 89.24697
# Shear Modulus (GPa) = 43.41449 48.44136 45.92793
#
# Velocity S-wave (km/s) = 4.41870 4.66752 4.54481
# Velocity P-wave (km/s) = 8.01165 8.43617 8.22665
#
# Compressibility (1/GPa) = 0.01178753
#
# Stress axis : x y z
#
# Youngs Moduli (GPa) = 115.09998 68.53218 111.00234
#
# Poissons Ratio (x) = 0.14363 0.29792
# Poissons Ratio (y) = 0.24122 0.60727
# Poissons Ratio (z) = 0.30892 0.37493
#
# Static dielectric constant tensor:
#      x y z
#    x 1.812940 0.000000 0.000000 
#    y 0.000000 1.852900 0.000000 
#    z 0.000000 0.000000 1.657280 
# 
# From -- ./inp_files/6047.got.cif
#   From: 2010.05.17/outbox.cif.g08.bks.cpg/sg18_4_cif.got.tgz:6047.got - 2010.06.03 22:40:56.
