data_PCOD9313239
_publ_section_title
;
Structure prediction by ZEFSAII (Michael W. Deem and Ramdas Pophale) SiO2 
 PCOD9313239
Probable space group: P 21 21 2
;
_chemical_formula_sum "Si O2"
_cell_formula_units_Z 18
_cell_length_a 13.521983
_cell_length_b 5.087308
_cell_length_c 11.670812
_cell_angle_alpha 90.000000
_cell_angle_beta 90.000000
_cell_angle_gamma 90.000000
_cell_volume 802.840903
_symmetry_space_group_name_H-M "P 21 21 2"
_symmetry_group_IT_number 18
_symmetry_cell_setting 'orthorhombic'
loop_
_space_group_symop_operation_xyz
x,y,z
-x,-y,z
1/2+x,1/2-y,-z
1/2-x,1/2+y,-z
loop_
_atom_site_type_symbol
_atom_site_label
_atom_site_fract_x
_atom_site_fract_y
_atom_site_fract_z
Si Si1 0.240964 0.734888 0.777677
Si Si2 0.564488 0.743732 0.049926
Si Si3 0.500000 0.500000 0.604509
Si Si4 0.876550 0.268113 0.212434
Si Si5 0.191766 0.941818 0.536545
O O1 0.168653 0.741904 0.885563
O O2 0.291322 0.450813 0.765857
O O3 0.182061 0.829961 0.664812
O O4 0.328763 0.945273 0.789008
O O5 0.500000 0.500000 0.091684
O O6 0.500000 0.000000 0.072660
O O7 0.581983 0.718252 0.914318
O O8 0.459465 0.279427 0.691547
O O9 0.592970 0.447643 0.522352
O O10 0.232143 0.685232 0.468954
#
# Coordination Sequence:
#
# PCOD9313239 Si02
#       5
#     4   4   2   4   4
#     4  12  25  48  69 103 144 189 232 304 365 433
#     4  12  26  44  72 107 140 181 235 296 365 437
#     4  12  26  46  76 104 140 200 240 310 352 448
#     4  12  25  46  74 100 141 186 245 291 365 439
#     4  12  26  47  70 105 143 186 245 299 363 434
#
# _framework density 22.420380000000002
#
# number of rings (size 3 to 8) (size 9 to 14) (size 15 to 20)
#    0.000    0.000    5.556    4.000    1.556    2.667 
#    0.000    0.000    0.000    0.000    0.000    0.000 
#    0.000    0.000    0.000    0.000    0.000    0.000 
#
# Total GULP energy -100811.330582 kJ/mol
# GULP energy per Si atom -5600.629477 kJ/mol
# Density = 2.236935 g / cm^3
# Si number density = 22.420380 Si / 1000 Ang^3
#
#
#
# Elastic Constant Matrix: (Units=GPa)
#
#
# Indices 1 2 3 4 5 6 
#
# 1 98.2127 23.4223 33.5583 0.0000 0.0000 0.0000
# 2 23.4223 97.4930 25.1067 0.0000 0.0000 0.0000
# 3 33.5583 25.1067 67.6928 0.0000 0.0000 0.0000
# 4 0.0000 0.0000 0.0000 30.0081 0.0000 0.0000
# 5 0.0000 0.0000 0.0000 0.0000 55.9217 0.0000
# 6 0.0000 0.0000 0.0000 0.0000 0.0000 40.7503
#
#
#
# Elastic Compliance Matrix: (Units=1/GPa)
#
#
# Indices 1 2 3 4 5 6 
#
# 1 0.012467 -0.001552 -0.005605 0.000000 0.000000 0.000000
# 2 -0.001552 0.011533 -0.003508 0.000000 0.000000 0.000000
# 3 -0.005605 -0.003508 0.018853 0.000000 0.000000 0.000000
# 4 0.000000 0.000000 0.000000 0.033324 0.000000 0.000000
# 5 0.000000 0.000000 0.000000 0.000000 0.017882 0.000000
# 6 0.000000 0.000000 0.000000 0.000000 0.000000 0.024540
#
#
# Mechanical properties :
#
#
# Convention : Reuss Voigt Hill
#
# Bulk Modulus (GPa) = 46.46230 47.50815 46.98523
# Shear Modulus (GPa) = 33.98956 37.42343 35.70649
#
# Velocity S-wave (km/s) = 3.89782 4.08998 3.99506
# Velocity P-wave (km/s) = 6.40512 6.59846 6.50251
#
# Compressibility (1/GPa) = 0.02152283
#
# Stress axis : x y z
#
# Youngs Moduli (GPa) = 80.21020 86.70435 53.04336
#
# Poissons Ratio (x) = 0.13455 0.29731
# Poissons Ratio (y) = 0.12447 0.18610
# Poissons Ratio (z) = 0.44958 0.30419
#
# Static dielectric constant tensor:
#      x y z
#    x 1.818390 0.000000 0.000000 
#    y 0.000000 1.780330 0.000000 
#    z 0.000000 0.000000 1.841150 
# 
# From -- ./inp_files/5001.got.cif
#   From: 2010.05.17/outbox.cif.g08.bks.cpg/sg18_3_cif.got.tgz:5001.got - 2010.06.03 22:40:56.
