data_PCOD9313940
_publ_section_title
;
Structure prediction by ZEFSAII (Michael W. Deem and Ramdas Pophale) SiO2 
 PCOD9313940
Probable space group: P 21 21 21
;
_chemical_formula_sum "Si O2"
_cell_formula_units_Z 32
_cell_length_a 15.642704
_cell_length_b 9.333609
_cell_length_c 10.851570
_cell_angle_alpha 90.000000
_cell_angle_beta 90.000000
_cell_angle_gamma 90.000000
_cell_volume 1584.360503
_symmetry_space_group_name_H-M "P 21 21 21"
_symmetry_group_IT_number 19
_symmetry_cell_setting 'orthorhombic'
loop_
_space_group_symop_operation_xyz
x,y,z
1/2-x,-y,1/2+z
1/2+x,1/2-y,-z
-x,1/2+y,1/2-z
loop_
_atom_site_type_symbol
_atom_site_label
_atom_site_fract_x
_atom_site_fract_y
_atom_site_fract_z
Si Si1 0.435858 0.144700 0.915789
Si Si2 0.966668 0.290928 0.571781
Si Si3 0.786662 0.788507 0.438574
Si Si4 0.203699 0.699948 0.307288
Si Si5 0.857136 0.360653 0.811192
Si Si6 0.558407 0.382555 0.009203
Si Si7 0.378018 0.813397 0.225102
Si Si8 0.910756 0.048431 0.383656
O O1 0.354352 0.159106 0.827416
O O2 0.495569 0.017866 0.868830
O O3 0.405114 0.128719 0.056934
O O4 0.493772 0.289109 0.926424
O O5 0.912996 0.304099 0.698132
O O6 0.967442 0.451535 0.516303
O O7 0.922216 0.179338 0.478932
O O8 0.059961 0.234452 0.614742
O O9 0.727109 0.834556 0.552384
O O10 0.723781 0.743101 0.329558
O O11 0.844455 0.647972 0.465678
O O12 0.853753 0.916249 0.430057
O O13 0.294742 0.714696 0.240734
O O14 0.140334 0.597140 0.235996
O O15 0.839714 0.527159 0.784767
O O16 0.565022 0.319614 0.149439
#
# Coordination Sequence:
#
# PCOD9313940 Si02
#       8
#     4   4   4   4   4   4   4   4
#     4  10  20  43  64  83 126 167 207 251 330 369
#     4  11  22  36  69  97 124 160 218 262 307 371
#     4   9  22  41  64  88 131 169 203 255 324 370
#     4  10  24  40  62  90 129 163 205 263 314 378
#     4  10  20  38  65  89 122 171 203 256 315 373
#     4   9  20  37  63  94 121 167 204 258 313 374
#     4  10  20  38  62  96 124 158 213 264 305 367
#     4  11  24  41  63  97 125 163 213 265 302 386
#
# _framework density 20.197423000000001
#
# number of rings (size 3 to 8) (size 9 to 14) (size 15 to 20)
#    0.000    2.000    2.500    0.000    3.500    3.000 
#    2.250    0.000    0.000    0.000    0.000    0.000 
#    0.000    0.000    0.000    0.000    0.000    0.000 
#
# Total GULP energy -178295.963714 kJ/mol
# GULP energy per Si atom -5571.748866 kJ/mol
# Density = 2.015145 g / cm^3
# Si number density = 20.197423 Si / 1000 Ang^3
#
#
#
# Elastic Constant Matrix: (Units=GPa)
#
#
# Indices 1 2 3 4 5 6 
#
# 1 42.2570 25.2561 22.7358 0.0000 0.0000 0.0000
# 2 25.2561 67.7339 15.9461 0.0000 0.0000 0.0000
# 3 22.7358 15.9461 19.8627 0.0000 0.0000 0.0000
# 4 0.0000 0.0000 0.0000 19.4863 0.0000 0.0000
# 5 0.0000 0.0000 0.0000 0.0000 7.3557 0.0000
# 6 0.0000 0.0000 0.0000 0.0000 0.0000 20.3444
#
#
#
# Elastic Compliance Matrix: (Units=1/GPa)
#
#
# Indices 1 2 3 4 5 6 
#
# 1 0.065190 -0.008311 -0.067947 0.000000 0.000000 0.000000
# 2 -0.008311 0.019264 -0.005952 0.000000 0.000000 0.000000
# 3 -0.067947 -0.005952 0.132899 0.000000 0.000000 0.000000
# 4 0.000000 0.000000 0.000000 0.051318 0.000000 0.000000
# 5 0.000000 0.000000 0.000000 0.000000 0.135950 0.000000
# 6 0.000000 0.000000 0.000000 0.000000 0.000000 0.049154
#
#
# Mechanical properties :
#
#
# Convention : Reuss Voigt Hill
#
# Bulk Modulus (GPa) = 18.89195 28.63662 23.76429
# Shear Modulus (GPa) = 7.86362 13.83165 10.84763
#
# Velocity S-wave (km/s) = 1.97530 2.61975 2.32001
# Velocity P-wave (km/s) = 3.81790 4.83321 4.35524
#
# Compressibility (1/GPa) = 0.05293258
#
# Stress axis : x y z
#
# Youngs Moduli (GPa) = 15.33974 51.91054 7.52450
#
# Poissons Ratio (x) = 0.43144 0.51127
# Poissons Ratio (y) = 0.12749 0.04479
# Poissons Ratio (z) = 1.04229 0.30897
#
# Static dielectric constant tensor:
#      x y z
#    x 1.746950 0.000000 0.000000 
#    y 0.000000 1.773130 0.000000 
#    z 0.000000 0.000000 1.733940 
# 
# From -- ./inp_files/5217.got.cif
#   From: 2010.05.17/outbox.cif.g08.bks.cpg/sg19_3_cif.got.tgz:5217.got - 2010.06.03 22:46:19.
