data_PCOD9313766
_publ_section_title
;
Structure prediction by ZEFSAII (Michael W. Deem and Ramdas Pophale) SiO2 
 PCOD9313766
Probable space group: P 21 21 21
;
_chemical_formula_sum "Si O2"
_cell_formula_units_Z 28
_cell_length_a 11.235604
_cell_length_b 5.073430
_cell_length_c 25.669553
_cell_angle_alpha 90.000000
_cell_angle_beta 90.000000
_cell_angle_gamma 90.000000
_cell_volume 1463.242823
_symmetry_space_group_name_H-M "P 21 21 21"
_symmetry_group_IT_number 19
_symmetry_cell_setting 'orthorhombic'
loop_
_space_group_symop_operation_xyz
x,y,z
1/2-x,-y,1/2+z
1/2+x,1/2-y,-z
-x,1/2+y,1/2-z
loop_
_atom_site_type_symbol
_atom_site_label
_atom_site_fract_x
_atom_site_fract_y
_atom_site_fract_z
Si Si1 0.667217 0.112072 0.048134
Si Si2 0.847775 0.112202 0.951978
Si Si3 0.584588 0.568519 0.808905
Si Si4 0.218417 0.118260 0.408920
Si Si5 0.507915 0.748295 0.983213
Si Si6 0.766105 0.381844 0.408406
Si Si7 0.922282 0.432580 0.189671
O O1 0.687987 0.401654 0.070719
O O2 0.717469 0.900295 0.089798
O O3 0.552610 0.980846 0.021140
O O4 0.756839 0.105853 0.999826
O O5 0.825937 0.398276 0.928119
O O6 0.800174 0.897222 0.910662
O O7 0.962633 0.987696 0.979904
O O8 0.684144 0.537932 0.852370
O O9 0.623696 0.541245 0.748890
O O10 0.479342 0.355637 0.818236
O O11 0.529734 0.858694 0.815085
O O12 0.102016 0.149470 0.447113
O O13 0.170564 0.016346 0.353969
O O14 0.617538 0.649085 0.946682
#
# Coordination Sequence:
#
# PCOD9313766 Si02
#       7
#     4   4   4   4   4   4   4
#     4  10  22  34  51  78 105 147 189 212 266 331
#     4  10  22  34  51  78 105 147 189 212 266 331
#     4  10  20  34  53  78 107 142 178 221 281 332
#     4  11  21  35  54  78 108 147 181 219 275 323
#     4  10  22  38  54  76 122 146 180 236 262 322
#     4  11  21  35  54  78 108 147 181 219 275 323
#     4  10  20  34  53  78 107 142 178 221 281 332
#
# _framework density 19.135577999999999
#
# number of rings (size 3 to 8) (size 9 to 14) (size 15 to 20)
#    0.000    1.714    1.429    4.286    4.000    5.714 
#    0.000    0.000    0.000    0.000    0.000    4.000 
#    0.000    0.000    0.000    0.000    0.000    0.000 
#
# Total GULP energy -156224.253447 kJ/mol
# GULP energy per Si atom -5579.437623 kJ/mol
# Density = 1.909202 g / cm^3
# Si number density = 19.135578 Si / 1000 Ang^3
#
#
#
# Elastic Constant Matrix: (Units=GPa)
#
#
# Indices 1 2 3 4 5 6 
#
# 1 56.2289 21.3405 30.1334 0.0000 0.0000 0.0000
# 2 21.3405 92.7316 4.5638 0.0000 0.0000 0.0000
# 3 30.1334 4.5638 89.2761 0.0000 0.0000 0.0000
# 4 0.0000 0.0000 0.0000 21.3613 0.0000 0.0000
# 5 0.0000 0.0000 0.0000 0.0000 25.8082 0.0000
# 6 0.0000 0.0000 0.0000 0.0000 0.0000 19.2824
#
#
#
# Elastic Compliance Matrix: (Units=1/GPa)
#
#
# Indices 1 2 3 4 5 6 
#
# 1 0.023912 -0.005119 -0.007809 0.000000 0.000000 0.000000
# 2 -0.005119 0.011907 0.001119 0.000000 0.000000 0.000000
# 3 -0.007809 0.001119 0.013780 0.000000 0.000000 0.000000
# 4 0.000000 0.000000 0.000000 0.046814 0.000000 0.000000
# 5 0.000000 0.000000 0.000000 0.000000 0.038747 0.000000
# 6 0.000000 0.000000 0.000000 0.000000 0.000000 0.051861
#
#
# Mechanical properties :
#
#
# Convention : Reuss Voigt Hill
#
# Bulk Modulus (GPa) = 38.49001 38.92356 38.70678
# Shear Modulus (GPa) = 22.79993 25.43697 24.11845
#
# Velocity S-wave (km/s) = 3.45555 3.64992 3.55406
# Velocity P-wave (km/s) = 6.00659 6.17637 6.09207
#
# Compressibility (1/GPa) = 0.02598077
#
# Stress axis : x y z
#
# Youngs Moduli (GPa) = 41.81965 83.98643 72.56941
#
# Poissons Ratio (x) = 0.42989 0.56672
# Poissons Ratio (y) = 0.21406 -0.08121
# Poissons Ratio (z) = 0.32659 -0.09398
#
# Static dielectric constant tensor:
#      x y z
#    x 1.739440 0.000000 0.000000 
#    y 0.000000 1.725660 0.000000 
#    z 0.000000 0.000000 1.658280 
# 
# From -- ./inp_files/7388.got.cif
#   From: 2010.05.17/outbox.cif.g08.bks.cpg/sg19_4_cif.got.tgz:7388.got - 2010.06.03 22:46:19.
