data_PCOD9313196
_publ_section_title
;
Structure prediction by ZEFSAII (Michael W. Deem and Ramdas Pophale) SiO2 
 PCOD9313196
Probable space group: P 21 21 2
;
_chemical_formula_sum "Si O2"
_cell_formula_units_Z 16
_cell_length_a 7.445956
_cell_length_b 9.335473
_cell_length_c 8.881617
_cell_angle_alpha 90.000000
_cell_angle_beta 90.000000
_cell_angle_gamma 90.000000
_cell_volume 617.374708
_symmetry_space_group_name_H-M "P 21 21 2"
_symmetry_group_IT_number 18
_symmetry_cell_setting 'orthorhombic'
loop_
_space_group_symop_operation_xyz
x,y,z
-x,-y,z
1/2+x,1/2-y,-z
1/2-x,1/2+y,-z
loop_
_atom_site_type_symbol
_atom_site_label
_atom_site_fract_x
_atom_site_fract_y
_atom_site_fract_z
Si Si1 0.657123 0.846428 0.836539
Si Si2 0.747507 0.630581 0.056713
Si Si3 0.582226 0.848647 0.288654
Si Si4 0.643722 0.373302 0.460133
O O1 0.448729 0.853306 0.877889
O O2 0.702159 0.887192 0.666541
O O3 0.775288 0.960714 0.932495
O O4 0.723615 0.691882 0.890198
O O5 0.621710 0.729784 0.161261
O O6 0.453174 0.773468 0.411798
O O7 0.768284 0.873808 0.377013
O O8 0.500000 0.000000 0.238249
O O9 0.500000 0.500000 0.444963
#
# Coordination Sequence:
#
# PCOD9313196 Si02
#       4
#     4   4   4   4
#     4  11  26  47  75 104 145 184 238 297 355 423
#     4  11  26  47  74 108 141 187 238 294 358 422
#     4  12  27  45  73 106 143 185 243 290 357 424
#     4  12  25  48  72 102 143 190 235 298 353 419
#
# _framework density 25.916187999999998
#
# number of rings (size 3 to 8) (size 9 to 14) (size 15 to 20)
#    0.000    0.500    2.500    4.500   10.500    0.000 
#    0.000    0.000    0.000    0.000    0.000    0.000 
#    0.000    0.000    0.000    0.000    0.000    0.000 
#
# Total GULP energy -89725.727913 kJ/mol
# GULP energy per Si atom -5607.857995 kJ/mol
# Density = 2.585720 g / cm^3
# Si number density = 25.916188 Si / 1000 Ang^3
#
#
#
# Elastic Constant Matrix: (Units=GPa)
#
#
# Indices 1 2 3 4 5 6 
#
# 1 85.3800 12.4977 5.6061 0.0000 0.0000 0.0000
# 2 12.4977 123.0654 6.4351 0.0000 0.0000 0.0000
# 3 5.6061 6.4351 69.6313 0.0000 0.0000 0.0000
# 4 0.0000 0.0000 0.0000 33.7784 0.0000 0.0000
# 5 0.0000 0.0000 0.0000 0.0000 45.1028 0.0000
# 6 0.0000 0.0000 0.0000 0.0000 0.0000 47.7378
#
#
#
# Elastic Compliance Matrix: (Units=1/GPa)
#
#
# Indices 1 2 3 4 5 6 
#
# 1 0.011939 -0.001168 -0.000853 0.000000 0.000000 0.000000
# 2 -0.001168 0.008279 -0.000671 0.000000 0.000000 0.000000
# 3 -0.000853 -0.000671 0.014492 0.000000 0.000000 0.000000
# 4 0.000000 0.000000 0.000000 0.029605 0.000000 0.000000
# 5 0.000000 0.000000 0.000000 0.000000 0.022172 0.000000
# 6 0.000000 0.000000 0.000000 0.000000 0.000000 0.020948
#
#
# Mechanical properties :
#
#
# Convention : Reuss Voigt Hill
#
# Bulk Modulus (GPa) = 34.09916 36.35051 35.22483
# Shear Modulus (GPa) = 40.78472 42.22632 41.50552
#
# Velocity S-wave (km/s) = 3.97131 4.04089 4.00625
# Velocity P-wave (km/s) = 5.84931 5.98568 5.91789
#
# Compressibility (1/GPa) = 0.02932623
#
# Stress axis : x y z
#
# Youngs Moduli (GPa) = 83.75681 120.78089 69.00315
#
# Poissons Ratio (x) = 0.14106 0.05888
# Poissons Ratio (y) = 0.09782 0.04631
# Poissons Ratio (z) = 0.07147 0.08106
#
# Static dielectric constant tensor:
#      x y z
#    x 2.051580 0.000000 0.000000 
#    y 0.000000 2.032290 0.000000 
#    z 0.000000 0.000000 2.040790 
# 
# From -- ./inp_files/2723.got.cif
#   From: 2010.05.17/outbox.cif.g08.bks.cpg/sg18_2_cif.got.tgz:2723.got - 2010.06.03 22:40:56.
