data_PCOD9313036
_publ_section_title
;
Structure prediction by ZEFSAII (Michael W. Deem and Ramdas Pophale) SiO2 
 PCOD9313036
Probable space group: P 21 21 2
;
_chemical_formula_sum "Si O2"
_cell_formula_units_Z 22
_cell_length_a 5.842706
_cell_length_b 12.993311
_cell_length_c 13.599876
_cell_angle_alpha 90.000000
_cell_angle_beta 90.000000
_cell_angle_gamma 90.000000
_cell_volume 1032.449494
_symmetry_space_group_name_H-M "P 21 21 2"
_symmetry_group_IT_number 18
_symmetry_cell_setting 'orthorhombic'
loop_
_space_group_symop_operation_xyz
x,y,z
-x,-y,z
1/2+x,1/2-y,-z
1/2-x,1/2+y,-z
loop_
_atom_site_type_symbol
_atom_site_label
_atom_site_fract_x
_atom_site_fract_y
_atom_site_fract_z
Si Si1 0.602795 0.721898 0.953401
Si Si2 0.435512 0.384025 0.398667
Si Si3 0.200984 0.234049 0.754287
Si Si4 0.000000 0.000000 0.118308
Si Si5 0.362516 0.095012 0.268815
Si Si6 0.567016 0.266084 0.593098
O O1 0.634434 0.778076 0.847103
O O2 0.593768 0.597607 0.941441
O O3 0.346467 0.751128 0.992925
O O4 0.500000 0.500000 0.424427
O O5 0.552676 0.357061 0.293863
O O6 0.526470 0.308086 0.484602
O O7 0.169819 0.349146 0.398072
O O8 0.348178 0.274243 0.662539
O O9 0.027832 0.324332 0.784418
O O10 0.189349 0.048360 0.190383
O O11 0.246116 0.158620 0.354756
O O12 0.500000 0.000000 0.312301
#
# Coordination Sequence:
#
# PCOD9313036 Si02
#       6
#     4   4   4   2   4   4
#     4  12  28  48  77 109 147 191 248 318 371 444
#     4  11  26  42  68 101 149 194 235 287 374 448
#     4  11  24  46  67 100 147 182 239 306 362 431
#     4  12  24  46  76 110 136 186 248 310 382 424
#     4  11  21  37  74 106 135 177 236 316 366 415
#     4  11  23  42  67 105 141 187 245 300 350 436
#
# _framework density 21.30855
#
# number of rings (size 3 to 8) (size 9 to 14) (size 15 to 20)
#    0.000    0.727    5.455    1.091    6.364    0.727 
#    1.636    1.818    0.000    0.000    0.000    0.000 
#    0.000    0.000    0.000    0.000    0.000    0.000 
#
# Total GULP energy -122750.706603 kJ/mol
# GULP energy per Si atom -5579.577573 kJ/mol
# Density = 2.126005 g / cm^3
# Si number density = 21.308550 Si / 1000 Ang^3
#
#
#
# Elastic Constant Matrix: (Units=GPa)
#
#
# Indices 1 2 3 4 5 6 
#
# 1 110.1273 52.6451 41.6933 0.0000 0.0000 0.0000
# 2 52.6451 97.0433 30.9918 0.0000 0.0000 0.0000
# 3 41.6933 30.9918 92.1718 0.0000 0.0000 0.0000
# 4 0.0000 0.0000 0.0000 23.2049 0.0000 0.0000
# 5 0.0000 0.0000 0.0000 0.0000 32.9500 0.0000
# 6 0.0000 0.0000 0.0000 0.0000 0.0000 30.9460
#
#
#
# Elastic Compliance Matrix: (Units=1/GPa)
#
#
# Indices 1 2 3 4 5 6 
#
# 1 0.013506 -0.006022 -0.004084 0.000000 0.000000 0.000000
# 2 -0.006022 0.014230 -0.002060 0.000000 0.000000 0.000000
# 3 -0.004084 -0.002060 0.013390 0.000000 0.000000 0.000000
# 4 0.000000 0.000000 0.000000 0.043094 0.000000 0.000000
# 5 0.000000 0.000000 0.000000 0.000000 0.030349 0.000000
# 6 0.000000 0.000000 0.000000 0.000000 0.000000 0.032314
#
#
# Mechanical properties :
#
#
# Convention : Reuss Voigt Hill
#
# Bulk Modulus (GPa) = 59.55593 61.11144 60.33368
# Shear Modulus (GPa) = 28.27839 29.02100 28.64969
#
# Velocity S-wave (km/s) = 3.64688 3.69445 3.67074
# Velocity P-wave (km/s) = 6.76335 6.85129 6.80746
#
# Compressibility (1/GPa) = 0.01679094
#
# Stress axis : x y z
#
# Youngs Moduli (GPa) = 74.04371 70.27528 74.68495
#
# Poissons Ratio (x) = 0.42322 0.30503
# Poissons Ratio (y) = 0.44591 0.15389
# Poissons Ratio (z) = 0.30241 0.14480
#
# Static dielectric constant tensor:
#      x y z
#    x 1.894640 0.000000 0.000000 
#    y 0.000000 1.762370 0.000000 
#    z 0.000000 0.000000 1.781120 
# 
# From -- ./inp_files/5097.got.cif
#   From: 2010.05.17/outbox.cif.g08.bks.cpg/sg18_3_cif.got.tgz:5097.got - 2010.06.03 22:40:56.
