data_PCOD9313367
_publ_section_title
;
Structure prediction by ZEFSAII (Michael W. Deem and Ramdas Pophale) SiO2 
 PCOD9313367
Probable space group: P 21 21 21
;
_chemical_formula_sum "Si O2"
_cell_formula_units_Z 32
_cell_length_a 9.937412
_cell_length_b 27.689768
_cell_length_c 5.956407
_cell_angle_alpha 90.000000
_cell_angle_beta 90.000000
_cell_angle_gamma 90.000000
_cell_volume 1638.992545
_symmetry_space_group_name_H-M "P 21 21 21"
_symmetry_group_IT_number 19
_symmetry_cell_setting 'orthorhombic'
loop_
_space_group_symop_operation_xyz
x,y,z
1/2-x,-y,1/2+z
1/2+x,1/2-y,-z
-x,1/2+y,1/2-z
loop_
_atom_site_type_symbol
_atom_site_label
_atom_site_fract_x
_atom_site_fract_y
_atom_site_fract_z
Si Si1 0.854565 0.287537 0.300201
Si Si2 0.482454 0.920756 0.311900
Si Si3 0.676086 0.510339 0.089527
Si Si4 0.273519 0.114458 0.525132
Si Si5 0.081635 0.154529 0.191052
Si Si6 0.640923 0.845788 0.077857
Si Si7 0.969773 0.236196 0.912074
Si Si8 0.129417 0.283258 0.555547
O O1 0.005325 0.277902 0.388111
O O2 0.834082 0.344827 0.313564
O O3 0.737397 0.260642 0.441313
O O4 0.858243 0.260713 0.064302
O O5 0.360904 0.905573 0.145177
O O6 0.457727 0.890494 0.536354
O O7 0.614194 0.897463 0.195786
O O8 0.453249 0.976322 0.367945
O O9 0.757117 0.506139 0.338898
O O10 0.647085 0.566756 0.046471
O O11 0.222245 0.142931 0.306787
O O12 0.964498 0.159149 0.375468
O O13 0.073864 0.202310 0.044838
O O14 0.598575 0.803084 0.248517
O O15 0.787616 0.831696 0.990076
O O16 0.052616 0.277990 0.790391
#
# Coordination Sequence:
#
# PCOD9313367 Si02
#       8
#     4   4   4   4   4   4   4   4
#     4  12  25  39  60  87 128 172 211 267 316 389
#     4   9  19  34  63  89 122 161 204 268 330 394
#     4  10  19  37  61 100 134 167 210 278 345 399
#     4  10  21  36  57  93 127 160 209 263 336 385
#     4  10  17  37  56  82 118 158 208 256 314 380
#     4  10  21  38  54  85 115 162 213 259 314 383
#     4  11  22  36  57  80 123 167 214 248 320 373
#     4  12  24  41  56  88 123 169 217 263 313 383
#
# _framework density 19.524187000000001
#
# number of rings (size 3 to 8) (size 9 to 14) (size 15 to 20)
#    0.000    1.500    3.750    3.000    1.750    2.000 
#    2.250    0.000    0.000    0.000    3.250    0.000 
#    0.000    0.000    0.000    0.000    0.000    0.000 
#
# Total GULP energy -178181.612076 kJ/mol
# GULP energy per Si atom -5568.175377 kJ/mol
# Density = 1.947975 g / cm^3
# Si number density = 19.524187 Si / 1000 Ang^3
#
#
#
# Elastic Constant Matrix: (Units=GPa)
#
#
# Indices 1 2 3 4 5 6 
#
# 1 36.5096 -6.9833 -13.9914 0.0000 0.0000 0.0000
# 2 -6.9833 40.8014 1.2669 0.0000 0.0000 0.0000
# 3 -13.9914 1.2669 53.9033 0.0000 0.0000 0.0000
# 4 0.0000 0.0000 0.0000 26.3141 0.0000 0.0000
# 5 0.0000 0.0000 0.0000 0.0000 19.1824 0.0000
# 6 0.0000 0.0000 0.0000 0.0000 0.0000 22.4309
#
#
#
# Elastic Compliance Matrix: (Units=1/GPa)
#
#
# Indices 1 2 3 4 5 6 
#
# 1 0.031455 0.005134 0.008044 0.000000 0.000000 0.000000
# 2 0.005134 0.025365 0.000736 0.000000 0.000000 0.000000
# 3 0.008044 0.000736 0.020622 0.000000 0.000000 0.000000
# 4 0.000000 0.000000 0.000000 0.038002 0.000000 0.000000
# 5 0.000000 0.000000 0.000000 0.000000 0.052131 0.000000
# 6 0.000000 0.000000 0.000000 0.000000 0.000000 0.044581
#
#
# Mechanical properties :
#
#
# Convention : Reuss Voigt Hill
#
# Bulk Modulus (GPa) = 9.49939 10.19985 9.84962
# Shear Modulus (GPa) = 22.78752 23.64697 23.21724
#
# Velocity S-wave (km/s) = 3.42005 3.48395 3.45215
# Velocity P-wave (km/s) = 4.52457 4.62811 4.57663
#
# Compressibility (1/GPa) = 0.10526995
#
# Stress axis : x y z
#
# Youngs Moduli (GPa) = 31.79177 39.42479 48.49105
#
# Poissons Ratio (x) = -0.20240 -0.39006
# Poissons Ratio (y) = -0.16321 -0.03571
# Poissons Ratio (z) = -0.25573 -0.02903
#
# Static dielectric constant tensor:
#      x y z
#    x 1.697400 0.000000 0.000000 
#    y 0.000000 1.695490 0.000000 
#    z 0.000000 0.000000 1.805510 
# 
# From -- ./inp_files/672.got.cif
#   From: 2010.05.17/outbox.cif.g08.bks.cpg/sg19_1_cif.got.tgz:672.got - 2010.06.03 22:46:19.
