data_PCOD9313401
_publ_section_title
;
Structure prediction by ZEFSAII (Michael W. Deem and Ramdas Pophale) SiO2 
 PCOD9313401
Probable space group: P 21 21 21
;
_chemical_formula_sum "Si O2"
_cell_formula_units_Z 32
_cell_length_a 9.321379
_cell_length_b 16.491956
_cell_length_c 7.638607
_cell_angle_alpha 90.000000
_cell_angle_beta 90.000000
_cell_angle_gamma 90.000000
_cell_volume 1174.266038
_symmetry_space_group_name_H-M "P 21 21 21"
_symmetry_group_IT_number 19
_symmetry_cell_setting 'orthorhombic'
loop_
_space_group_symop_operation_xyz
x,y,z
1/2-x,-y,1/2+z
1/2+x,1/2-y,-z
-x,1/2+y,1/2-z
loop_
_atom_site_type_symbol
_atom_site_label
_atom_site_fract_x
_atom_site_fract_y
_atom_site_fract_z
Si Si1 0.267866 0.408933 0.545829
Si Si2 0.955226 0.290588 0.699269
Si Si3 0.594040 0.648540 0.674110
Si Si4 0.473256 0.978907 0.894609
Si Si5 0.728568 0.205732 0.116232
Si Si6 0.137217 0.272839 0.370285
Si Si7 0.352356 0.053366 0.457410
Si Si8 0.086887 0.562027 0.494835
O O1 0.426020 0.429017 0.476317
O O2 0.261154 0.339268 0.695565
O O3 0.177148 0.366924 0.394937
O O4 0.192288 0.494739 0.576643
O O5 0.055939 0.285346 0.867895
O O6 0.048277 0.247194 0.543810
O O7 0.788169 0.266777 0.677592
O O8 0.945168 0.386010 0.658268
O O9 0.529985 0.573952 0.566945
O O10 0.720823 0.701902 0.596982
O O11 0.483787 0.720000 0.726203
O O12 0.642114 0.598249 0.851524
O O13 0.556187 0.957744 0.712962
O O14 0.310592 0.950387 0.895875
O O15 0.825175 0.146308 0.993947
O O16 0.427581 0.965113 0.442242
#
# Coordination Sequence:
#
# PCOD9313401 Si02
#       8
#     4   4   4   4   4   4   4   4
#     4  10  18  36  60  86 118 164 196 245 310 357
#     4  10  19  31  55  93 116 151 193 247 306 363
#     4  10  21  41  55  92 126 155 206 259 310 367
#     4  10  22  36  60  89 125 161 202 256 303 367
#     4  10  21  37  61  85 121 159 200 256 314 364
#     4  10  18  31  56  86 122 150 190 251 305 354
#     4  10  19  37  60  88 124 156 206 253 298 362
#     4  10  20  41  57  89 126 160 203 255 304 366
#
# _framework density 27.251066999999999
#
# number of rings (size 3 to 8) (size 9 to 14) (size 15 to 20)
#    0.000    2.000    5.000    3.000    7.000    0.000 
#    4.500    2.500    0.000    0.000    0.000    0.000 
#    0.000    0.000    0.000    0.000    0.000    0.000 
#
# Total GULP energy -178574.945065 kJ/mol
# GULP energy per Si atom -5580.467033 kJ/mol
# Density = 2.718904 g / cm^3
# Si number density = 27.251067 Si / 1000 Ang^3
#
#
#
# Elastic Constant Matrix: (Units=GPa)
#
#
# Indices 1 2 3 4 5 6 
#
# 1 179.5071 39.7043 16.6226 0.0000 0.0000 0.0000
# 2 39.7043 112.3283 8.0874 0.0000 0.0000 0.0000
# 3 16.6226 8.0874 82.3015 0.0000 0.0000 0.0000
# 4 0.0000 0.0000 0.0000 19.9636 0.0000 0.0000
# 5 0.0000 0.0000 0.0000 0.0000 5.6362 0.0000
# 6 0.0000 0.0000 0.0000 0.0000 0.0000 57.4025
#
#
#
# Elastic Compliance Matrix: (Units=1/GPa)
#
#
# Indices 1 2 3 4 5 6 
#
# 1 0.006129 -0.002092 -0.001032 0.000000 0.000000 0.000000
# 2 -0.002092 0.009680 -0.000529 0.000000 0.000000 0.000000
# 3 -0.001032 -0.000529 0.012411 0.000000 0.000000 0.000000
# 4 0.000000 0.000000 0.000000 0.050091 0.000000 0.000000
# 5 0.000000 0.000000 0.000000 0.000000 0.177426 0.000000
# 6 0.000000 0.000000 0.000000 0.000000 0.000000 0.017421
#
#
# Mechanical properties :
#
#
# Convention : Reuss Voigt Hill
#
# Bulk Modulus (GPa) = 47.81522 55.88506 51.85014
# Shear Modulus (GPa) = 17.39520 37.24861 27.32191
#
# Velocity S-wave (km/s) = 2.52926 3.70113 3.16982
# Velocity P-wave (km/s) = 5.11017 6.23029 5.69782
#
# Compressibility (1/GPa) = 0.02091384
#
# Stress axis : x y z
#
# Youngs Moduli (GPa) = 163.15470 103.30543 80.57430
#
# Poissons Ratio (x) = 0.21613 0.08318
# Poissons Ratio (y) = 0.34134 0.04260
# Poissons Ratio (z) = 0.16843 0.05461
#
# Static dielectric constant tensor:
#      x y z
#    x 2.257330 0.000000 0.000000 
#    y 0.000000 2.100300 0.000000 
#    z 0.000000 0.000000 2.323020 
# 
# From -- ./inp_files/4794.got.cif
#   From: 2010.05.17/outbox.cif.g08.bks.cpg/sg19_3_cif.got.tgz:4794.got - 2010.06.03 22:46:19.
