data_PCOD9313660
_publ_section_title
;
Structure prediction by ZEFSAII (Michael W. Deem and Ramdas Pophale) SiO2 
 PCOD9313660
Probable space group: P 21 21 21
;
_chemical_formula_sum "Si O2"
_cell_formula_units_Z 32
_cell_length_a 8.289934
_cell_length_b 12.298026
_cell_length_c 14.894961
_cell_angle_alpha 90.000000
_cell_angle_beta 90.000000
_cell_angle_gamma 90.000000
_cell_volume 1518.538651
_symmetry_space_group_name_H-M "P 21 21 21"
_symmetry_group_IT_number 19
_symmetry_cell_setting 'orthorhombic'
loop_
_space_group_symop_operation_xyz
x,y,z
1/2-x,-y,1/2+z
1/2+x,1/2-y,-z
-x,1/2+y,1/2-z
loop_
_atom_site_type_symbol
_atom_site_label
_atom_site_fract_x
_atom_site_fract_y
_atom_site_fract_z
Si Si1 0.534162 0.371451 0.598560
Si Si2 0.110192 0.062804 0.141888
Si Si3 0.738777 0.342071 0.315816
Si Si4 0.937915 0.056190 0.776120
Si Si5 0.989765 0.766546 0.934146
Si Si6 0.693130 0.878988 0.740947
Si Si7 0.132399 0.989964 0.949887
Si Si8 0.755311 0.260082 0.724783
O O1 0.468594 0.328512 0.504149
O O2 0.402796 0.415345 0.667975
O O3 0.690044 0.448650 0.582316
O O4 0.606858 0.268170 0.654630
O O5 0.215986 0.144649 0.203944
O O6 0.925148 0.092536 0.160238
O O7 0.137028 0.938626 0.172691
O O8 0.152759 0.063936 0.037277
O O9 0.575904 0.406190 0.291898
O O10 0.688466 0.269163 0.402155
O O11 0.780388 0.250257 0.243915
O O12 0.798275 0.147918 0.773423
O O13 0.858204 0.944440 0.743999
O O14 0.030809 0.043779 0.870008
O O15 0.024948 0.883680 0.976661
O O16 0.095052 0.777489 0.843227
#
# Coordination Sequence:
#
# PCOD9313660 Si02
#       8
#     4   4   4   4   4   4   4   4
#     4  10  21  40  67 101 131 161 228 295 331 391
#     4  11  24  44  67  98 138 181 223 281 347 412
#     4  11  22  43  69  92 134 174 219 288 354 384
#     4  11  24  43  66  91 138 183 220 282 338 418
#     4  10  19  37  68 101 121 163 225 285 338 382
#     4  11  25  41  66 104 134 172 229 281 351 401
#     4  11  22  42  64  96 135 176 226 276 336 414
#     4   9  23  40  63  93 139 174 218 268 345 408
#
# _framework density 21.072890000000001
#
# number of rings (size 3 to 8) (size 9 to 14) (size 15 to 20)
#    0.000    1.500    2.500    3.000    8.750    0.000 
#    4.500    0.000    0.000    0.000    0.000    0.000 
#    0.000    0.000    0.000    0.000    0.000    0.000 
#
# Total GULP energy -178445.165540 kJ/mol
# GULP energy per Si atom -5576.411423 kJ/mol
# Density = 2.102493 g / cm^3
# Si number density = 21.072890 Si / 1000 Ang^3
#
#
#
# Elastic Constant Matrix: (Units=GPa)
#
#
# Indices 1 2 3 4 5 6 
#
# 1 68.4958 24.1386 8.5038 0.0000 0.0000 0.0000
# 2 24.1386 63.0640 5.5226 0.0000 0.0000 0.0000
# 3 8.5038 5.5226 65.7344 0.0000 0.0000 0.0000
# 4 0.0000 0.0000 0.0000 34.7106 0.0000 0.0000
# 5 0.0000 0.0000 0.0000 0.0000 34.2355 0.0000
# 6 0.0000 0.0000 0.0000 0.0000 0.0000 39.1811
#
#
#
# Elastic Compliance Matrix: (Units=1/GPa)
#
#
# Indices 1 2 3 4 5 6 
#
# 1 0.017056 -0.006382 -0.001670 0.000000 0.000000 0.000000
# 2 -0.006382 0.018363 -0.000717 0.000000 0.000000 0.000000
# 3 -0.001670 -0.000717 0.015489 0.000000 0.000000 0.000000
# 4 0.000000 0.000000 0.000000 0.028810 0.000000 0.000000
# 5 0.000000 0.000000 0.000000 0.000000 0.029209 0.000000
# 6 0.000000 0.000000 0.000000 0.000000 0.000000 0.025522
#
#
# Mechanical properties :
#
#
# Convention : Reuss Voigt Hill
#
# Bulk Modulus (GPa) = 29.96831 30.40269 30.18550
# Shear Modulus (GPa) = 30.65400 32.23406 31.44403
#
# Velocity S-wave (km/s) = 3.81814 3.91531 3.86703
# Velocity P-wave (km/s) = 5.80429 5.90748 5.85611
#
# Compressibility (1/GPa) = 0.03336858
#
# Stress axis : x y z
#
# Youngs Moduli (GPa) = 58.63066 54.45871 64.56177
#
# Poissons Ratio (x) = 0.34756 0.10783
# Poissons Ratio (y) = 0.37419 0.04630
# Poissons Ratio (z) = 0.09793 0.03905
#
# Static dielectric constant tensor:
#      x y z
#    x 1.846750 0.000000 0.000000 
#    y 0.000000 1.799320 0.000000 
#    z 0.000000 0.000000 1.812530 
# 
# From -- ./inp_files/5956.got.cif
#   From: 2010.05.17/outbox.cif.g08.bks.cpg/sg19_3_cif.got.tgz:5956.got - 2010.06.03 22:46:19.
