data_PCOD9313866
_publ_section_title
;
Structure prediction by ZEFSAII (Michael W. Deem and Ramdas Pophale) SiO2 
 PCOD9313866
Probable space group: P 21 21 21
;
_chemical_formula_sum "Si O2"
_cell_formula_units_Z 32
_cell_length_a 8.442360
_cell_length_b 14.490660
_cell_length_c 13.665279
_cell_angle_alpha 90.000000
_cell_angle_beta 90.000000
_cell_angle_gamma 90.000000
_cell_volume 1671.746940
_symmetry_space_group_name_H-M "P 21 21 21"
_symmetry_group_IT_number 19
_symmetry_cell_setting 'orthorhombic'
loop_
_space_group_symop_operation_xyz
x,y,z
1/2-x,-y,1/2+z
1/2+x,1/2-y,-z
-x,1/2+y,1/2-z
loop_
_atom_site_type_symbol
_atom_site_label
_atom_site_fract_x
_atom_site_fract_y
_atom_site_fract_z
Si Si1 0.556655 0.179120 0.557517
Si Si2 0.464363 0.376968 0.983852
Si Si3 0.116174 0.491143 0.310009
Si Si4 0.818725 0.169291 0.409266
Si Si5 0.616587 0.545969 0.094600
Si Si6 0.099330 0.321410 0.979518
Si Si7 0.981318 0.494448 0.094189
Si Si8 0.094894 0.391263 0.764552
O O1 0.608327 0.105971 0.637415
O O2 0.707086 0.208092 0.493977
O O3 0.465094 0.263506 0.604583
O O4 0.445688 0.122436 0.481813
O O5 0.528249 0.450969 0.062726
O O6 0.281834 0.348126 0.999755
O O7 0.463201 0.431678 0.880461
O O8 0.562442 0.282393 0.987304
O O9 0.297894 0.521456 0.295578
O O10 0.026829 0.484502 0.207674
O O11 0.712523 0.159452 0.312330
O O12 0.888634 0.069849 0.441302
O O13 0.803362 0.531524 0.086215
O O14 0.556282 0.577484 0.201660
O O15 0.998830 0.398483 0.037189
O O16 0.066035 0.333990 0.863219
#
# Coordination Sequence:
#
# PCOD9313866 Si02
#       8
#     4   4   4   4   4   4   4   4
#     4  10  20  37  59  83 113 149 190 236 287 341
#     4  10  21  38  59  84 116 150 191 238 289 342
#     4   9  20  38  58  80 111 151 189 235 286 341
#     4  10  20  37  58  84 115 149 190 239 288 341
#     4  10  21  38  57  84 117 150 191 240 289 344
#     4  11  22  39  61  86 116 154 193 238 288 348
#     4  11  22  36  58  84 114 151 192 237 288 341
#     4   9  20  39  58  81 116 152 190 237 287 342
#
# _framework density 19.141652000000001
#
# number of rings (size 3 to 8) (size 9 to 14) (size 15 to 20)
#    0.000    2.000    0.000    5.250    0.000    7.000 
#    0.000   10.000    0.000    0.000    0.000    0.000 
#    0.000    0.000    0.000    0.000    0.000    0.000 
#
# Total GULP energy -178625.847343 kJ/mol
# GULP energy per Si atom -5582.057729 kJ/mol
# Density = 1.909808 g / cm^3
# Si number density = 19.141652 Si / 1000 Ang^3
#
#
#
# Elastic Constant Matrix: (Units=GPa)
#
#
# Indices 1 2 3 4 5 6 
#
# 1 56.9080 3.4304 16.6950 0.0000 0.0000 0.0000
# 2 3.4304 83.6691 11.6224 0.0000 0.0000 0.0000
# 3 16.6950 11.6224 40.1770 0.0000 0.0000 0.0000
# 4 0.0000 0.0000 0.0000 8.9661 0.0000 0.0000
# 5 0.0000 0.0000 0.0000 0.0000 17.3500 0.0000
# 6 0.0000 0.0000 0.0000 0.0000 0.0000 30.0793
#
#
#
# Elastic Compliance Matrix: (Units=1/GPa)
#
#
# Indices 1 2 3 4 5 6 
#
# 1 0.020022 0.000349 -0.008421 0.000000 0.000000 0.000000
# 2 0.000349 0.012458 -0.003749 0.000000 0.000000 0.000000
# 3 -0.008421 -0.003749 0.029473 0.000000 0.000000 0.000000
# 4 0.000000 0.000000 0.000000 0.111531 0.000000 0.000000
# 5 0.000000 0.000000 0.000000 0.000000 0.057637 0.000000
# 6 0.000000 0.000000 0.000000 0.000000 0.000000 0.033245
#
#
# Mechanical properties :
#
#
# Convention : Reuss Voigt Hill
#
# Bulk Modulus (GPa) = 26.10153 27.13887 26.62020
# Shear Modulus (GPa) = 16.62354 21.21284 18.91819
#
# Velocity S-wave (km/s) = 2.95014 3.33258 3.14718
# Velocity P-wave (km/s) = 5.02693 5.38673 5.20994
#
# Compressibility (1/GPa) = 0.03831194
#
# Stress axis : x y z
#
# Youngs Moduli (GPa) = 49.94625 80.26781 33.92887
#
# Poissons Ratio (x) = -0.02800 0.28570
# Poissons Ratio (y) = -0.01742 0.12720
# Poissons Ratio (z) = 0.42058 0.30092
#
# Static dielectric constant tensor:
#      x y z
#    x 1.673440 0.000000 0.000000 
#    y 0.000000 1.653350 0.000000 
#    z 0.000000 0.000000 1.659710 
# 
# From -- ./inp_files/4709.got.cif
#   From: 2010.05.17/outbox.cif.g08.bks.cpg/sg19_3_cif.got.tgz:4709.got - 2010.06.03 22:46:19.
