data_PCOD9313065
_publ_section_title
;
Structure prediction by ZEFSAII (Michael W. Deem and Ramdas Pophale) SiO2 
 PCOD9313065
Probable space group: P 21 21 2
;
_chemical_formula_sum "Si O2"
_cell_formula_units_Z 18
_cell_length_a 7.343556
_cell_length_b 5.429367
_cell_length_c 19.281842
_cell_angle_alpha 90.000000
_cell_angle_beta 90.000000
_cell_angle_gamma 90.000000
_cell_volume 768.783635
_symmetry_space_group_name_H-M "P 21 21 2"
_symmetry_group_IT_number 18
_symmetry_cell_setting 'orthorhombic'
loop_
_space_group_symop_operation_xyz
x,y,z
-x,-y,z
1/2+x,1/2-y,-z
1/2-x,1/2+y,-z
loop_
_atom_site_type_symbol
_atom_site_label
_atom_site_fract_x
_atom_site_fract_y
_atom_site_fract_z
Si Si1 0.000000 0.500000 0.539068
Si Si2 0.778540 0.012644 0.728993
Si Si3 0.210610 0.558727 0.961813
Si Si4 0.205371 0.097070 0.578248
Si Si5 0.222690 0.491015 0.805455
O O1 0.141443 0.373640 0.591803
O O2 0.150737 0.596107 0.483318
O O3 0.725079 0.020326 0.648176
O O4 0.721212 0.764001 0.768817
O O5 0.719286 0.262062 0.765924
O O6 0.000000 0.000000 0.727772
O O7 0.286815 0.513222 0.884920
O O8 0.000000 0.500000 0.956458
O O9 0.221570 0.842200 0.986803
O O10 0.000000 0.000000 0.557541
O O11 0.000000 0.500000 0.805267
#
# Coordination Sequence:
#
# PCOD9313065 Si02
#       5
#     2   4   4   4   4
#     4  12  24  42  62  98 126 164 218 272 328 396
#     4   9  19  33  59  87 119 161 213 261 310 374
#     4  11  22  38  65  96 129 168 213 263 320 382
#     4  11  24  39  65  92 127 169 214 268 331 386
#     4   9  18  35  58  90 118 161 215 259 300 380
#
# _framework density 23.413606999999999
#
# number of rings (size 3 to 8) (size 9 to 14) (size 15 to 20)
#    0.000    1.778    2.222    2.000    7.778    3.556 
#    0.000    0.000   14.667    0.000    0.000    0.000 
#    0.000    0.000    0.000    0.000    0.000    0.000 
#
# Total GULP energy -100311.277586 kJ/mol
# GULP energy per Si atom -5572.848755 kJ/mol
# Density = 2.336032 g / cm^3
# Si number density = 23.413607 Si / 1000 Ang^3
#
#
#
# Elastic Constant Matrix: (Units=GPa)
#
#
# Indices 1 2 3 4 5 6 
#
# 1 81.4065 -1.8166 6.8873 0.0000 0.0000 0.0000
# 2 -1.8166 119.7979 55.0629 0.0000 0.0000 0.0000
# 3 6.8873 55.0629 89.5957 0.0000 0.0000 0.0000
# 4 0.0000 0.0000 0.0000 37.9435 0.0000 0.0000
# 5 0.0000 0.0000 0.0000 0.0000 34.6428 0.0000
# 6 0.0000 0.0000 0.0000 0.0000 0.0000 15.1026
#
#
#
# Elastic Compliance Matrix: (Units=1/GPa)
#
#
# Indices 1 2 3 4 5 6 
#
# 1 0.012430 0.000875 -0.001493 0.000000 0.000000 0.000000
# 2 0.000875 0.011695 -0.007255 0.000000 0.000000 0.000000
# 3 -0.001493 -0.007255 0.015735 0.000000 0.000000 0.000000
# 4 0.000000 0.000000 0.000000 0.026355 0.000000 0.000000
# 5 0.000000 0.000000 0.000000 0.000000 0.028866 0.000000
# 6 0.000000 0.000000 0.000000 0.000000 0.000000 0.066214
#
#
# Mechanical properties :
#
#
# Convention : Reuss Voigt Hill
#
# Bulk Modulus (GPa) = 41.47066 45.67417 43.57242
# Shear Modulus (GPa) = 27.01555 32.91553 29.96554
#
# Velocity S-wave (km/s) = 3.40051 3.75351 3.58136
# Velocity P-wave (km/s) = 5.75922 6.19152 5.97928
#
# Compressibility (1/GPa) = 0.02411343
#
# Stress axis : x y z
#
# Youngs Moduli (GPa) = 80.45131 85.50536 63.55425
#
# Poissons Ratio (x) = -0.07480 0.09489
# Poissons Ratio (y) = -0.07038 0.46107
# Poissons Ratio (z) = 0.12012 0.62032
#
# Static dielectric constant tensor:
#      x y z
#    x 1.846980 0.000000 0.000000 
#    y 0.000000 -0.035600 0.000000 
#    z 0.000000 0.000000 1.869140 
# 
# From -- ./inp_files/7089.got.cif
#   From: 2010.05.17/outbox.cif.g08.bks.cpg/sg18_4_cif.got.tgz:7089.got - 2010.06.03 22:40:56.
