data_PCOD9313380
_publ_section_title
;
Structure prediction by ZEFSAII (Michael W. Deem and Ramdas Pophale) SiO2 
 PCOD9313380
Probable space group: P 21 21 21
;
_chemical_formula_sum "Si O2"
_cell_formula_units_Z 32
_cell_length_a 15.613884
_cell_length_b 8.938567
_cell_length_c 13.752732
_cell_angle_alpha 90.000000
_cell_angle_beta 90.000000
_cell_angle_gamma 90.000000
_cell_volume 1919.410332
_symmetry_space_group_name_H-M "P 21 21 21"
_symmetry_group_IT_number 19
_symmetry_cell_setting 'orthorhombic'
loop_
_space_group_symop_operation_xyz
x,y,z
1/2-x,-y,1/2+z
1/2+x,1/2-y,-z
-x,1/2+y,1/2-z
loop_
_atom_site_type_symbol
_atom_site_label
_atom_site_fract_x
_atom_site_fract_y
_atom_site_fract_z
Si Si1 0.558415 0.530873 0.141000
Si Si2 0.870477 0.837273 0.890273
Si Si3 0.256153 0.500000 0.750000
Si Si4 0.129523 0.662726 0.890273
Si Si5 0.334821 0.415367 0.949953
Si Si6 0.834821 0.915366 0.449953
Si Si7 0.500000 0.750000 0.479829
Si Si8 0.941585 0.530872 0.859000
O O1 0.462362 0.598893 0.143739
O O2 0.617111 0.660587 0.094631
O O3 0.546755 0.376215 0.084717
O O4 0.588312 0.500001 0.250000
O O5 0.882888 0.660587 0.905369
O O6 0.804430 0.879532 0.804725
O O7 0.846697 0.930873 0.987169
O O8 0.195570 0.620468 0.804725
O O9 0.312430 0.437365 0.837837
O O10 0.312430 0.562637 0.662162
O O11 0.037637 0.598892 0.856261
O O12 0.153303 0.569126 0.987169
O O13 0.250000 0.343309 1.000000
O O14 0.423215 0.327706 0.962098
O O15 0.923214 0.827705 0.462099
O O16 0.546755 0.623786 0.415284
#
# Coordination Sequence:
#
# PCOD9313380 Si02
#       8
#     4   4   4   4   4   4   4   4
#     4  10  18  28  55  81 109 134 170 230 280 324
#     4   9  18  32  52  82 104 137 179 220 272 323
#     4  10  18  36  58  72 108 148 188 214 274 330
#     4   9  18  32  52  82 104 137 179 220 272 323
#     4   9  20  35  57  76 105 145 181 226 268 322
#     4   9  20  35  57  76 105 145 181 226 268 322
#     4  10  20  36  52  82 112 140 182 220 276 326
#     4  10  18  28  55  81 109 134 170 230 280 324
#
# _framework density 16.671786999999998
#
# number of rings (size 3 to 8) (size 9 to 14) (size 15 to 20)
#    0.000    2.500    1.250    1.500    7.000    0.000 
#    0.000    8.750    0.000    0.000    0.000    0.000 
#    0.000    0.000    0.000    0.000    0.000    0.000 
#
# Total GULP energy -178167.699703 kJ/mol
# GULP energy per Si atom -5567.740616 kJ/mol
# Density = 1.663384 g / cm^3
# Si number density = 16.671787 Si / 1000 Ang^3
#
#
#
# Elastic Constant Matrix: (Units=GPa)
#
#
# Indices 1 2 3 4 5 6 
#
# 1 96.3875 46.1525 56.6222 0.0000 0.0000 0.0000
# 2 46.1525 107.0647 49.8904 0.0000 0.0000 0.0000
# 3 56.6222 49.8904 128.4125 0.0000 0.0000 0.0000
# 4 0.0000 0.0000 0.0000 2.5602 0.0000 0.0000
# 5 0.0000 0.0000 0.0000 0.0000 23.9045 0.0000
# 6 0.0000 0.0000 0.0000 0.0000 0.0000 13.0481
#
#
#
# Elastic Compliance Matrix: (Units=1/GPa)
#
#
# Indices 1 2 3 4 5 6 
#
# 1 0.015440 -0.004253 -0.005156 0.000000 0.000000 0.000000
# 2 -0.004253 0.012577 -0.003011 0.000000 0.000000 0.000000
# 3 -0.005156 -0.003011 0.011230 0.000000 0.000000 0.000000
# 4 0.000000 0.000000 0.000000 0.390589 0.000000 0.000000
# 5 0.000000 0.000000 0.000000 0.000000 0.041833 0.000000
# 6 0.000000 0.000000 0.000000 0.000000 0.000000 0.076640
#
#
# Mechanical properties :
#
#
# Convention : Reuss Voigt Hill
#
# Bulk Modulus (GPa) = 69.40756 70.79945 70.10351
# Shear Modulus (GPa) = 8.65125 19.84919 14.25022
#
# Velocity S-wave (km/s) = 2.28044 3.45423 2.92678
# Velocity P-wave (km/s) = 6.97539 7.64642 7.31860
#
# Compressibility (1/GPa) = 0.01440765
#
# Stress axis : x y z
#
# Youngs Moduli (GPa) = 64.76671 79.51282 89.04351
#
# Poissons Ratio (x) = 0.33819 0.45908
# Poissons Ratio (y) = 0.27547 0.26809
# Poissons Ratio (z) = 0.33391 0.23939
#
# Static dielectric constant tensor:
#      x y z
#    x 1.566250 0.000000 0.000000 
#    y 0.000000 1.602360 0.000000 
#    z 0.000000 0.000000 1.538210 
# 
# From -- ./inp_files/4029.got.cif
#   From: 2010.05.17/outbox.cif.g08.bks.cpg/sg19_3_cif.got.tgz:4029.got - 2010.06.03 22:46:19.
