data_PCOD9313544
_publ_section_title
;
Structure prediction by ZEFSAII (Michael W. Deem and Ramdas Pophale) SiO2 
 PCOD9313544
Probable space group: P 21 21 21
;
_chemical_formula_sum "Si O2"
_cell_formula_units_Z 32
_cell_length_a 17.628985
_cell_length_b 12.541739
_cell_length_c 5.509726
_cell_angle_alpha 90.000000
_cell_angle_beta 90.000000
_cell_angle_gamma 90.000000
_cell_volume 1218.190108
_symmetry_space_group_name_H-M "P 21 21 21"
_symmetry_group_IT_number 19
_symmetry_cell_setting 'orthorhombic'
loop_
_space_group_symop_operation_xyz
x,y,z
1/2-x,-y,1/2+z
1/2+x,1/2-y,-z
-x,1/2+y,1/2-z
loop_
_atom_site_type_symbol
_atom_site_label
_atom_site_fract_x
_atom_site_fract_y
_atom_site_fract_z
Si Si1 0.721628 0.243859 0.750000
Si Si2 0.049958 0.263001 0.749997
Si Si3 0.795244 0.294706 0.250000
Si Si4 0.836036 0.512888 0.249999
Si Si5 0.911338 0.008023 0.750002
Si Si6 0.976258 0.309362 0.249998
Si Si7 0.885586 0.963852 0.250002
Si Si8 0.090377 0.045019 0.750001
O O1 0.767954 0.242257 0.499005
O O2 0.685252 0.362803 0.750000
O O3 0.663971 0.144221 0.750001
O O4 0.767954 0.242257 0.000994
O O5 0.003315 0.255361 0.500767
O O6 0.087240 0.378649 0.749997
O O7 0.003314 0.255362 0.999225
O O8 0.110528 0.169757 0.750000
O O9 0.771523 0.422003 0.250000
O O10 0.886315 0.303660 0.250000
O O11 0.880697 0.494744 0.502256
O O12 0.880697 0.494744 0.997742
O O13 0.873927 0.032320 0.492790
O O14 0.998978 0.041725 0.750001
O O15 0.873927 0.032320 0.007214
O O16 0.026769 0.419414 0.249998
#
# Coordination Sequence:
#
# PCOD9313544 Si02
#       8
#     4   4   4   4   4   4   4   4
#     4  12  24  39  58  87 123 166 202 239 299 367
#     4  10  19  34  54  85 116 148 194 248 293 340
#     4  12  24  39  58  87 123 166 202 239 299 367
#     4  12  22  37  54  84 130 169 196 228 282 375
#     4  10  19  34  54  85 116 148 194 248 293 340
#     4  10  20  37  58  80 112 151 198 249 287 335
#     4  10  20  37  58  80 112 151 198 249 287 335
#     4  12  22  35  62  92 122 163 198 246 304 349
#
# _framework density 26.268478999999999
#
# number of rings (size 3 to 8) (size 9 to 14) (size 15 to 20)
#    0.000    1.000    0.000   11.250    0.000    0.000 
#    0.000    0.000    0.000    0.000    0.000   17.500 
#    0.000    0.000    0.000    0.000    0.000    0.000 
#
# Total GULP energy -179278.814545 kJ/mol
# GULP energy per Si atom -5602.462955 kJ/mol
# Density = 2.620869 g / cm^3
# Si number density = 26.268479 Si / 1000 Ang^3
#
#
#
# Elastic Constant Matrix: (Units=GPa)
#
#
# Indices 1 2 3 4 5 6 
#
# 1 69.9653 27.2539 63.0038 0.0000 0.0000 0.0000
# 2 27.2539 64.8763 30.2100 0.0000 0.0000 0.0000
# 3 63.0038 30.2100 317.8995 0.0000 0.0000 0.0000
# 4 0.0000 0.0000 0.0000 8.3880 0.0000 0.0000
# 5 0.0000 0.0000 0.0000 0.0000 27.7248 0.0000
# 6 0.0000 0.0000 0.0000 0.0000 0.0000 27.9331
#
#
#
# Elastic Compliance Matrix: (Units=1/GPa)
#
#
# Indices 1 2 3 4 5 6 
#
# 1 0.019926 -0.006834 -0.003300 0.000000 0.000000 0.000000
# 2 -0.006834 0.018472 -0.000401 0.000000 0.000000 0.000000
# 3 -0.003300 -0.000401 0.003838 0.000000 0.000000 0.000000
# 4 0.000000 0.000000 0.000000 0.119218 0.000000 0.000000
# 5 0.000000 0.000000 0.000000 0.000000 0.036069 0.000000
# 6 0.000000 0.000000 0.000000 0.000000 0.000000 0.035800
#
#
# Mechanical properties :
#
#
# Convention : Reuss Voigt Hill
#
# Bulk Modulus (GPa) = 47.24583 77.07518 62.16051
# Shear Modulus (GPa) = 19.12432 34.96075 27.04253
#
# Velocity S-wave (km/s) = 2.70114 3.65211 3.21201
# Velocity P-wave (km/s) = 5.26811 6.86942 6.12135
#
# Compressibility (1/GPa) = 0.02116589
#
# Stress axis : x y z
#
# Youngs Moduli (GPa) = 50.18462 54.13694 260.57238
#
# Poissons Ratio (x) = 0.36999 0.85981
# Poissons Ratio (y) = 0.34298 0.10446
# Poissons Ratio (z) = 0.16559 0.02170
#
# Static dielectric constant tensor:
#      x y z
#    x 2.082780 0.000000 0.000000 
#    y 0.000000 2.083870 0.000000 
#    z 0.000000 0.000000 2.097070 
# 
# From -- ./inp_files/1807.got.cif
#   From: 2010.05.17/outbox.cif.g08.bks.cpg/sg19_1_cif.got.tgz:1807.got - 2010.06.03 22:46:19.
