data_PCOD9313779
_publ_section_title
;
Structure prediction by ZEFSAII (Michael W. Deem and Ramdas Pophale) SiO2 
 PCOD9313779
Probable space group: P 21 21 21
;
_chemical_formula_sum "Si O2"
_cell_formula_units_Z 32
_cell_length_a 8.362092
_cell_length_b 18.018611
_cell_length_c 10.885868
_cell_angle_alpha 90.000000
_cell_angle_beta 90.000000
_cell_angle_gamma 90.000000
_cell_volume 1640.209469
_symmetry_space_group_name_H-M "P 21 21 21"
_symmetry_group_IT_number 19
_symmetry_cell_setting 'orthorhombic'
loop_
_space_group_symop_operation_xyz
x,y,z
1/2-x,-y,1/2+z
1/2+x,1/2-y,-z
-x,1/2+y,1/2-z
loop_
_atom_site_type_symbol
_atom_site_label
_atom_site_fract_x
_atom_site_fract_y
_atom_site_fract_z
Si Si1 0.003721 0.566432 0.615948
Si Si2 0.989082 0.274782 0.566352
Si Si3 0.160602 0.739632 0.176648
Si Si4 0.056256 0.329588 0.066924
Si Si5 0.881019 0.181745 0.067760
Si Si6 0.979778 0.923805 0.037389
Si Si7 0.163918 0.909396 0.275395
Si Si8 0.271469 0.340685 0.293497
O O1 0.830526 0.559656 0.677557
O O2 0.004493 0.626329 0.505143
O O3 0.059253 0.490824 0.552293
O O4 0.122641 0.600370 0.717438
O O5 0.970625 0.239933 0.430435
O O6 0.881155 0.224084 0.653159
O O7 0.168102 0.277154 0.616773
O O8 0.934688 0.359245 0.542040
O O9 0.116548 0.684237 0.285727
O O10 0.182380 0.822672 0.233401
O O11 0.148668 0.307584 0.193260
O O12 0.935815 0.264553 0.027527
O O13 0.959658 0.402185 0.110513
O O14 0.199695 0.337209 0.971411
O O15 0.828113 0.883893 0.102169
O O16 0.088725 0.946969 0.154470
#
# Coordination Sequence:
#
# PCOD9313779 Si02
#       8
#     4   4   4   4   4   4   4   4
#     4  11  22  41  64  91 129 166 194 266 333 370
#     4  11  20  38  63  86 117 163 217 254 295 361
#     4  10  20  34  60  88 113 155 211 256 293 362
#     4   9  19  34  60  86 119 158 200 249 300 371
#     4  10  20  34  57  92 122 154 201 252 312 365
#     4  10  23  41  59  92 124 160 216 255 307 386
#     4   9  19  40  59  84 123 161 200 246 313 372
#     4  10  21  40  66  85 121 169 205 260 315 365
#
# _framework density 19.509703999999999
#
# number of rings (size 3 to 8) (size 9 to 14) (size 15 to 20)
#    0.000    2.000    2.500    2.250    1.750    1.000 
#    2.250    3.750    0.000    0.000    0.000    0.000 
#    0.000    0.000    0.000    0.000    0.000    0.000 
#
# Total GULP energy -178377.777838 kJ/mol
# GULP energy per Si atom -5574.305557 kJ/mol
# Density = 1.946530 g / cm^3
# Si number density = 19.509704 Si / 1000 Ang^3
#
#
#
# Elastic Constant Matrix: (Units=GPa)
#
#
# Indices 1 2 3 4 5 6 
#
# 1 75.7161 9.7818 23.2517 0.0000 0.0000 0.0000
# 2 9.7818 55.8326 37.0134 0.0000 0.0000 0.0000
# 3 23.2517 37.0134 75.8897 0.0000 0.0000 0.0000
# 4 0.0000 0.0000 0.0000 35.0493 0.0000 0.0000
# 5 0.0000 0.0000 0.0000 0.0000 29.8587 0.0000
# 6 0.0000 0.0000 0.0000 0.0000 0.0000 12.9070
#
#
#
# Elastic Compliance Matrix: (Units=1/GPa)
#
#
# Indices 1 2 3 4 5 6 
#
# 1 0.014593 0.000602 -0.004765 0.000000 0.000000 0.000000
# 2 0.000602 0.026494 -0.013106 0.000000 0.000000 0.000000
# 3 -0.004765 -0.013106 0.021029 0.000000 0.000000 0.000000
# 4 0.000000 0.000000 0.000000 0.028531 0.000000 0.000000
# 5 0.000000 0.000000 0.000000 0.000000 0.033491 0.000000
# 6 0.000000 0.000000 0.000000 0.000000 0.000000 0.077477
#
#
# Mechanical properties :
#
#
# Convention : Reuss Voigt Hill
#
# Bulk Modulus (GPa) = 36.26085 38.61466 37.43776
# Shear Modulus (GPa) = 20.37945 24.72242 22.55094
#
# Velocity S-wave (km/s) = 3.23550 3.56362 3.40352
# Velocity P-wave (km/s) = 5.70827 6.06366 5.88865
#
# Compressibility (1/GPa) = 0.02757795
#
# Stress axis : x y z
#
# Youngs Moduli (GPa) = 68.52775 37.74476 47.55327
#
# Poissons Ratio (x) = -0.02272 0.22657
# Poissons Ratio (y) = -0.04126 0.62324
# Poissons Ratio (z) = 0.32651 0.49469
#
# Static dielectric constant tensor:
#      x y z
#    x 1.724650 0.000000 0.000000 
#    y 0.000000 1.674400 0.000000 
#    z 0.000000 0.000000 1.723440 
# 
# From -- ./inp_files/4799.got.cif
#   From: 2010.05.17/outbox.cif.g08.bks.cpg/sg19_3_cif.got.tgz:4799.got - 2010.06.03 22:46:19.
