data_PCOD9313573
_publ_section_title
;
Structure prediction by ZEFSAII (Michael W. Deem and Ramdas Pophale) SiO2 
 PCOD9313573
Probable space group: P 21 21 21
;
_chemical_formula_sum "Si O2"
_cell_formula_units_Z 32
_cell_length_a 14.049385
_cell_length_b 7.870291
_cell_length_c 12.234041
_cell_angle_alpha 90.000000
_cell_angle_beta 90.000000
_cell_angle_gamma 90.000000
_cell_volume 1352.751536
_symmetry_space_group_name_H-M "P 21 21 21"
_symmetry_group_IT_number 19
_symmetry_cell_setting 'orthorhombic'
loop_
_space_group_symop_operation_xyz
x,y,z
1/2-x,-y,1/2+z
1/2+x,1/2-y,-z
-x,1/2+y,1/2-z
loop_
_atom_site_type_symbol
_atom_site_label
_atom_site_fract_x
_atom_site_fract_y
_atom_site_fract_z
Si Si1 0.782527 0.229850 0.984443
Si Si2 0.906107 0.964876 0.505011
Si Si3 0.977082 0.021485 0.740596
Si Si4 0.055740 0.814505 0.351331
Si Si5 0.454137 0.048958 0.611294
Si Si6 0.343045 0.146187 0.245905
Si Si7 0.709817 0.683761 0.016319
Si Si8 0.113881 0.366124 0.551904
O O1 0.674403 0.180002 0.008376
O O2 0.793003 0.328277 0.869747
O O3 0.832529 0.044525 0.970290
O O4 0.845783 0.314211 0.080006
O O5 0.963192 0.957928 0.617674
O O6 0.979445 0.939912 0.406983
O O7 0.850455 0.142424 0.499785
O O8 0.932116 0.896003 0.830616
O O9 0.089979 0.017962 0.759403
O O10 0.917219 0.194303 0.750321
O O11 0.069654 0.861839 0.225620
O O12 0.003965 0.631409 0.364339
O O13 0.359190 0.045980 0.537666
O O14 0.531935 0.149187 0.538488
O O15 0.278688 0.160588 0.353577
O O16 0.810332 0.716639 0.959655
#
# Coordination Sequence:
#
# PCOD9313573 Si02
#       8
#     4   4   4   4   4   4   4   4
#     4   9  20  37  59  84 113 152 192 231 284 347
#     4  10  21  37  61  87 112 149 196 239 282 340
#     4  10  19  35  59  84 112 146 188 236 285 338
#     4  11  23  40  60  84 118 156 193 239 290 345
#     4  11  23  40  60  84 118 156 193 239 290 345
#     4  10  19  35  59  84 112 146 188 236 285 338
#     4  10  21  37  61  87 112 149 196 239 282 340
#     4   9  20  37  59  84 113 152 192 231 284 347
#
# _framework density 23.65549
#
# number of rings (size 3 to 8) (size 9 to 14) (size 15 to 20)
#    0.000    2.000    2.500    0.750    3.500    0.000 
#    0.000    3.750    0.000    0.000    0.000    0.000 
#    0.000    0.000    0.000    0.000    0.000    0.000 
#
# Total GULP energy -179054.530407 kJ/mol
# GULP energy per Si atom -5595.454075 kJ/mol
# Density = 2.360165 g / cm^3
# Si number density = 23.655490 Si / 1000 Ang^3
#
#
#
# Elastic Constant Matrix: (Units=GPa)
#
#
# Indices 1 2 3 4 5 6 
#
# 1 38.4743 8.6803 7.0794 0.0000 0.0000 0.0000
# 2 8.6803 80.3215 17.3898 0.0000 0.0000 0.0000
# 3 7.0794 17.3898 114.7025 0.0000 0.0000 0.0000
# 4 0.0000 0.0000 0.0000 13.5857 0.0000 0.0000
# 5 0.0000 0.0000 0.0000 0.0000 29.3506 0.0000
# 6 0.0000 0.0000 0.0000 0.0000 0.0000 34.2757
#
#
#
# Elastic Compliance Matrix: (Units=1/GPa)
#
#
# Indices 1 2 3 4 5 6 
#
# 1 0.026815 -0.002626 -0.001257 0.000000 0.000000 0.000000
# 2 -0.002626 0.013130 -0.001828 0.000000 0.000000 0.000000
# 3 -0.001257 -0.001828 0.009073 0.000000 0.000000 0.000000
# 4 0.000000 0.000000 0.000000 0.073607 0.000000 0.000000
# 5 0.000000 0.000000 0.000000 0.000000 0.034071 0.000000
# 6 0.000000 0.000000 0.000000 0.000000 0.000000 0.029175
#
#
# Mechanical properties :
#
#
# Convention : Reuss Voigt Hill
#
# Bulk Modulus (GPa) = 26.59906 33.31080 29.95493
# Shear Modulus (GPa) = 23.82943 28.79899 26.31421
#
# Velocity S-wave (km/s) = 3.17733 3.49296 3.33887
# Velocity P-wave (km/s) = 4.97286 5.51180 5.24925
#
# Compressibility (1/GPa) = 0.03759532
#
# Stress axis : x y z
#
# Youngs Moduli (GPa) = 37.29247 76.16374 110.21717
#
# Poissons Ratio (x) = 0.19999 0.13854
# Poissons Ratio (y) = 0.09792 0.20153
# Poissons Ratio (z) = 0.04687 0.13926
#
# Static dielectric constant tensor:
#      x y z
#    x 1.861280 0.000000 0.000000 
#    y 0.000000 1.967080 0.000000 
#    z 0.000000 0.000000 1.819670 
# 
# From -- ./inp_files/3619.got.cif
#   From: 2010.05.17/outbox.cif.g08.bks.cpg/sg19_2_cif.got.tgz:3619.got - 2010.06.03 22:46:19.
