data_PCOD9313413
_publ_section_title
;
Structure prediction by ZEFSAII (Michael W. Deem and Ramdas Pophale) SiO2 
 PCOD9313413
Probable space group: P 21 21 21
;
_chemical_formula_sum "Si O2"
_cell_formula_units_Z 28
_cell_length_a 9.603648
_cell_length_b 8.260321
_cell_length_c 15.383844
_cell_angle_alpha 90.000000
_cell_angle_beta 90.000000
_cell_angle_gamma 90.000000
_cell_volume 1220.388272
_symmetry_space_group_name_H-M "P 21 21 21"
_symmetry_group_IT_number 19
_symmetry_cell_setting 'orthorhombic'
loop_
_space_group_symop_operation_xyz
x,y,z
1/2-x,-y,1/2+z
1/2+x,1/2-y,-z
-x,1/2+y,1/2-z
loop_
_atom_site_type_symbol
_atom_site_label
_atom_site_fract_x
_atom_site_fract_y
_atom_site_fract_z
Si Si1 0.433587 0.317945 0.243514
Si Si2 0.417857 0.438074 0.052155
Si Si3 0.322878 0.732849 0.123633
Si Si4 0.250794 0.953053 0.689015
Si Si5 0.880499 0.777556 0.443117
Si Si6 0.578750 0.631814 0.679870
Si Si7 0.825593 0.025944 0.234252
O O1 0.455175 0.414486 0.154107
O O2 0.558951 0.286797 0.307682
O O3 0.304520 0.411757 0.289536
O O4 0.391043 0.141532 0.206789
O O5 0.388559 0.630515 0.045409
O O6 0.268118 0.352673 0.030507
O O7 0.543733 0.350546 0.004160
O O8 0.249489 0.905860 0.116468
O O9 0.218142 0.611286 0.174046
O O10 0.299279 0.020653 0.782020
O O11 0.345298 0.814086 0.647156
O O12 0.003175 0.899631 0.411988
O O13 0.461660 0.583424 0.752306
O O14 0.638515 0.815040 0.678469
#
# Coordination Sequence:
#
# PCOD9313413 Si02
#       7
#     4   4   4   4   4   4   4
#     4  10  19  38  58  90 121 150 199 248 304 363
#     4  10  23  41  59  88 119 165 196 243 305 365
#     4  10  20  36  62  84 119 153 198 251 302 355
#     4  10  20  34  61  86 117 154 197 252 298 352
#     4  11  22  40  59  84 126 156 202 245 299 371
#     4  11  18  35  60  89 113 155 203 248 295 347
#     4  10  18  32  57  89 115 149 201 243 295 347
#
# _framework density 22.943518999999998
#
# number of rings (size 3 to 8) (size 9 to 14) (size 15 to 20)
#    0.000    1.714    5.714    1.714    0.000    3.429 
#    0.000    4.286    0.000    0.000    0.000    0.000 
#    0.000    0.000    0.000    0.000    0.000    0.000 
#
# Total GULP energy -155885.588692 kJ/mol
# GULP energy per Si atom -5567.342453 kJ/mol
# Density = 2.289130 g / cm^3
# Si number density = 22.943519 Si / 1000 Ang^3
#
#
#
# Elastic Constant Matrix: (Units=GPa)
#
#
# Indices 1 2 3 4 5 6 
#
# 1 48.6353 1.8415 1.6298 0.0000 0.0000 0.0000
# 2 1.8415 91.3965 -9.0482 0.0000 0.0000 0.0000
# 3 1.6298 -9.0482 12.4178 0.0000 0.0000 0.0000
# 4 0.0000 0.0000 0.0000 14.1465 0.0000 0.0000
# 5 0.0000 0.0000 0.0000 0.0000 35.2499 0.0000
# 6 0.0000 0.0000 0.0000 0.0000 0.0000 36.9637
#
#
#
# Elastic Compliance Matrix: (Units=1/GPa)
#
#
# Indices 1 2 3 4 5 6 
#
# 1 0.020698 -0.000739 -0.003255 0.000000 0.000000 0.000000
# 2 -0.000739 0.011818 0.008709 0.000000 0.000000 0.000000
# 3 -0.003255 0.008709 0.087302 0.000000 0.000000 0.000000
# 4 0.000000 0.000000 0.000000 0.070689 0.000000 0.000000
# 5 0.000000 0.000000 0.000000 0.000000 0.028369 0.000000
# 6 0.000000 0.000000 0.000000 0.000000 0.000000 0.027054
#
#
# Mechanical properties :
#
#
# Convention : Reuss Voigt Hill
#
# Bulk Modulus (GPa) = 7.73714 15.69955 11.71835
# Shear Modulus (GPa) = 17.88365 27.80711 22.84538
#
# Velocity S-wave (km/s) = 2.79492 3.48513 3.15893
# Velocity P-wave (km/s) = 3.71416 4.80129 4.29228
#
# Compressibility (1/GPa) = 0.12924669
#
# Stress axis : x y z
#
# Youngs Moduli (GPa) = 48.31321 84.61402 11.45443
#
# Poissons Ratio (x) = 0.06256 0.03729
# Poissons Ratio (y) = 0.03572 -0.09975
# Poissons Ratio (z) = 0.15728 -0.73686
#
# Static dielectric constant tensor:
#      x y z
#    x 1.989280 0.000000 0.000000 
#    y 0.000000 1.965030 0.000000 
#    z 0.000000 0.000000 1.877650 
# 
# From -- ./inp_files/6586.got.cif
#   From: 2010.05.17/outbox.cif.g08.bks.cpg/sg19_4_cif.got.tgz:6586.got - 2010.06.03 22:46:19.
