data_PCOD9313764
_publ_section_title
;
Structure prediction by ZEFSAII (Michael W. Deem and Ramdas Pophale) SiO2 
 PCOD9313764
Probable space group: P 21 21 21
;
_chemical_formula_sum "Si O2"
_cell_formula_units_Z 28
_cell_length_a 18.704286
_cell_length_b 13.238828
_cell_length_c 5.078127
_cell_angle_alpha 90.000000
_cell_angle_beta 90.000000
_cell_angle_gamma 90.000000
_cell_volume 1257.460155
_symmetry_space_group_name_H-M "P 21 21 21"
_symmetry_group_IT_number 19
_symmetry_cell_setting 'orthorhombic'
loop_
_space_group_symop_operation_xyz
x,y,z
1/2-x,-y,1/2+z
1/2+x,1/2-y,-z
-x,1/2+y,1/2-z
loop_
_atom_site_type_symbol
_atom_site_label
_atom_site_fract_x
_atom_site_fract_y
_atom_site_fract_z
Si Si1 0.841814 0.479337 0.298784
Si Si2 0.154486 0.567208 0.476526
Si Si3 0.877093 0.864782 0.268200
Si Si4 0.774703 0.376804 0.796437
Si Si5 0.041389 0.834526 0.307028
Si Si6 0.212880 0.375172 0.715998
Si Si7 0.107214 0.735919 0.807997
O O1 0.818621 0.447650 0.591734
O O2 0.807920 0.590693 0.259600
O O3 0.923190 0.444640 0.254347
O O4 0.798855 0.407903 0.090650
O O5 0.116774 0.485278 0.292350
O O6 0.205323 0.637867 0.298919
O O7 0.104554 0.626146 0.678123
O O8 0.205789 0.495749 0.654796
O O9 0.836707 0.848073 0.539095
O O10 0.957251 0.826159 0.269183
O O11 0.825572 0.826626 0.034642
O O12 0.809887 0.270331 0.724924
O O13 0.062910 0.805547 0.603386
O O14 0.078574 0.758942 0.097012
#
# Coordination Sequence:
#
# PCOD9313764 Si02
#       7
#     4   4   4   4   4   4   4
#     4   8  14  26  47  64  99 131 178 204 250 324
#     4  10  21  36  60  84 108 138 195 232 280 313
#     4  10  20  35  57  78 110 150 179 224 273 347
#     4   8  14  27  43  72  93 132 169 223 255 293
#     4  10  20  34  51  82 109 148 180 212 280 337
#     4  10  20  35  60  82 103 143 186 233 271 330
#     4  10  21  31  56  82 108 138 181 236 269 320
#
# _framework density 22.267109999999999
#
# number of rings (size 3 to 8) (size 9 to 14) (size 15 to 20)
#    0.857    1.714    1.429    0.857    2.000    0.000 
#    0.000    0.000    6.286    0.000   11.143    0.000 
#    0.000    0.000    0.000    0.000    0.000    0.000 
#
# Total GULP energy -156023.048582 kJ/mol
# GULP energy per Si atom -5572.251735 kJ/mol
# Density = 2.221643 g / cm^3
# Si number density = 22.267110 Si / 1000 Ang^3
#
#
#
# Elastic Constant Matrix: (Units=GPa)
#
#
# Indices 1 2 3 4 5 6 
#
# 1 100.4474 12.2737 36.1280 0.0000 0.0000 0.0000
# 2 12.2737 21.7324 10.9355 0.0000 0.0000 0.0000
# 3 36.1280 10.9355 121.0353 0.0000 0.0000 0.0000
# 4 0.0000 0.0000 0.0000 23.2440 0.0000 0.0000
# 5 0.0000 0.0000 0.0000 0.0000 21.0311 0.0000
# 6 0.0000 0.0000 0.0000 0.0000 0.0000 14.7051
#
#
#
# Elastic Compliance Matrix: (Units=1/GPa)
#
#
# Indices 1 2 3 4 5 6 
#
# 1 0.011662 -0.005065 -0.003023 0.000000 0.000000 0.000000
# 2 -0.005065 0.050406 -0.003042 0.000000 0.000000 0.000000
# 3 -0.003023 -0.003042 0.009439 0.000000 0.000000 0.000000
# 4 0.000000 0.000000 0.000000 0.043022 0.000000 0.000000
# 5 0.000000 0.000000 0.000000 0.000000 0.047549 0.000000
# 6 0.000000 0.000000 0.000000 0.000000 0.000000 0.068004
#
#
# Mechanical properties :
#
#
# Convention : Reuss Voigt Hill
#
# Bulk Modulus (GPa) = 20.30635 40.20996 30.25816
# Shear Modulus (GPa) = 18.60417 24.05457 21.32937
#
# Velocity S-wave (km/s) = 2.89364 3.29032 3.09833
# Velocity P-wave (km/s) = 4.50593 5.70369 5.13982
#
# Compressibility (1/GPa) = 0.04924568
#
# Stress axis : x y z
#
# Youngs Moduli (GPa) = 85.75052 19.83908 105.93937
#
# Poissons Ratio (x) = 0.10048 0.32029
# Poissons Ratio (y) = 0.43431 0.32230
# Poissons Ratio (z) = 0.25925 0.06036
#
# Static dielectric constant tensor:
#      x y z
#    x 1.818940 0.000000 0.000000 
#    y 0.000000 1.935640 0.000000 
#    z 0.000000 0.000000 1.829640 
# 
# From -- ./inp_files/1771.got.cif
#   From: 2010.05.17/outbox.cif.g08.bks.cpg/sg19_1_cif.got.tgz:1771.got - 2010.06.03 22:46:19.
