data_PCOD9313629
_publ_section_title
;
Structure prediction by ZEFSAII (Michael W. Deem and Ramdas Pophale) SiO2 
 PCOD9313629
Probable space group: P 21 21 21
;
_chemical_formula_sum "Si O2"
_cell_formula_units_Z 32
_cell_length_a 8.246798
_cell_length_b 11.352767
_cell_length_c 14.881188
_cell_angle_alpha 90.000000
_cell_angle_beta 90.000000
_cell_angle_gamma 90.000000
_cell_volume 1393.235991
_symmetry_space_group_name_H-M "P 21 21 21"
_symmetry_group_IT_number 19
_symmetry_cell_setting 'orthorhombic'
loop_
_space_group_symop_operation_xyz
x,y,z
1/2-x,-y,1/2+z
1/2+x,1/2-y,-z
-x,1/2+y,1/2-z
loop_
_atom_site_type_symbol
_atom_site_label
_atom_site_fract_x
_atom_site_fract_y
_atom_site_fract_z
Si Si1 0.770465 0.967640 0.536085
Si Si2 0.030377 0.992675 0.374569
Si Si3 0.273186 0.592528 0.201304
Si Si4 0.581374 0.903585 0.211441
Si Si5 0.136932 0.225639 0.284757
Si Si6 0.992503 0.352169 0.453031
Si Si7 0.860469 0.235395 0.143039
Si Si8 0.661430 0.304667 0.414842
O O1 0.918386 0.978709 0.465085
O O2 0.697647 0.837658 0.555894
O O3 0.835103 0.026871 0.628173
O O4 0.610206 0.044530 0.516707
O O5 0.133927 0.874531 0.368792
O O6 0.883615 0.007637 0.301931
O O7 0.136581 0.105943 0.344212
O O8 0.418028 0.500039 0.209933
O O9 0.261861 0.682744 0.283321
O O10 0.264256 0.681036 0.118633
O O11 0.689380 0.787324 0.229977
O O12 0.411713 0.867879 0.170601
O O13 0.037601 0.314270 0.351177
O O14 0.035672 0.208855 0.192138
O O15 0.803559 0.379591 0.457971
O O16 0.025768 0.238449 0.515904
#
# Coordination Sequence:
#
# PCOD9313629 Si02
#       8
#     4   4   4   4   4   4   4   4
#     4  10  22  40  64  92 134 167 216 275 329 397
#     4  11  19  40  66  93 132 169 215 271 328 400
#     4  10  21  41  62  95 132 170 216 279 332 387
#     4  10  22  40  62  95 129 168 224 281 323 392
#     4  10  19  36  66  94 119 167 224 272 329 384
#     4  11  20  37  64  97 123 163 217 277 329 386
#     4  10  21  38  67  89 125 182 215 260 335 405
#     4  12  22  38  65  97 132 170 215 279 343 385
#
# _framework density 22.968109999999999
#
# number of rings (size 3 to 8) (size 9 to 14) (size 15 to 20)
#    0.000    1.500    5.000    2.250    1.750    0.000 
#    4.500    6.250    0.000    0.000    0.000    0.000 
#    0.000    0.000    0.000    0.000    0.000    0.000 
#
# Total GULP energy -178268.531291 kJ/mol
# GULP energy per Si atom -5570.891603 kJ/mol
# Density = 2.291583 g / cm^3
# Si number density = 22.968110 Si / 1000 Ang^3
#
#
#
# Elastic Constant Matrix: (Units=GPa)
#
#
# Indices 1 2 3 4 5 6 
#
# 1 49.8786 26.0833 0.1556 0.0000 0.0000 0.0000
# 2 26.0833 133.3711 21.1087 0.0000 0.0000 0.0000
# 3 0.1556 21.1087 45.9180 0.0000 0.0000 0.0000
# 4 0.0000 0.0000 0.0000 28.1907 0.0000 0.0000
# 5 0.0000 0.0000 0.0000 0.0000 26.6487 0.0000
# 6 0.0000 0.0000 0.0000 0.0000 0.0000 26.1798
#
#
#
# Elastic Compliance Matrix: (Units=1/GPa)
#
#
# Indices 1 2 3 4 5 6 
#
# 1 0.022519 -0.004737 0.002101 0.000000 0.000000 0.000000
# 2 -0.004737 0.009082 -0.004159 0.000000 0.000000 0.000000
# 3 0.002101 -0.004159 0.023683 0.000000 0.000000 0.000000
# 4 0.000000 0.000000 0.000000 0.035473 0.000000 0.000000
# 5 0.000000 0.000000 0.000000 0.000000 0.037525 0.000000
# 6 0.000000 0.000000 0.000000 0.000000 0.000000 0.038197
#
#
# Mechanical properties :
#
#
# Convention : Reuss Voigt Hill
#
# Bulk Modulus (GPa) = 23.98364 35.98475 29.98420
# Shear Modulus (GPa) = 25.77753 28.32519 27.05136
#
# Velocity S-wave (km/s) = 3.35374 3.51556 3.43560
# Velocity P-wave (km/s) = 5.04594 5.67276 5.36851
#
# Compressibility (1/GPa) = 0.04169509
#
# Stress axis : x y z
#
# Youngs Moduli (GPa) = 44.40681 110.10205 42.22465
#
# Poissons Ratio (x) = 0.52151 -0.08872
# Poissons Ratio (y) = 0.21034 0.17562
# Poissons Ratio (z) = -0.09330 0.45794
#
# Static dielectric constant tensor:
#      x y z
#    x 1.875220 0.000000 0.000000 
#    y 0.000000 1.889880 0.000000 
#    z 0.000000 0.000000 1.970750 
# 
# From -- ./inp_files/6663.got.cif
#   From: 2010.05.17/outbox.cif.g08.bks.cpg/sg19_4_cif.got.tgz:6663.got - 2010.06.03 22:46:19.
