data_PCOD9313972
_publ_section_title
;
Structure prediction by ZEFSAII (Michael W. Deem and Ramdas Pophale) SiO2 
 PCOD9313972
Probable space group: P 21 21 21
;
_chemical_formula_sum "Si O2"
_cell_formula_units_Z 32
_cell_length_a 5.400162
_cell_length_b 9.036762
_cell_length_c 23.262467
_cell_angle_alpha 90.000000
_cell_angle_beta 90.000000
_cell_angle_gamma 90.000000
_cell_volume 1135.207895
_symmetry_space_group_name_H-M "P 21 21 21"
_symmetry_group_IT_number 19
_symmetry_cell_setting 'orthorhombic'
loop_
_space_group_symop_operation_xyz
x,y,z
1/2-x,-y,1/2+z
1/2+x,1/2-y,-z
-x,1/2+y,1/2-z
loop_
_atom_site_type_symbol
_atom_site_label
_atom_site_fract_x
_atom_site_fract_y
_atom_site_fract_z
Si Si1 0.612722 0.913582 0.165596
Si Si2 0.756855 0.867046 0.931573
Si Si3 0.873930 0.183711 0.886742
Si Si4 0.576568 0.357320 0.720182
Si Si5 0.244387 0.177378 0.454401
Si Si6 0.226846 0.170774 0.976910
Si Si7 0.065563 0.485988 0.711882
Si Si8 0.398356 0.960204 0.646076
O O1 0.563445 0.020551 0.220188
O O2 0.327240 0.920062 0.143552
O O3 0.830156 0.983840 0.126573
O O4 0.771604 0.788225 0.200656
O O5 0.491624 0.813543 0.914536
O O6 0.022622 0.810122 0.912532
O O7 0.766513 0.041365 0.920765
O O8 0.759087 0.806067 0.997984
O O9 0.718081 0.330931 0.892533
O O10 0.153804 0.195312 0.909860
O O11 0.860746 0.133933 0.820981
O O12 0.294343 0.375024 0.697516
O O13 0.563549 0.397178 0.788540
O O14 0.776549 0.473282 0.695428
O O15 0.252731 0.010755 0.482401
O O16 0.474655 0.253981 0.996971
#
# Coordination Sequence:
#
# PCOD9313972 Si02
#       8
#     4   4   4   4   4   4   4   4
#     4  10  20  39  58  88 130 165 199 247 313 361
#     4   9  19  34  64  86 117 150 198 261 293 356
#     4  11  23  43  63  95 121 160 223 255 305 386
#     4  10  20  39  58  87 123 161 205 246 308 363
#     4   9  18  38  59  89 115 156 198 242 318 360
#     4  11  24  41  64  90 126 166 203 261 326 380
#     4  10  22  35  62  90 119 164 205 253 299 363
#     4  10  22  35  62  89 121 164 201 255 302 365
#
# _framework density 28.188669999999998
#
# number of rings (size 3 to 8) (size 9 to 14) (size 15 to 20)
#    0.000    2.000    1.250    2.250    0.000    7.000 
#    0.000    3.750    0.000    4.500    0.000    0.000 
#    0.000    0.000    0.000    0.000    0.000    0.000 
#
# Total GULP energy -178486.590243 kJ/mol
# GULP energy per Si atom -5577.705945 kJ/mol
# Density = 2.812451 g / cm^3
# Si number density = 28.188670 Si / 1000 Ang^3
#
#
#
# Elastic Constant Matrix: (Units=GPa)
#
#
# Indices 1 2 3 4 5 6 
#
# 1 158.5530 -25.2213 2.5682 0.0000 0.0000 0.0000
# 2 -25.2213 61.4965 -3.3880 0.0000 0.0000 0.0000
# 3 2.5682 -3.3880 41.1976 0.0000 0.0000 0.0000
# 4 0.0000 0.0000 0.0000 42.6940 0.0000 0.0000
# 5 0.0000 0.0000 0.0000 0.0000 30.6512 0.0000
# 6 0.0000 0.0000 0.0000 0.0000 0.0000 38.6150
#
#
#
# Elastic Compliance Matrix: (Units=1/GPa)
#
#
# Indices 1 2 3 4 5 6 
#
# 1 0.006749 0.002757 -0.000194 0.000000 0.000000 0.000000
# 2 0.002757 0.017462 0.001264 0.000000 0.000000 0.000000
# 3 -0.000194 0.001264 0.024389 0.000000 0.000000 0.000000
# 4 0.000000 0.000000 0.000000 0.023423 0.000000 0.000000
# 5 0.000000 0.000000 0.000000 0.000000 0.032625 0.000000
# 6 0.000000 0.000000 0.000000 0.000000 0.000000 0.025897
#
#
# Mechanical properties :
#
#
# Convention : Reuss Voigt Hill
#
# Bulk Modulus (GPa) = 17.77645 23.24055 20.50850
# Shear Modulus (GPa) = 35.30057 41.54458 38.42257
#
# Velocity S-wave (km/s) = 3.54262 3.84318 3.69596
# Velocity P-wave (km/s) = 4.80140 5.28734 5.05022
#
# Compressibility (1/GPa) = 0.05625419
#
# Stress axis : x y z
#
# Youngs Moduli (GPa) = 148.17517 57.26882 41.00155
#
# Poissons Ratio (x) = -0.15790 0.00795
# Poissons Ratio (y) = -0.40854 -0.05183
# Poissons Ratio (z) = 0.02874 -0.07239
#
# Static dielectric constant tensor:
#      x y z
#    x 2.298330 0.000000 0.000000 
#    y 0.000000 2.327710 0.000000 
#    z 0.000000 0.000000 2.250460 
# 
# From -- ./inp_files/7545.got.cif
#   From: 2010.05.17/outbox.cif.g08.bks.cpg/sg19_4_cif.got.tgz:7545.got - 2010.06.03 22:46:19.
