data_PCOD9313925
_publ_section_title
;
Structure prediction by ZEFSAII (Michael W. Deem and Ramdas Pophale) SiO2 
 PCOD9313925
Probable space group: P 21 21 21
;
_chemical_formula_sum "Si O2"
_cell_formula_units_Z 32
_cell_length_a 8.777812
_cell_length_b 21.861741
_cell_length_c 7.938211
_cell_angle_alpha 90.000000
_cell_angle_beta 90.000000
_cell_angle_gamma 90.000000
_cell_volume 1523.328819
_symmetry_space_group_name_H-M "P 21 21 21"
_symmetry_group_IT_number 19
_symmetry_cell_setting 'orthorhombic'
loop_
_space_group_symop_operation_xyz
x,y,z
1/2-x,-y,1/2+z
1/2+x,1/2-y,-z
-x,1/2+y,1/2-z
loop_
_atom_site_type_symbol
_atom_site_label
_atom_site_fract_x
_atom_site_fract_y
_atom_site_fract_z
Si Si1 0.519605 0.622204 0.425762
Si Si2 0.396732 0.186366 0.397678
Si Si3 0.072578 0.130033 0.842140
Si Si4 0.813246 0.555682 0.345743
Si Si5 0.925921 0.748937 0.150116
Si Si6 0.756729 0.426982 0.455001
Si Si7 0.729512 0.156875 0.857617
Si Si8 0.196598 0.767313 0.391486
O O1 0.503544 0.654000 0.245075
O O2 0.635827 0.567088 0.397561
O O3 0.369812 0.609991 0.532355
O O4 0.605725 0.676230 0.526058
O O5 0.490336 0.242544 0.472534
O O6 0.224469 0.206737 0.343466
O O7 0.360259 0.133408 0.531699
O O8 0.145022 0.086456 0.700541
O O9 0.154991 0.196305 0.826362
O O10 0.894612 0.134355 0.812344
O O11 0.100471 0.103340 0.031505
O O12 0.849659 0.487389 0.404809
O O13 0.817287 0.565051 0.143125
O O14 0.860197 0.815516 0.200294
O O15 0.070235 0.736175 0.271292
O O16 0.750802 0.216411 0.977740
#
# Coordination Sequence:
#
# PCOD9313925 Si02
#       8
#     4   4   4   4   4   4   4   4
#     4   9  21  39  59  87 121 161 213 259 314 378
#     4  11  24  39  59  94 127 164 210 262 322 387
#     4  11  22  41  66  97 129 172 218 264 327 385
#     4  10  22  41  70  91 124 167 223 277 318 383
#     4  11  24  37  58  91 133 167 203 262 317 389
#     4  11  22  41  70  95 121 167 223 268 325 386
#     4  11  23  38  64  89 131 173 208 260 326 391
#     4  10  20  38  60  88 122 171 206 252 313 393
#
# _framework density 21.006626000000001
#
# number of rings (size 3 to 8) (size 9 to 14) (size 15 to 20)
#    0.000    1.500    3.750    1.500    7.000    0.000 
#    2.250    0.000    5.500    0.000    0.000    0.000 
#    0.000    0.000    0.000    0.000    0.000    0.000 
#
# Total GULP energy -178464.030082 kJ/mol
# GULP energy per Si atom -5577.000940 kJ/mol
# Density = 2.095881 g / cm^3
# Si number density = 21.006626 Si / 1000 Ang^3
#
#
#
# Elastic Constant Matrix: (Units=GPa)
#
#
# Indices 1 2 3 4 5 6 
#
# 1 63.0487 -13.5318 4.4654 0.0000 0.0000 0.0000
# 2 -13.5318 32.3133 -3.2060 0.0000 0.0000 0.0000
# 3 4.4654 -3.2060 56.5258 0.0000 0.0000 0.0000
# 4 0.0000 0.0000 0.0000 30.1638 0.0000 0.0000
# 5 0.0000 0.0000 0.0000 0.0000 32.1854 0.0000
# 6 0.0000 0.0000 0.0000 0.0000 0.0000 10.5926
#
#
#
# Elastic Compliance Matrix: (Units=1/GPa)
#
#
# Indices 1 2 3 4 5 6 
#
# 1 0.017480 0.007224 -0.000971 0.000000 0.000000 0.000000
# 2 0.007224 0.034107 0.001364 0.000000 0.000000 0.000000
# 3 -0.000971 0.001364 0.017845 0.000000 0.000000 0.000000
# 4 0.000000 0.000000 0.000000 0.033152 0.000000 0.000000
# 5 0.000000 0.000000 0.000000 0.000000 0.031070 0.000000
# 6 0.000000 0.000000 0.000000 0.000000 0.000000 0.094406
#
#
# Mechanical properties :
#
#
# Convention : Reuss Voigt Hill
#
# Bulk Modulus (GPa) = 11.81125 14.14923 12.98024
# Shear Modulus (GPa) = 20.74262 25.53236 23.13749
#
# Velocity S-wave (km/s) = 3.14575 3.49010 3.32239
# Velocity P-wave (km/s) = 4.33926 4.79493 4.57277
#
# Compressibility (1/GPa) = 0.08466507
#
# Stress axis : x y z
#
# Youngs Moduli (GPa) = 57.20847 29.31918 56.03776
#
# Poissons Ratio (x) = -0.21179 0.05442
# Poissons Ratio (y) = -0.41326 -0.07642
# Poissons Ratio (z) = 0.05556 -0.03999
#
# Static dielectric constant tensor:
#      x y z
#    x 1.771870 0.000000 0.000000 
#    y 0.000000 1.753220 0.000000 
#    z 0.000000 0.000000 1.843860 
# 
# From -- ./inp_files/3162.got.cif
#   From: 2010.05.17/outbox.cif.g08.bks.cpg/sg19_2_cif.got.tgz:3162.got - 2010.06.03 22:46:19.
