data_PCOD9313174
_publ_section_title
;
Structure prediction by ZEFSAII (Michael W. Deem and Ramdas Pophale) SiO2 
 PCOD9313174
Probable space group: P 21 21 2
;
_chemical_formula_sum "Si O2"
_cell_formula_units_Z 20
_cell_length_a 13.979432
_cell_length_b 6.957139
_cell_length_c 7.938634
_cell_angle_alpha 90.000000
_cell_angle_beta 90.000000
_cell_angle_gamma 90.000000
_cell_volume 772.086549
_symmetry_space_group_name_H-M "P 21 21 2"
_symmetry_group_IT_number 18
_symmetry_cell_setting 'orthorhombic'
loop_
_space_group_symop_operation_xyz
x,y,z
-x,-y,z
1/2+x,1/2-y,-z
1/2-x,1/2+y,-z
loop_
_atom_site_type_symbol
_atom_site_label
_atom_site_fract_x
_atom_site_fract_y
_atom_site_fract_z
Si Si1 0.891370 0.395443 0.743779
Si Si2 0.933035 0.182981 0.416122
Si Si3 0.511251 0.269631 0.942205
Si Si4 0.271653 0.868571 0.868344
Si Si5 0.750524 0.697735 0.758952
O O1 0.937638 0.321159 0.573791
O O2 0.791269 0.282591 0.767175
O O3 0.954514 0.331599 0.904703
O O4 0.856294 0.615243 0.727461
O O5 0.962491 0.273711 0.237401
O O6 0.823051 0.126450 0.381225
O O7 0.000000 0.000000 0.443581
O O8 0.500000 0.500000 0.968800
O O9 0.274705 0.381781 0.945248
O O10 0.259622 0.073336 0.778622
O O11 0.379223 0.797367 0.909405
#
# Coordination Sequence:
#
# PCOD9313174 Si02
#       5
#     4   4   4   4   4
#     4  12  26  51  79 121 164 214 278 341 417 504
#     4  11  26  49  78 120 160 214 273 345 412 496
#     4  11  24  52  85 121 166 220 278 351 425 493
#     4  12  25  51  83 116 166 219 278 341 416 495
#     4  12  26  49  80 117 160 225 267 339 417 488
#
# _framework density 25.903832000000001
#
# number of rings (size 3 to 8) (size 9 to 14) (size 15 to 20)
#    0.000    0.400    4.000    4.200    2.800    3.200 
#    3.600    4.000    0.000    0.000    0.000    0.000 
#    0.000    0.000    0.000    0.000    0.000    0.000 
#
# Total GULP energy -112099.340659 kJ/mol
# GULP energy per Si atom -5604.967033 kJ/mol
# Density = 2.584487 g / cm^3
# Si number density = 25.903832 Si / 1000 Ang^3
#
#
#
# Elastic Constant Matrix: (Units=GPa)
#
#
# Indices 1 2 3 4 5 6 
#
# 1 197.9353 98.3085 73.7157 0.0000 0.0000 0.0000
# 2 98.3085 180.0916 37.6962 0.0000 0.0000 0.0000
# 3 73.7157 37.6962 164.2556 0.0000 0.0000 0.0000
# 4 0.0000 0.0000 0.0000 -10.1257 0.0000 0.0000
# 5 0.0000 0.0000 0.0000 0.0000 18.0810 0.0000
# 6 0.0000 0.0000 0.0000 0.0000 0.0000 51.1067
#
#
#
# Elastic Compliance Matrix: (Units=1/GPa)
#
#
# Indices 1 2 3 4 5 6 
#
# 1 0.007923 -0.003761 -0.002693 0.000000 0.000000 0.000000
# 2 -0.003761 0.007619 -0.000060 0.000000 0.000000 0.000000
# 3 -0.002693 -0.000060 0.007310 0.000000 0.000000 0.000000
# 4 0.000000 0.000000 0.000000 -0.098759 0.000000 0.000000
# 5 0.000000 0.000000 0.000000 0.000000 0.055307 0.000000
# 6 0.000000 0.000000 0.000000 0.000000 0.000000 0.019567
#
#
# Mechanical properties :
#
#
# Convention : Reuss Voigt Hill
#
# Bulk Modulus (GPa) = 101.79844 106.85815 104.32830
# Shear Modulus (GPa) = 327.43783 33.98321 180.71052
#
# Velocity S-wave (km/s) = 11.25520 3.62594 8.36143
# Velocity P-wave (km/s) = 14.43226 7.67277 11.55771
#
# Compressibility (1/GPa) = 0.00982333
#
# Stress axis : x y z
#
# Youngs Moduli (GPa) = 126.21260 131.25623 136.79321
#
# Poissons Ratio (x) = 0.49372 0.36832
# Poissons Ratio (y) = 0.47475 0.00826
# Poissons Ratio (z) = 0.33983 0.00792
#
# Static dielectric constant tensor:
#      x y z
#    x 2.179920 0.000000 0.000000 
#    y 0.000000 2.098310 0.000000 
#    z 0.000000 0.000000 1.973140 
# 
# From -- ./inp_files/4433.got.cif
#   From: 2010.05.17/outbox.cif.g08.bks.cpg/sg18_3_cif.got.tgz:4433.got - 2010.06.03 22:40:56.
