data_PCOD9313305
_publ_section_title
;
Structure prediction by ZEFSAII (Michael W. Deem and Ramdas Pophale) SiO2 
 PCOD9313305
Probable space group: P 21 21 21
;
_chemical_formula_sum "Si O2"
_cell_formula_units_Z 32
_cell_length_a 15.369803
_cell_length_b 5.648015
_cell_length_c 12.684031
_cell_angle_alpha 90.000000
_cell_angle_beta 90.000000
_cell_angle_gamma 90.000000
_cell_volume 1101.086498
_symmetry_space_group_name_H-M "P 21 21 21"
_symmetry_group_IT_number 19
_symmetry_cell_setting 'orthorhombic'
loop_
_space_group_symop_operation_xyz
x,y,z
1/2-x,-y,1/2+z
1/2+x,1/2-y,-z
-x,1/2+y,1/2-z
loop_
_atom_site_type_symbol
_atom_site_label
_atom_site_fract_x
_atom_site_fract_y
_atom_site_fract_z
Si Si1 0.276245 0.582261 0.590727
Si Si2 0.791089 0.089722 0.137766
Si Si3 0.551008 0.177237 0.035173
Si Si4 0.237269 0.905334 0.911862
Si Si5 0.540427 0.108235 0.248149
Si Si6 0.826839 0.416577 0.365411
Si Si7 0.983091 0.959436 0.131496
Si Si8 0.089731 0.169006 0.543551
O O1 0.209309 0.594117 0.493227
O O2 0.370449 0.570415 0.531594
O O3 0.280299 0.336336 0.654602
O O4 0.278775 0.832900 0.650131
O O5 0.763575 0.363715 0.155252
O O6 0.734488 0.846429 0.148353
O O7 0.888448 0.019292 0.177268
O O8 0.592221 0.229718 0.150163
O O9 0.502974 0.339952 0.952827
O O10 0.467136 0.045847 0.086176
O O11 0.162190 0.927875 0.002505
O O12 0.318564 0.886370 0.993769
O O13 0.467030 0.320539 0.261801
O O14 0.588156 0.144955 0.361547
O O15 0.923412 0.432987 0.312958
O O16 0.967322 0.732057 0.059486
#
# Coordination Sequence:
#
# PCOD9313305 Si02
#       8
#     4   4   4   4   4   4   4   4
#     4   9  17  27  38  53  75  99 128 158 188 221
#     4   9  17  26  38  56  73  98 129 156 186 229
#     4  10  17  27  40  53  78 103 133 158 190 221
#     4   9  17  27  38  53  75  99 128 158 188 221
#     4  10  20  28  38  56  76 100 138 164 182 218
#     4   9  17  26  38  56  73  98 129 156 186 229
#     4  10  16  26  40  56  76 102 130 154 194 226
#     4  10  17  27  40  53  78 103 133 158 190 221
#
# _framework density 29.062207999999998
#
# number of rings (size 3 to 8) (size 9 to 14) (size 15 to 20)
#    0.000    2.500    3.750    0.000    0.000    0.000 
#    0.000    0.000    0.000    0.000    0.000    0.000 
#    0.000    0.000    0.000   45.000    0.000    0.000 
#
# Total GULP energy -178211.051230 kJ/mol
# GULP energy per Si atom -5569.095351 kJ/mol
# Density = 2.899606 g / cm^3
# Si number density = 29.062208 Si / 1000 Ang^3
#
#
#
# Elastic Constant Matrix: (Units=GPa)
#
#
# Indices 1 2 3 4 5 6 
#
# 1 77.0406 -3.3566 -30.2089 0.0000 0.0000 0.0000
# 2 -3.3566 193.0365 28.1841 0.0000 0.0000 0.0000
# 3 -30.2089 28.1841 53.2410 0.0000 0.0000 0.0000
# 4 0.0000 0.0000 0.0000 47.3038 0.0000 0.0000
# 5 0.0000 0.0000 0.0000 0.0000 15.2935 0.0000
# 6 0.0000 0.0000 0.0000 0.0000 0.0000 20.6743
#
#
#
# Elastic Compliance Matrix: (Units=1/GPa)
#
#
# Indices 1 2 3 4 5 6 
#
# 1 0.016948 -0.001202 0.010253 0.000000 0.000000 0.000000
# 2 -0.001202 0.005700 -0.003699 0.000000 0.000000 0.000000
# 3 0.010253 -0.003699 0.026558 0.000000 0.000000 0.000000
# 4 0.000000 0.000000 0.000000 0.021140 0.000000 0.000000
# 5 0.000000 0.000000 0.000000 0.000000 0.065387 0.000000
# 6 0.000000 0.000000 0.000000 0.000000 0.000000 0.048369
#
#
# Mechanical properties :
#
#
# Convention : Reuss Voigt Hill
#
# Bulk Modulus (GPa) = 16.69221 34.72836 25.71028
# Shear Modulus (GPa) = 25.85725 38.56762 32.21244
#
# Velocity S-wave (km/s) = 2.98605 3.64685 3.33287
# Velocity P-wave (km/s) = 4.20057 5.45053 4.86585
#
# Compressibility (1/GPa) = 0.05990820
#
# Stress axis : x y z
#
# Youngs Moduli (GPa) = 59.00383 175.45154 37.65313
#
# Poissons Ratio (x) = 0.21093 -0.38605
# Poissons Ratio (y) = 0.07094 0.13929
# Poissons Ratio (z) = -0.60495 0.64905
#
# Static dielectric constant tensor:
#      x y z
#    x 2.431300 0.000000 0.000000 
#    y 0.000000 2.558110 0.000000 
#    z 0.000000 0.000000 2.389030 
# 
# From -- ./inp_files/1604.got.cif
#   From: 2010.05.17/outbox.cif.g08.bks.cpg/sg19_1_cif.got.tgz:1604.got - 2010.06.03 22:46:19.
