data_PCOD9313923
_publ_section_title
;
Structure prediction by ZEFSAII (Michael W. Deem and Ramdas Pophale) SiO2 
 PCOD9313923
Probable space group: P 21 21 21
;
_chemical_formula_sum "Si O2"
_cell_formula_units_Z 32
_cell_length_a 11.642674
_cell_length_b 8.327943
_cell_length_c 17.744162
_cell_angle_alpha 90.000000
_cell_angle_beta 90.000000
_cell_angle_gamma 90.000000
_cell_volume 1720.465527
_symmetry_space_group_name_H-M "P 21 21 21"
_symmetry_group_IT_number 19
_symmetry_cell_setting 'orthorhombic'
loop_
_space_group_symop_operation_xyz
x,y,z
1/2-x,-y,1/2+z
1/2+x,1/2-y,-z
-x,1/2+y,1/2-z
loop_
_atom_site_type_symbol
_atom_site_label
_atom_site_fract_x
_atom_site_fract_y
_atom_site_fract_z
Si Si1 0.832996 0.173588 0.398785
Si Si2 0.124612 0.016329 0.023530
Si Si3 0.747093 0.991818 0.099562
Si Si4 0.619027 0.978241 0.748109
Si Si5 0.836862 0.326682 0.048439
Si Si6 0.533690 0.264229 0.846978
Si Si7 0.989432 0.030194 0.526744
Si Si8 0.609811 0.138729 0.477255
O O1 0.841495 0.354499 0.430830
O O2 0.857946 0.155811 0.311271
O O3 0.924428 0.071651 0.447963
O O4 0.708674 0.099294 0.417693
O O5 0.102590 0.163034 0.081761
O O6 0.225342 0.062501 0.965141
O O7 0.001906 0.973059 0.985752
O O8 0.782368 0.004918 0.185744
O O9 0.789025 0.147235 0.052315
O O10 0.612496 0.980677 0.086239
O O11 0.821958 0.855392 0.057448
O O12 0.510047 0.918360 0.699938
O O13 0.600017 0.142026 0.793641
O O14 0.918197 0.326352 0.122648
O O15 0.927008 0.379524 0.983994
O O16 0.064780 0.185658 0.542660
#
# Coordination Sequence:
#
# PCOD9313923 Si02
#       8
#     4   4   4   4   4   4   4   4
#     4  10  21  36  64  85 116 155 198 246 295 353
#     4  11  21  37  61  91 119 150 197 251 297 355
#     4  10  23  37  60  89 122 154 196 251 300 362
#     4  11  22  38  59  84 125 158 198 240 309 359
#     4  11  20  36  61  91 115 151 194 249 301 342
#     4  11  23  37  58  89 122 157 193 249 299 363
#     4  10  20  38  60  87 116 154 196 248 296 343
#     4  10  20  39  59  88 115 151 202 248 291 347
#
# _framework density 18.599616999999999
#
# number of rings (size 3 to 8) (size 9 to 14) (size 15 to 20)
#    0.000    1.500    5.000    1.500    3.500    0.000 
#    0.000    0.000    8.250    0.000    0.000    0.000 
#    0.000    0.000    0.000    0.000    0.000    0.000 
#
# Total GULP energy -178342.543892 kJ/mol
# GULP energy per Si atom -5573.204497 kJ/mol
# Density = 1.855728 g / cm^3
# Si number density = 18.599617 Si / 1000 Ang^3
#
#
#
# Elastic Constant Matrix: (Units=GPa)
#
#
# Indices 1 2 3 4 5 6 
#
# 1 88.7789 14.3863 5.3348 0.0000 0.0000 0.0000
# 2 14.3863 66.4203 4.7098 0.0000 0.0000 0.0000
# 3 5.3348 4.7098 41.3702 0.0000 0.0000 0.0000
# 4 0.0000 0.0000 0.0000 27.0416 0.0000 0.0000
# 5 0.0000 0.0000 0.0000 0.0000 21.7797 0.0000
# 6 0.0000 0.0000 0.0000 0.0000 0.0000 32.1884
#
#
#
# Elastic Compliance Matrix: (Units=1/GPa)
#
#
# Indices 1 2 3 4 5 6 
#
# 1 0.011736 -0.002454 -0.001234 0.000000 0.000000 0.000000
# 2 -0.002454 0.015691 -0.001470 0.000000 0.000000 0.000000
# 3 -0.001234 -0.001470 0.024498 0.000000 0.000000 0.000000
# 4 0.000000 0.000000 0.000000 0.036980 0.000000 0.000000
# 5 0.000000 0.000000 0.000000 0.000000 0.045914 0.000000
# 6 0.000000 0.000000 0.000000 0.000000 0.000000 0.031067
#
#
# Mechanical properties :
#
#
# Convention : Reuss Voigt Hill
#
# Bulk Modulus (GPa) = 24.03311 27.27012 25.65162
# Shear Modulus (GPa) = 26.30561 27.67784 26.99172
#
# Velocity S-wave (km/s) = 3.76481 3.86176 3.81359
# Velocity P-wave (km/s) = 5.64338 5.88028 5.76305
#
# Compressibility (1/GPa) = 0.04160926
#
# Stress axis : x y z
#
# Youngs Moduli (GPa) = 85.20929 63.72882 40.81888
#
# Poissons Ratio (x) = 0.15642 0.05037
# Poissons Ratio (y) = 0.20914 0.06000
# Poissons Ratio (z) = 0.10514 0.09368
#
# Static dielectric constant tensor:
#      x y z
#    x 1.657370 0.000000 0.000000 
#    y 0.000000 1.718990 0.000000 
#    z 0.000000 0.000000 1.632150 
# 
# From -- ./inp_files/3711.got.cif
#   From: 2010.05.17/outbox.cif.g08.bks.cpg/sg19_2_cif.got.tgz:3711.got - 2010.06.03 22:46:19.
