data_PCOD9313018
_publ_section_title
;
Structure prediction by ZEFSAII (Michael W. Deem and Ramdas Pophale) SiO2 
 PCOD9313018
Probable space group: P 21 21 2
;
_chemical_formula_sum "Si O2"
_cell_formula_units_Z 20
_cell_length_a 10.388703
_cell_length_b 15.149722
_cell_length_c 5.403958
_cell_angle_alpha 90.000000
_cell_angle_beta 90.000000
_cell_angle_gamma 90.000000
_cell_volume 850.507131
_symmetry_space_group_name_H-M "P 21 21 2"
_symmetry_group_IT_number 18
_symmetry_cell_setting 'orthorhombic'
loop_
_space_group_symop_operation_xyz
x,y,z
-x,-y,z
1/2+x,1/2-y,-z
1/2-x,1/2+y,-z
loop_
_atom_site_type_symbol
_atom_site_label
_atom_site_fract_x
_atom_site_fract_y
_atom_site_fract_z
Si Si1 0.595270 0.677765 0.564321
Si Si2 0.133649 0.390110 0.658256
Si Si3 0.271780 0.052366 0.054742
Si Si4 0.939221 0.283423 0.931600
Si Si5 0.000000 0.500000 0.302587
Si Si6 0.500000 0.500000 0.807707
O O1 0.749892 0.667736 0.562841
O O2 0.554823 0.716208 0.299917
O O3 0.537352 0.582532 0.634533
O O4 0.562362 0.736836 0.804302
O O5 0.188329 0.486804 0.723300
O O6 0.063238 0.345989 0.890752
O O7 0.025044 0.412443 0.461861
O O8 0.313688 0.153233 0.096027
O O9 0.121401 0.031845 0.027277
O O10 0.369127 0.018653 0.844840
#
# Coordination Sequence:
#
# PCOD9313018 Si02
#       6
#     4   4   4   4   2   2
#     4  11  30  46  75 107 159 194 262 318 390 460
#     4  11  25  46  72 111 147 200 259 314 384 463
#     4  11  24  46  78 109 155 204 258 317 395 471
#     4  12  25  47  75 114 143 203 255 326 372 466
#     4  12  20  46  82 106 148 208 258 314 368 486
#     4  10  28  54  68 114 160 218 244 330 412 474
#
# _framework density 23.515384000000001
#
# number of rings (size 3 to 8) (size 9 to 14) (size 15 to 20)
#    0.000    0.800    4.000    1.200   11.200    0.800 
#    3.600    0.000    0.000    0.000    0.000    0.000 
#    0.000    0.000    0.000    0.000    0.000    0.000 
#
# Total GULP energy -111849.195933 kJ/mol
# GULP energy per Si atom -5592.459797 kJ/mol
# Density = 2.346186 g / cm^3
# Si number density = 23.515384 Si / 1000 Ang^3
#
#
#
# Elastic Constant Matrix: (Units=GPa)
#
#
# Indices 1 2 3 4 5 6 
#
# 1 126.2871 31.4260 16.1406 0.0000 0.0000 0.0000
# 2 31.4260 127.7505 40.7794 0.0000 0.0000 0.0000
# 3 16.1406 40.7794 96.1167 0.0000 0.0000 0.0000
# 4 0.0000 0.0000 0.0000 12.0665 0.0000 0.0000
# 5 0.0000 0.0000 0.0000 0.0000 13.3773 0.0000
# 6 0.0000 0.0000 0.0000 0.0000 0.0000 35.8861
#
#
#
# Elastic Compliance Matrix: (Units=1/GPa)
#
#
# Indices 1 2 3 4 5 6 
#
# 1 0.008467 -0.001884 -0.000622 0.000000 0.000000 0.000000
# 2 -0.001884 0.009473 -0.003703 0.000000 0.000000 0.000000
# 3 -0.000622 -0.003703 0.012080 0.000000 0.000000 0.000000
# 4 0.000000 0.000000 0.000000 0.082874 0.000000 0.000000
# 5 0.000000 0.000000 0.000000 0.000000 0.074754 0.000000
# 6 0.000000 0.000000 0.000000 0.000000 0.000000 0.027866
#
#
# Mechanical properties :
#
#
# Convention : Reuss Voigt Hill
#
# Bulk Modulus (GPa) = 56.81531 58.53849 57.67690
# Shear Modulus (GPa) = 21.38592 29.71987 25.55289
#
# Velocity S-wave (km/s) = 3.01897 3.55892 3.30001
# Velocity P-wave (km/s) = 6.03039 6.46805 6.25305
#
# Compressibility (1/GPa) = 0.01760089
#
# Stress axis : x y z
#
# Youngs Moduli (GPa) = 118.10734 105.56069 82.78463
#
# Poissons Ratio (x) = 0.19889 0.05153
# Poissons Ratio (y) = 0.22253 0.30654
# Poissons Ratio (z) = 0.07351 0.39087
#
# Static dielectric constant tensor:
#      x y z
#    x 1.913670 0.000000 0.000000 
#    y 0.000000 1.936900 0.000000 
#    z 0.000000 0.000000 1.898750 
# 
# From -- ./inp_files/986.got.cif
#   From: 2010.05.17/outbox.cif.g08.bks.cpg/sg18_1_cif.got.tgz:986.got - 2010.06.03 22:40:56.
