data_PCOD9313644
_publ_section_title
;
Structure prediction by ZEFSAII (Michael W. Deem and Ramdas Pophale) SiO2 
 PCOD9313644
Probable space group: P 21 21 21
;
_chemical_formula_sum "Si O2"
_cell_formula_units_Z 32
_cell_length_a 16.328212
_cell_length_b 17.849137
_cell_length_c 5.237788
_cell_angle_alpha 90.000000
_cell_angle_beta 90.000000
_cell_angle_gamma 90.000000
_cell_volume 1526.524468
_symmetry_space_group_name_H-M "P 21 21 21"
_symmetry_group_IT_number 19
_symmetry_cell_setting 'orthorhombic'
loop_
_space_group_symop_operation_xyz
x,y,z
1/2-x,-y,1/2+z
1/2+x,1/2-y,-z
-x,1/2+y,1/2-z
loop_
_atom_site_type_symbol
_atom_site_label
_atom_site_fract_x
_atom_site_fract_y
_atom_site_fract_z
Si Si1 0.999862 0.686426 0.961773
Si Si2 0.993955 0.586432 0.461035
Si Si3 0.835791 0.261600 0.668324
Si Si4 0.717615 0.906184 0.253732
Si Si5 0.165067 0.029725 0.250067
Si Si6 0.353118 0.484858 0.752602
Si Si7 0.202294 0.887657 0.494239
Si Si8 0.677664 0.331849 0.385054
O O1 0.013829 0.624616 0.733158
O O2 0.076484 0.742904 0.955290
O O3 0.906883 0.714099 0.902009
O O4 0.999824 0.650277 0.242831
O O5 0.054498 0.523187 0.348062
O O6 0.903934 0.551977 0.452623
O O7 0.800698 0.181099 0.749027
O O8 0.851378 0.323183 0.885869
O O9 0.758384 0.297452 0.519060
O O10 0.691557 0.935650 0.530447
O O11 0.811334 0.933905 0.227935
O O12 0.668049 0.947516 0.021981
O O13 0.258360 0.049130 0.176180
O O14 0.153287 0.089202 0.481233
O O15 0.158155 0.941257 0.294907
O O16 0.283981 0.846480 0.391255
#
# Coordination Sequence:
#
# PCOD9313644 Si02
#       8
#     4   4   4   4   4   4   4   4
#     4  11  23  41  65  94 131 169 223 268 322 419
#     4  11  20  38  67  93 118 171 222 271 324 384
#     4  11  24  39  65  97 130 181 213 275 345 402
#     4  10  21  36  61  90 127 164 213 260 319 392
#     4  10  21  38  64  88 122 163 232 271 317 395
#     4  10  19  37  61  91 122 166 215 264 308 386
#     4  11  21  39  63  93 124 173 220 279 334 382
#     4  10  23  40  64  92 126 175 216 270 335 392
#
# _framework density 20.962653
#
# number of rings (size 3 to 8) (size 9 to 14) (size 15 to 20)
#    0.000    1.500    5.000    0.000    3.500    0.000 
#    0.000    2.500    0.000    0.000    0.000    0.000 
#    0.000    0.000    0.000    0.000    0.000    0.000 
#
# Total GULP energy -178180.246518 kJ/mol
# GULP energy per Si atom -5568.132704 kJ/mol
# Density = 2.091494 g / cm^3
# Si number density = 20.962653 Si / 1000 Ang^3
#
#
#
# Elastic Constant Matrix: (Units=GPa)
#
#
# Indices 1 2 3 4 5 6 
#
# 1 116.0549 28.4866 10.3519 0.0000 0.0000 0.0000
# 2 28.4866 78.5307 10.8454 0.0000 0.0000 0.0000
# 3 10.3519 10.8454 68.1176 0.0000 0.0000 0.0000
# 4 0.0000 0.0000 0.0000 14.6493 0.0000 0.0000
# 5 0.0000 0.0000 0.0000 0.0000 24.9531 0.0000
# 6 0.0000 0.0000 0.0000 0.0000 0.0000 33.9762
#
#
#
# Elastic Compliance Matrix: (Units=1/GPa)
#
#
# Indices 1 2 3 4 5 6 
#
# 1 0.009514 -0.003325 -0.000917 0.000000 0.000000 0.000000
# 2 -0.003325 0.014182 -0.001753 0.000000 0.000000 0.000000
# 3 -0.000917 -0.001753 0.015099 0.000000 0.000000 0.000000
# 4 0.000000 0.000000 0.000000 0.068263 0.000000 0.000000
# 5 0.000000 0.000000 0.000000 0.000000 0.040075 0.000000
# 6 0.000000 0.000000 0.000000 0.000000 0.000000 0.029432
#
#
# Mechanical properties :
#
#
# Convention : Reuss Voigt Hill
#
# Bulk Modulus (GPa) = 37.30341 40.23010 38.76675
# Shear Modulus (GPa) = 25.31783 28.91700 27.11741
#
# Velocity S-wave (km/s) = 3.47905 3.71813 3.60058
# Velocity P-wave (km/s) = 5.82857 6.13723 5.98489
#
# Compressibility (1/GPa) = 0.02680720
#
# Stress axis : x y z
#
# Youngs Moduli (GPa) = 105.10328 70.51209 66.23025
#
# Poissons Ratio (x) = 0.23443 0.06071
# Poissons Ratio (y) = 0.34944 0.11608
# Poissons Ratio (z) = 0.09634 0.12359
#
# Static dielectric constant tensor:
#      x y z
#    x 1.835010 0.000000 0.000000 
#    y 0.000000 1.778860 0.000000 
#    z 0.000000 0.000000 1.851700 
# 
# From -- ./inp_files/1590.got.cif
#   From: 2010.05.17/outbox.cif.g08.bks.cpg/sg19_1_cif.got.tgz:1590.got - 2010.06.03 22:46:19.
