data_PCOD9313381
_publ_section_title
;
Structure prediction by ZEFSAII (Michael W. Deem and Ramdas Pophale) SiO2 
 PCOD9313381
Probable space group: P 21 21 21
;
_chemical_formula_sum "Si O2"
_cell_formula_units_Z 28
_cell_length_a 25.709692
_cell_length_b 5.136559
_cell_length_c 13.327190
_cell_angle_alpha 90.000000
_cell_angle_beta 90.000000
_cell_angle_gamma 90.000000
_cell_volume 1759.980046
_symmetry_space_group_name_H-M "P 21 21 21"
_symmetry_group_IT_number 19
_symmetry_cell_setting 'orthorhombic'
loop_
_space_group_symop_operation_xyz
x,y,z
1/2-x,-y,1/2+z
1/2+x,1/2-y,-z
-x,1/2+y,1/2-z
loop_
_atom_site_type_symbol
_atom_site_label
_atom_site_fract_x
_atom_site_fract_y
_atom_site_fract_z
Si Si1 0.919604 0.463963 0.580404
Si Si2 0.686296 0.738427 0.997917
Si Si3 0.972729 0.973627 0.626656
Si Si4 0.247524 0.189895 0.693161
Si Si5 0.254983 0.736172 0.424101
Si Si6 0.689384 0.818963 0.383610
Si Si7 0.920243 0.269083 0.793992
O O1 0.872416 0.354843 0.515258
O O2 0.941396 0.751796 0.567300
O O3 0.902408 0.440655 0.697704
O O4 0.965952 0.252876 0.574910
O O5 0.720878 0.515243 0.049468
O O6 0.702285 0.012421 0.049175
O O7 0.704266 0.737526 0.882202
O O8 0.031314 0.894083 0.648704
O O9 0.944424 0.019265 0.735066
O O10 0.259753 0.251664 0.808113
O O11 0.204894 0.400633 0.659007
O O12 0.223505 0.903780 0.673109
O O13 0.207630 0.689858 0.500901
O O14 0.628987 0.776238 0.362973
#
# Coordination Sequence:
#
# PCOD9313381 Si02
#       7
#     4   4   4   4   4   4   4
#     4  10  18  29  44  67  89 124 151 189 234 280
#     4  10  20  31  49  69  95 124 165 188 239 280
#     4  10  20  28  45  66  96 122 154 191 239 277
#     4  10  20  34  47  71  97 127 156 204 223 286
#     4  10  19  34  45  72  94 124 161 198 228 290
#     4  10  22  29  52  69  94 132 160 182 251 280
#     4  10  19  31  44  68  97 123 153 194 234 293
#
# _framework density 15.909272
#
# number of rings (size 3 to 8) (size 9 to 14) (size 15 to 20)
#    0.857    1.143    1.429    3.429    4.000    0.000 
#    0.000    0.000    0.000    0.000    0.000    2.000 
#    0.000    0.000    0.000    0.000    0.000    0.000 
#
# Total GULP energy -155926.475907 kJ/mol
# GULP energy per Si atom -5568.802711 kJ/mol
# Density = 1.587306 g / cm^3
# Si number density = 15.909272 Si / 1000 Ang^3
#
#
#
# Elastic Constant Matrix: (Units=GPa)
#
#
# Indices 1 2 3 4 5 6 
#
# 1 56.3541 -17.1399 9.8858 0.0000 0.0000 0.0000
# 2 -17.1399 39.8693 -2.4688 0.0000 0.0000 0.0000
# 3 9.8858 -2.4688 72.1979 0.0000 0.0000 0.0000
# 4 0.0000 0.0000 0.0000 11.3652 0.0000 0.0000
# 5 0.0000 0.0000 0.0000 0.0000 15.2075 0.0000
# 6 0.0000 0.0000 0.0000 0.0000 0.0000 14.3832
#
#
#
# Elastic Compliance Matrix: (Units=1/GPa)
#
#
# Indices 1 2 3 4 5 6 
#
# 1 0.020875 0.008816 -0.002557 0.000000 0.000000 0.000000
# 2 0.008816 0.028858 -0.000220 0.000000 0.000000 0.000000
# 3 -0.002557 -0.000220 0.014193 0.000000 0.000000 0.000000
# 4 0.000000 0.000000 0.000000 0.087988 0.000000 0.000000
# 5 0.000000 0.000000 0.000000 0.000000 0.065757 0.000000
# 6 0.000000 0.000000 0.000000 0.000000 0.000000 0.069525
#
#
# Mechanical properties :
#
#
# Convention : Reuss Voigt Hill
#
# Bulk Modulus (GPa) = 13.15728 16.55284 14.85506
# Shear Modulus (GPa) = 16.64149 20.06747 18.35448
#
# Velocity S-wave (km/s) = 3.23774 3.55543 3.40030
# Velocity P-wave (km/s) = 4.71863 5.22321 4.97731
#
# Compressibility (1/GPa) = 0.07600353
#
# Stress axis : x y z
#
# Youngs Moduli (GPa) = 47.90478 34.65221 70.45538
#
# Poissons Ratio (x) = -0.30549 0.18014
# Poissons Ratio (y) = -0.42232 0.01552
# Poissons Ratio (z) = 0.12249 0.00763
#
# Static dielectric constant tensor:
#      x y z
#    x 1.521130 0.000000 0.000000 
#    y 0.000000 1.569430 0.000000 
#    z 0.000000 0.000000 1.534120 
# 
# From -- ./inp_files/2155.got.cif
#   From: 2010.05.17/outbox.cif.g08.bks.cpg/sg19_2_cif.got.tgz:2155.got - 2010.06.03 22:46:19.
