data_PCOD9313122
_publ_section_title
;
Structure prediction by ZEFSAII (Michael W. Deem and Ramdas Pophale) SiO2 
 PCOD9313122
Probable space group: P 21 21 2
;
_chemical_formula_sum "Si O2"
_cell_formula_units_Z 30
_cell_length_a 20.652725
_cell_length_b 6.504839
_cell_length_c 10.495836
_cell_angle_alpha 90.000000
_cell_angle_beta 90.000000
_cell_angle_gamma 90.000000
_cell_volume 1410.038433
_symmetry_space_group_name_H-M "P 21 21 2"
_symmetry_group_IT_number 18
_symmetry_cell_setting 'orthorhombic'
loop_
_space_group_symop_operation_xyz
x,y,z
-x,-y,z
1/2+x,1/2-y,-z
1/2-x,1/2+y,-z
loop_
_atom_site_type_symbol
_atom_site_label
_atom_site_fract_x
_atom_site_fract_y
_atom_site_fract_z
Si Si1 0.157818 0.049436 0.945049
Si Si2 0.054233 0.823484 0.100478
Si Si3 0.561359 0.351605 0.270479
Si Si4 0.000000 0.500000 0.902584
Si Si5 0.871205 0.343028 0.311327
Si Si6 0.846659 0.649737 0.530811
Si Si7 0.775035 0.960132 0.340221
Si Si8 0.295164 0.860793 0.879545
O O1 0.228816 0.966693 0.918603
O O2 0.113643 0.036908 0.820293
O O3 0.120979 0.924798 0.054469
O O4 0.166133 0.279696 0.998325
O O5 0.064320 0.739619 0.242854
O O6 0.000000 0.000000 0.093656
O O7 0.038707 0.647306 0.999030
O O8 0.500000 0.500000 0.292785
O O9 0.538780 0.153734 0.189279
O O10 0.598736 0.275743 0.395146
O O11 0.877604 0.481145 0.436656
O O12 0.822920 0.154531 0.338143
O O13 0.837656 0.488088 0.205660
O O14 0.796873 0.536707 0.626293
O O15 0.802016 0.803536 0.447371
O O16 0.777983 0.835302 0.208647
#
# Coordination Sequence:
#
# PCOD9313122 Si02
#       8
#     4   4   4   2   4   4   4   4
#     4  12  23  44  69 111 143 179 232 296 368 439
#     4  12  25  46  72 101 143 187 238 293 355 427
#     4  12  27  47  72 106 148 194 239 301 358 443
#     4  12  24  48  72 102 138 196 232 288 378 416
#     4  11  24  47  70 103 138 189 243 291 350 426
#     4  11  26  43  75 104 143 192 242 293 363 425
#     4  11  23  45  70 105 140 186 234 297 357 420
#     4  11  26  40  71 110 141 181 228 303 366 427
#
# _framework density 21.276017
#
# number of rings (size 3 to 8) (size 9 to 14) (size 15 to 20)
#    0.000    0.533    5.333    2.400    5.600    1.067 
#    0.000    4.000    0.000    0.000    0.000    0.000 
#    0.000    0.000    0.000    0.000    0.000    0.000 
#
# Total GULP energy -167905.684910 kJ/mol
# GULP energy per Si atom -5596.856164 kJ/mol
# Density = 2.122759 g / cm^3
# Si number density = 21.276017 Si / 1000 Ang^3
#
#
#
# Elastic Constant Matrix: (Units=GPa)
#
#
# Indices 1 2 3 4 5 6 
#
# 1 47.6293 16.5983 23.7594 0.0000 0.0000 0.0000
# 2 16.5983 86.6769 21.2158 0.0000 0.0000 0.0000
# 3 23.7594 21.2158 67.9706 0.0000 0.0000 0.0000
# 4 0.0000 0.0000 0.0000 39.2196 0.0000 0.0000
# 5 0.0000 0.0000 0.0000 0.0000 32.5289 0.0000
# 6 0.0000 0.0000 0.0000 0.0000 0.0000 29.9958
#
#
#
# Elastic Compliance Matrix: (Units=1/GPa)
#
#
# Indices 1 2 3 4 5 6 
#
# 1 0.026129 -0.002997 -0.008198 0.000000 0.000000 0.000000
# 2 -0.002997 0.012835 -0.002959 0.000000 0.000000 0.000000
# 3 -0.008198 -0.002959 0.018501 0.000000 0.000000 0.000000
# 4 0.000000 0.000000 0.000000 0.025497 0.000000 0.000000
# 5 0.000000 0.000000 0.000000 0.000000 0.030742 0.000000
# 6 0.000000 0.000000 0.000000 0.000000 0.000000 0.033338
#
#
# Mechanical properties :
#
#
# Convention : Reuss Voigt Hill
#
# Bulk Modulus (GPa) = 34.29547 36.15820 35.22683
# Shear Modulus (GPa) = 27.01670 29.72909 28.37289
#
# Velocity S-wave (km/s) = 3.56732 3.74211 3.65576
# Velocity P-wave (km/s) = 5.75517 5.97519 5.86621
#
# Compressibility (1/GPa) = 0.02915837
#
# Stress axis : x y z
#
# Youngs Moduli (GPa) = 38.27093 77.91067 54.04982
#
# Poissons Ratio (x) = 0.23350 0.44311
# Poissons Ratio (y) = 0.11470 0.15991
# Poissons Ratio (z) = 0.31375 0.23051
#
# Static dielectric constant tensor:
#      x y z
#    x 1.730300 0.000000 0.000000 
#    y 0.000000 1.803220 0.000000 
#    z 0.000000 0.000000 1.761660 
# 
# From -- ./inp_files/6283.got.cif
#   From: 2010.05.17/outbox.cif.g08.bks.cpg/sg18_4_cif.got.tgz:6283.got - 2010.06.03 22:40:56.
