data_PCOD9313643
_publ_section_title
;
Structure prediction by ZEFSAII (Michael W. Deem and Ramdas Pophale) SiO2 
 PCOD9313643
Probable space group: P 21 21 21
;
_chemical_formula_sum "Si O2"
_cell_formula_units_Z 32
_cell_length_a 15.104270
_cell_length_b 8.637700
_cell_length_c 11.766150
_cell_angle_alpha 90.000000
_cell_angle_beta 90.000000
_cell_angle_gamma 90.000000
_cell_volume 1535.084326
_symmetry_space_group_name_H-M "P 21 21 21"
_symmetry_group_IT_number 19
_symmetry_cell_setting 'orthorhombic'
loop_
_space_group_symop_operation_xyz
x,y,z
1/2-x,-y,1/2+z
1/2+x,1/2-y,-z
-x,1/2+y,1/2-z
loop_
_atom_site_type_symbol
_atom_site_label
_atom_site_fract_x
_atom_site_fract_y
_atom_site_fract_z
Si Si1 0.802890 0.118703 0.509954
Si Si2 0.926126 0.279918 0.673200
Si Si3 0.185186 0.150784 0.599024
Si Si4 0.464943 0.211347 0.579611
Si Si5 0.419587 0.860718 0.309659
Si Si6 0.854338 0.529148 0.313332
Si Si7 0.928731 0.506075 0.087422
Si Si8 0.892504 0.809377 0.454592
O O1 0.842192 0.180708 0.629772
O O2 0.712374 0.204157 0.480523
O O3 0.872228 0.194635 0.419833
O O4 0.820807 0.938612 0.492846
O O5 0.904592 0.455562 0.703702
O O6 0.983632 0.190805 0.765630
O O7 0.982210 0.300054 0.555408
O O8 0.147407 0.211498 0.717984
O O9 0.115534 0.042560 0.532898
O O10 0.270296 0.044040 0.623362
O O11 0.534006 0.328294 0.631536
O O12 0.512835 0.107098 0.927697
O O13 0.444349 0.050183 0.637223
O O14 0.405018 0.802681 0.436746
O O15 0.855551 0.472805 0.182737
O O16 0.859064 0.707529 0.349303
#
# Coordination Sequence:
#
# PCOD9313643 Si02
#       8
#     4   4   4   4   4   4   4   4
#     4   8  19  39  57  80 136 153 197 260 312 378
#     4  10  19  37  61  89 124 165 203 262 309 375
#     4  11  23  40  59  97 128 170 201 268 338 370
#     4   8  17  39  55  84 118 161 207 247 311 370
#     4  12  21  37  70  94 125 166 220 266 317 391
#     4  11  23  38  67  90 130 168 212 270 318 388
#     4  11  22  41  66  90 125 170 220 262 319 392
#     4  11  22  43  65  96 120 171 226 257 314 392
#
# _framework density 20.845759000000001
#
# number of rings (size 3 to 8) (size 9 to 14) (size 15 to 20)
#    0.750    1.000    2.500    2.250    3.500    0.000 
#    2.250    3.750    0.000    0.000    0.000    0.000 
#    0.000    0.000    0.000    0.000    0.000    0.000 
#
# Total GULP energy -178171.978510 kJ/mol
# GULP energy per Si atom -5567.874328 kJ/mol
# Density = 2.079831 g / cm^3
# Si number density = 20.845759 Si / 1000 Ang^3
#
#
#
# Elastic Constant Matrix: (Units=GPa)
#
#
# Indices 1 2 3 4 5 6 
#
# 1 44.0031 7.8451 0.7680 0.0000 0.0000 0.0000
# 2 7.8451 70.1487 6.0462 0.0000 0.0000 0.0000
# 3 0.7680 6.0462 67.7289 0.0000 0.0000 0.0000
# 4 0.0000 0.0000 0.0000 26.2211 0.0000 0.0000
# 5 0.0000 0.0000 0.0000 0.0000 18.8251 0.0000
# 6 0.0000 0.0000 0.0000 0.0000 0.0000 17.9287
#
#
#
# Elastic Compliance Matrix: (Units=1/GPa)
#
#
# Indices 1 2 3 4 5 6 
#
# 1 0.023188 -0.002591 -0.000032 0.000000 0.000000 0.000000
# 2 -0.002591 0.014655 -0.001279 0.000000 0.000000 0.000000
# 3 -0.000032 -0.001279 0.014879 0.000000 0.000000 0.000000
# 4 0.000000 0.000000 0.000000 0.038137 0.000000 0.000000
# 5 0.000000 0.000000 0.000000 0.000000 0.053121 0.000000
# 6 0.000000 0.000000 0.000000 0.000000 0.000000 0.055777
#
#
# Mechanical properties :
#
#
# Convention : Reuss Voigt Hill
#
# Bulk Modulus (GPa) = 22.26155 23.46658 22.86407
# Shear Modulus (GPa) = 22.46860 23.74307 23.10583
#
# Velocity S-wave (km/s) = 3.28662 3.37855 3.33290
# Velocity P-wave (km/s) = 5.01048 5.14793 5.07967
#
# Compressibility (1/GPa) = 0.04492050
#
# Stress axis : x y z
#
# Youngs Moduli (GPa) = 43.12564 68.23434 67.20756
#
# Poissons Ratio (x) = 0.17676 0.00213
# Poissons Ratio (y) = 0.11172 0.08595
# Poissons Ratio (z) = 0.00137 0.08727
#
# Static dielectric constant tensor:
#      x y z
#    x 1.803560 0.000000 0.000000 
#    y 0.000000 1.779910 0.000000 
#    z 0.000000 0.000000 1.802580 
# 
# From -- ./inp_files/5403.got.cif
#   From: 2010.05.17/outbox.cif.g08.bks.cpg/sg19_3_cif.got.tgz:5403.got - 2010.06.03 22:46:19.
