data_PCOD9313320
_publ_section_title
;
Structure prediction by ZEFSAII (Michael W. Deem and Ramdas Pophale) SiO2 
 PCOD9313320
Probable space group: P 21 21 21
;
_chemical_formula_sum "Si O2"
_cell_formula_units_Z 32
_cell_length_a 7.454748
_cell_length_b 14.085570
_cell_length_c 12.124428
_cell_angle_alpha 90.000000
_cell_angle_beta 90.000000
_cell_angle_gamma 90.000000
_cell_volume 1273.117982
_symmetry_space_group_name_H-M "P 21 21 21"
_symmetry_group_IT_number 19
_symmetry_cell_setting 'orthorhombic'
loop_
_space_group_symop_operation_xyz
x,y,z
1/2-x,-y,1/2+z
1/2+x,1/2-y,-z
-x,1/2+y,1/2-z
loop_
_atom_site_type_symbol
_atom_site_label
_atom_site_fract_x
_atom_site_fract_y
_atom_site_fract_z
Si Si1 0.852337 0.660547 0.933993
Si Si2 0.847511 0.466582 0.579164
Si Si3 0.495357 0.204661 0.725210
Si Si4 0.421500 0.438393 0.259946
Si Si5 0.462652 0.742376 0.344248
Si Si6 0.849550 0.861428 0.016651
Si Si7 0.701481 0.885671 0.791766
Si Si8 0.134863 0.848155 0.451422
O O1 0.766986 0.625197 0.048425
O O2 0.686906 0.672147 0.843990
O O3 0.994786 0.590145 0.877974
O O4 0.929700 0.763450 0.964199
O O5 0.927322 0.497193 0.695975
O O6 0.020050 0.450924 0.500891
O O7 0.718172 0.549274 0.543338
O O8 0.652453 0.167396 0.644731
O O9 0.466008 0.318446 0.741529
O O10 0.498719 0.159985 0.846804
O O11 0.434617 0.336682 0.196359
O O12 0.248572 0.508763 0.252021
O O13 0.373223 0.675385 0.252499
O O14 0.293963 0.779355 0.413897
O O15 0.572342 0.681283 0.429439
O O16 0.699600 0.884337 0.925023
#
# Coordination Sequence:
#
# PCOD9313320 Si02
#       8
#     4   4   4   4   4   4   4   4
#     4  10  16  32  52  77 105 139 183 240 285 340
#     4   9  18  30  54  82 102 142 196 233 286 349
#     4   9  17  33  50  70 109 144 173 231 296 328
#     4  10  17  32  52  80 105 141 191 236 280 340
#     4  10  19  35  57  82 111 149 194 237 295 342
#     4   9  17  30  53  78 101 138 183 232 285 334
#     4   9  17  32  53  77 102 142 184 231 284 341
#     4  10  19  36  55  82 115 153 188 244 291 350
#
# _framework density 25.135141000000001
#
# number of rings (size 3 to 8) (size 9 to 14) (size 15 to 20)
#    0.000    2.500    5.000    0.750    0.000    0.000 
#    0.000   11.250    0.000    0.000    0.000    0.000 
#    0.000    0.000    0.000    0.000    0.000    0.000 
#
# Total GULP energy -178397.624341 kJ/mol
# GULP energy per Si atom -5574.925761 kJ/mol
# Density = 2.507793 g / cm^3
# Si number density = 25.135141 Si / 1000 Ang^3
#
#
#
# Elastic Constant Matrix: (Units=GPa)
#
#
# Indices 1 2 3 4 5 6 
#
# 1 45.8297 5.0596 18.9859 0.0000 0.0000 0.0000
# 2 5.0596 87.5496 41.3257 0.0000 0.0000 0.0000
# 3 18.9859 41.3257 120.2592 0.0000 0.0000 0.0000
# 4 0.0000 0.0000 0.0000 33.1221 0.0000 0.0000
# 5 0.0000 0.0000 0.0000 0.0000 39.7568 0.0000
# 6 0.0000 0.0000 0.0000 0.0000 0.0000 23.7790
#
#
#
# Elastic Compliance Matrix: (Units=1/GPa)
#
#
# Indices 1 2 3 4 5 6 
#
# 1 0.023363 0.000467 -0.003849 0.000000 0.000000 0.000000
# 2 0.000467 0.013643 -0.004762 0.000000 0.000000 0.000000
# 3 -0.003849 -0.004762 0.010559 0.000000 0.000000 0.000000
# 4 0.000000 0.000000 0.000000 0.030191 0.000000 0.000000
# 5 0.000000 0.000000 0.000000 0.000000 0.025153 0.000000
# 6 0.000000 0.000000 0.000000 0.000000 0.000000 0.042054
#
#
# Mechanical properties :
#
#
# Convention : Reuss Voigt Hill
#
# Bulk Modulus (GPa) = 31.97248 42.70898 37.34073
# Shear Modulus (GPa) = 29.12448 31.88274 30.50361
#
# Velocity S-wave (km/s) = 3.40768 3.56540 3.48743
# Velocity P-wave (km/s) = 5.31328 5.82907 5.57714
#
# Compressibility (1/GPa) = 0.03127690
#
# Stress axis : x y z
#
# Youngs Moduli (GPa) = 42.80308 73.29846 94.70284
#
# Poissons Ratio (x) = -0.03419 0.36448
# Poissons Ratio (y) = -0.01997 0.45096
# Poissons Ratio (z) = 0.16474 0.34904
#
# Static dielectric constant tensor:
#      x y z
#    x 2.114970 0.000000 0.000000 
#    y 0.000000 1.991730 0.000000 
#    z 0.000000 0.000000 2.038820 
# 
# From -- ./inp_files/5101.got.cif
#   From: 2010.05.17/outbox.cif.g08.bks.cpg/sg19_3_cif.got.tgz:5101.got - 2010.06.03 22:46:19.
