data_PCOD9313177
_publ_section_title
;
Structure prediction by ZEFSAII (Michael W. Deem and Ramdas Pophale) SiO2 
 PCOD9313177
Probable space group: P 21 21 2
;
_chemical_formula_sum "Si O2"
_cell_formula_units_Z 18
_cell_length_a 4.889328
_cell_length_b 16.919983
_cell_length_c 9.010909
_cell_angle_alpha 90.000000
_cell_angle_beta 90.000000
_cell_angle_gamma 90.000000
_cell_volume 745.448592
_symmetry_space_group_name_H-M "P 21 21 2"
_symmetry_group_IT_number 18
_symmetry_cell_setting 'orthorhombic'
loop_
_space_group_symop_operation_xyz
x,y,z
-x,-y,z
1/2+x,1/2-y,-z
1/2-x,1/2+y,-z
loop_
_atom_site_type_symbol
_atom_site_label
_atom_site_fract_x
_atom_site_fract_y
_atom_site_fract_z
Si Si1 0.391817 0.760091 0.592724
Si Si2 0.359206 0.084558 0.704319
Si Si3 0.000000 0.000000 0.469310
Si Si4 0.841328 0.416143 0.959343
Si Si5 0.826343 0.118077 0.233718
O O1 0.078719 0.742961 0.556030
O O2 0.437376 0.846941 0.655489
O O3 0.533798 0.694979 0.695417
O O4 0.140770 0.065288 0.575475
O O5 0.500000 0.000000 0.718235
O O6 0.272747 0.106394 0.871220
O O7 0.798144 0.051053 0.362860
O O8 0.557046 0.415429 0.875452
O O9 0.000000 0.500000 0.959833
O O10 0.055182 0.365108 0.861441
#
# Coordination Sequence:
#
# PCOD9313177 Si02
#       5
#     4   4   2   4   4
#     4  12  26  46  71 108 142 182 242 305 352 420
#     4  11  28  45  74 103 146 190 241 295 365 427
#     4  12  24  44  76 104 136 192 240 286 358 424
#     4  11  25  45  69 105 146 191 234 295 354 430
#     4  12  25  44  75 103 144 186 242 290 360 422
#
# _framework density 24.146538
#
# number of rings (size 3 to 8) (size 9 to 14) (size 15 to 20)
#    0.000    0.444    4.444    2.667    9.333    1.778 
#    0.000    0.000    0.000    0.000    0.000    0.000 
#    0.000    0.000    0.000    0.000    0.000    0.000 
#
# Total GULP energy -100733.120860 kJ/mol
# GULP energy per Si atom -5596.284492 kJ/mol
# Density = 2.409158 g / cm^3
# Si number density = 24.146538 Si / 1000 Ang^3
#
#
#
# Elastic Constant Matrix: (Units=GPa)
#
#
# Indices 1 2 3 4 5 6 
#
# 1 103.3493 -5.1451 44.3505 0.0000 0.0000 0.0000
# 2 -5.1451 94.4399 23.7238 0.0000 0.0000 0.0000
# 3 44.3505 23.7238 156.9278 0.0000 0.0000 0.0000
# 4 0.0000 0.0000 0.0000 124.8058 0.0000 0.0000
# 5 0.0000 0.0000 0.0000 0.0000 9.8821 0.0000
# 6 0.0000 0.0000 0.0000 0.0000 0.0000 23.1359
#
#
#
# Elastic Compliance Matrix: (Units=1/GPa)
#
#
# Indices 1 2 3 4 5 6 
#
# 1 0.011202 0.001461 -0.003387 0.000000 0.000000 0.000000
# 2 0.001461 0.011197 -0.002106 0.000000 0.000000 0.000000
# 3 -0.003387 -0.002106 0.007648 0.000000 0.000000 0.000000
# 4 0.000000 0.000000 0.000000 0.008012 0.000000 0.000000
# 5 0.000000 0.000000 0.000000 0.000000 0.101193 0.000000
# 6 0.000000 0.000000 0.000000 0.000000 0.000000 0.043223
#
#
# Mechanical properties :
#
#
# Convention : Reuss Voigt Hill
#
# Bulk Modulus (GPa) = 45.48682 53.39727 49.44205
# Shear Modulus (GPa) = 25.26958 51.01727 38.14342
#
# Velocity S-wave (km/s) = 3.23849 4.60153 3.97881
# Velocity P-wave (km/s) = 5.73258 7.09887 6.45199
#
# Compressibility (1/GPa) = 0.02198439
#
# Stress axis : x y z
#
# Youngs Moduli (GPa) = 89.26957 89.30717 130.75582
#
# Poissons Ratio (x) = -0.13048 0.44284
# Poissons Ratio (y) = -0.13043 0.27533
# Poissons Ratio (z) = 0.30233 0.18805
#
# Static dielectric constant tensor:
#      x y z
#    x 1.891140 0.000000 0.000000 
#    y 0.000000 1.940860 0.000000 
#    z 0.000000 0.000000 2.002080 
# 
# From -- ./inp_files/2439.got.cif
#   From: 2010.05.17/outbox.cif.g08.bks.cpg/sg18_2_cif.got.tgz:2439.got - 2010.06.03 22:40:56.
