data_PCOD9313539
_publ_section_title
;
Structure prediction by ZEFSAII (Michael W. Deem and Ramdas Pophale) SiO2 
 PCOD9313539
Probable space group: P 21 21 21
;
_chemical_formula_sum "Si O2"
_cell_formula_units_Z 32
_cell_length_a 13.520655
_cell_length_b 6.411408
_cell_length_c 19.115072
_cell_angle_alpha 90.000000
_cell_angle_beta 90.000000
_cell_angle_gamma 90.000000
_cell_volume 1657.017459
_symmetry_space_group_name_H-M "P 21 21 21"
_symmetry_group_IT_number 19
_symmetry_cell_setting 'orthorhombic'
loop_
_space_group_symop_operation_xyz
x,y,z
1/2-x,-y,1/2+z
1/2+x,1/2-y,-z
-x,1/2+y,1/2-z
loop_
_atom_site_type_symbol
_atom_site_label
_atom_site_fract_x
_atom_site_fract_y
_atom_site_fract_z
Si Si1 0.898207 0.515496 0.074815
Si Si2 0.362807 0.312994 0.208826
Si Si3 0.803571 0.257376 0.946364
Si Si4 0.421735 0.714987 0.532880
Si Si5 0.060598 0.405296 0.511402
Si Si6 0.085164 0.312884 0.781711
Si Si7 0.782494 0.427061 0.668359
Si Si8 0.580902 0.874551 0.088941
O O1 0.822272 0.503105 0.138363
O O2 0.999175 0.386951 0.085816
O O3 0.847077 0.413388 0.005123
O O4 0.923674 0.752948 0.054259
O O5 0.349114 0.227073 0.131053
O O6 0.363629 0.563235 0.217982
O O7 0.473132 0.251065 0.234026
O O8 0.284126 0.216232 0.262493
O O9 0.686106 0.275958 0.941119
O O10 0.839599 0.028331 0.971319
O O11 0.405166 0.531937 0.475667
O O12 0.478345 0.915379 0.501309
O O13 0.017013 0.258886 0.572376
O O14 0.077344 0.476121 0.844878
O O15 0.148793 0.120882 0.810023
O O16 0.833730 0.291954 0.606536
#
# Coordination Sequence:
#
# PCOD9313539 Si02
#       8
#     4   4   4   4   4   4   4   4
#     4  10  22  39  62  87 120 163 204 250 307 357
#     4  11  23  35  58  87 122 159 199 248 311 366
#     4  11  22  37  60  91 122 156 203 253 306 359
#     4  10  21  37  58  87 122 152 202 254 297 350
#     4  10  20  35  60  88 120 150 196 246 302 358
#     4  11  21  36  55  86 122 155 195 247 301 368
#     4  11  22  38  60  85 127 161 205 241 306 371
#     4  10  19  33  59  89 117 160 188 243 302 355
#
# _framework density 19.311806000000001
#
# number of rings (size 3 to 8) (size 9 to 14) (size 15 to 20)
#    0.000    1.500    1.250    6.000    1.750    5.000 
#    0.000    0.000    5.500    0.000    0.000    0.000 
#    0.000    0.000    0.000    0.000    0.000    0.000 
#
# Total GULP energy -178558.063111 kJ/mol
# GULP energy per Si atom -5579.939472 kJ/mol
# Density = 1.926785 g / cm^3
# Si number density = 19.311806 Si / 1000 Ang^3
#
#
#
# Elastic Constant Matrix: (Units=GPa)
#
#
# Indices 1 2 3 4 5 6 
#
# 1 89.8409 19.4127 6.7239 0.0000 0.0000 0.0000
# 2 19.4127 87.1350 13.0096 0.0000 0.0000 0.0000
# 3 6.7239 13.0096 35.3160 0.0000 0.0000 0.0000
# 4 0.0000 0.0000 0.0000 21.4904 0.0000 0.0000
# 5 0.0000 0.0000 0.0000 0.0000 31.1012 0.0000
# 6 0.0000 0.0000 0.0000 0.0000 0.0000 20.1925
#
#
#
# Elastic Compliance Matrix: (Units=1/GPa)
#
#
# Indices 1 2 3 4 5 6 
#
# 1 0.011754 -0.002418 -0.001347 0.000000 0.000000 0.000000
# 2 -0.002418 0.012642 -0.004197 0.000000 0.000000 0.000000
# 3 -0.001347 -0.004197 0.030118 0.000000 0.000000 0.000000
# 4 0.000000 0.000000 0.000000 0.046532 0.000000 0.000000
# 5 0.000000 0.000000 0.000000 0.000000 0.032153 0.000000
# 6 0.000000 0.000000 0.000000 0.000000 0.000000 0.049523
#
#
# Mechanical properties :
#
#
# Convention : Reuss Voigt Hill
#
# Bulk Modulus (GPa) = 25.91280 32.28714 29.09997
# Shear Modulus (GPa) = 23.63964 26.09987 24.86975
#
# Velocity S-wave (km/s) = 3.50251 3.68026 3.59249
# Velocity P-wave (km/s) = 5.45931 5.90036 5.68411
#
# Compressibility (1/GPa) = 0.03859097
#
# Stress axis : x y z
#
# Youngs Moduli (GPa) = 85.07740 79.10387 33.20251
#
# Poissons Ratio (x) = 0.19123 0.04473
# Poissons Ratio (y) = 0.20567 0.13934
# Poissons Ratio (z) = 0.11463 0.33197
#
# Static dielectric constant tensor:
#      x y z
#    x 1.677820 0.000000 0.000000 
#    y 0.000000 1.734010 0.000000 
#    z 0.000000 0.000000 1.678950 
# 
# From -- ./inp_files/1159.got.cif
#   From: 2010.05.17/outbox.cif.g08.bks.cpg/sg19_1_cif.got.tgz:1159.got - 2010.06.03 22:46:19.
