data_PCOD9313619
_publ_section_title
;
Structure prediction by ZEFSAII (Michael W. Deem and Ramdas Pophale) SiO2 
 PCOD9313619
Probable space group: P 21 21 21
;
_chemical_formula_sum "Si O2"
_cell_formula_units_Z 32
_cell_length_a 16.312275
_cell_length_b 11.429994
_cell_length_c 8.856155
_cell_angle_alpha 90.000000
_cell_angle_beta 90.000000
_cell_angle_gamma 90.000000
_cell_volume 1651.223062
_symmetry_space_group_name_H-M "P 21 21 21"
_symmetry_group_IT_number 19
_symmetry_cell_setting 'orthorhombic'
loop_
_space_group_symop_operation_xyz
x,y,z
1/2-x,-y,1/2+z
1/2+x,1/2-y,-z
-x,1/2+y,1/2-z
loop_
_atom_site_type_symbol
_atom_site_label
_atom_site_fract_x
_atom_site_fract_y
_atom_site_fract_z
Si Si1 0.163657 0.224527 0.442654
Si Si2 0.220127 0.410539 0.660741
Si Si3 0.570047 0.425680 0.060096
Si Si4 0.133345 0.998791 0.618755
Si Si5 0.290949 0.849098 0.623502
Si Si6 0.790699 0.145549 0.025672
Si Si7 0.454324 0.224542 0.087564
Si Si8 0.538525 0.143214 0.378880
O O1 0.226099 0.307521 0.535275
O O2 0.178443 0.222195 0.266894
O O3 0.075015 0.274489 0.491464
O O4 0.166293 0.092727 0.501921
O O5 0.229972 0.534534 0.578727
O O6 0.122899 0.397019 0.706922
O O7 0.280416 0.393729 0.801127
O O8 0.600438 0.434520 0.233590
O O9 0.530548 0.299160 0.027972
O O10 0.504267 0.529463 0.052016
O O11 0.643781 0.438875 0.943689
O O12 0.207988 0.915746 0.667555
O O13 0.066399 0.910043 0.547309
O O14 0.270180 0.754826 0.495127
O O15 0.876796 0.197978 0.965208
O O16 0.475970 0.208209 0.266150
#
# Coordination Sequence:
#
# PCOD9313619 Si02
#       8
#     4   4   4   4   4   4   4   4
#     4  10  20  40  59  87 124 160 211 254 314 378
#     4  10  21  38  65  91 125 168 208 263 319 385
#     4  11  19  40  62  86 122 163 214 259 321 371
#     4  10  21  36  62  87 117 164 213 251 325 380
#     4  11  23  36  62  91 126 162 208 271 311 376
#     4  11  21  37  63  97 122 164 215 260 323 378
#     4  10  19  36  62  87 117 166 207 259 314 387
#     4   9  20  37  65  84 119 171 206 255 315 389
#
# _framework density 19.379574000000002
#
# number of rings (size 3 to 8) (size 9 to 14) (size 15 to 20)
#    0.750    1.000    2.500    3.000    0.000    1.000 
#    2.250    0.000   13.750    0.000    0.000    0.000 
#    0.000    0.000    0.000    0.000    0.000    0.000 
#
# Total GULP energy -178162.875181 kJ/mol
# GULP energy per Si atom -5567.589849 kJ/mol
# Density = 1.933546 g / cm^3
# Si number density = 19.379574 Si / 1000 Ang^3
#
#
#
# Elastic Constant Matrix: (Units=GPa)
#
#
# Indices 1 2 3 4 5 6 
#
# 1 57.3367 16.1815 6.3946 0.0000 0.0000 0.0000
# 2 16.1815 62.1046 4.9724 0.0000 0.0000 0.0000
# 3 6.3946 4.9724 29.7123 0.0000 0.0000 0.0000
# 4 0.0000 0.0000 0.0000 18.7480 0.0000 0.0000
# 5 0.0000 0.0000 0.0000 0.0000 23.3290 0.0000
# 6 0.0000 0.0000 0.0000 0.0000 0.0000 19.6943
#
#
#
# Elastic Compliance Matrix: (Units=1/GPa)
#
#
# Indices 1 2 3 4 5 6 
#
# 1 0.019145 -0.004722 -0.003330 0.000000 0.000000 0.000000
# 2 -0.004722 0.017485 -0.001910 0.000000 0.000000 0.000000
# 3 -0.003330 -0.001910 0.034692 0.000000 0.000000 0.000000
# 4 0.000000 0.000000 0.000000 0.053339 0.000000 0.000000
# 5 0.000000 0.000000 0.000000 0.000000 0.042865 0.000000
# 6 0.000000 0.000000 0.000000 0.000000 0.000000 0.050776
#
#
# Mechanical properties :
#
#
# Convention : Reuss Voigt Hill
#
# Bulk Modulus (GPa) = 19.45569 22.69449 21.07509
# Shear Modulus (GPa) = 19.58032 20.46129 20.02080
#
# Velocity S-wave (km/s) = 3.18206 3.25286 3.21766
# Velocity P-wave (km/s) = 4.85405 5.08371 4.97020
#
# Compressibility (1/GPa) = 0.05139886
#
# Stress axis : x y z
#
# Youngs Moduli (GPa) = 52.23366 57.19190 28.82479
#
# Poissons Ratio (x) = 0.27004 0.09599
# Poissons Ratio (y) = 0.24663 0.05505
# Poissons Ratio (z) = 0.17394 0.10923
#
# Static dielectric constant tensor:
#      x y z
#    x 1.708040 0.000000 0.000000 
#    y 0.000000 1.688540 0.000000 
#    z 0.000000 0.000000 1.652790 
# 
# From -- ./inp_files/4241.got.cif
#   From: 2010.05.17/outbox.cif.g08.bks.cpg/sg19_3_cif.got.tgz:4241.got - 2010.06.03 22:46:19.
