data_PCOD9313118
_publ_section_title
;
Structure prediction by ZEFSAII (Michael W. Deem and Ramdas Pophale) SiO2 
 PCOD9313118
Probable space group: P 21 21 2
;
_chemical_formula_sum "Si O2"
_cell_formula_units_Z 16
_cell_length_a 12.263361
_cell_length_b 4.640594
_cell_length_c 10.878890
_cell_angle_alpha 90.000000
_cell_angle_beta 90.000000
_cell_angle_gamma 90.000000
_cell_volume 619.109791
_symmetry_space_group_name_H-M "P 21 21 2"
_symmetry_group_IT_number 18
_symmetry_cell_setting 'orthorhombic'
loop_
_space_group_symop_operation_xyz
x,y,z
-x,-y,z
1/2+x,1/2-y,-z
1/2-x,1/2+y,-z
loop_
_atom_site_type_symbol
_atom_site_label
_atom_site_fract_x
_atom_site_fract_y
_atom_site_fract_z
Si Si1 0.500000 0.000000 0.464098
Si Si2 0.000000 0.500000 0.124064
Si Si3 0.805886 0.458360 0.700146
Si Si4 0.677231 0.700720 0.034890
Si Si5 0.343588 0.027061 0.668977
O O1 0.593064 0.103591 0.370879
O O2 0.577116 0.843593 0.564342
O O3 0.087722 0.376172 0.221857
O O4 0.069961 0.712854 0.040216
O O5 0.840176 0.293313 0.823942
O O6 0.721988 0.711404 0.726076
O O7 0.740104 0.215751 0.622147
O O8 0.783611 0.876514 0.985697
#
# Coordination Sequence:
#
# PCOD9313118 Si02
#       5
#     2   2   4   4   4
#     4  11  27  44  74 100 137 183 232 288 340 395
#     4  11  23  44  68  98 137 179 224 264 354 387
#     4  12  24  48  67 104 140 179 231 283 342 403
#     4  12  24  43  69 103 136 175 227 277 332 411
#     4  11  26  44  71 100 138 183 230 279 341 414
#
# _framework density 25.843556
#
# number of rings (size 3 to 8) (size 9 to 14) (size 15 to 20)
#    0.000    0.500    5.000    2.250    0.000   10.000 
#    0.000    5.000    0.000    0.000    0.000    0.000 
#    0.000    0.000    0.000    0.000    0.000    0.000 
#
# Total GULP energy -89397.793488 kJ/mol
# GULP energy per Si atom -5587.362093 kJ/mol
# Density = 2.578474 g / cm^3
# Si number density = 25.843556 Si / 1000 Ang^3
#
#
#
# Elastic Constant Matrix: (Units=GPa)
#
#
# Indices 1 2 3 4 5 6 
#
# 1 124.6303 25.5308 52.0886 0.0000 0.0000 0.0000
# 2 25.5308 68.1070 -0.8409 0.0000 0.0000 0.0000
# 3 52.0886 -0.8409 134.8440 0.0000 0.0000 0.0000
# 4 0.0000 0.0000 0.0000 12.8583 0.0000 0.0000
# 5 0.0000 0.0000 0.0000 0.0000 63.7281 0.0000
# 6 0.0000 0.0000 0.0000 0.0000 0.0000 19.3069
#
#
#
# Elastic Compliance Matrix: (Units=1/GPa)
#
#
# Indices 1 2 3 4 5 6 
#
# 1 0.010560 -0.004009 -0.004104 0.000000 0.000000 0.000000
# 2 -0.004009 0.016206 0.001650 0.000000 0.000000 0.000000
# 3 -0.004104 0.001650 0.009012 0.000000 0.000000 0.000000
# 4 0.000000 0.000000 0.000000 0.077771 0.000000 0.000000
# 5 0.000000 0.000000 0.000000 0.000000 0.015692 0.000000
# 6 0.000000 0.000000 0.000000 0.000000 0.000000 0.051795
#
#
# Mechanical properties :
#
#
# Convention : Reuss Voigt Hill
#
# Bulk Modulus (GPa) = 43.76284 53.45984 48.61134
# Shear Modulus (GPa) = 24.80397 35.89884 30.35140
#
# Velocity S-wave (km/s) = 3.10138 3.73108 3.43071
# Velocity P-wave (km/s) = 5.45851 6.26835 5.87739
#
# Compressibility (1/GPa) = 0.02285043
#
# Stress axis : x y z
#
# Youngs Moduli (GPa) = 94.69274 61.70506 110.96640
#
# Poissons Ratio (x) = 0.24740 0.45545
# Poissons Ratio (y) = 0.37966 -0.18308
# Poissons Ratio (z) = 0.38866 -0.10180
#
# Static dielectric constant tensor:
#      x y z
#    x 2.038370 0.000000 0.000000 
#    y 0.000000 1.945420 0.000000 
#    z 0.000000 0.000000 2.060600 
# 
# From -- ./inp_files/4952.got.cif
#   From: 2010.05.17/outbox.cif.g08.bks.cpg/sg18_3_cif.got.tgz:4952.got - 2010.06.03 22:40:56.
