data_PCOD9313213
_publ_section_title
;
Structure prediction by ZEFSAII (Michael W. Deem and Ramdas Pophale) SiO2 
 PCOD9313213
Probable space group: P 21 21 2
;
_chemical_formula_sum "Si O2"
_cell_formula_units_Z 26
_cell_length_a 10.599698
_cell_length_b 9.455637
_cell_length_c 10.653199
_cell_angle_alpha 90.000000
_cell_angle_beta 90.000000
_cell_angle_gamma 90.000000
_cell_volume 1067.737075
_symmetry_space_group_name_H-M "P 21 21 2"
_symmetry_group_IT_number 18
_symmetry_cell_setting 'orthorhombic'
loop_
_space_group_symop_operation_xyz
x,y,z
-x,-y,z
1/2+x,1/2-y,-z
1/2-x,1/2+y,-z
loop_
_atom_site_type_symbol
_atom_site_label
_atom_site_fract_x
_atom_site_fract_y
_atom_site_fract_z
Si Si1 0.867002 0.423223 0.964937
Si Si2 0.093424 0.702909 0.361804
Si Si3 0.285634 0.541263 0.219705
Si Si4 0.500000 0.000000 0.430035
Si Si5 0.150126 0.270213 0.215134
Si Si6 0.260652 0.481087 0.715114
Si Si7 0.030012 0.157300 0.966509
O O1 0.781061 0.503292 0.861750
O O2 0.000000 0.500000 0.959831
O O3 0.910838 0.259751 0.950419
O O4 0.803074 0.437467 0.098338
O O5 0.220327 0.614322 0.336430
O O6 0.034713 0.639579 0.488323
O O7 0.982652 0.668637 0.262218
O O8 0.143153 0.860519 0.330364
O O9 0.266402 0.375090 0.239963
O O10 0.408762 0.621167 0.168960
O O11 0.373769 0.968058 0.352533
O O12 0.173892 0.132859 0.300193
O O13 0.123337 0.228490 0.069402
O O14 0.000000 0.000000 0.018193
#
# Coordination Sequence:
#
# PCOD9313213 Si02
#       7
#     4   4   4   2   4   4   4
#     4  12  22  42  66 109 153 188 240 296 371 449
#     4  12  26  51  73 103 142 197 246 303 376 442
#     4  12  24  42  72 104 154 197 230 300 375 456
#     4  12  30  52  76 104 142 188 266 328 370 426
#     4  12  24  45  71 109 149 195 243 293 368 456
#     4  12  28  46  79 103 143 193 251 311 369 438
#     4  12  25  37  67 114 155 193 237 294 373 458
#
# _framework density 24.350565
#
# number of rings (size 3 to 8) (size 9 to 14) (size 15 to 20)
#    0.000    0.000    6.923    3.231    2.154    0.000 
#    0.000    0.000    0.000    0.000    0.000    0.000 
#    0.000    0.000    0.000    0.000    0.000    0.000 
#
# Total GULP energy -145223.007313 kJ/mol
# GULP energy per Si atom -5585.500281 kJ/mol
# Density = 2.429514 g / cm^3
# Si number density = 24.350565 Si / 1000 Ang^3
#
#
#
# Elastic Constant Matrix: (Units=GPa)
#
#
# Indices 1 2 3 4 5 6 
#
# 1 72.9138 14.8452 21.8370 0.0000 0.0000 0.0000
# 2 14.8452 160.1641 12.4692 0.0000 0.0000 0.0000
# 3 21.8370 12.4692 52.0721 0.0000 0.0000 0.0000
# 4 0.0000 0.0000 0.0000 25.5702 0.0000 0.0000
# 5 0.0000 0.0000 0.0000 0.0000 14.4003 0.0000
# 6 0.0000 0.0000 0.0000 0.0000 0.0000 40.7269
#
#
#
# Elastic Compliance Matrix: (Units=1/GPa)
#
#
# Indices 1 2 3 4 5 6 
#
# 1 0.015831 -0.000969 -0.006407 0.000000 0.000000 0.000000
# 2 -0.000969 0.006421 -0.001132 0.000000 0.000000 0.000000
# 3 -0.006407 -0.001132 0.022162 0.000000 0.000000 0.000000
# 4 0.000000 0.000000 0.000000 0.039108 0.000000 0.000000
# 5 0.000000 0.000000 0.000000 0.000000 0.069443 0.000000
# 6 0.000000 0.000000 0.000000 0.000000 0.000000 0.024554
#
#
# Mechanical properties :
#
#
# Convention : Reuss Voigt Hill
#
# Bulk Modulus (GPa) = 36.49597 42.60585 39.55091
# Shear Modulus (GPa) = 24.54995 31.87272 28.21133
#
# Velocity S-wave (km/s) = 3.17864 3.62181 3.40744
# Velocity P-wave (km/s) = 5.33779 5.91818 5.63546
#
# Compressibility (1/GPa) = 0.02740029
#
# Stress axis : x y z
#
# Youngs Moduli (GPa) = 63.16797 155.72785 45.12251
#
# Poissons Ratio (x) = 0.15083 0.28910
# Poissons Ratio (y) = 0.06118 0.05106
# Poissons Ratio (z) = 0.40471 0.17621
#
# Static dielectric constant tensor:
#      x y z
#    x 2.024410 0.000000 0.000000 
#    y 0.000000 2.081960 0.000000 
#    z 0.000000 0.000000 1.930120 
# 
# From -- ./inp_files/5882.got.cif
#   From: 2010.05.17/outbox.cif.g08.bks.cpg/sg18_3_cif.got.tgz:5882.got - 2010.06.03 22:40:56.
