data_PCOD9313467
_publ_section_title
;
Structure prediction by ZEFSAII (Michael W. Deem and Ramdas Pophale) SiO2 
 PCOD9313467
Probable space group: P 21 21 21
;
_chemical_formula_sum "Si O2"
_cell_formula_units_Z 24
_cell_length_a 11.349614
_cell_length_b 9.106997
_cell_length_c 9.197088
_cell_angle_alpha 90.000000
_cell_angle_beta 90.000000
_cell_angle_gamma 90.000000
_cell_volume 950.619299
_symmetry_space_group_name_H-M "P 21 21 21"
_symmetry_group_IT_number 19
_symmetry_cell_setting 'orthorhombic'
loop_
_space_group_symop_operation_xyz
x,y,z
1/2-x,-y,1/2+z
1/2+x,1/2-y,-z
-x,1/2+y,1/2-z
loop_
_atom_site_type_symbol
_atom_site_label
_atom_site_fract_x
_atom_site_fract_y
_atom_site_fract_z
Si Si1 0.036269 0.337226 0.736040
Si Si2 0.914509 0.536134 0.500666
Si Si3 0.113205 0.330137 0.116560
Si Si4 0.967780 0.106083 0.271833
Si Si5 0.761754 0.276385 0.419119
Si Si6 0.662143 0.881384 0.216345
O O1 0.130322 0.249011 0.636787
O O2 0.110779 0.459301 0.822687
O O3 0.956195 0.445969 0.637308
O O4 0.938254 0.221923 0.785842
O O5 0.881712 0.708189 0.510120
O O6 0.804553 0.444879 0.434738
O O7 0.024799 0.534497 0.388194
O O8 0.024179 0.468098 0.119614
O O9 0.237163 0.395669 0.163049
O O10 0.073479 0.221436 0.250855
O O11 0.853963 0.201228 0.307482
O O12 0.789289 0.194494 0.570911
#
# Coordination Sequence:
#
# PCOD9313467 Si02
#       6
#     4   4   4   4   4   4
#     4  11  25  43  64  94 139 162 220 268 325 386
#     4   9  21  40  64  94 122 168 218 259 314 392
#     4  10  20  40  65  93 123 163 225 251 316 384
#     4  10  18  37  69  92 118 167 216 263 303 393
#     4  11  22  40  67  90 131 174 206 271 329 379
#     4  11  26  42  65  97 135 172 209 274 327 376
#
# _framework density 25.246699
#
# number of rings (size 3 to 8) (size 9 to 14) (size 15 to 20)
#    1.000    0.667    3.333    1.000    4.667    1.333 
#    0.000    3.333    0.000    0.000    0.000    0.000 
#    0.000    0.000    0.000    0.000    0.000    0.000 
#
# Total GULP energy -133958.714395 kJ/mol
# GULP energy per Si atom -5581.613100 kJ/mol
# Density = 2.518924 g / cm^3
# Si number density = 25.246699 Si / 1000 Ang^3
#
#
#
# Elastic Constant Matrix: (Units=GPa)
#
#
# Indices 1 2 3 4 5 6 
#
# 1 70.8655 21.1340 7.9238 0.0000 0.0000 0.0000
# 2 21.1340 133.6649 -17.8561 0.0000 0.0000 0.0000
# 3 7.9238 -17.8561 24.7643 0.0000 0.0000 0.0000
# 4 0.0000 0.0000 0.0000 32.6297 0.0000 0.0000
# 5 0.0000 0.0000 0.0000 0.0000 26.1463 0.0000
# 6 0.0000 0.0000 0.0000 0.0000 0.0000 39.6011
#
#
#
# Elastic Compliance Matrix: (Units=1/GPa)
#
#
# Indices 1 2 3 4 5 6 
#
# 1 0.016035 -0.003564 -0.007701 0.000000 0.000000 0.000000
# 2 -0.003564 0.009071 0.007681 0.000000 0.000000 0.000000
# 3 -0.007701 0.007681 0.048383 0.000000 0.000000 0.000000
# 4 0.000000 0.000000 0.000000 0.030647 0.000000 0.000000
# 5 0.000000 0.000000 0.000000 0.000000 0.038246 0.000000
# 6 0.000000 0.000000 0.000000 0.000000 0.000000 0.025252
#
#
# Mechanical properties :
#
#
# Convention : Reuss Voigt Hill
#
# Bulk Modulus (GPa) = 15.07803 27.96646 21.52224
# Shear Modulus (GPa) = 25.39247 34.21496 29.80371
#
# Velocity S-wave (km/s) = 3.17483 3.68533 3.43957
# Velocity P-wave (km/s) = 4.40734 5.40465 4.93127
#
# Compressibility (1/GPa) = 0.06632167
#
# Stress axis : x y z
#
# Youngs Moduli (GPa) = 62.36287 110.24137 20.66847
#
# Poissons Ratio (x) = 0.39291 0.15916
# Poissons Ratio (y) = 0.22227 -0.15875
# Poissons Ratio (z) = 0.48023 -0.84676
#
# Static dielectric constant tensor:
#      x y z
#    x 1.931850 0.000000 0.000000 
#    y 0.000000 1.995990 0.000000 
#    z 0.000000 0.000000 2.172720 
# 
# From -- ./inp_files/4901.got.cif
#   From: 2010.05.17/outbox.cif.g08.bks.cpg/sg19_3_cif.got.tgz:4901.got - 2010.06.03 22:46:19.
