data_PCOD9313254
_publ_section_title
;
Structure prediction by ZEFSAII (Michael W. Deem and Ramdas Pophale) SiO2 
 PCOD9313254
Probable space group: P 21 21 2
;
_chemical_formula_sum "Si O2"
_cell_formula_units_Z 14
_cell_length_a 5.099528
_cell_length_b 11.177806
_cell_length_c 9.278647
_cell_angle_alpha 90.000000
_cell_angle_beta 90.000000
_cell_angle_gamma 90.000000
_cell_volume 528.897119
_symmetry_space_group_name_H-M "P 21 21 2"
_symmetry_group_IT_number 18
_symmetry_cell_setting 'orthorhombic'
loop_
_space_group_symop_operation_xyz
x,y,z
-x,-y,z
1/2+x,1/2-y,-z
1/2-x,1/2+y,-z
loop_
_atom_site_type_symbol
_atom_site_label
_atom_site_fract_x
_atom_site_fract_y
_atom_site_fract_z
Si Si1 0.598616 0.824157 0.495667
Si Si2 0.875334 0.126525 0.922194
Si Si3 0.884111 0.627074 0.810999
Si Si4 0.500000 0.000000 0.734162
O O1 0.374649 0.732543 0.554755
O O2 0.432679 0.871545 0.358765
O O3 0.665763 0.922455 0.616886
O O4 0.988540 0.249374 0.864863
O O5 0.601158 0.103270 0.841291
O O6 0.881048 0.130077 0.095748
O O7 0.000000 0.000000 0.877153
O O8 0.000000 0.500000 0.860710
#
# Coordination Sequence:
#
# PCOD9313254 Si02
#       4
#     4   4   4   2
#     4  12  28  49  77 113 158 205 263 326 398 471
#     4  12  27  50  77 111 160 205 263 330 404 469
#     4  12  26  48  76 116 148 204 267 321 390 477
#     4  12  26  50  76 110 160 212 256 334 404 472
#
# _framework density 26.470177
#
# number of rings (size 3 to 8) (size 9 to 14) (size 15 to 20)
#    0.000    0.000    5.714    3.429    4.000    2.286 
#    0.000    0.000    0.000    0.000    0.000    0.000 
#    0.000    0.000    0.000    0.000    0.000    0.000 
#
# Total GULP energy -78054.545615 kJ/mol
# GULP energy per Si atom -5575.324687 kJ/mol
# Density = 2.640993 g / cm^3
# Si number density = 26.470177 Si / 1000 Ang^3
#
#
#
# Elastic Constant Matrix: (Units=GPa)
#
#
# Indices 1 2 3 4 5 6 
#
# 1 52.5169 24.5546 12.3971 0.0000 0.0000 0.0000
# 2 24.5546 169.2039 46.3032 0.0000 0.0000 0.0000
# 3 12.3971 46.3032 152.5353 0.0000 0.0000 0.0000
# 4 0.0000 0.0000 0.0000 43.5050 0.0000 0.0000
# 5 0.0000 0.0000 0.0000 0.0000 21.4680 0.0000
# 6 0.0000 0.0000 0.0000 0.0000 0.0000 32.2435
#
#
#
# Elastic Compliance Matrix: (Units=1/GPa)
#
#
# Indices 1 2 3 4 5 6 
#
# 1 0.020524 -0.002750 -0.000833 0.000000 0.000000 0.000000
# 2 -0.002750 0.006814 -0.001845 0.000000 0.000000 0.000000
# 3 -0.000833 -0.001845 0.007184 0.000000 0.000000 0.000000
# 4 0.000000 0.000000 0.000000 0.022986 0.000000 0.000000
# 5 0.000000 0.000000 0.000000 0.000000 0.046581 0.000000
# 6 0.000000 0.000000 0.000000 0.000000 0.000000 0.031014
#
#
# Mechanical properties :
#
#
# Convention : Reuss Voigt Hill
#
# Bulk Modulus (GPa) = 42.25688 60.08511 51.17099
# Shear Modulus (GPa) = 32.49961 38.84337 35.67149
#
# Velocity S-wave (km/s) = 3.50777 3.83487 3.67496
# Velocity P-wave (km/s) = 5.69250 6.50821 6.11397
#
# Compressibility (1/GPa) = 0.02366479
#
# Stress axis : x y z
#
# Youngs Moduli (GPa) = 48.72307 146.75592 139.20577
#
# Poissons Ratio (x) = 0.40364 0.11598
# Poissons Ratio (y) = 0.13401 0.25682
# Poissons Ratio (z) = 0.04059 0.27075
#
# Static dielectric constant tensor:
#      x y z
#    x 2.478770 0.000000 0.000000 
#    y 0.000000 2.069710 0.000000 
#    z 0.000000 0.000000 2.046260 
# 
# From -- ./inp_files/2367.got.cif
#   From: 2010.05.17/outbox.cif.g08.bks.cpg/sg18_2_cif.got.tgz:2367.got - 2010.06.03 22:40:56.
