data_PCOD9313265
_publ_section_title
;
Structure prediction by ZEFSAII (Michael W. Deem and Ramdas Pophale) SiO2 
 PCOD9313265
Probable space group: P 21 21 2
;
_chemical_formula_sum "Si O2"
_cell_formula_units_Z 24
_cell_length_a 12.596911
_cell_length_b 13.879973
_cell_length_c 5.237860
_cell_angle_alpha 90.000000
_cell_angle_beta 90.000000
_cell_angle_gamma 90.000000
_cell_volume 915.812503
_symmetry_space_group_name_H-M "P 21 21 2"
_symmetry_group_IT_number 18
_symmetry_cell_setting 'orthorhombic'
loop_
_space_group_symop_operation_xyz
x,y,z
-x,-y,z
1/2+x,1/2-y,-z
1/2-x,1/2+y,-z
loop_
_atom_site_type_symbol
_atom_site_label
_atom_site_fract_x
_atom_site_fract_y
_atom_site_fract_z
Si Si1 0.668660 0.079050 0.334819
Si Si2 0.500000 0.500000 0.214397
Si Si3 0.740502 0.305079 0.850098
Si Si4 0.961880 0.696474 0.320839
Si Si5 0.721319 0.430833 0.352871
Si Si6 0.115068 0.838357 0.107454
Si Si7 0.000000 0.500000 0.037875
O O1 0.600772 0.012732 0.148071
O O2 0.701834 0.020887 0.590767
O O3 0.592356 0.166596 0.414389
O O4 0.779445 0.112734 0.218205
O O5 0.600106 0.466053 0.378429
O O6 0.542248 0.584822 0.033204
O O7 0.636026 0.237903 0.844547
O O8 0.730142 0.381244 0.079266
O O9 0.745381 0.356237 0.577846
O O10 0.841825 0.239747 0.906221
O O11 0.049590 0.779070 0.317587
O O12 0.006965 0.597552 0.202617
#
# Coordination Sequence:
#
# PCOD9313265 Si02
#       7
#     4   2   4   4   4   4   2
#     4  12  29  53  86 124 176 231 288 368 442 523
#     4  12  28  54  90 126 174 234 290 370 434 534
#     4  12  27  54  82 125 169 225 285 360 435 512
#     4  12  28  53  82 125 169 229 295 357 441 527
#     4  12  29  51  88 122 172 224 288 357 435 515
#     4  12  28  57  86 125 179 228 299 361 446 525
#     4  12  28  56  80 122 172 226 292 364 440 524
#
# _framework density 26.206237999999999
#
# number of rings (size 3 to 8) (size 9 to 14) (size 15 to 20)
#    0.000    0.000    3.333    4.500    9.333    0.667 
#    3.000    0.000    0.000    0.000    0.000    0.000 
#    0.000    0.000    0.000    0.000    0.000    0.000 
#
# Total GULP energy -134940.005426 kJ/mol
# GULP energy per Si atom -5622.500226 kJ/mol
# Density = 2.614659 g / cm^3
# Si number density = 26.206238 Si / 1000 Ang^3
#
#
#
# Elastic Constant Matrix: (Units=GPa)
#
#
# Indices 1 2 3 4 5 6 
#
# 1 137.6021 47.3750 22.5279 0.0000 0.0000 0.0000
# 2 47.3750 93.2214 14.2255 0.0000 0.0000 0.0000
# 3 22.5279 14.2255 83.5715 0.0000 0.0000 0.0000
# 4 0.0000 0.0000 0.0000 37.2641 0.0000 0.0000
# 5 0.0000 0.0000 0.0000 0.0000 48.6878 0.0000
# 6 0.0000 0.0000 0.0000 0.0000 0.0000 72.6717
#
#
#
# Elastic Compliance Matrix: (Units=1/GPa)
#
#
# Indices 1 2 3 4 5 6 
#
# 1 0.009037 -0.004334 -0.001699 0.000000 0.000000 0.000000
# 2 -0.004334 0.013091 -0.001060 0.000000 0.000000 0.000000
# 3 -0.001699 -0.001060 0.012604 0.000000 0.000000 0.000000
# 4 0.000000 0.000000 0.000000 0.026835 0.000000 0.000000
# 5 0.000000 0.000000 0.000000 0.000000 0.020539 0.000000
# 6 0.000000 0.000000 0.000000 0.000000 0.000000 0.013761
#
#
# Mechanical properties :
#
#
# Convention : Reuss Voigt Hill
#
# Bulk Modulus (GPa) = 48.66611 53.62797 51.14704
# Shear Modulus (GPa) = 42.77091 47.07582 44.92336
#
# Velocity S-wave (km/s) = 4.04429 4.24295 4.14481
# Velocity P-wave (km/s) = 6.35761 6.67171 6.51655
#
# Compressibility (1/GPa) = 0.02054818
#
# Stress axis : x y z
#
# Youngs Moduli (GPa) = 110.65095 76.38674 79.33915
#
# Poissons Ratio (x) = 0.33103 0.13476
# Poissons Ratio (y) = 0.47952 0.08412
# Poissons Ratio (z) = 0.18794 0.08099
#
# Static dielectric constant tensor:
#      x y z
#    x 2.024030 0.000000 0.000000 
#    y 0.000000 2.066400 0.000000 
#    z 0.000000 0.000000 2.025580 
# 
# From -- ./inp_files/1505.got.cif
#   From: 2010.05.17/outbox.cif.g08.bks.cpg/sg18_1_cif.got.tgz:1505.got - 2010.06.03 22:40:56.
