data_PCOD9313075
_publ_section_title
;
Structure prediction by ZEFSAII (Michael W. Deem and Ramdas Pophale) SiO2 
 PCOD9313075
Probable space group: P 21 21 2
;
_chemical_formula_sum "Si O2"
_cell_formula_units_Z 26
_cell_length_a 7.088220
_cell_length_b 11.285284
_cell_length_c 14.877141
_cell_angle_alpha 90.000000
_cell_angle_beta 90.000000
_cell_angle_gamma 90.000000
_cell_volume 1190.060828
_symmetry_space_group_name_H-M "P 21 21 2"
_symmetry_group_IT_number 18
_symmetry_cell_setting 'orthorhombic'
loop_
_space_group_symop_operation_xyz
x,y,z
-x,-y,z
1/2+x,1/2-y,-z
1/2-x,1/2+y,-z
loop_
_atom_site_type_symbol
_atom_site_label
_atom_site_fract_x
_atom_site_fract_y
_atom_site_fract_z
Si Si1 0.771434 0.686417 0.871064
Si Si2 0.928181 0.867148 0.548849
Si Si3 0.000000 0.500000 0.750001
Si Si4 0.728560 0.813583 0.371063
Si Si5 0.227848 0.132726 0.727944
Si Si6 0.428186 0.367147 0.048849
Si Si7 0.772155 0.132726 0.772058
O O1 0.685357 0.773892 0.796388
O O2 0.876481 0.584101 0.814900
O O3 0.917135 0.768225 0.927820
O O4 0.632461 0.637318 0.946014
O O5 0.867532 0.862682 0.446014
O O6 0.762190 0.844148 0.621825
O O7 0.082859 0.768226 0.572181
O O8 0.000000 0.000000 0.569329
O O9 0.123516 0.584101 0.685101
O O10 0.814638 0.726108 0.296387
O O11 0.000001 0.140870 0.750001
O O12 0.286870 0.999999 0.750001
O O13 0.500000 0.500000 0.069331
O O14 0.262193 0.344146 0.121824
#
# Coordination Sequence:
#
# PCOD9313075 Si02
#       7
#     4   4   2   4   4   4   4
#     4  11  24  39  66  97 129 173 218 264 325 391
#     4  11  22  41  68  95 127 173 220 264 318 388
#     4  12  24  40  60  92 142 176 202 266 352 368
#     4  11  24  39  66  97 129 173 218 264 325 391
#     4   9  15  37  63  84 117 168 208 246 317 382
#     4  11  22  41  68  95 127 173 220 264 318 388
#     4   9  15  37  63  84 117 168 208 246 317 382
#
# _framework density 21.847624
#
# number of rings (size 3 to 8) (size 9 to 14) (size 15 to 20)
#    0.000    1.538   10.769    0.000    4.308    0.000 
#    0.000    5.385    0.000    1.846    0.000    0.000 
#    0.000    0.000    0.000    0.000    0.000    0.000 
#
# Total GULP energy -145197.867085 kJ/mol
# GULP energy per Si atom -5584.533349 kJ/mol
# Density = 2.179790 g / cm^3
# Si number density = 21.847624 Si / 1000 Ang^3
#
#
#
# Elastic Constant Matrix: (Units=GPa)
#
#
# Indices 1 2 3 4 5 6 
#
# 1 48.1449 20.9394 39.2780 0.0000 0.0000 0.0000
# 2 20.9394 127.0945 67.3578 0.0000 0.0000 0.0000
# 3 39.2780 67.3578 184.9197 0.0000 0.0000 0.0000
# 4 0.0000 0.0000 0.0000 43.2599 0.0000 0.0000
# 5 0.0000 0.0000 0.0000 0.0000 46.8628 0.0000
# 6 0.0000 0.0000 0.0000 0.0000 0.0000 -5.1449
#
#
#
# Elastic Compliance Matrix: (Units=1/GPa)
#
#
# Indices 1 2 3 4 5 6 
#
# 1 0.025398 -0.001642 -0.004796 0.000000 0.000000 0.000000
# 2 -0.001642 0.009857 -0.003241 0.000000 0.000000 0.000000
# 3 -0.004796 -0.003241 0.007607 0.000000 0.000000 0.000000
# 4 0.000000 0.000000 0.000000 0.023116 0.000000 0.000000
# 5 0.000000 0.000000 0.000000 0.000000 0.021339 0.000000
# 6 0.000000 0.000000 0.000000 0.000000 0.000000 -0.194367
#
#
# Mechanical properties :
#
#
# Convention : Reuss Voigt Hill
#
# Bulk Modulus (GPa) = 42.55079 68.36772 55.45925
# Shear Modulus (GPa) = -62.61309 32.50117 -15.05596
#
# Velocity S-wave (km/s) = -5.35922 3.86116 -2.62799
# Velocity P-wave (km/s) = 4.33319 7.15814 4.02880
#
# Compressibility (1/GPa) = 0.02350133
#
# Stress axis : x y z
#
# Youngs Moduli (GPa) = 39.37311 101.45400 131.45328
#
# Poissons Ratio (x) = 0.16663 0.63051
# Poissons Ratio (y) = 0.06467 0.42610
# Poissons Ratio (z) = 0.18885 0.32886
#
# Static dielectric constant tensor:
#      x y z
#    x 1.868250 0.000000 0.000000 
#    y 0.000000 1.767890 0.000000 
#    z 0.000000 0.000000 1.834120 
# 
# From -- ./inp_files/6711.got.cif
#   From: 2010.05.17/outbox.cif.g08.bks.cpg/sg18_4_cif.got.tgz:6711.got - 2010.06.03 22:40:56.
