data_PCOD9313412
_publ_section_title
;
Structure prediction by ZEFSAII (Michael W. Deem and Ramdas Pophale) SiO2 
 PCOD9313412
Probable space group: P 21 21 21
;
_chemical_formula_sum "Si O2"
_cell_formula_units_Z 28
_cell_length_a 8.672198
_cell_length_b 12.197326
_cell_length_c 10.015204
_cell_angle_alpha 90.000000
_cell_angle_beta 90.000000
_cell_angle_gamma 90.000000
_cell_volume 1059.384504
_symmetry_space_group_name_H-M "P 21 21 21"
_symmetry_group_IT_number 19
_symmetry_cell_setting 'orthorhombic'
loop_
_space_group_symop_operation_xyz
x,y,z
1/2-x,-y,1/2+z
1/2+x,1/2-y,-z
-x,1/2+y,1/2-z
loop_
_atom_site_type_symbol
_atom_site_label
_atom_site_fract_x
_atom_site_fract_y
_atom_site_fract_z
Si Si1 0.034145 0.097027 0.727920
Si Si2 0.821611 0.285454 0.223736
Si Si3 0.407700 0.519994 0.509031
Si Si4 0.054579 0.121506 0.263063
Si Si5 0.152655 0.343670 0.575263
Si Si6 0.870219 0.152497 0.002241
Si Si7 0.662058 0.699043 0.117003
O O1 0.986923 0.996602 0.633936
O O2 0.963172 0.118597 0.872743
O O3 0.944739 0.197170 0.652625
O O4 0.218324 0.111530 0.739870
O O5 0.974992 0.242082 0.297009
O O6 0.706281 0.186260 0.273543
O O7 0.861009 0.275050 0.067382
O O8 0.513250 0.470987 0.627340
O O9 0.311288 0.630401 0.526003
O O10 0.258048 0.439785 0.519614
O O11 0.234707 0.147794 0.267139
O O12 0.963757 0.096517 0.126638
O O13 0.975251 0.377271 0.566721
O O14 0.215685 0.238039 0.493283
#
# Coordination Sequence:
#
# PCOD9313412 Si02
#       7
#     4   4   4   4   4   4   4
#     4  10  20  32  57  80 114 141 189 225 280 324
#     4   8  18  33  50  80 103 145 176 232 266 329
#     4  10  19  36  54  82 105 155 184 229 273 339
#     4   9  19  32  58  76 110 138 191 228 277 326
#     4   9  17  31  56  77 109 133 190 227 274 314
#     4  10  21  32  57  79 118 142 186 222 286 337
#     4  10  18  32  56  86 103 142 186 241 266 323
#
# _framework density 26.430441999999999
#
# number of rings (size 3 to 8) (size 9 to 14) (size 15 to 20)
#    0.857    1.714    0.000    4.286    2.000    0.000 
#    0.000    0.000    6.286    3.429    0.000    0.000 
#    0.000    0.000    0.000    0.000    0.000    0.000 
#
# Total GULP energy -155961.659287 kJ/mol
# GULP energy per Si atom -5570.059260 kJ/mol
# Density = 2.637029 g / cm^3
# Si number density = 26.430442 Si / 1000 Ang^3
#
#
#
# Elastic Constant Matrix: (Units=GPa)
#
#
# Indices 1 2 3 4 5 6 
#
# 1 184.7936 15.8479 40.9395 0.0000 0.0000 0.0000
# 2 15.8479 21.9357 -7.6892 0.0000 0.0000 0.0000
# 3 40.9395 -7.6892 123.1952 0.0000 0.0000 0.0000
# 4 0.0000 0.0000 0.0000 21.0937 0.0000 0.0000
# 5 0.0000 0.0000 0.0000 0.0000 33.9567 0.0000
# 6 0.0000 0.0000 0.0000 0.0000 0.0000 27.3950
#
#
#
# Elastic Compliance Matrix: (Units=1/GPa)
#
#
# Indices 1 2 3 4 5 6 
#
# 1 0.006435 -0.005519 -0.002483 0.000000 0.000000 0.000000
# 2 -0.005519 0.051342 0.005039 0.000000 0.000000 0.000000
# 3 -0.002483 0.005039 0.009257 0.000000 0.000000 0.000000
# 4 0.000000 0.000000 0.000000 0.047407 0.000000 0.000000
# 5 0.000000 0.000000 0.000000 0.000000 0.029449 0.000000
# 6 0.000000 0.000000 0.000000 0.000000 0.000000 0.036503
#
#
# Mechanical properties :
#
#
# Convention : Reuss Voigt Hill
#
# Bulk Modulus (GPa) = 16.36500 47.56900 31.96700
# Shear Modulus (GPa) = 24.19097 35.21084 29.70091
#
# Velocity S-wave (km/s) = 3.02862 3.65390 3.35586
# Velocity P-wave (km/s) = 4.29363 5.98650 5.20929
#
# Compressibility (1/GPa) = 0.06110600
#
# Stress axis : x y z
#
# Youngs Moduli (GPa) = 155.40396 19.47740 108.02896
#
# Poissons Ratio (x) = 0.10750 0.26822
# Poissons Ratio (y) = 0.85772 -0.54432
# Poissons Ratio (z) = 0.38585 -0.09814
#
# Static dielectric constant tensor:
#      x y z
#    x 2.143720 0.000000 0.000000 
#    y 0.000000 2.281160 0.000000 
#    z 0.000000 0.000000 2.104830 
# 
# From -- ./inp_files/4783.got.cif
#   From: 2010.05.17/outbox.cif.g08.bks.cpg/sg19_3_cif.got.tgz:4783.got - 2010.06.03 22:46:19.
