data_PCOD9313926
_publ_section_title
;
Structure prediction by ZEFSAII (Michael W. Deem and Ramdas Pophale) SiO2 
 PCOD9313926
Probable space group: P 21 21 21
;
_chemical_formula_sum "Si O2"
_cell_formula_units_Z 28
_cell_length_a 11.735729
_cell_length_b 9.021468
_cell_length_c 9.863153
_cell_angle_alpha 90.000000
_cell_angle_beta 90.000000
_cell_angle_gamma 90.000000
_cell_volume 1044.246565
_symmetry_space_group_name_H-M "P 21 21 21"
_symmetry_group_IT_number 19
_symmetry_cell_setting 'orthorhombic'
loop_
_space_group_symop_operation_xyz
x,y,z
1/2-x,-y,1/2+z
1/2+x,1/2-y,-z
-x,1/2+y,1/2-z
loop_
_atom_site_type_symbol
_atom_site_label
_atom_site_fract_x
_atom_site_fract_y
_atom_site_fract_z
Si Si1 0.205730 0.131907 0.015184
Si Si2 0.428181 0.133763 0.576470
Si Si3 0.412348 0.956659 0.973874
Si Si4 0.449936 0.809852 0.264804
Si Si5 0.750294 0.178068 0.571091
Si Si6 0.401514 0.613215 0.694914
Si Si7 0.612366 0.016058 0.368016
O O1 0.338024 0.106270 0.986713
O O2 0.142063 0.129596 0.871079
O O3 0.155603 0.272723 0.091269
O O4 0.167149 0.989571 0.104451
O O5 0.369466 0.247043 0.471311
O O6 0.493933 0.179385 0.712145
O O7 0.525384 0.049677 0.492155
O O8 0.525264 0.992687 0.888662
O O9 0.330314 0.825441 0.916568
O O10 0.433944 0.894169 0.123715
O O11 0.423998 0.637365 0.243891
O O12 0.575433 0.854970 0.317565
O O13 0.704818 0.082580 0.699964
O O14 0.725397 0.074321 0.440325
#
# Coordination Sequence:
#
# PCOD9313926 Si02
#       7
#     4   4   4   4   4   4   4
#     4  10  22  35  62  93 122 172 216 283 315 405
#     4   9  20  38  63  87 123 170 215 263 333 393
#     4  10  22  35  62  93 122 172 216 283 315 405
#     4  10  20  38  60  88 128 162 224 264 340 378
#     4   9  20  38  63  87 123 170 215 263 333 393
#     4  11  21  36  62  98 129 157 232 274 328 375
#     4   9  19  34  62  84 117 163 206 272 312 391
#
# _framework density 26.813590000000001
#
# number of rings (size 3 to 8) (size 9 to 14) (size 15 to 20)
#    0.000    2.286    0.000    1.714   12.000    0.000 
#    0.000    0.000   18.857    6.857    0.000    0.000 
#    0.000    0.000    0.000    0.000    0.000    0.000 
#
# Total GULP energy -156386.672452 kJ/mol
# GULP energy per Si atom -5585.238302 kJ/mol
# Density = 2.675256 g / cm^3
# Si number density = 26.813590 Si / 1000 Ang^3
#
#
#
# Elastic Constant Matrix: (Units=GPa)
#
#
# Indices 1 2 3 4 5 6 
#
# 1 103.3430 25.1390 20.6880 0.0000 0.0000 0.0000
# 2 25.1390 94.5922 42.5195 0.0000 0.0000 0.0000
# 3 20.6880 42.5195 100.6761 0.0000 0.0000 0.0000
# 4 0.0000 0.0000 0.0000 42.4062 0.0000 0.0000
# 5 0.0000 0.0000 0.0000 0.0000 36.4940 0.0000
# 6 0.0000 0.0000 0.0000 0.0000 0.0000 41.6091
#
#
#
# Elastic Compliance Matrix: (Units=1/GPa)
#
#
# Indices 1 2 3 4 5 6 
#
# 1 0.010462 -0.002239 -0.001204 0.000000 0.000000 0.000000
# 2 -0.002239 0.013528 -0.005253 0.000000 0.000000 0.000000
# 3 -0.001204 -0.005253 0.012399 0.000000 0.000000 0.000000
# 4 0.000000 0.000000 0.000000 0.023581 0.000000 0.000000
# 5 0.000000 0.000000 0.000000 0.000000 0.027402 0.000000
# 6 0.000000 0.000000 0.000000 0.000000 0.000000 0.024033
#
#
# Mechanical properties :
#
#
# Convention : Reuss Voigt Hill
#
# Bulk Modulus (GPa) = 52.64273 52.81158 52.72715
# Shear Modulus (GPa) = 37.00102 38.11950 37.56026
#
# Velocity S-wave (km/s) = 3.71878 3.77457 3.74678
# Velocity P-wave (km/s) = 6.17370 6.22375 6.19877
#
# Compressibility (1/GPa) = 0.01899598
#
# Stress axis : x y z
#
# Youngs Moduli (GPa) = 95.58141 73.91972 80.65165
#
# Poissons Ratio (x) = 0.16552 0.09712
# Poissons Ratio (y) = 0.21402 0.42369
# Poissons Ratio (z) = 0.11510 0.38833
#
# Static dielectric constant tensor:
#      x y z
#    x 2.195730 0.000000 0.000000 
#    y 0.000000 2.132290 0.000000 
#    z 0.000000 0.000000 2.151360 
# 
# From -- ./inp_files/5015.got.cif
#   From: 2010.05.17/outbox.cif.g08.bks.cpg/sg19_3_cif.got.tgz:5015.got - 2010.06.03 22:46:19.
