data_PCOD9313917
_publ_section_title
;
Structure prediction by ZEFSAII (Michael W. Deem and Ramdas Pophale) SiO2 
 PCOD9313917
Probable space group: P 21 21 21
;
_chemical_formula_sum "Si O2"
_cell_formula_units_Z 32
_cell_length_a 9.473301
_cell_length_b 8.874125
_cell_length_c 14.683736
_cell_angle_alpha 90.000000
_cell_angle_beta 90.000000
_cell_angle_gamma 90.000000
_cell_volume 1234.421412
_symmetry_space_group_name_H-M "P 21 21 21"
_symmetry_group_IT_number 19
_symmetry_cell_setting 'orthorhombic'
loop_
_space_group_symop_operation_xyz
x,y,z
1/2-x,-y,1/2+z
1/2+x,1/2-y,-z
-x,1/2+y,1/2-z
loop_
_atom_site_type_symbol
_atom_site_label
_atom_site_fract_x
_atom_site_fract_y
_atom_site_fract_z
Si Si1 0.249141 0.029169 0.404097
Si Si2 0.581765 0.049749 0.569910
Si Si3 0.301419 0.763333 0.071081
Si Si4 0.162661 0.665012 0.676181
Si Si5 0.481392 0.641264 0.214121
Si Si6 0.331544 0.524361 0.523402
Si Si7 0.057729 0.229768 0.279186
Si Si8 0.426981 0.232334 0.908939
O O1 0.242443 0.101143 0.505791
O O2 0.386095 0.089497 0.350116
O O3 0.117615 0.094774 0.342157
O O4 0.224307 0.850626 0.411620
O O5 0.753122 0.012581 0.572052
O O6 0.516569 0.889829 0.550871
O O7 0.584137 0.171022 0.490109
O O8 0.520081 0.129595 0.656817
O O9 0.383292 0.770333 0.165957
O O10 0.176992 0.637870 0.074891
O O11 0.045614 0.790686 0.694134
O O12 0.215762 0.626735 0.575816
O O13 0.302532 0.719055 0.725735
O O14 0.110154 0.508795 0.719278
O O15 0.475609 0.608225 0.540074
O O16 0.945562 0.223020 0.198405
#
# Coordination Sequence:
#
# PCOD9313917 Si02
#       8
#     4   4   4   4   4   4   4   4
#     4  10  21  33  57  85 108 142 192 234 272 334
#     4   9  19  36  55  81 112 153 180 233 288 333
#     4   8  19  38  54  74 115 155 174 224 299 331
#     4   9  19  37  59  79 109 157 183 237 279 340
#     4  10  20  38  58  82 117 144 195 234 280 341
#     4   8  19  38  53  74 116 150 186 215 304 338
#     4   9  19  38  55  77 114 152 180 224 301 340
#     4  11  20  32  59  84 107 141 196 237 267 343
#
# _framework density 25.923072999999999
#
# number of rings (size 3 to 8) (size 9 to 14) (size 15 to 20)
#    0.750    2.000    0.000    0.750    1.750    2.000 
#    4.500    1.250    2.750    0.000    0.000    0.000 
#    0.000    0.000    0.000    0.000    0.000    0.000 
#
# Total GULP energy -178342.009362 kJ/mol
# GULP energy per Si atom -5573.187793 kJ/mol
# Density = 2.586407 g / cm^3
# Si number density = 25.923073 Si / 1000 Ang^3
#
#
#
# Elastic Constant Matrix: (Units=GPa)
#
#
# Indices 1 2 3 4 5 6 
#
# 1 38.3572 -1.8163 7.3630 0.0000 0.0000 0.0000
# 2 -1.8163 67.7941 -1.8970 0.0000 0.0000 0.0000
# 3 7.3630 -1.8970 29.5305 0.0000 0.0000 0.0000
# 4 0.0000 0.0000 0.0000 15.5164 0.0000 0.0000
# 5 0.0000 0.0000 0.0000 0.0000 20.4580 0.0000
# 6 0.0000 0.0000 0.0000 0.0000 0.0000 21.0300
#
#
#
# Elastic Compliance Matrix: (Units=1/GPa)
#
#
# Indices 1 2 3 4 5 6 
#
# 1 0.027401 0.000544 -0.006797 0.000000 0.000000 0.000000
# 2 0.000544 0.014788 0.000814 0.000000 0.000000 0.000000
# 3 -0.006797 0.000814 0.035610 0.000000 0.000000 0.000000
# 4 0.000000 0.000000 0.000000 0.064448 0.000000 0.000000
# 5 0.000000 0.000000 0.000000 0.000000 0.048881 0.000000
# 6 0.000000 0.000000 0.000000 0.000000 0.000000 0.047551
#
#
# Mechanical properties :
#
#
# Convention : Reuss Voigt Hill
#
# Bulk Modulus (GPa) = 14.94283 15.88680 15.41481
# Shear Modulus (GPa) = 18.39155 20.20303 19.29729
#
# Velocity S-wave (km/s) = 2.66647 2.79470 2.73134
# Velocity P-wave (km/s) = 3.90601 4.06885 3.98826
#
# Compressibility (1/GPa) = 0.06692175
#
# Stress axis : x y z
#
# Youngs Moduli (GPa) = 36.49471 67.62284 28.08170
#
# Poissons Ratio (x) = -0.03678 0.19088
# Poissons Ratio (y) = -0.01985 -0.02287
# Poissons Ratio (z) = 0.24806 -0.05507
#
# Static dielectric constant tensor:
#      x y z
#    x 2.143110 0.000000 0.000000 
#    y 0.000000 2.108070 0.000000 
#    z 0.000000 0.000000 2.219010 
# 
# From -- ./inp_files/6734.got.cif
#   From: 2010.05.17/outbox.cif.g08.bks.cpg/sg19_4_cif.got.tgz:6734.got - 2010.06.03 22:46:19.
