data_PCOD9313391
_publ_section_title
;
Structure prediction by ZEFSAII (Michael W. Deem and Ramdas Pophale) SiO2 
 PCOD9313391
Probable space group: P 21 21 21
;
_chemical_formula_sum "Si O2"
_cell_formula_units_Z 28
_cell_length_a 12.174880
_cell_length_b 5.471533
_cell_length_c 17.105086
_cell_angle_alpha 90.000000
_cell_angle_beta 90.000000
_cell_angle_gamma 90.000000
_cell_volume 1139.459712
_symmetry_space_group_name_H-M "P 21 21 21"
_symmetry_group_IT_number 19
_symmetry_cell_setting 'orthorhombic'
loop_
_space_group_symop_operation_xyz
x,y,z
1/2-x,-y,1/2+z
1/2+x,1/2-y,-z
-x,1/2+y,1/2-z
loop_
_atom_site_type_symbol
_atom_site_label
_atom_site_fract_x
_atom_site_fract_y
_atom_site_fract_z
Si Si1 0.983301 0.196794 0.926028
Si Si2 0.906720 0.734001 0.298626
Si Si3 0.436783 0.709907 0.268645
Si Si4 0.630915 0.769132 0.882392
Si Si5 0.620958 0.261471 0.613494
Si Si6 0.856566 0.697079 0.890278
Si Si7 0.399867 0.259774 0.911129
O O1 0.900663 0.423411 0.904534
O O2 0.077408 0.241875 0.861028
O O3 0.936647 0.922105 0.913231
O O4 0.990343 0.228778 0.019206
O O5 0.866041 0.478220 0.331684
O O6 0.888978 0.741286 0.206839
O O7 0.033021 0.742668 0.329393
O O8 0.856927 0.975486 0.336985
O O9 0.475464 0.427790 0.255209
O O10 0.345115 0.764755 0.204020
O O11 0.507089 0.771628 0.915466
O O12 0.740720 0.742131 0.932130
O O13 0.669101 0.514490 0.585101
O O14 0.668268 0.006707 0.586225
#
# Coordination Sequence:
#
# PCOD9313391 Si02
#       7
#     4   4   4   4   4   4   4
#     4  10  19  32  50  73  99 131 172 203 235 297
#     4  10  19  33  53  75  97 128 170 205 238 293
#     4   8  16  30  48  67  91 122 162 201 233 278
#     4  10  18  30  51  75 100 125 161 206 249 291
#     4  10  19  33  53  74  96 129 170 206 239 291
#     4  10  19  32  50  75 100 130 163 206 252 288
#     4  10  18  30  51  73  93 125 164 207 244 280
#
# _framework density 24.573052000000001
#
# number of rings (size 3 to 8) (size 9 to 14) (size 15 to 20)
#    0.000    2.286    0.000    6.000    0.000    0.000 
#    0.000    0.000    0.000   27.429    0.000    0.000 
#    0.000    0.000    0.000    0.000    0.000    0.000 
#
# Total GULP energy -155994.729576 kJ/mol
# GULP energy per Si atom -5571.240342 kJ/mol
# Density = 2.451712 g / cm^3
# Si number density = 24.573052 Si / 1000 Ang^3
#
#
#
# Elastic Constant Matrix: (Units=GPa)
#
#
# Indices 1 2 3 4 5 6 
#
# 1 31.0043 18.4106 -22.5852 0.0000 0.0000 0.0000
# 2 18.4106 229.3809 40.8206 0.0000 0.0000 0.0000
# 3 -22.5852 40.8206 87.3009 0.0000 0.0000 0.0000
# 4 0.0000 0.0000 0.0000 33.8725 0.0000 0.0000
# 5 0.0000 0.0000 0.0000 0.0000 4.4764 0.0000
# 6 0.0000 0.0000 0.0000 0.0000 0.0000 19.7367
#
#
#
# Elastic Compliance Matrix: (Units=1/GPa)
#
#
# Indices 1 2 3 4 5 6 
#
# 1 0.047236 -0.006507 0.015263 0.000000 0.000000 0.000000
# 2 -0.006507 0.005652 -0.004326 0.000000 0.000000 0.000000
# 3 0.015263 -0.004326 0.017426 0.000000 0.000000 0.000000
# 4 0.000000 0.000000 0.000000 0.029522 0.000000 0.000000
# 5 0.000000 0.000000 0.000000 0.000000 0.223394 0.000000
# 6 0.000000 0.000000 0.000000 0.000000 0.000000 0.050667
#
#
# Mechanical properties :
#
#
# Convention : Reuss Voigt Hill
#
# Bulk Modulus (GPa) = 12.63060 46.77534 29.70297
# Shear Modulus (GPa) = 12.77368 32.35314 22.56341
#
# Velocity S-wave (km/s) = 2.28244 3.63245 3.03350
# Velocity P-wave (km/s) = 3.47811 6.05553 4.93795
#
# Compressibility (1/GPa) = 0.07917282
#
# Stress axis : x y z
#
# Youngs Moduli (GPa) = 21.17022 176.93620 57.38507
#
# Poissons Ratio (x) = 1.15141 -0.87587
# Poissons Ratio (y) = 0.13776 0.24826
# Poissons Ratio (z) = -0.32312 0.76546
#
# Static dielectric constant tensor:
#      x y z
#    x 2.046370 0.000000 0.000000 
#    y 0.000000 2.008020 0.000000 
#    z 0.000000 0.000000 2.033770 
# 
# From -- ./inp_files/1472.got.cif
#   From: 2010.05.17/outbox.cif.g08.bks.cpg/sg19_1_cif.got.tgz:1472.got - 2010.06.03 22:46:19.
