data_PCOD9313679
_publ_section_title
;
Structure prediction by ZEFSAII (Michael W. Deem and Ramdas Pophale) SiO2 
 PCOD9313679
Probable space group: P 21 21 21
;
_chemical_formula_sum "Si O2"
_cell_formula_units_Z 32
_cell_length_a 9.069699
_cell_length_b 6.678625
_cell_length_c 20.717648
_cell_angle_alpha 90.000000
_cell_angle_beta 90.000000
_cell_angle_gamma 90.000000
_cell_volume 1254.932547
_symmetry_space_group_name_H-M "P 21 21 21"
_symmetry_group_IT_number 19
_symmetry_cell_setting 'orthorhombic'
loop_
_space_group_symop_operation_xyz
x,y,z
1/2-x,-y,1/2+z
1/2+x,1/2-y,-z
-x,1/2+y,1/2-z
loop_
_atom_site_type_symbol
_atom_site_label
_atom_site_fract_x
_atom_site_fract_y
_atom_site_fract_z
Si Si1 0.907134 0.127232 0.022867
Si Si2 0.960726 0.943213 0.299445
Si Si3 0.336297 0.234255 0.605475
Si Si4 0.922349 0.004564 0.506200
Si Si5 0.557587 0.895482 0.157212
Si Si6 0.366560 0.411067 0.831753
Si Si7 0.199109 0.858071 0.664196
Si Si8 0.467401 0.515089 0.109925
O O1 0.958078 0.356649 0.024149
O O2 0.002673 0.034085 0.964479
O O3 0.736300 0.105166 0.002890
O O4 0.094007 0.699234 0.037880
O O5 0.927855 0.142373 0.340507
O O6 0.965405 0.997652 0.224777
O O7 0.822527 0.789610 0.307263
O O8 0.104777 0.825489 0.323392
O O9 0.591179 0.963873 0.594762
O O10 0.291270 0.003883 0.616393
O O11 0.179308 0.349409 0.607984
O O12 0.955573 0.052101 0.580417
O O13 0.702833 0.009089 0.180404
O O14 0.413543 0.977907 0.194899
O O15 0.572868 0.654429 0.153098
O O16 0.080349 0.697633 0.638063
#
# Coordination Sequence:
#
# PCOD9313679 Si02
#       8
#     4   4   4   4   4   4   4   4
#     4  10  20  40  70 101 145 182 229 302 366 440
#     4  11  25  47  66  97 143 201 248 293 359 441
#     4   9  20  40  70  99 135 190 240 282 366 437
#     4  10  19  38  67 109 139 183 232 296 377 447
#     4  10  22  44  69 109 141 177 246 313 367 433
#     4  11  26  47  66 103 151 191 249 303 359 435
#     4  10  21  44  74  97 138 191 241 308 360 446
#     4   9  19  40  70 105 140 173 229 297 378 433
#
# _framework density 25.499378
#
# number of rings (size 3 to 8) (size 9 to 14) (size 15 to 20)
#    0.000    2.000    2.500    0.000    1.750    1.000 
#    9.000    2.500    0.000    0.000    0.000    0.000 
#    0.000    0.000    0.000    0.000    0.000    0.000 
#
# Total GULP energy -178725.200572 kJ/mol
# GULP energy per Si atom -5585.162518 kJ/mol
# Density = 2.544134 g / cm^3
# Si number density = 25.499378 Si / 1000 Ang^3
#
#
#
# Elastic Constant Matrix: (Units=GPa)
#
#
# Indices 1 2 3 4 5 6 
#
# 1 73.9293 43.8569 3.3963 0.0000 0.0000 0.0000
# 2 43.8569 143.0648 41.4979 0.0000 0.0000 0.0000
# 3 3.3963 41.4979 76.5536 0.0000 0.0000 0.0000
# 4 0.0000 0.0000 0.0000 45.6384 0.0000 0.0000
# 5 0.0000 0.0000 0.0000 0.0000 19.2031 0.0000
# 6 0.0000 0.0000 0.0000 0.0000 0.0000 54.5889
#
#
#
# Elastic Compliance Matrix: (Units=1/GPa)
#
#
# Indices 1 2 3 4 5 6 
#
# 1 0.016910 -0.005893 0.002444 0.000000 0.000000 0.000000
# 2 -0.005893 0.010347 -0.005348 0.000000 0.000000 0.000000
# 3 0.002444 -0.005348 0.015853 0.000000 0.000000 0.000000
# 4 0.000000 0.000000 0.000000 0.021911 0.000000 0.000000
# 5 0.000000 0.000000 0.000000 0.000000 0.052075 0.000000
# 6 0.000000 0.000000 0.000000 0.000000 0.000000 0.018319
#
#
# Mechanical properties :
#
#
# Convention : Reuss Voigt Hill
#
# Bulk Modulus (GPa) = 39.18819 52.33887 45.76353
# Shear Modulus (GPa) = 30.95705 37.53917 34.24811
#
# Velocity S-wave (km/s) = 3.48808 3.84104 3.66880
# Velocity P-wave (km/s) = 5.62351 6.34362 5.99439
#
# Compressibility (1/GPa) = 0.02551789
#
# Stress axis : x y z
#
# Youngs Moduli (GPa) = 59.13703 96.64236 63.07889
#
# Poissons Ratio (x) = 0.56949 -0.15417
# Poissons Ratio (y) = 0.34848 0.33732
# Poissons Ratio (z) = -0.14454 0.51681
#
# Static dielectric constant tensor:
#      x y z
#    x 2.046860 0.000000 0.000000 
#    y 0.000000 2.036610 0.000000 
#    z 0.000000 0.000000 2.015480 
# 
# From -- ./inp_files/2305.got.cif
#   From: 2010.05.17/outbox.cif.g08.bks.cpg/sg19_2_cif.got.tgz:2305.got - 2010.06.03 22:46:19.
