data_PCOD9313207
_publ_section_title
;
Structure prediction by ZEFSAII (Michael W. Deem and Ramdas Pophale) SiO2 
 PCOD9313207
Probable space group: P 21 21 2
;
_chemical_formula_sum "Si O2"
_cell_formula_units_Z 18
_cell_length_a 9.271217
_cell_length_b 13.879414
_cell_length_c 6.550742
_cell_angle_alpha 90.000000
_cell_angle_beta 90.000000
_cell_angle_gamma 90.000000
_cell_volume 842.943316
_symmetry_space_group_name_H-M "P 21 21 2"
_symmetry_group_IT_number 18
_symmetry_cell_setting 'orthorhombic'
loop_
_space_group_symop_operation_xyz
x,y,z
-x,-y,z
1/2+x,1/2-y,-z
1/2-x,1/2+y,-z
loop_
_atom_site_type_symbol
_atom_site_label
_atom_site_fract_x
_atom_site_fract_y
_atom_site_fract_z
Si Si1 0.256700 0.153517 0.875345
Si Si2 0.450394 0.159823 0.534927
Si Si3 0.500000 0.000000 0.230748
Si Si4 0.054579 0.783701 0.841216
Si Si5 0.181085 0.428029 0.139076
O O1 0.314599 0.196539 0.663657
O O2 0.095643 0.181249 0.936360
O O3 0.278877 0.040250 0.833940
O O4 0.365224 0.197782 0.040119
O O5 0.487943 0.246546 0.383393
O O6 0.570995 0.118947 0.694625
O O7 0.416367 0.070595 0.384505
O O8 0.397045 0.936517 0.082885
O O9 0.173272 0.867452 0.849527
#
# Coordination Sequence:
#
# PCOD9313207 Si02
#       5
#     4   4   2   4   4
#     4  12  24  45  67 104 139 185 235 291 362 424
#     4  12  22  44  72  97 135 185 235 288 361 418
#     4  12  20  44  76  92 138 190 232 280 362 424
#     4  12  27  43  72 104 144 181 242 301 348 435
#     4  12  24  46  73 102 141 191 236 295 363 427
#
# _framework density 21.353750999999999
#
# number of rings (size 3 to 8) (size 9 to 14) (size 15 to 20)
#    0.000    0.000    6.667    4.667    0.000    0.000 
#    0.000    0.000    0.000    0.000    0.000    0.000 
#    0.000    0.000    0.000    0.000    0.000    0.000 
#
# Total GULP energy -100430.480116 kJ/mol
# GULP energy per Si atom -5579.471118 kJ/mol
# Density = 2.130515 g / cm^3
# Si number density = 21.353751 Si / 1000 Ang^3
#
#
#
# Elastic Constant Matrix: (Units=GPa)
#
#
# Indices 1 2 3 4 5 6 
#
# 1 189.2139 55.1878 59.7052 0.0000 0.0000 0.0000
# 2 55.1878 52.5859 11.1884 0.0000 0.0000 0.0000
# 3 59.7052 11.1884 101.1604 0.0000 0.0000 0.0000
# 4 0.0000 0.0000 0.0000 4.3990 0.0000 0.0000
# 5 0.0000 0.0000 0.0000 0.0000 21.6766 0.0000
# 6 0.0000 0.0000 0.0000 0.0000 0.0000 44.5439
#
#
#
# Elastic Compliance Matrix: (Units=1/GPa)
#
#
# Indices 1 2 3 4 5 6 
#
# 1 0.009259 -0.008760 -0.004496 0.000000 0.000000 0.000000
# 2 -0.008760 0.027764 0.002100 0.000000 0.000000 0.000000
# 3 -0.004496 0.002100 0.012306 0.000000 0.000000 0.000000
# 4 0.000000 0.000000 0.000000 0.227325 0.000000 0.000000
# 5 0.000000 0.000000 0.000000 0.000000 0.046133 0.000000
# 6 0.000000 0.000000 0.000000 0.000000 0.000000 0.022450
#
#
# Mechanical properties :
#
#
# Convention : Reuss Voigt Hill
#
# Bulk Modulus (GPa) = 37.01489 66.12479 51.56984
# Shear Modulus (GPa) = 13.27832 28.58247 20.93040
#
# Velocity S-wave (km/s) = 2.49635 3.66255 3.13417
# Velocity P-wave (km/s) = 5.06762 6.99423 6.10738
#
# Compressibility (1/GPa) = 0.02701616
#
# Stress axis : x y z
#
# Youngs Moduli (GPa) = 108.00660 36.01846 81.25863
#
# Poissons Ratio (x) = 0.31553 0.36531
# Poissons Ratio (y) = 0.94617 -0.17062
# Poissons Ratio (z) = 0.48556 -0.07563
#
# Static dielectric constant tensor:
#      x y z
#    x 1.769140 0.000000 0.000000 
#    y 0.000000 1.838280 0.000000 
#    z 0.000000 0.000000 1.824720 
# 
# From -- ./inp_files/473.got.cif
#   From: 2010.05.17/outbox.cif.g08.bks.cpg/sg18_1_cif.got.tgz:473.got - 2010.06.03 22:40:56.
