data_PCOD9313604
_publ_section_title
;
Structure prediction by ZEFSAII (Michael W. Deem and Ramdas Pophale) SiO2 
 PCOD9313604
Probable space group: P 21 21 21
;
_chemical_formula_sum "Si O2"
_cell_formula_units_Z 28
_cell_length_a 8.306344
_cell_length_b 8.461874
_cell_length_c 18.977738
_cell_angle_alpha 90.000000
_cell_angle_beta 90.000000
_cell_angle_gamma 90.000000
_cell_volume 1333.892756
_symmetry_space_group_name_H-M "P 21 21 21"
_symmetry_group_IT_number 19
_symmetry_cell_setting 'orthorhombic'
loop_
_space_group_symop_operation_xyz
x,y,z
1/2-x,-y,1/2+z
1/2+x,1/2-y,-z
-x,1/2+y,1/2-z
loop_
_atom_site_type_symbol
_atom_site_label
_atom_site_fract_x
_atom_site_fract_y
_atom_site_fract_z
Si Si1 0.081683 0.618475 0.604652
Si Si2 0.449904 0.338954 0.459812
Si Si3 0.776120 0.210028 0.400672
Si Si4 0.864247 0.767037 0.334129
Si Si5 0.974846 0.093478 0.282072
Si Si6 0.020845 0.851230 0.482748
Si Si7 0.760261 0.444074 0.607851
O O1 0.195284 0.464571 0.596714
O O2 0.172824 0.741746 0.655589
O O3 0.064309 0.703258 0.529999
O O4 0.911446 0.551995 0.629777
O O5 0.626377 0.316431 0.425260
O O6 0.418147 0.280441 0.540840
O O7 0.421582 0.525936 0.468132
O O8 0.329876 0.224522 0.417482
O O9 0.855791 0.215372 0.323251
O O10 0.966399 0.635728 0.295107
O O11 0.931981 0.794368 0.412475
O O12 0.893938 0.922683 0.287063
O O13 0.133320 0.081014 0.330536
O O14 0.169547 0.957167 0.453775
#
# Coordination Sequence:
#
# PCOD9313604 Si02
#       7
#     4   4   4   4   4   4   4
#     4  10  21  37  60  90 120 149 192 259 306 341
#     4  11  18  35  60  92 118 155 195 245 309 341
#     4  10  19  36  59  87 122 153 198 245 296 357
#     4  10  22  42  60  82 118 159 196 242 295 363
#     4  10  21  43  58  84 118 162 202 236 296 366
#     4  11  20  37  60  91 121 148 201 249 304 351
#     4  10  21  36  59  86 123 156 194 254 298 359
#
# _framework density 20.991192999999999
#
# number of rings (size 3 to 8) (size 9 to 14) (size 15 to 20)
#    0.000    1.714    5.714    0.857    0.000    1.143 
#    7.714   10.000    0.000    0.000    0.000    0.000 
#    0.000    0.000    0.000    0.000    0.000    0.000 
#
# Total GULP energy -156044.812265 kJ/mol
# GULP energy per Si atom -5573.029009 kJ/mol
# Density = 2.094342 g / cm^3
# Si number density = 20.991193 Si / 1000 Ang^3
#
#
#
# Elastic Constant Matrix: (Units=GPa)
#
#
# Indices 1 2 3 4 5 6 
#
# 1 86.8810 3.0155 7.8214 0.0000 0.0000 0.0000
# 2 3.0155 37.5690 15.5939 0.0000 0.0000 0.0000
# 3 7.8214 15.5939 22.8812 0.0000 0.0000 0.0000
# 4 0.0000 0.0000 0.0000 31.7590 0.0000 0.0000
# 5 0.0000 0.0000 0.0000 0.0000 0.7282 0.0000
# 6 0.0000 0.0000 0.0000 0.0000 0.0000 20.8228
#
#
#
# Elastic Compliance Matrix: (Units=1/GPa)
#
#
# Indices 1 2 3 4 5 6 
#
# 1 0.011904 0.001023 -0.004766 0.000000 0.000000 0.000000
# 2 0.001023 0.037205 -0.025706 0.000000 0.000000 0.000000
# 3 -0.004766 -0.025706 0.062852 0.000000 0.000000 0.000000
# 4 0.000000 0.000000 0.000000 0.031487 0.000000 0.000000
# 5 0.000000 0.000000 0.000000 0.000000 1.373205 0.000000
# 6 0.000000 0.000000 0.000000 0.000000 0.000000 0.048024
#
#
# Mechanical properties :
#
#
# Convention : Reuss Voigt Hill
#
# Bulk Modulus (GPa) = 18.84548 22.24365 20.54456
# Shear Modulus (GPa) = 3.04643 18.72204 10.88424
#
# Velocity S-wave (km/s) = 1.20600 2.98971 2.27956
# Velocity P-wave (km/s) = 3.30705 4.74737 4.09109
#
# Compressibility (1/GPa) = 0.05306313
#
# Stress axis : x y z
#
# Youngs Moduli (GPa) = 84.00856 26.87782 15.91036
#
# Poissons Ratio (x) = -0.02749 0.07583
# Poissons Ratio (y) = -0.08592 0.40899
# Poissons Ratio (z) = 0.40039 0.69091
#
# Static dielectric constant tensor:
#      x y z
#    x 1.836140 0.000000 0.000000 
#    y 0.000000 1.813480 0.000000 
#    z 0.000000 0.000000 1.748400 
# 
# From -- ./inp_files/3009.got.cif
#   From: 2010.05.17/outbox.cif.g08.bks.cpg/sg19_2_cif.got.tgz:3009.got - 2010.06.03 22:46:19.
