data_PCOD9313234
_publ_section_title
;
Structure prediction by ZEFSAII (Michael W. Deem and Ramdas Pophale) SiO2 
 PCOD9313234
Probable space group: P 21 21 2
;
_chemical_formula_sum "Si O2"
_cell_formula_units_Z 18
_cell_length_a 15.513232
_cell_length_b 9.287584
_cell_length_c 5.312339
_cell_angle_alpha 90.000000
_cell_angle_beta 90.000000
_cell_angle_gamma 90.000000
_cell_volume 765.404169
_symmetry_space_group_name_H-M "P 21 21 2"
_symmetry_group_IT_number 18
_symmetry_cell_setting 'orthorhombic'
loop_
_space_group_symop_operation_xyz
x,y,z
-x,-y,z
1/2+x,1/2-y,-z
1/2-x,1/2+y,-z
loop_
_atom_site_type_symbol
_atom_site_label
_atom_site_fract_x
_atom_site_fract_y
_atom_site_fract_z
Si Si1 0.428251 0.726431 0.081783
Si Si2 0.500000 0.500000 0.399242
Si Si3 0.841787 0.013377 0.233194
Si Si4 0.413932 0.170851 0.832773
Si Si5 0.856834 0.496289 0.666630
O O1 0.361939 0.605439 0.982104
O O2 0.483392 0.797150 0.855641
O O3 0.387120 0.841826 0.268066
O O4 0.502506 0.639089 0.226514
O O5 0.415553 0.515208 0.563172
O O6 0.859845 0.180121 0.167756
O O7 0.746541 0.993933 0.337373
O O8 0.392732 0.078260 0.584477
O O9 0.388492 0.087786 0.085670
#
# Coordination Sequence:
#
# PCOD9313234 Si02
#       5
#     4   2   4   4   4
#     4  12  27  52  79 116 159 219 264 326 403 489
#     4  12  24  48  84 108 158 216 270 314 398 492
#     4  12  27  50  80 113 159 212 274 321 403 482
#     4  12  27  53  76 118 160 210 263 334 403 474
#     4  12  32  47  82 119 161 201 271 342 396 458
#
# _framework density 23.516988999999999
#
# number of rings (size 3 to 8) (size 9 to 14) (size 15 to 20)
#    0.000    0.000    4.444    3.333    9.333    3.556 
#    0.000    0.000    0.000    0.000    0.000    0.000 
#    0.000    0.000    0.000    0.000    0.000    0.000 
#
# Total GULP energy -100839.525446 kJ/mol
# GULP energy per Si atom -5602.195858 kJ/mol
# Density = 2.346346 g / cm^3
# Si number density = 23.516989 Si / 1000 Ang^3
#
#
#
# Elastic Constant Matrix: (Units=GPa)
#
#
# Indices 1 2 3 4 5 6 
#
# 1 115.4997 54.2720 35.3745 0.0000 0.0000 0.0000
# 2 54.2720 164.8454 77.3836 0.0000 0.0000 0.0000
# 3 35.3745 77.3836 140.4963 0.0000 0.0000 0.0000
# 4 0.0000 0.0000 0.0000 41.6844 0.0000 0.0000
# 5 0.0000 0.0000 0.0000 0.0000 83.8099 0.0000
# 6 0.0000 0.0000 0.0000 0.0000 0.0000 26.1084
#
#
#
# Elastic Compliance Matrix: (Units=1/GPa)
#
#
# Indices 1 2 3 4 5 6 
#
# 1 0.010342 -0.002944 -0.000983 0.000000 0.000000 0.000000
# 2 -0.002944 0.009020 -0.004227 0.000000 0.000000 0.000000
# 3 -0.000983 -0.004227 0.009693 0.000000 0.000000 0.000000
# 4 0.000000 0.000000 0.000000 0.023990 0.000000 0.000000
# 5 0.000000 0.000000 0.000000 0.000000 0.011932 0.000000
# 6 0.000000 0.000000 0.000000 0.000000 0.000000 0.038302
#
#
# Mechanical properties :
#
#
# Convention : Reuss Voigt Hill
#
# Bulk Modulus (GPa) = 78.43889 83.87796 81.15843
# Shear Modulus (GPa) = 40.37667 47.24130 43.80898
#
# Velocity S-wave (km/s) = 4.14806 4.48684 4.32077
# Velocity P-wave (km/s) = 7.50789 7.91118 7.71217
#
# Compressibility (1/GPa) = 0.01274878
#
# Stress axis : x y z
#
# Youngs Moduli (GPa) = 96.69130 110.86981 103.16669
#
# Poissons Ratio (x) = 0.32636 0.10138
# Poissons Ratio (y) = 0.28463 0.43606
# Poissons Ratio (z) = 0.09501 0.46861
#
# Static dielectric constant tensor:
#      x y z
#    x 1.852130 0.000000 0.000000 
#    y 0.000000 1.932660 0.000000 
#    z 0.000000 0.000000 1.906840 
# 
# From -- ./inp_files/1379.got.cif
#   From: 2010.05.17/outbox.cif.g08.bks.cpg/sg18_1_cif.got.tgz:1379.got - 2010.06.03 22:40:56.
