data_PCOD9313360
_publ_section_title
;
Structure prediction by ZEFSAII (Michael W. Deem and Ramdas Pophale) SiO2 
 PCOD9313360
Probable space group: P 21 21 21
;
_chemical_formula_sum "Si O2"
_cell_formula_units_Z 32
_cell_length_a 14.184874
_cell_length_b 11.689846
_cell_length_c 7.503885
_cell_angle_alpha 90.000000
_cell_angle_beta 90.000000
_cell_angle_gamma 90.000000
_cell_volume 1244.286651
_symmetry_space_group_name_H-M "P 21 21 21"
_symmetry_group_IT_number 19
_symmetry_cell_setting 'orthorhombic'
loop_
_space_group_symop_operation_xyz
x,y,z
1/2-x,-y,1/2+z
1/2+x,1/2-y,-z
-x,1/2+y,1/2-z
loop_
_atom_site_type_symbol
_atom_site_label
_atom_site_fract_x
_atom_site_fract_y
_atom_site_fract_z
Si Si1 0.905861 0.801510 0.642608
Si Si2 0.915502 0.564940 0.473119
Si Si3 0.098343 0.480274 0.345872
Si Si4 0.647904 0.783527 0.044692
Si Si5 0.210200 0.504394 0.716815
Si Si6 0.438366 0.776405 0.946944
Si Si7 0.581679 0.576226 0.290782
Si Si8 0.729369 0.406952 0.468554
O O1 0.891338 0.695289 0.513276
O O2 0.825928 0.893208 0.677626
O O3 0.923128 0.746471 0.839446
O O4 0.000142 0.871405 0.587968
O O5 0.967274 0.505222 0.644948
O O6 0.821008 0.489714 0.470717
O O7 0.998600 0.544774 0.333075
O O8 0.155587 0.509992 0.529017
O O9 0.177017 0.504034 0.197776
O O10 0.074776 0.345639 0.353932
O O11 0.548785 0.807230 0.949471
O O12 0.627953 0.684033 0.192578
O O13 0.688514 0.885838 0.160951
O O14 0.721396 0.714736 0.917600
O O15 0.350655 0.858893 0.891971
O O16 0.660019 0.492910 0.366229
#
# Coordination Sequence:
#
# PCOD9313360 Si02
#       8
#     4   4   4   4   4   4   4   4
#     4  10  20  35  61  87 123 162 213 266 318 398
#     4  11  21  37  59  90 120 166 210 271 324 383
#     4  11  21  38  62  90 125 167 215 265 323 383
#     4  10  20  35  61  90 120 165 214 269 313 393
#     4  11  22  37  64  92 125 169 217 260 323 397
#     4  10  17  35  60  89 115 160 214 263 316 383
#     4  10  19  34  60  89 117 158 216 264 318 389
#     4  11  20  33  63  93 121 157 217 270 325 384
#
# _framework density 25.717544
#
# number of rings (size 3 to 8) (size 9 to 14) (size 15 to 20)
#    0.000    1.500    7.500    2.250    0.000    2.000 
#    0.000    0.000   11.000    1.500    0.000    0.000 
#    0.000    0.000    0.000    0.000    0.000    0.000 
#
# Total GULP energy -178645.030898 kJ/mol
# GULP energy per Si atom -5582.657216 kJ/mol
# Density = 2.565901 g / cm^3
# Si number density = 25.717544 Si / 1000 Ang^3
#
#
#
# Elastic Constant Matrix: (Units=GPa)
#
#
# Indices 1 2 3 4 5 6 
#
# 1 180.8209 29.4323 26.2306 0.0000 0.0000 0.0000
# 2 29.4323 130.1303 35.9816 0.0000 0.0000 0.0000
# 3 26.2306 35.9816 54.3976 0.0000 0.0000 0.0000
# 4 0.0000 0.0000 0.0000 42.5293 0.0000 0.0000
# 5 0.0000 0.0000 0.0000 0.0000 28.2232 0.0000
# 6 0.0000 0.0000 0.0000 0.0000 0.0000 55.5949
#
#
#
# Elastic Compliance Matrix: (Units=1/GPa)
#
#
# Indices 1 2 3 4 5 6 
#
# 1 0.005995 -0.000681 -0.002440 0.000000 0.000000 0.000000
# 2 -0.000681 0.009482 -0.005943 0.000000 0.000000 0.000000
# 3 -0.002440 -0.005943 0.023491 0.000000 0.000000 0.000000
# 4 0.000000 0.000000 0.000000 0.023513 0.000000 0.000000
# 5 0.000000 0.000000 0.000000 0.000000 0.035432 0.000000
# 6 0.000000 0.000000 0.000000 0.000000 0.000000 0.017987
#
#
# Mechanical properties :
#
#
# Convention : Reuss Voigt Hill
#
# Bulk Modulus (GPa) = 47.98809 60.95974 54.47392
# Shear Modulus (GPa) = 35.46677 43.51644 39.49161
#
# Velocity S-wave (km/s) = 3.71764 4.11797 3.92291
# Velocity P-wave (km/s) = 6.09327 6.80920 6.46116
#
# Compressibility (1/GPa) = 0.02083850
#
# Stress axis : x y z
#
# Youngs Moduli (GPa) = 166.79973 105.46210 42.56910
#
# Poissons Ratio (x) = 0.07184 0.10388
# Poissons Ratio (y) = 0.11363 0.25301
# Poissons Ratio (z) = 0.40704 0.62681
#
# Static dielectric constant tensor:
#      x y z
#    x 1.807700 0.000000 0.000000 
#    y 0.000000 1.981620 0.000000 
#    z 0.000000 0.000000 2.187460 
# 
# From -- ./inp_files/5035.got.cif
#   From: 2010.05.17/outbox.cif.g08.bks.cpg/sg19_3_cif.got.tgz:5035.got - 2010.06.03 22:46:19.
