data_PCOD9313538
_publ_section_title
;
Structure prediction by ZEFSAII (Michael W. Deem and Ramdas Pophale) SiO2 
 PCOD9313538
Probable space group: P 21 21 21
;
_chemical_formula_sum "Si O2"
_cell_formula_units_Z 28
_cell_length_a 28.064952
_cell_length_b 9.986272
_cell_length_c 5.198853
_cell_angle_alpha 90.000000
_cell_angle_beta 90.000000
_cell_angle_gamma 90.000000
_cell_volume 1457.052607
_symmetry_space_group_name_H-M "P 21 21 21"
_symmetry_group_IT_number 19
_symmetry_cell_setting 'orthorhombic'
loop_
_space_group_symop_operation_xyz
x,y,z
1/2-x,-y,1/2+z
1/2+x,1/2-y,-z
-x,1/2+y,1/2-z
loop_
_atom_site_type_symbol
_atom_site_label
_atom_site_fract_x
_atom_site_fract_y
_atom_site_fract_z
Si Si1 0.583726 0.646927 0.268516
Si Si2 0.938956 0.850473 0.760513
Si Si3 0.189858 0.943513 0.727631
Si Si4 0.116641 0.282751 0.229725
Si Si5 0.942970 0.515715 0.267320
Si Si6 0.014277 0.622640 0.623139
Si Si7 0.204991 0.127109 0.228122
O O1 0.640803 0.637567 0.267988
O O2 0.564666 0.548094 0.491193
O O3 0.561222 0.787941 0.347781
O O4 0.566157 0.594178 0.990489
O O5 0.903377 0.854724 0.520816
O O6 0.972220 0.980115 0.758438
O O7 0.972487 0.717861 0.739239
O O8 0.908055 0.842752 0.018786
O O9 0.237985 0.855788 0.732218
O O10 0.191932 0.034901 0.472760
O O11 0.192657 0.043464 0.970979
O O12 0.173040 0.260126 0.240259
O O13 0.095929 0.131876 0.205754
O O14 0.993420 0.584864 0.340177
#
# Coordination Sequence:
#
# PCOD9313538 Si02
#       7
#     4   4   4   4   4   4   4
#     4  12  22  39  61  83 126 150 202 243 297 343
#     4  11  26  38  61  83 120 155 207 235 301 346
#     4  10  19  34  56  93 115 155 190 251 300 345
#     4  11  21  38  59  84 120 153 194 245 299 352
#     4  11  23  36  57  85 116 159 188 241 297 340
#     4  11  26  42  59  88 120 165 200 246 288 363
#     4  10  19  33  59  86 123 145 197 245 306 349
#
# _framework density 19.216875000000002
#
# number of rings (size 3 to 8) (size 9 to 14) (size 15 to 20)
#    0.000    1.143    4.286    2.571    4.000    3.429 
#    0.000    0.000    0.000    1.714    0.000    0.000 
#    0.000    0.000    0.000    0.000    0.000    0.000 
#
# Total GULP energy -156353.997318 kJ/mol
# GULP energy per Si atom -5584.071333 kJ/mol
# Density = 1.917314 g / cm^3
# Si number density = 19.216875 Si / 1000 Ang^3
#
#
#
# Elastic Constant Matrix: (Units=GPa)
#
#
# Indices 1 2 3 4 5 6 
#
# 1 157.2848 27.6995 39.6232 0.0000 0.0000 0.0000
# 2 27.6995 57.1270 9.6424 0.0000 0.0000 0.0000
# 3 39.6232 9.6424 94.1336 0.0000 0.0000 0.0000
# 4 0.0000 0.0000 0.0000 9.2031 0.0000 0.0000
# 5 0.0000 0.0000 0.0000 0.0000 37.2662 0.0000
# 6 0.0000 0.0000 0.0000 0.0000 0.0000 33.4023
#
#
#
# Elastic Compliance Matrix: (Units=1/GPa)
#
#
# Indices 1 2 3 4 5 6 
#
# 1 0.007654 -0.003223 -0.002892 0.000000 0.000000 0.000000
# 2 -0.003223 0.019170 -0.000607 0.000000 0.000000 0.000000
# 3 -0.002892 -0.000607 0.011903 0.000000 0.000000 0.000000
# 4 0.000000 0.000000 0.000000 0.108659 0.000000 0.000000
# 5 0.000000 0.000000 0.000000 0.000000 0.026834 0.000000
# 6 0.000000 0.000000 0.000000 0.000000 0.000000 0.029938
#
#
# Mechanical properties :
#
#
# Convention : Reuss Voigt Hill
#
# Bulk Modulus (GPa) = 39.55193 51.38619 45.46906
# Shear Modulus (GPa) = 22.12111 31.41301 26.76706
#
# Velocity S-wave (km/s) = 3.39651 4.04748 3.73620
# Velocity P-wave (km/s) = 6.00069 6.97431 6.50574
#
# Compressibility (1/GPa) = 0.02528322
#
# Stress axis : x y z
#
# Youngs Moduli (GPa) = 130.65102 52.16448 84.01582
#
# Poissons Ratio (x) = 0.16813 0.24294
# Poissons Ratio (y) = 0.42111 0.05099
# Poissons Ratio (z) = 0.37779 0.03166
#
# Static dielectric constant tensor:
#      x y z
#    x 1.723000 0.000000 0.000000 
#    y 0.000000 1.658090 0.000000 
#    z 0.000000 0.000000 1.697820 
# 
# From -- ./inp_files/2300.got.cif
#   From: 2010.05.17/outbox.cif.g08.bks.cpg/sg19_2_cif.got.tgz:2300.got - 2010.06.03 22:46:19.
