data_PCOD9313256
_publ_section_title
;
Structure prediction by ZEFSAII (Michael W. Deem and Ramdas Pophale) SiO2 
 PCOD9313256
Probable space group: P 21 21 2
;
_chemical_formula_sum "Si O2"
_cell_formula_units_Z 16
_cell_length_a 9.871976
_cell_length_b 10.168623
_cell_length_c 5.506259
_cell_angle_alpha 90.000000
_cell_angle_beta 90.000000
_cell_angle_gamma 90.000000
_cell_volume 552.742518
_symmetry_space_group_name_H-M "P 21 21 2"
_symmetry_group_IT_number 18
_symmetry_cell_setting 'orthorhombic'
loop_
_space_group_symop_operation_xyz
x,y,z
-x,-y,z
1/2+x,1/2-y,-z
1/2-x,1/2+y,-z
loop_
_atom_site_type_symbol
_atom_site_label
_atom_site_fract_x
_atom_site_fract_y
_atom_site_fract_z
Si Si1 0.950622 0.200233 0.518805
Si Si2 0.049375 0.200233 0.018805
Si Si3 0.329012 0.918511 0.474434
Si Si4 0.829010 0.418513 0.025567
O O1 0.011993 0.138499 0.276235
O O2 0.029146 0.340105 0.529185
O O3 0.790264 0.190616 0.490439
O O4 0.988004 0.138499 0.776235
O O5 0.970852 0.340105 0.029185
O O6 0.209733 0.190614 0.990441
O O7 0.313914 0.002892 0.721565
O O8 0.313914 0.997106 0.221565
#
# Coordination Sequence:
#
# PCOD9313256 Si02
#       4
#     4   4   4   4
#     4  12  26  50  78 112 156 198 258 322 374 464
#     4  12  26  50  78 112 156 198 258 322 374 464
#     4  12  28  50  78 112 154 204 254 316 390 454
#     4  12  28  50  78 112 154 204 254 316 390 454
#
# _framework density 28.946567999999999
#
# number of rings (size 3 to 8) (size 9 to 14) (size 15 to 20)
#    0.000    0.000    0.000    9.000    0.000   12.000 
#    0.000    5.000    0.000    0.000    0.000    0.000 
#    0.000    0.000    0.000    0.000    0.000    0.000 
#
# Total GULP energy -89792.758556 kJ/mol
# GULP energy per Si atom -5612.047410 kJ/mol
# Density = 2.888068 g / cm^3
# Si number density = 28.946568 Si / 1000 Ang^3
#
#
#
# Elastic Constant Matrix: (Units=GPa)
#
#
# Indices 1 2 3 4 5 6 
#
# 1 174.6776 57.7710 17.1259 0.0000 0.0000 0.0000
# 2 57.7710 145.0338 37.4316 0.0000 0.0000 0.0000
# 3 17.1259 37.4316 123.6331 0.0000 0.0000 0.0000
# 4 0.0000 0.0000 0.0000 -107.3870 0.0000 0.0000
# 5 0.0000 0.0000 0.0000 0.0000 47.1761 0.0000
# 6 0.0000 0.0000 0.0000 0.0000 0.0000 59.2853
#
#
#
# Elastic Compliance Matrix: (Units=1/GPa)
#
#
# Indices 1 2 3 4 5 6 
#
# 1 0.006595 -0.002594 -0.000128 0.000000 0.000000 0.000000
# 2 -0.002594 0.008500 -0.002214 0.000000 0.000000 0.000000
# 3 -0.000128 -0.002214 0.008777 0.000000 0.000000 0.000000
# 4 0.000000 0.000000 0.000000 -0.009312 0.000000 0.000000
# 5 0.000000 0.000000 0.000000 0.000000 0.021197 0.000000
# 6 0.000000 0.000000 0.000000 0.000000 0.000000 0.016868
#
#
# Mechanical properties :
#
#
# Convention : Reuss Voigt Hill
#
# Bulk Modulus (GPa) = 71.43404 74.22238 72.82821
# Shear Modulus (GPa) = 74.44574 21.88262 48.16418
#
# Velocity S-wave (km/s) = 5.07683 2.75247 4.08352
# Velocity P-wave (km/s) = 7.68746 5.98316 6.88822
#
# Compressibility (1/GPa) = 0.01399893
#
# Stress axis : x y z
#
# Youngs Moduli (GPa) = 151.62276 117.65218 113.94008
#
# Poissons Ratio (x) = 0.30519 0.01461
# Poissons Ratio (y) = 0.39331 0.25227
# Poissons Ratio (z) = 0.01944 0.26049
#
# Static dielectric constant tensor:
#      x y z
#    x 2.162830 0.000000 0.000000 
#    y 0.000000 2.238060 0.000000 
#    z 0.000000 0.000000 2.239690 
# 
# From -- ./inp_files/832.got.cif
#   From: 2010.05.17/outbox.cif.g08.bks.cpg/sg18_1_cif.got.tgz:832.got - 2010.06.03 22:40:56.
