data_PCOD9313965
_publ_section_title
;
Structure prediction by ZEFSAII (Michael W. Deem and Ramdas Pophale) SiO2 
 PCOD9313965
Probable space group: P 21 21 21
;
_chemical_formula_sum "Si O2"
_cell_formula_units_Z 28
_cell_length_a 5.150772
_cell_length_b 13.814605
_cell_length_c 15.874757
_cell_angle_alpha 90.000000
_cell_angle_beta 90.000000
_cell_angle_gamma 90.000000
_cell_volume 1129.582314
_symmetry_space_group_name_H-M "P 21 21 21"
_symmetry_group_IT_number 19
_symmetry_cell_setting 'orthorhombic'
loop_
_space_group_symop_operation_xyz
x,y,z
1/2-x,-y,1/2+z
1/2+x,1/2-y,-z
-x,1/2+y,1/2-z
loop_
_atom_site_type_symbol
_atom_site_label
_atom_site_fract_x
_atom_site_fract_y
_atom_site_fract_z
Si Si1 0.673506 0.216078 0.864521
Si Si2 0.181427 0.528609 0.428766
Si Si3 0.815737 0.359470 0.431753
Si Si4 0.639625 0.867579 0.736985
Si Si5 0.327426 0.137667 0.001486
Si Si6 0.033993 0.699428 0.790662
Si Si7 0.572708 0.330865 0.600047
O O1 0.586126 0.309481 0.811178
O O2 0.836954 0.264136 0.940923
O O3 0.822967 0.156444 0.792085
O O4 0.422009 0.167541 0.907942
O O5 0.080475 0.419436 0.430345
O O6 0.214161 0.553708 0.330311
O O7 0.946811 0.587458 0.476018
O O8 0.445310 0.565630 0.468926
O O9 0.640918 0.372158 0.348036
O O10 0.688257 0.383247 0.520609
O O11 0.857215 0.243894 0.432974
O O12 0.849604 0.784189 0.753907
O O13 0.541962 0.899839 0.828229
O O14 0.227462 0.758389 0.852637
#
# Coordination Sequence:
#
# PCOD9313965 Si02
#       7
#     4   4   4   4   4   4   4
#     4  10  20  38  68  95 127 174 225 258 328 420
#     4  11  25  42  65 100 143 172 214 292 353 387
#     4  11  23  41  69  92 130 179 239 277 339 403
#     4   9  20  39  63  96 125 170 218 277 341 395
#     4  11  23  39  67  99 136 174 217 272 339 412
#     4  10  20  39  67  90 125 170 234 277 319 412
#     4  10  21  40  67  92 120 183 235 273 319 423
#
# _framework density 24.787924
#
# number of rings (size 3 to 8) (size 9 to 14) (size 15 to 20)
#    0.000    1.714    2.857    1.714    4.000    0.000 
#    2.571    0.000    0.000    0.000    0.000    0.000 
#    0.000    0.000    0.000    0.000    0.000    0.000 
#
# Total GULP energy -156449.692455 kJ/mol
# GULP energy per Si atom -5587.489016 kJ/mol
# Density = 2.473151 g / cm^3
# Si number density = 24.787924 Si / 1000 Ang^3
#
#
#
# Elastic Constant Matrix: (Units=GPa)
#
#
# Indices 1 2 3 4 5 6 
#
# 1 88.9974 12.3025 33.6128 0.0000 0.0000 0.0000
# 2 12.3025 61.0881 30.7648 0.0000 0.0000 0.0000
# 3 33.6128 30.7648 137.6701 0.0000 0.0000 0.0000
# 4 0.0000 0.0000 0.0000 22.0452 0.0000 0.0000
# 5 0.0000 0.0000 0.0000 0.0000 23.4369 0.0000
# 6 0.0000 0.0000 0.0000 0.0000 0.0000 39.1207
#
#
#
# Elastic Compliance Matrix: (Units=1/GPa)
#
#
# Indices 1 2 3 4 5 6 
#
# 1 0.012443 -0.001100 -0.002792 0.000000 0.000000 0.000000
# 2 -0.001100 0.018543 -0.003875 0.000000 0.000000 0.000000
# 3 -0.002792 -0.003875 0.008811 0.000000 0.000000 0.000000
# 4 0.000000 0.000000 0.000000 0.045361 0.000000 0.000000
# 5 0.000000 0.000000 0.000000 0.000000 0.042668 0.000000
# 6 0.000000 0.000000 0.000000 0.000000 0.000000 0.025562
#
#
# Mechanical properties :
#
#
# Convention : Reuss Voigt Hill
#
# Bulk Modulus (GPa) = 41.21510 49.01285 45.11398
# Shear Modulus (GPa) = 28.24700 30.99230 29.61965
#
# Velocity S-wave (km/s) = 3.37938 3.53979 3.46052
# Velocity P-wave (km/s) = 5.64713 6.04340 5.84862
#
# Compressibility (1/GPa) = 0.02426295
#
# Stress axis : x y z
#
# Youngs Moduli (GPa) = 80.36729 53.92908 113.48844
#
# Poissons Ratio (x) = 0.05930 0.31689
# Poissons Ratio (y) = 0.08838 0.43980
# Poissons Ratio (z) = 0.22441 0.20899
#
# Static dielectric constant tensor:
#      x y z
#    x 2.088350 0.000000 0.000000 
#    y 0.000000 1.963950 0.000000 
#    z 0.000000 0.000000 2.035690 
# 
# From -- ./inp_files/5682.got.cif
#   From: 2010.05.17/outbox.cif.g08.bks.cpg/sg19_3_cif.got.tgz:5682.got - 2010.06.03 22:46:19.
