data_PCOD9313900
_publ_section_title
;
Structure prediction by ZEFSAII (Michael W. Deem and Ramdas Pophale) SiO2 
 PCOD9313900
Probable space group: P 21 21 21
;
_chemical_formula_sum "Si O2"
_cell_formula_units_Z 32
_cell_length_a 19.348228
_cell_length_b 14.293130
_cell_length_c 5.138502
_cell_angle_alpha 90.000000
_cell_angle_beta 90.000000
_cell_angle_gamma 90.000000
_cell_volume 1421.035967
_symmetry_space_group_name_H-M "P 21 21 21"
_symmetry_group_IT_number 19
_symmetry_cell_setting 'orthorhombic'
loop_
_space_group_symop_operation_xyz
x,y,z
1/2-x,-y,1/2+z
1/2+x,1/2-y,-z
-x,1/2+y,1/2-z
loop_
_atom_site_type_symbol
_atom_site_label
_atom_site_fract_x
_atom_site_fract_y
_atom_site_fract_z
Si Si1 0.078915 0.412184 0.486374
Si Si2 0.044890 0.775225 0.813223
Si Si3 0.122976 0.152954 0.067055
Si Si4 0.830842 0.459305 0.231575
Si Si5 0.700259 0.654824 0.198121
Si Si6 0.170273 0.253358 0.529819
Si Si7 0.004373 0.573954 0.732752
Si Si8 0.976562 0.410031 0.100612
O O1 0.148865 0.361347 0.565553
O O2 0.065840 0.513421 0.609502
O O3 0.014077 0.343710 0.567668
O O4 0.055369 0.424637 0.188438
O O5 0.125650 0.796956 0.845339
O O6 0.029488 0.667778 0.871809
O O7 0.032483 0.806534 0.512761
O O8 0.157660 0.198191 0.804198
O O9 0.050670 0.111321 0.975492
O O10 0.115572 0.223983 0.304877
O O11 0.165315 0.069949 0.212152
O O12 0.787896 0.420279 0.471232
O O13 0.910373 0.427397 0.279343
O O14 0.808004 0.403701 0.969563
O O15 0.758669 0.731608 0.124390
O O16 0.964150 0.496467 0.901333
#
# Coordination Sequence:
#
# PCOD9313900 Si02
#       8
#     4   4   4   4   4   4   4   4
#     4  11  22  39  64  96 132 171 220 285 337 388
#     4  10  21  40  66  92 129 178 223 271 339 399
#     4  12  23  42  67 102 133 173 221 275 340 401
#     4  11  21  41  65  94 131 171 218 265 322 406
#     4  11  24  44  64  93 136 182 218 265 332 405
#     4  12  27  41  67  95 141 178 219 275 339 404
#     4  11  22  38  66 102 128 167 228 283 333 400
#     4  10  20  37  63  94 132 162 213 285 330 391
#
# _framework density 22.518784
#
# number of rings (size 3 to 8) (size 9 to 14) (size 15 to 20)
#    0.000    1.000    3.750    4.500    1.750    3.000 
#    0.000    1.250    2.750    0.000    0.000    0.000 
#    0.000    0.000    0.000    0.000    0.000    0.000 
#
# Total GULP energy -178187.703498 kJ/mol
# GULP energy per Si atom -5568.365734 kJ/mol
# Density = 2.246753 g / cm^3
# Si number density = 22.518784 Si / 1000 Ang^3
#
#
#
# Elastic Constant Matrix: (Units=GPa)
#
#
# Indices 1 2 3 4 5 6 
#
# 1 63.9554 16.8701 17.5272 0.0000 0.0000 0.0000
# 2 16.8701 84.3037 17.2276 0.0000 0.0000 0.0000
# 3 17.5272 17.2276 94.5241 0.0000 0.0000 0.0000
# 4 0.0000 0.0000 0.0000 21.8668 0.0000 0.0000
# 5 0.0000 0.0000 0.0000 0.0000 25.7362 0.0000
# 6 0.0000 0.0000 0.0000 0.0000 0.0000 34.8988
#
#
#
# Elastic Compliance Matrix: (Units=1/GPa)
#
#
# Indices 1 2 3 4 5 6 
#
# 1 0.017123 -0.002885 -0.002649 0.000000 0.000000 0.000000
# 2 -0.002885 0.012807 -0.001799 0.000000 0.000000 0.000000
# 3 -0.002649 -0.001799 0.011398 0.000000 0.000000 0.000000
# 4 0.000000 0.000000 0.000000 0.045731 0.000000 0.000000
# 5 0.000000 0.000000 0.000000 0.000000 0.038856 0.000000
# 6 0.000000 0.000000 0.000000 0.000000 0.000000 0.028654
#
#
# Mechanical properties :
#
#
# Convention : Reuss Voigt Hill
#
# Bulk Modulus (GPa) = 37.50751 38.44810 37.97781
# Shear Modulus (GPa) = 28.07037 29.24425 28.65731
#
# Velocity S-wave (km/s) = 3.53446 3.60760 3.57122
# Velocity P-wave (km/s) = 5.77484 5.87060 5.82292
#
# Compressibility (1/GPa) = 0.02666132
#
# Stress axis : x y z
#
# Youngs Moduli (GPa) = 58.40118 78.08303 87.73124
#
# Poissons Ratio (x) = 0.22528 0.23242
# Poissons Ratio (y) = 0.16849 0.15784
# Poissons Ratio (z) = 0.15472 0.14048
#
# Static dielectric constant tensor:
#      x y z
#    x 1.917030 0.000000 0.000000 
#    y 0.000000 1.901480 0.000000 
#    z 0.000000 0.000000 2.116610 
# 
# From -- ./inp_files/2067.got.cif
#   From: 2010.05.17/outbox.cif.g08.bks.cpg/sg19_2_cif.got.tgz:2067.got - 2010.06.03 22:46:19.
