data_PCOD9313693
_publ_section_title
;
Structure prediction by ZEFSAII (Michael W. Deem and Ramdas Pophale) SiO2 
 PCOD9313693
Probable space group: P 21 21 21
;
_chemical_formula_sum "Si O2"
_cell_formula_units_Z 28
_cell_length_a 8.474312
_cell_length_b 8.562091
_cell_length_c 17.582055
_cell_angle_alpha 90.000000
_cell_angle_beta 90.000000
_cell_angle_gamma 90.000000
_cell_volume 1275.715767
_symmetry_space_group_name_H-M "P 21 21 21"
_symmetry_group_IT_number 19
_symmetry_cell_setting 'orthorhombic'
loop_
_space_group_symop_operation_xyz
x,y,z
1/2-x,-y,1/2+z
1/2+x,1/2-y,-z
-x,1/2+y,1/2-z
loop_
_atom_site_type_symbol
_atom_site_label
_atom_site_fract_x
_atom_site_fract_y
_atom_site_fract_z
Si Si1 0.285150 0.110564 0.450005
Si Si2 0.611487 0.233740 0.412892
Si Si3 0.983557 0.458971 0.839602
Si Si4 0.336882 0.022040 0.720014
Si Si5 0.841489 0.021601 0.803954
Si Si6 0.618392 0.222673 0.691919
Si Si7 0.347060 0.819429 0.360953
O O1 0.471255 0.141520 0.453548
O O2 0.205686 0.164745 0.526938
O O3 0.209433 0.214910 0.382084
O O4 0.270783 0.929799 0.424845
O O5 0.519569 0.358865 0.360325
O O6 0.712077 0.108228 0.364656
O O7 0.795003 0.438661 0.832344
O O8 0.046608 0.428834 0.754822
O O9 0.115763 0.359262 0.884507
O O10 0.462863 0.123474 0.675094
O O11 0.250817 0.132310 0.784301
O O12 0.422458 0.881513 0.763412
O O13 0.721280 0.116475 0.750915
O O14 0.970656 0.130752 0.844834
#
# Coordination Sequence:
#
# PCOD9313693 Si02
#       7
#     4   4   4   4   4   4   4
#     4  10  24  44  62  98 137 183 214 280 342 430
#     4  11  24  39  70  94 135 181 229 275 349 407
#     4  11  20  39  67  96 119 183 235 278 326 403
#     4  10  23  33  64 100 133 171 215 304 327 390
#     4  10  19  39  66  94 129 176 228 276 321 408
#     4  11  22  40  61 104 138 169 231 279 343 394
#     4   9  20  40  62  92 131 169 232 274 336 396
#
# _framework density 21.948463
#
# number of rings (size 3 to 8) (size 9 to 14) (size 15 to 20)
#    0.000    1.714    2.857    2.571    6.000    1.143 
#    0.000    2.857    6.286    0.000    0.000    0.000 
#    0.000    0.000    0.000    0.000    0.000    0.000 
#
# Total GULP energy -155933.634594 kJ/mol
# GULP energy per Si atom -5569.058378 kJ/mol
# Density = 2.189851 g / cm^3
# Si number density = 21.948463 Si / 1000 Ang^3
#
#
#
# Elastic Constant Matrix: (Units=GPa)
#
#
# Indices 1 2 3 4 5 6 
#
# 1 59.3009 25.8501 3.9497 0.0000 0.0000 0.0000
# 2 25.8501 88.5757 16.6272 0.0000 0.0000 0.0000
# 3 3.9497 16.6272 41.5143 0.0000 0.0000 0.0000
# 4 0.0000 0.0000 0.0000 19.8881 0.0000 0.0000
# 5 0.0000 0.0000 0.0000 0.0000 29.7959 0.0000
# 6 0.0000 0.0000 0.0000 0.0000 0.0000 47.1444
#
#
#
# Elastic Compliance Matrix: (Units=1/GPa)
#
#
# Indices 1 2 3 4 5 6 
#
# 1 0.019329 -0.005726 0.000455 0.000000 0.000000 0.000000
# 2 -0.005726 0.013904 -0.005024 0.000000 0.000000 0.000000
# 3 0.000455 -0.005024 0.026057 0.000000 0.000000 0.000000
# 4 0.000000 0.000000 0.000000 0.050281 0.000000 0.000000
# 5 0.000000 0.000000 0.000000 0.000000 0.033562 0.000000
# 6 0.000000 0.000000 0.000000 0.000000 0.000000 0.021211
#
#
# Mechanical properties :
#
#
# Convention : Reuss Voigt Hill
#
# Bulk Modulus (GPa) = 25.84082 31.36055 28.60068
# Shear Modulus (GPa) = 25.27349 28.89661 27.08505
#
# Velocity S-wave (km/s) = 3.39705 3.63239 3.51669
# Velocity P-wave (km/s) = 5.21397 5.64904 5.43586
#
# Compressibility (1/GPa) = 0.03869847
#
# Stress axis : x y z
#
# Youngs Moduli (GPa) = 51.73550 71.92142 38.37735
#
# Poissons Ratio (x) = 0.41185 -0.01744
# Poissons Ratio (y) = 0.29626 0.19281
# Poissons Ratio (z) = -0.02351 0.36133
#
# Static dielectric constant tensor:
#      x y z
#    x 1.847400 0.000000 0.000000 
#    y 0.000000 1.972660 0.000000 
#    z 0.000000 0.000000 1.814880 
# 
# From -- ./inp_files/6575.got.cif
#   From: 2010.05.17/outbox.cif.g08.bks.cpg/sg19_4_cif.got.tgz:6575.got - 2010.06.03 22:46:19.
