data_PCOD9313768
_publ_section_title
;
Structure prediction by ZEFSAII (Michael W. Deem and Ramdas Pophale) SiO2 
 PCOD9313768
Probable space group: P 21 21 21
;
_chemical_formula_sum "Si O2"
_cell_formula_units_Z 20
_cell_length_a 9.543012
_cell_length_b 5.734800
_cell_length_c 13.571516
_cell_angle_alpha 90.000000
_cell_angle_beta 90.000000
_cell_angle_gamma 90.000000
_cell_volume 742.731956
_symmetry_space_group_name_H-M "P 21 21 21"
_symmetry_group_IT_number 19
_symmetry_cell_setting 'orthorhombic'
loop_
_space_group_symop_operation_xyz
x,y,z
1/2-x,-y,1/2+z
1/2+x,1/2-y,-z
-x,1/2+y,1/2-z
loop_
_atom_site_type_symbol
_atom_site_label
_atom_site_fract_x
_atom_site_fract_y
_atom_site_fract_z
Si Si1 0.446762 0.674098 0.633930
Si Si2 0.221135 0.177947 0.564108
Si Si3 0.660549 0.968422 0.278651
Si Si4 0.474104 0.658947 0.408757
Si Si5 0.536652 0.162392 0.600109
O O1 0.303354 0.674841 0.698025
O O2 0.408234 0.686261 0.516754
O O3 0.529401 0.426423 0.645011
O O4 0.535251 0.910096 0.653297
O O5 0.200325 0.286688 0.671887
O O6 0.384305 0.156231 0.548322
O O7 0.155198 0.341423 0.481423
O O8 0.122511 0.956424 0.562566
O O9 0.526728 0.872527 0.340290
O O10 0.615257 0.999350 0.166112
#
# Coordination Sequence:
#
# PCOD9313768 Si02
#       5
#     4   4   4   4   4
#     4  10  22  36  54  88 124 160 190 258 318 360
#     4  10  20  34  54  90 120 160 202 260 304 370
#     4  11  20  34  59  90 121 155 211 260 305 364
#     4  11  20  34  59  90 121 155 211 260 305 364
#     4  10  20  34  56  84 126 160 202 246 312 370
#
# _framework density 26.927614999999999
#
# number of rings (size 3 to 8) (size 9 to 14) (size 15 to 20)
#    0.000    1.600    6.000    0.000    0.000    0.000 
#    0.000    0.000    0.000    0.000   46.800    2.800 
#    0.000    0.000    0.000    0.000    0.000    0.000 
#
# Total GULP energy -111730.693063 kJ/mol
# GULP energy per Si atom -5586.534653 kJ/mol
# Density = 2.686633 g / cm^3
# Si number density = 26.927615 Si / 1000 Ang^3
#
#
#
# Elastic Constant Matrix: (Units=GPa)
#
#
# Indices 1 2 3 4 5 6 
#
# 1 103.0097 24.5848 38.4088 0.0000 0.0000 0.0000
# 2 24.5848 154.9681 26.0727 0.0000 0.0000 0.0000
# 3 38.4088 26.0727 186.1363 0.0000 0.0000 0.0000
# 4 0.0000 0.0000 0.0000 2.3126 0.0000 0.0000
# 5 0.0000 0.0000 0.0000 0.0000 43.8972 0.0000
# 6 0.0000 0.0000 0.0000 0.0000 0.0000 23.3295
#
#
#
# Elastic Compliance Matrix: (Units=1/GPa)
#
#
# Indices 1 2 3 4 5 6 
#
# 1 0.010794 -0.001370 -0.002035 0.000000 0.000000 0.000000
# 2 -0.001370 0.006783 -0.000667 0.000000 0.000000 0.000000
# 3 -0.002035 -0.000667 0.005886 0.000000 0.000000 0.000000
# 4 0.000000 0.000000 0.000000 0.432406 0.000000 0.000000
# 5 0.000000 0.000000 0.000000 0.000000 0.022780 0.000000
# 6 0.000000 0.000000 0.000000 0.000000 0.000000 0.042864
#
#
# Mechanical properties :
#
#
# Convention : Reuss Voigt Hill
#
# Bulk Modulus (GPa) = 65.28771 69.13851 67.21311
# Shear Modulus (GPa) = 9.34992 37.57772 23.46382
#
# Velocity S-wave (km/s) = 1.86542 3.73970 2.95509
# Velocity P-wave (km/s) = 5.37940 6.66173 6.05461
#
# Compressibility (1/GPa) = 0.01531682
#
# Stress axis : x y z
#
# Youngs Moduli (GPa) = 92.64670 147.43711 169.89807
#
# Poissons Ratio (x) = 0.20198 0.34580
# Poissons Ratio (y) = 0.12692 0.11339
# Poissons Ratio (z) = 0.18857 0.09840
#
# Static dielectric constant tensor:
#      x y z
#    x 2.084570 0.000000 0.000000 
#    y 0.000000 2.235610 0.000000 
#    z 0.000000 0.000000 2.136420 
# 
# From -- ./inp_files/821.got.cif
#   From: 2010.05.17/outbox.cif.g08.bks.cpg/sg19_1_cif.got.tgz:821.got - 2010.06.03 22:46:19.
