data_PCOD9313267
_publ_section_title
;
Structure prediction by ZEFSAII (Michael W. Deem and Ramdas Pophale) SiO2 
 PCOD9313267
Probable space group: P 21 21 2
;
_chemical_formula_sum "Si O2"
_cell_formula_units_Z 10
_cell_length_a 8.532989
_cell_length_b 4.977961
_cell_length_c 8.045045
_cell_angle_alpha 90.000000
_cell_angle_beta 90.000000
_cell_angle_gamma 90.000000
_cell_volume 341.728463
_symmetry_space_group_name_H-M "P 21 21 2"
_symmetry_group_IT_number 18
_symmetry_cell_setting 'orthorhombic'
loop_
_space_group_symop_operation_xyz
x,y,z
-x,-y,z
1/2+x,1/2-y,-z
1/2-x,1/2+y,-z
loop_
_atom_site_type_symbol
_atom_site_label
_atom_site_fract_x
_atom_site_fract_y
_atom_site_fract_z
Si Si1 0.616001 0.753636 0.915617
Si Si2 0.000000 0.000000 0.516352
Si Si3 0.278703 0.115609 0.282709
O O1 0.500000 0.500000 0.918280
O O2 0.745494 0.697464 0.772445
O O3 0.500000 0.000000 0.887302
O O4 0.696538 0.774819 0.094965
O O5 0.916403 0.234635 0.620637
O O6 0.128343 0.149922 0.401037
#
# Coordination Sequence:
#
# PCOD9313267 Si02
#       3
#     4   2   4
#     4  12  28  58 103 138 190 265 333 397 474 615
#     4  12  32  58  94 148 204 256 314 434 494 590
#     4  12  30  61  96 145 199 258 336 398 511 577
#
# _framework density 29.263000000000002
#
# number of rings (size 3 to 8) (size 9 to 14) (size 15 to 20)
#    0.000    0.000    4.000    2.400    5.600    6.400 
#    0.000    0.000    0.000    0.000    0.000    0.000 
#    0.000    0.000    0.000    0.000    0.000    0.000 
#
# Total GULP energy -56026.811287 kJ/mol
# GULP energy per Si atom -5602.681129 kJ/mol
# Density = 2.919640 g / cm^3
# Si number density = 29.263000 Si / 1000 Ang^3
#
#
#
# Elastic Constant Matrix: (Units=GPa)
#
#
# Indices 1 2 3 4 5 6 
#
# 1 239.5521 128.0139 128.5349 0.0000 0.0000 0.0000
# 2 128.0139 223.9865 89.6165 0.0000 0.0000 0.0000
# 3 128.5349 89.6165 248.7370 0.0000 0.0000 0.0000
# 4 0.0000 0.0000 0.0000 23.2600 0.0000 0.0000
# 5 0.0000 0.0000 0.0000 0.0000 70.3055 0.0000
# 6 0.0000 0.0000 0.0000 0.0000 0.0000 91.0768
#
#
#
# Elastic Compliance Matrix: (Units=1/GPa)
#
#
# Indices 1 2 3 4 5 6 
#
# 1 0.007230 -0.003082 -0.002626 0.000000 0.000000 0.000000
# 2 -0.003082 0.006530 -0.000760 0.000000 0.000000 0.000000
# 3 -0.002626 -0.000760 0.005651 0.000000 0.000000 0.000000
# 4 0.000000 0.000000 0.000000 0.042992 0.000000 0.000000
# 5 0.000000 0.000000 0.000000 0.000000 0.014224 0.000000
# 6 0.000000 0.000000 0.000000 0.000000 0.000000 0.010980
#
#
# Mechanical properties :
#
#
# Convention : Reuss Voigt Hill
#
# Bulk Modulus (GPa) = 154.42229 156.06734 155.24482
# Shear Modulus (GPa) = 48.68497 61.33582 55.01040
#
# Velocity S-wave (km/s) = 4.08328 4.58320 4.34044
# Velocity P-wave (km/s) = 8.66694 9.02530 8.84794
#
# Compressibility (1/GPa) = 0.00647575
#
# Stress axis : x y z
#
# Youngs Moduli (GPa) = 138.30816 153.14084 176.95442
#
# Poissons Ratio (x) = 0.47192 0.46468
# Poissons Ratio (y) = 0.42621 0.13452
# Poissons Ratio (z) = 0.36319 0.11642
#
# Static dielectric constant tensor:
#      x y z
#    x 2.382090 0.000000 0.000000 
#    y 0.000000 2.407930 0.000000 
#    z 0.000000 0.000000 2.237890 
# 
# From -- ./inp_files/2705.got.cif
#   From: 2010.05.17/outbox.cif.g08.bks.cpg/sg18_2_cif.got.tgz:2705.got - 2010.06.03 22:40:56.
