data_PCOD9313762
_publ_section_title
;
Structure prediction by ZEFSAII (Michael W. Deem and Ramdas Pophale) SiO2 
 PCOD9313762
Probable space group: P 21 21 21
;
_chemical_formula_sum "Si O2"
_cell_formula_units_Z 32
_cell_length_a 7.063376
_cell_length_b 19.717273
_cell_length_c 8.867243
_cell_angle_alpha 90.000000
_cell_angle_beta 90.000000
_cell_angle_gamma 90.000000
_cell_volume 1234.945481
_symmetry_space_group_name_H-M "P 21 21 21"
_symmetry_group_IT_number 19
_symmetry_cell_setting 'orthorhombic'
loop_
_space_group_symop_operation_xyz
x,y,z
1/2-x,-y,1/2+z
1/2+x,1/2-y,-z
-x,1/2+y,1/2-z
loop_
_atom_site_type_symbol
_atom_site_label
_atom_site_fract_x
_atom_site_fract_y
_atom_site_fract_z
Si Si1 0.374520 0.499111 0.989180
Si Si2 0.472088 0.729324 0.347913
Si Si3 0.599967 0.402844 0.510390
Si Si4 0.964974 0.123326 0.819616
Si Si5 0.197851 0.240226 0.397147
Si Si6 0.483353 0.025382 0.849067
Si Si7 0.722559 0.137127 0.366499
Si Si8 0.979718 0.825700 0.328482
O O1 0.483529 0.435577 0.059486
O O2 0.154645 0.479386 0.027744
O O3 0.396443 0.572544 0.072449
O O4 0.427900 0.507867 0.814900
O O5 0.415791 0.808105 0.344527
O O6 0.638205 0.727566 0.224216
O O7 0.335535 0.670231 0.289652
O O8 0.524991 0.710766 0.516009
O O9 0.510396 0.407216 0.344675
O O10 0.699747 0.330416 0.514052
O O11 0.670737 0.473858 0.577974
O O12 0.435242 0.388803 0.632825
O O13 0.743388 0.148661 0.823234
O O14 0.223042 0.302489 0.510935
O O15 0.019241 0.268174 0.300426
O O16 0.414871 0.102274 0.822983
#
# Coordination Sequence:
#
# PCOD9313762 Si02
#       8
#     4   4   4   4   4   4   4   4
#     4  10  20  33  59  90 125 149 208 266 312 355
#     4  11  24  36  64  91 128 167 199 257 317 376
#     4  11  22  36  67  88 122 163 205 267 310 367
#     4  10  21  39  55  96 125 152 209 261 313 365
#     4  11  21  43  58  88 131 160 207 249 315 383
#     4  10  20  34  57  90 115 159 202 261 310 350
#     4  11  19  38  63  92 114 166 207 254 312 361
#     4  10  21  37  59  87 130 158 207 259 299 379
#
# _framework density 25.912075999999999
#
# number of rings (size 3 to 8) (size 9 to 14) (size 15 to 20)
#    0.000    1.500    5.000    2.250   10.500    1.000 
#    0.000    0.000    2.750    0.000    0.000    0.000 
#    0.000    0.000    0.000    0.000    0.000    0.000 
#
# Total GULP energy -178865.059754 kJ/mol
# GULP energy per Si atom -5589.533117 kJ/mol
# Density = 2.585310 g / cm^3
# Si number density = 25.912076 Si / 1000 Ang^3
#
#
#
# Elastic Constant Matrix: (Units=GPa)
#
#
# Indices 1 2 3 4 5 6 
#
# 1 45.3193 18.8553 19.1355 0.0000 0.0000 0.0000
# 2 18.8553 138.2618 55.3973 0.0000 0.0000 0.0000
# 3 19.1355 55.3973 103.0551 0.0000 0.0000 0.0000
# 4 0.0000 0.0000 0.0000 56.4238 0.0000 0.0000
# 5 0.0000 0.0000 0.0000 0.0000 16.8509 0.0000
# 6 0.0000 0.0000 0.0000 0.0000 0.0000 36.7427
#
#
#
# Elastic Compliance Matrix: (Units=1/GPa)
#
#
# Indices 1 2 3 4 5 6 
#
# 1 0.024337 -0.001922 -0.003486 0.000000 0.000000 0.000000
# 2 -0.001922 0.009370 -0.004680 0.000000 0.000000 0.000000
# 3 -0.003486 -0.004680 0.012866 0.000000 0.000000 0.000000
# 4 0.000000 0.000000 0.000000 0.017723 0.000000 0.000000
# 5 0.000000 0.000000 0.000000 0.000000 0.059344 0.000000
# 6 0.000000 0.000000 0.000000 0.000000 0.000000 0.027216
#
#
# Mechanical properties :
#
#
# Convention : Reuss Voigt Hill
#
# Bulk Modulus (GPa) = 37.88189 52.60140 45.24165
# Shear Modulus (GPa) = 27.80375 34.88668 31.34522
#
# Velocity S-wave (km/s) = 3.27923 3.67324 3.48181
# Velocity P-wave (km/s) = 5.38413 6.19147 5.80186
#
# Compressibility (1/GPa) = 0.02639784
#
# Stress axis : x y z
#
# Youngs Moduli (GPa) = 41.08934 106.72490 77.72177
#
# Poissons Ratio (x) = 0.20517 0.27091
# Poissons Ratio (y) = 0.07899 0.36372
# Poissons Ratio (z) = 0.14322 0.49945
#
# Static dielectric constant tensor:
#      x y z
#    x 2.234900 0.000000 0.000000 
#    y 0.000000 2.203290 0.000000 
#    z 0.000000 0.000000 1.921940 
# 
# From -- ./inp_files/3100.got.cif
#   From: 2010.05.17/outbox.cif.g08.bks.cpg/sg19_2_cif.got.tgz:3100.got - 2010.06.03 22:46:19.
