data_PCOD9313385
_publ_section_title
;
Structure prediction by ZEFSAII (Michael W. Deem and Ramdas Pophale) SiO2 
 PCOD9313385
Probable space group: P 21 21 21
;
_chemical_formula_sum "Si O2"
_cell_formula_units_Z 32
_cell_length_a 16.582559
_cell_length_b 9.607842
_cell_length_c 7.526048
_cell_angle_alpha 90.000000
_cell_angle_beta 90.000000
_cell_angle_gamma 90.000000
_cell_volume 1199.069586
_symmetry_space_group_name_H-M "P 21 21 21"
_symmetry_group_IT_number 19
_symmetry_cell_setting 'orthorhombic'
loop_
_space_group_symop_operation_xyz
x,y,z
1/2-x,-y,1/2+z
1/2+x,1/2-y,-z
-x,1/2+y,1/2-z
loop_
_atom_site_type_symbol
_atom_site_label
_atom_site_fract_x
_atom_site_fract_y
_atom_site_fract_z
Si Si1 0.114861 0.469006 0.134887
Si Si2 0.504893 0.669676 0.905983
Si Si3 0.259304 0.670930 0.207412
Si Si4 0.241122 0.218584 0.095395
Si Si5 0.960458 0.562828 0.608366
Si Si6 0.857730 0.476508 0.292549
Si Si7 0.629905 0.371750 0.460400
Si Si8 0.876176 0.089703 0.750763
O O1 0.041593 0.430344 0.263977
O O2 0.181517 0.573747 0.209346
O O3 0.165429 0.326057 0.117034
O O4 0.093892 0.543944 0.946833
O O5 0.598616 0.669533 0.842502
O O6 0.514279 0.599443 0.100612
O O7 0.442867 0.791544 0.939818
O O8 0.248604 0.762808 0.383938
O O9 0.289572 0.777001 0.054708
O O10 0.330228 0.553888 0.197583
O O11 0.223300 0.060170 0.154599
O O12 0.311625 0.288908 0.213268
O O13 0.046299 0.632210 0.634610
O O14 0.916938 0.571586 0.419678
O O15 0.900474 0.599711 0.763429
O O16 0.862022 0.495380 0.083524
#
# Coordination Sequence:
#
# PCOD9313385 Si02
#       8
#     4   4   4   4   4   4   4   4
#     4  10  19  29  54  84 112 147 175 221 296 344
#     4  10  21  36  52  80 116 148 182 236 266 335
#     4  10  18  29  52  83 114 145 174 220 292 345
#     4  10  18  32  52  81 114 144 180 230 275 344
#     4  10  22  36  49  82 109 148 189 222 276 332
#     4  10  21  35  52  82 110 143 194 214 280 336
#     4  12  20  37  56  78 118 154 180 231 279 330
#     4  10  19  32  53  80 115 145 182 228 284 336
#
# _framework density 26.687359000000001
#
# number of rings (size 3 to 8) (size 9 to 14) (size 15 to 20)
#    0.750    1.000    3.750    2.250    3.500    0.000 
#    2.250    0.000    0.000    0.000    3.250    0.000 
#    0.000    0.000    0.000    0.000    0.000    0.000 
#
# Total GULP energy -178460.446911 kJ/mol
# GULP energy per Si atom -5576.888966 kJ/mol
# Density = 2.662662 g / cm^3
# Si number density = 26.687359 Si / 1000 Ang^3
#
#
#
# Elastic Constant Matrix: (Units=GPa)
#
#
# Indices 1 2 3 4 5 6 
#
# 1 82.2868 41.8624 25.0055 0.0000 0.0000 0.0000
# 2 41.8624 94.4390 11.0907 0.0000 0.0000 0.0000
# 3 25.0055 11.0907 80.1809 0.0000 0.0000 0.0000
# 4 0.0000 0.0000 0.0000 24.2845 0.0000 0.0000
# 5 0.0000 0.0000 0.0000 0.0000 29.5356 0.0000
# 6 0.0000 0.0000 0.0000 0.0000 0.0000 40.1828
#
#
#
# Elastic Compliance Matrix: (Units=1/GPa)
#
#
# Indices 1 2 3 4 5 6 
#
# 1 0.017061 -0.007052 -0.004345 0.000000 0.000000 0.000000
# 2 -0.007052 0.013679 0.000307 0.000000 0.000000 0.000000
# 3 -0.004345 0.000307 0.013784 0.000000 0.000000 0.000000
# 4 0.000000 0.000000 0.000000 0.041179 0.000000 0.000000
# 5 0.000000 0.000000 0.000000 0.000000 0.033857 0.000000
# 6 0.000000 0.000000 0.000000 0.000000 0.000000 0.024886
#
#
# Mechanical properties :
#
#
# Convention : Reuss Voigt Hill
#
# Bulk Modulus (GPa) = 44.75539 45.86932 45.31235
# Shear Modulus (GPa) = 28.72330 30.73045 29.72687
#
# Velocity S-wave (km/s) = 3.28424 3.39705 3.34112
# Velocity P-wave (km/s) = 5.58465 5.71066 5.64801
#
# Compressibility (1/GPa) = 0.02234368
#
# Stress axis : x y z
#
# Youngs Moduli (GPa) = 58.61375 73.10538 72.54579
#
# Poissons Ratio (x) = 0.51557 0.31522
# Poissons Ratio (y) = 0.41336 -0.02229
# Poissons Ratio (z) = 0.25469 -0.02247
#
# Static dielectric constant tensor:
#      x y z
#    x 2.186500 0.000000 0.000000 
#    y 0.000000 2.128850 0.000000 
#    z 0.000000 0.000000 2.084980 
# 
# From -- ./inp_files/4275.got.cif
#   From: 2010.05.17/outbox.cif.g08.bks.cpg/sg19_3_cif.got.tgz:4275.got - 2010.06.03 22:46:19.
