data_PCOD9313298
_publ_section_title
;
Structure prediction by ZEFSAII (Michael W. Deem and Ramdas Pophale) SiO2 
 PCOD9313298
Probable space group: P 21 21 21
;
_chemical_formula_sum "Si O2"
_cell_formula_units_Z 32
_cell_length_a 9.166697
_cell_length_b 13.727062
_cell_length_c 9.255716
_cell_angle_alpha 90.000000
_cell_angle_beta 90.000000
_cell_angle_gamma 90.000000
_cell_volume 1164.663572
_symmetry_space_group_name_H-M "P 21 21 21"
_symmetry_group_IT_number 19
_symmetry_cell_setting 'orthorhombic'
loop_
_space_group_symop_operation_xyz
x,y,z
1/2-x,-y,1/2+z
1/2+x,1/2-y,-z
-x,1/2+y,1/2-z
loop_
_atom_site_type_symbol
_atom_site_label
_atom_site_fract_x
_atom_site_fract_y
_atom_site_fract_z
Si Si1 0.254964 0.499952 0.580446
Si Si2 0.649351 0.740279 0.628633
Si Si3 0.146178 0.167534 0.199483
Si Si4 0.852206 0.478428 0.675298
Si Si5 0.136833 0.863213 0.100135
Si Si6 0.813653 0.797015 0.053351
Si Si7 0.876702 0.902061 0.659139
Si Si8 0.012983 0.149285 0.921629
O O1 0.256670 0.396203 0.500552
O O2 0.383688 0.560360 0.505382
O O3 0.232746 0.473332 0.747874
O O4 0.114266 0.568177 0.543179
O O5 0.527111 0.811878 0.709798
O O6 0.800449 0.797097 0.658558
O O7 0.578297 0.754134 0.468304
O O8 0.630868 0.643926 0.726005
O O9 0.203451 0.068339 0.267725
O O10 0.218129 0.258277 0.284461
O O11 0.155006 0.160116 0.027110
O O12 0.849719 0.456897 0.503124
O O13 0.913054 0.587202 0.707725
O O14 0.974436 0.411314 0.753508
O O15 0.262212 0.790538 0.046545
O O16 0.984543 0.817098 0.046717
#
# Coordination Sequence:
#
# PCOD9313298 Si02
#       8
#     4   4   4   4   4   4   4   4
#     4  10  18  32  51  77 101 133 167 210 248 300
#     4   8  15  28  44  68  94 123 159 197 249 297
#     4   8  18  29  44  72  92 130 161 204 249 296
#     4  10  17  29  46  72  99 122 163 213 258 279
#     4  10  15  27  47  73  97 119 165 215 250 280
#     4  10  17  28  49  73 100 124 166 213 251 286
#     4  10  18  31  49  74 100 131 165 208 247 296
#     4   8  16  28  44  65  97 126 156 194 256 304
#
# _framework density 27.475746999999998
#
# number of rings (size 3 to 8) (size 9 to 14) (size 15 to 20)
#    0.750    2.000    3.750    0.000    0.000    0.000 
#    2.250    0.000    0.000    0.000   29.250    0.000 
#    0.000    0.000    0.000    0.000    0.000    0.000 
#
# Total GULP energy -178188.545639 kJ/mol
# GULP energy per Si atom -5568.392051 kJ/mol
# Density = 2.741321 g / cm^3
# Si number density = 27.475747 Si / 1000 Ang^3
#
#
#
# Elastic Constant Matrix: (Units=GPa)
#
#
# Indices 1 2 3 4 5 6 
#
# 1 49.6382 10.3053 1.4686 0.0000 0.0000 0.0000
# 2 10.3053 95.3343 35.9476 0.0000 0.0000 0.0000
# 3 1.4686 35.9476 114.3463 0.0000 0.0000 0.0000
# 4 0.0000 0.0000 0.0000 56.9891 0.0000 0.0000
# 5 0.0000 0.0000 0.0000 0.0000 32.0450 0.0000
# 6 0.0000 0.0000 0.0000 0.0000 0.0000 32.3473
#
#
#
# Elastic Compliance Matrix: (Units=1/GPa)
#
#
# Indices 1 2 3 4 5 6 
#
# 1 0.020633 -0.002417 0.000495 0.000000 0.000000 0.000000
# 2 -0.002417 0.012183 -0.003799 0.000000 0.000000 0.000000
# 3 0.000495 -0.003799 0.009933 0.000000 0.000000 0.000000
# 4 0.000000 0.000000 0.000000 0.017547 0.000000 0.000000
# 5 0.000000 0.000000 0.000000 0.000000 0.031206 0.000000
# 6 0.000000 0.000000 0.000000 0.000000 0.000000 0.030914
#
#
# Mechanical properties :
#
#
# Convention : Reuss Voigt Hill
#
# Bulk Modulus (GPa) = 31.94159 39.41796 35.67978
# Shear Modulus (GPa) = 34.65117 38.38276 36.51697
#
# Velocity S-wave (km/s) = 3.55513 3.74166 3.64958
# Velocity P-wave (km/s) = 5.33877 5.74842 5.54738
#
# Compressibility (1/GPa) = 0.03130714
#
# Stress axis : x y z
#
# Youngs Moduli (GPa) = 48.46621 82.08044 100.67119
#
# Poissons Ratio (x) = 0.19838 -0.04982
# Poissons Ratio (y) = 0.11714 0.38245
# Poissons Ratio (z) = -0.02398 0.31183
#
# Static dielectric constant tensor:
#      x y z
#    x 2.240890 0.000000 0.000000 
#    y 0.000000 2.189570 0.000000 
#    z 0.000000 0.000000 2.290270 
# 
# From -- ./inp_files/5105.got.cif
#   From: 2010.05.17/outbox.cif.g08.bks.cpg/sg19_3_cif.got.tgz:5105.got - 2010.06.03 22:46:19.
