data_PCOD9313572
_publ_section_title
;
Structure prediction by ZEFSAII (Michael W. Deem and Ramdas Pophale) SiO2 
 PCOD9313572
Probable space group: P 21 21 21
;
_chemical_formula_sum "Si O2"
_cell_formula_units_Z 32
_cell_length_a 11.040993
_cell_length_b 9.584245
_cell_length_c 14.185478
_cell_angle_alpha 90.000000
_cell_angle_beta 90.000000
_cell_angle_gamma 90.000000
_cell_volume 1501.101352
_symmetry_space_group_name_H-M "P 21 21 21"
_symmetry_group_IT_number 19
_symmetry_cell_setting 'orthorhombic'
loop_
_space_group_symop_operation_xyz
x,y,z
1/2-x,-y,1/2+z
1/2+x,1/2-y,-z
-x,1/2+y,1/2-z
loop_
_atom_site_type_symbol
_atom_site_label
_atom_site_fract_x
_atom_site_fract_y
_atom_site_fract_z
Si Si1 0.292552 0.257071 0.917666
Si Si2 0.734253 0.523309 0.339564
Si Si3 0.884724 0.717895 0.756095
Si Si4 0.620399 0.511713 0.670795
Si Si5 0.450767 0.712684 0.784098
Si Si6 0.540585 0.008313 0.353454
Si Si7 0.751447 0.809384 0.380688
Si Si8 0.498714 0.490725 0.932251
O O1 0.212957 0.268158 0.822599
O O2 0.338547 0.094926 0.921386
O O3 0.410874 0.356873 0.919476
O O4 0.212964 0.298861 0.009129
O O5 0.673286 0.372613 0.342555
O O6 0.760526 0.534866 0.227133
O O7 0.672041 0.667136 0.369016
O O8 0.866641 0.527867 0.389298
O O9 0.953544 0.848705 0.798140
O O10 0.971981 0.610181 0.703992
O O11 0.562648 0.637525 0.732196
O O12 0.538718 0.372880 0.679788
O O13 0.349999 0.699475 0.702058
O O14 0.433253 0.615346 0.875114
O O15 0.676160 0.948864 0.367286
O O16 0.488023 0.022205 0.458018
#
# Coordination Sequence:
#
# PCOD9313572 Si02
#       8
#     4   4   4   4   4   4   4   4
#     4  10  20  36  59  86 117 158 203 250 307 366
#     4   9  19  37  59  82 115 157 200 251 306 360
#     4  11  23  41  60  85 122 166 204 246 305 367
#     4   9  18  31  55  83 113 151 197 250 306 357
#     4  10  19  35  58  88 120 155 198 255 309 358
#     4  11  24  40  60  88 124 164 205 250 300 366
#     4  10  20  35  59  87 119 160 201 246 304 365
#     4  10  21  39  62  91 122 153 204 264 307 359
#
# _framework density 21.317682000000001
#
# number of rings (size 3 to 8) (size 9 to 14) (size 15 to 20)
#    0.000    2.000    0.000    4.500    0.000    4.000 
#    0.000    6.250    0.000    0.000    0.000    0.000 
#    0.000    0.000    0.000    0.000    0.000    0.000 
#
# Total GULP energy -178244.481854 kJ/mol
# GULP energy per Si atom -5570.140058 kJ/mol
# Density = 2.126916 g / cm^3
# Si number density = 21.317682 Si / 1000 Ang^3
#
#
#
# Elastic Constant Matrix: (Units=GPa)
#
#
# Indices 1 2 3 4 5 6 
#
# 1 26.8223 22.0529 14.2291 0.0000 0.0000 0.0000
# 2 22.0529 120.9253 58.4717 0.0000 0.0000 0.0000
# 3 14.2291 58.4717 91.1200 0.0000 0.0000 0.0000
# 4 0.0000 0.0000 0.0000 32.5666 0.0000 0.0000
# 5 0.0000 0.0000 0.0000 0.0000 23.0447 0.0000
# 6 0.0000 0.0000 0.0000 0.0000 0.0000 28.2615
#
#
#
# Elastic Compliance Matrix: (Units=1/GPa)
#
#
# Indices 1 2 3 4 5 6 
#
# 1 0.044251 -0.006856 -0.002511 0.000000 0.000000 0.000000
# 2 -0.006856 0.013052 -0.007305 0.000000 0.000000 0.000000
# 3 -0.002511 -0.007305 0.016054 0.000000 0.000000 0.000000
# 4 0.000000 0.000000 0.000000 0.030706 0.000000 0.000000
# 5 0.000000 0.000000 0.000000 0.000000 0.043394 0.000000
# 6 0.000000 0.000000 0.000000 0.000000 0.000000 0.035384
#
#
# Mechanical properties :
#
#
# Convention : Reuss Voigt Hill
#
# Bulk Modulus (GPa) = 24.99109 47.59724 36.29417
# Shear Modulus (GPa) = 21.78434 26.38215 24.08324
#
# Velocity S-wave (km/s) = 3.20017 3.52173 3.36479
# Velocity P-wave (km/s) = 5.04018 6.23801 5.67081
#
# Compressibility (1/GPa) = 0.04001426
#
# Stress axis : x y z
#
# Youngs Moduli (GPa) = 22.59827 76.61624 62.28919
#
# Poissons Ratio (x) = 0.52528 0.15639
# Poissons Ratio (y) = 0.15493 0.45502
# Poissons Ratio (z) = 0.05674 0.55967
#
# Static dielectric constant tensor:
#      x y z
#    x 1.859510 0.000000 0.000000 
#    y 0.000000 1.833660 0.000000 
#    z 0.000000 0.000000 1.809250 
# 
# From -- ./inp_files/6172.got.cif
#   From: 2010.05.17/outbox.cif.g08.bks.cpg/sg19_4_cif.got.tgz:6172.got - 2010.06.03 22:46:19.
