data_PCOD9313458
_publ_section_title
;
Structure prediction by ZEFSAII (Michael W. Deem and Ramdas Pophale) SiO2 
 PCOD9313458
Probable space group: P 21 21 21
;
_chemical_formula_sum "Si O2"
_cell_formula_units_Z 32
_cell_length_a 8.096586
_cell_length_b 14.256541
_cell_length_c 11.175490
_cell_angle_alpha 90.000000
_cell_angle_beta 90.000000
_cell_angle_gamma 90.000000
_cell_volume 1289.979103
_symmetry_space_group_name_H-M "P 21 21 21"
_symmetry_group_IT_number 19
_symmetry_cell_setting 'orthorhombic'
loop_
_space_group_symop_operation_xyz
x,y,z
1/2-x,-y,1/2+z
1/2+x,1/2-y,-z
-x,1/2+y,1/2-z
loop_
_atom_site_type_symbol
_atom_site_label
_atom_site_fract_x
_atom_site_fract_y
_atom_site_fract_z
Si Si1 0.773311 0.199209 0.493157
Si Si2 0.257032 0.659430 0.446632
Si Si3 0.376533 0.871462 0.101747
Si Si4 0.239368 0.561227 0.196175
Si Si5 0.863031 0.532167 0.138919
Si Si6 0.297569 0.783045 0.759556
Si Si7 0.064446 0.826064 0.386132
Si Si8 0.923543 0.125608 0.830669
O O1 0.951532 0.170199 0.545388
O O2 0.759378 0.288985 0.405427
O O3 0.688426 0.114652 0.420065
O O4 0.682149 0.235153 0.611078
O O5 0.274484 0.612611 0.318990
O O6 0.427226 0.643683 0.516457
O O7 0.100394 0.621140 0.525339
O O8 0.222290 0.769862 0.433228
O O9 0.429562 0.893946 0.237571
O O10 0.328089 0.950321 0.003024
O O11 0.046604 0.567733 0.169113
O O12 0.293244 0.454442 0.207599
O O13 0.876691 0.423414 0.169307
O O14 0.760185 0.607640 0.216313
O O15 0.460545 0.750655 0.689122
O O16 0.145387 0.729088 0.698345
#
# Coordination Sequence:
#
# PCOD9313458 Si02
#       8
#     4   4   4   4   4   4   4   4
#     4   9  20  34  62  85 114 151 202 258 296 361
#     4  11  24  37  62  89 125 161 204 257 313 369
#     4   9  19  37  58  85 116 152 205 247 310 352
#     4  11  20  34  61  91 115 158 217 246 297 369
#     4  10  18  36  63  85 116 164 205 245 305 367
#     4   9  18  36  59  85 118 153 206 249 305 355
#     4  11  22  39  63  88 125 165 199 258 314 373
#     4  10  21  35  60  88 123 160 196 262 302 366
#
# _framework density 24.806602000000002
#
# number of rings (size 3 to 8) (size 9 to 14) (size 15 to 20)
#    0.000    2.000    3.750    0.750    5.250    0.000 
#    0.000    0.000   19.250    0.000    0.000    0.000 
#    0.000    0.000    0.000    0.000    0.000    0.000 
#
# Total GULP energy -178570.114023 kJ/mol
# GULP energy per Si atom -5580.316063 kJ/mol
# Density = 2.475014 g / cm^3
# Si number density = 24.806602 Si / 1000 Ang^3
#
#
#
# Elastic Constant Matrix: (Units=GPa)
#
#
# Indices 1 2 3 4 5 6 
#
# 1 51.2200 2.7222 13.0909 0.0000 0.0000 0.0000
# 2 2.7222 95.3018 18.0824 0.0000 0.0000 0.0000
# 3 13.0909 18.0824 87.3173 0.0000 0.0000 0.0000
# 4 0.0000 0.0000 0.0000 25.8486 0.0000 0.0000
# 5 0.0000 0.0000 0.0000 0.0000 14.0596 0.0000
# 6 0.0000 0.0000 0.0000 0.0000 0.0000 23.0027
#
#
#
# Elastic Compliance Matrix: (Units=1/GPa)
#
#
# Indices 1 2 3 4 5 6 
#
# 1 0.020302 -0.000002 -0.003043 0.000000 0.000000 0.000000
# 2 -0.000002 0.010922 -0.002261 0.000000 0.000000 0.000000
# 3 -0.003043 -0.002261 0.012377 0.000000 0.000000 0.000000
# 4 0.000000 0.000000 0.000000 0.038687 0.000000 0.000000
# 5 0.000000 0.000000 0.000000 0.000000 0.071126 0.000000
# 6 0.000000 0.000000 0.000000 0.000000 0.000000 0.043473
#
#
# Mechanical properties :
#
#
# Convention : Reuss Voigt Hill
#
# Bulk Modulus (GPa) = 30.31545 33.51446 31.91496
# Shear Modulus (GPa) = 22.88367 25.91175 24.39771
#
# Velocity S-wave (km/s) = 3.04054 3.23546 3.13951
# Velocity P-wave (km/s) = 4.95719 5.24378 5.10250
#
# Compressibility (1/GPa) = 0.03298648
#
# Stress axis : x y z
#
# Youngs Moduli (GPa) = 49.25737 91.55711 80.79474
#
# Poissons Ratio (x) = 0.00023 0.24587
# Poissons Ratio (y) = 0.00012 0.18272
# Poissons Ratio (z) = 0.14990 0.20705
#
# Static dielectric constant tensor:
#      x y z
#    x 1.968960 0.000000 0.000000 
#    y 0.000000 1.962130 0.000000 
#    z 0.000000 0.000000 2.055850 
# 
# From -- ./inp_files/5075.got.cif
#   From: 2010.05.17/outbox.cif.g08.bks.cpg/sg19_3_cif.got.tgz:5075.got - 2010.06.03 22:46:19.
