data_PCOD9313689
_publ_section_title
;
Structure prediction by ZEFSAII (Michael W. Deem and Ramdas Pophale) SiO2 
 PCOD9313689
Probable space group: P 21 21 21
;
_chemical_formula_sum "Si O2"
_cell_formula_units_Z 28
_cell_length_a 19.021912
_cell_length_b 8.367724
_cell_length_c 8.426007
_cell_angle_alpha 90.000000
_cell_angle_beta 90.000000
_cell_angle_gamma 90.000000
_cell_volume 1341.168457
_symmetry_space_group_name_H-M "P 21 21 21"
_symmetry_group_IT_number 19
_symmetry_cell_setting 'orthorhombic'
loop_
_space_group_symop_operation_xyz
x,y,z
1/2-x,-y,1/2+z
1/2+x,1/2-y,-z
-x,1/2+y,1/2-z
loop_
_atom_site_type_symbol
_atom_site_label
_atom_site_fract_x
_atom_site_fract_y
_atom_site_fract_z
Si Si1 0.705834 0.576959 0.296151
Si Si2 0.315882 0.496303 0.610132
Si Si3 0.551587 0.485147 0.865963
Si Si4 0.965721 0.162990 0.401322
Si Si5 0.675785 0.333034 0.040312
Si Si6 0.397398 0.981676 0.968984
Si Si7 0.287611 0.694857 0.921597
O O1 0.695884 0.409764 0.206703
O O2 0.771164 0.584649 0.414930
O O3 0.637947 0.599766 0.406690
O O4 0.723958 0.708211 0.164324
O O5 0.386575 0.395570 0.585303
O O6 0.316655 0.645698 0.488093
O O7 0.314839 0.573475 0.785669
O O8 0.246579 0.395907 0.568932
O O9 0.524749 0.650509 0.935262
O O10 0.493845 0.376723 0.777562
O O11 0.599704 0.538853 0.713802
O O12 0.598200 0.386851 0.987775
O O13 0.022342 0.064827 0.505226
O O14 0.348277 0.822970 0.960609
#
# Coordination Sequence:
#
# PCOD9313689 Si02
#       7
#     4   4   4   4   4   4   4
#     4  11  20  39  61  89 127 163 219 254 326 368
#     4  11  24  39  63  94 132 161 217 267 323 381
#     4  10  19  39  65  88 123 162 217 259 325 381
#     4  10  21  39  65  91 125 171 208 265 320 397
#     4  11  21  37  63  94 121 174 210 275 311 391
#     4  10  22  39  63  94 126 162 219 262 309 398
#     4  11  23  40  64  98 126 165 218 264 322 376
#
# _framework density 20.877316
#
# number of rings (size 3 to 8) (size 9 to 14) (size 15 to 20)
#    0.857    0.571    4.286    2.571    2.000    2.286 
#    0.000    2.857    3.143    0.000    0.000    0.000 
#    0.000    0.000    0.000    0.000    0.000    0.000 
#
# Total GULP energy -156168.041307 kJ/mol
# GULP energy per Si atom -5577.430047 kJ/mol
# Density = 2.082980 g / cm^3
# Si number density = 20.877316 Si / 1000 Ang^3
#
#
#
# Elastic Constant Matrix: (Units=GPa)
#
#
# Indices 1 2 3 4 5 6 
#
# 1 65.3140 7.6727 -7.9537 0.0000 0.0000 0.0000
# 2 7.6727 23.8877 -0.0626 0.0000 0.0000 0.0000
# 3 -7.9537 -0.0626 33.4142 0.0000 0.0000 0.0000
# 4 0.0000 0.0000 0.0000 27.3657 0.0000 0.0000
# 5 0.0000 0.0000 0.0000 0.0000 13.6281 0.0000
# 6 0.0000 0.0000 0.0000 0.0000 0.0000 35.3016
#
#
#
# Elastic Compliance Matrix: (Units=1/GPa)
#
#
# Indices 1 2 3 4 5 6 
#
# 1 0.016403 -0.005258 0.003895 0.000000 0.000000 0.000000
# 2 -0.005258 0.043548 -0.001170 0.000000 0.000000 0.000000
# 3 0.003895 -0.001170 0.030852 0.000000 0.000000 0.000000
# 4 0.000000 0.000000 0.000000 0.036542 0.000000 0.000000
# 5 0.000000 0.000000 0.000000 0.000000 0.073378 0.000000
# 6 0.000000 0.000000 0.000000 0.000000 0.000000 0.028327
#
#
# Mechanical properties :
#
#
# Convention : Reuss Voigt Hill
#
# Bulk Modulus (GPa) = 11.66378 13.54764 12.60571
# Shear Modulus (GPa) = 19.03335 23.45638 21.24487
#
# Velocity S-wave (km/s) = 3.02267 3.35555 3.19345
# Velocity P-wave (km/s) = 4.21675 4.63856 4.43268
#
# Compressibility (1/GPa) = 0.08573551
#
# Stress axis : x y z
#
# Youngs Moduli (GPa) = 60.96581 22.96295 32.41258
#
# Poissons Ratio (x) = 0.12075 -0.12623
# Poissons Ratio (y) = 0.32058 0.03793
# Poissons Ratio (z) = -0.23743 0.02687
#
# Static dielectric constant tensor:
#      x y z
#    x 1.752510 0.000000 0.000000 
#    y 0.000000 1.740650 0.000000 
#    z 0.000000 0.000000 1.784660 
# 
# From -- ./inp_files/4184.got.cif
#   From: 2010.05.17/outbox.cif.g08.bks.cpg/sg19_3_cif.got.tgz:4184.got - 2010.06.03 22:46:19.
