data_PCOD9313454
_publ_section_title
;
Structure prediction by ZEFSAII (Michael W. Deem and Ramdas Pophale) SiO2 
 PCOD9313454
Probable space group: P 21 21 21
;
_chemical_formula_sum "Si O2"
_cell_formula_units_Z 24
_cell_length_a 13.048660
_cell_length_b 9.894933
_cell_length_c 8.659946
_cell_angle_alpha 90.000000
_cell_angle_beta 90.000000
_cell_angle_gamma 90.000000
_cell_volume 1118.134266
_symmetry_space_group_name_H-M "P 21 21 21"
_symmetry_group_IT_number 19
_symmetry_cell_setting 'orthorhombic'
loop_
_space_group_symop_operation_xyz
x,y,z
1/2-x,-y,1/2+z
1/2+x,1/2-y,-z
-x,1/2+y,1/2-z
loop_
_atom_site_type_symbol
_atom_site_label
_atom_site_fract_x
_atom_site_fract_y
_atom_site_fract_z
Si Si1 0.235692 0.396691 0.305627
Si Si2 0.661977 0.800466 0.741259
Si Si3 0.440957 0.290241 0.454516
Si Si4 0.767271 0.326154 0.949584
Si Si5 0.834734 0.694031 0.963913
Si Si6 0.675716 0.533444 0.147191
O O1 0.205404 0.549262 0.276845
O O2 0.350339 0.377526 0.375853
O O3 0.232744 0.301926 0.153698
O O4 0.162740 0.333383 0.437198
O O5 0.652292 0.729445 0.576187
O O6 0.567939 0.804094 0.860122
O O7 0.748702 0.716781 0.834775
O O8 0.552912 0.331459 0.401610
O O9 0.411264 0.136593 0.410808
O O10 0.814615 0.435310 0.829298
O O11 0.676172 0.395223 0.049898
O O12 0.785772 0.592614 0.087972
#
# Coordination Sequence:
#
# PCOD9313454 Si02
#       6
#     4   4   4   4   4   4
#     4   9  20  38  58  82 117 156 198 239 296 363
#     4  10  19  37  61  80 117 158 190 247 298 353
#     4   9  19  37  56  81 117 154 191 242 296 352
#     4  10  18  36  60  82 110 156 196 232 302 332
#     4   9  19  37  56  81 117 154 191 242 296 352
#     4   9  19  35  57  80 120 150 192 244 292 346
#
# _framework density 21.464327000000001
#
# number of rings (size 3 to 8) (size 9 to 14) (size 15 to 20)
#    0.000    3.333    0.000    4.000    0.000    0.000 
#   18.000    6.667    0.000    0.000    0.000    0.000 
#    0.000    0.000    0.000    0.000    0.000    0.000 
#
# Total GULP energy -133682.845688 kJ/mol
# GULP energy per Si atom -5570.118570 kJ/mol
# Density = 2.141547 g / cm^3
# Si number density = 21.464327 Si / 1000 Ang^3
#
#
#
# Elastic Constant Matrix: (Units=GPa)
#
#
# Indices 1 2 3 4 5 6 
#
# 1 61.5193 -0.7409 -6.9462 0.0000 0.0000 0.0000
# 2 -0.7409 58.0228 23.5332 0.0000 0.0000 0.0000
# 3 -6.9462 23.5332 127.7798 0.0000 0.0000 0.0000
# 4 0.0000 0.0000 0.0000 37.9645 0.0000 0.0000
# 5 0.0000 0.0000 0.0000 0.0000 9.0524 0.0000
# 6 0.0000 0.0000 0.0000 0.0000 0.0000 8.2219
#
#
#
# Elastic Compliance Matrix: (Units=1/GPa)
#
#
# Indices 1 2 3 4 5 6 
#
# 1 0.016357 -0.000164 0.000919 0.000000 0.000000 0.000000
# 2 -0.000164 0.018628 -0.003440 0.000000 0.000000 0.000000
# 3 0.000919 -0.003440 0.008509 0.000000 0.000000 0.000000
# 4 0.000000 0.000000 0.000000 0.026340 0.000000 0.000000
# 5 0.000000 0.000000 0.000000 0.000000 0.110469 0.000000
# 6 0.000000 0.000000 0.000000 0.000000 0.000000 0.121626
#
#
# Mechanical properties :
#
#
# Convention : Reuss Voigt Hill
#
# Bulk Modulus (GPa) = 26.22918 31.00156 28.61537
# Shear Modulus (GPa) = 15.62473 26.47948 21.05210
#
# Velocity S-wave (km/s) = 2.70096 3.51615 3.13516
# Velocity P-wave (km/s) = 4.68757 5.56408 5.14453
#
# Compressibility (1/GPa) = 0.03812548
#
# Stress axis : x y z
#
# Youngs Moduli (GPa) = 61.13629 53.68389 117.51701
#
# Poissons Ratio (x) = 0.00880 -0.10804
# Poissons Ratio (y) = 0.01003 0.40421
# Poissons Ratio (z) = -0.05621 0.18465
#
# Static dielectric constant tensor:
#      x y z
#    x 1.740100 0.000000 0.000000 
#    y 0.000000 1.881120 0.000000 
#    z 0.000000 0.000000 1.869890 
# 
# From -- ./inp_files/3867.got.cif
#   From: 2010.05.17/outbox.cif.g08.bks.cpg/sg19_2_cif.got.tgz:3867.got - 2010.06.03 22:46:19.
