data_PCOD9313374
_publ_section_title
;
Structure prediction by ZEFSAII (Michael W. Deem and Ramdas Pophale) SiO2 
 PCOD9313374
Probable space group: P 21 21 21
;
_chemical_formula_sum "Si O2"
_cell_formula_units_Z 24
_cell_length_a 8.078381
_cell_length_b 7.122344
_cell_length_c 16.385549
_cell_angle_alpha 90.000000
_cell_angle_beta 90.000000
_cell_angle_gamma 90.000000
_cell_volume 942.775471
_symmetry_space_group_name_H-M "P 21 21 21"
_symmetry_group_IT_number 19
_symmetry_cell_setting 'orthorhombic'
loop_
_space_group_symop_operation_xyz
x,y,z
1/2-x,-y,1/2+z
1/2+x,1/2-y,-z
-x,1/2+y,1/2-z
loop_
_atom_site_type_symbol
_atom_site_label
_atom_site_fract_x
_atom_site_fract_y
_atom_site_fract_z
Si Si1 0.705515 0.468084 0.839085
Si Si2 0.480945 0.527098 0.428095
Si Si3 0.519020 0.972854 0.428135
Si Si4 0.862213 0.968601 0.384480
Si Si5 0.137764 0.531487 0.384434
Si Si6 0.294502 0.031796 0.839103
O O1 0.669198 0.250143 0.861599
O O2 0.519604 0.549029 0.837658
O O3 0.780379 0.499874 0.749985
O O4 0.837737 0.544286 0.904582
O O5 0.499979 0.749986 0.412350
O O6 0.426644 0.512586 0.522095
O O7 0.323261 0.451938 0.377533
O O8 0.676692 0.048075 0.377581
O O9 0.573338 0.987292 0.522137
O O10 0.337709 0.044291 0.404635
O O11 0.019577 0.049123 0.337702
O O12 0.169206 0.750218 0.361547
#
# Coordination Sequence:
#
# PCOD9313374 Si02
#       6
#     4   4   4   4   4   4
#     4  10  18  26  43  73 103 123 156 204 252 284
#     4   9  15  28  48  65  90 130 162 191 234 288
#     4   9  15  28  48  65  90 130 162 191 234 288
#     4   9  17  29  46  65  99 131 156 199 247 286
#     4   9  17  29  46  65  99 131 156 199 247 286
#     4  10  18  26  43  73 103 123 156 204 252 284
#
# _framework density 25.45675
#
# number of rings (size 3 to 8) (size 9 to 14) (size 15 to 20)
#    0.000    2.667    3.333    1.000    0.000    1.333 
#    0.000    0.000    0.000    0.000    0.000    0.000 
#  200.000    0.000    0.000    0.000    0.000    0.000 
#
# Total GULP energy -133789.500988 kJ/mol
# GULP energy per Si atom -5574.562541 kJ/mol
# Density = 2.539881 g / cm^3
# Si number density = 25.456750 Si / 1000 Ang^3
#
#
#
# Elastic Constant Matrix: (Units=GPa)
#
#
# Indices 1 2 3 4 5 6 
#
# 1 189.6977 7.0603 59.1939 0.0000 0.0000 0.0000
# 2 7.0603 115.9330 -7.9202 0.0000 0.0000 0.0000
# 3 59.1939 -7.9202 94.5531 0.0000 0.0000 0.0000
# 4 0.0000 0.0000 0.0000 -11.8748 0.0000 0.0000
# 5 0.0000 0.0000 0.0000 0.0000 9.5770 0.0000
# 6 0.0000 0.0000 0.0000 0.0000 0.0000 -768.3681
#
#
#
# Elastic Compliance Matrix: (Units=1/GPa)
#
#
# Indices 1 2 3 4 5 6 
#
# 1 0.006606 -0.000689 -0.004193 0.000000 0.000000 0.000000
# 2 -0.000689 0.008747 0.001164 0.000000 0.000000 0.000000
# 3 -0.004193 0.001164 0.013299 0.000000 0.000000 0.000000
# 4 0.000000 0.000000 0.000000 -0.084212 0.000000 0.000000
# 5 0.000000 0.000000 0.000000 0.000000 0.104417 0.000000
# 6 0.000000 0.000000 0.000000 0.000000 0.000000 -0.001301
#
#
# Mechanical properties :
#
#
# Convention : Reuss Voigt Hill
#
# Bulk Modulus (GPa) = 47.13540 57.42798 52.28169
# Shear Modulus (GPa) = 80.56390 -131.34321 -25.38965
#
# Velocity S-wave (km/s) = 5.63170 -7.19073 -3.16153
# Velocity P-wave (km/s) = 7.80027 6.80692 2.69351
#
# Compressibility (1/GPa) = 0.02121548
#
# Stress axis : x y z
#
# Youngs Moduli (GPa) = 151.38682 114.32319 75.19600
#
# Poissons Ratio (x) = 0.07874 0.31530
# Poissons Ratio (y) = 0.10427 -0.08752
# Poissons Ratio (z) = 0.63477 -0.13306
#
# Static dielectric constant tensor:
#      x y z
#    x 2.125260 0.000000 0.000000 
#    y 0.000000 2.054170 0.000000 
#    z 0.000000 0.000000 169.701180 
# 
# From -- ./inp_files/5855.got.cif
#   From: 2010.05.17/outbox.cif.g08.bks.cpg/sg19_3_cif.got.tgz:5855.got - 2010.06.03 22:46:19.
