data_PCOD9313270
_publ_section_title
;
Structure prediction by ZEFSAII (Michael W. Deem and Ramdas Pophale) SiO2 
 PCOD9313270
Probable space group: P 21 21 2
;
_chemical_formula_sum "Si O2"
_cell_formula_units_Z 16
_cell_length_a 13.011197
_cell_length_b 7.808889
_cell_length_c 7.328788
_cell_angle_alpha 90.000000
_cell_angle_beta 90.000000
_cell_angle_gamma 90.000000
_cell_volume 744.626797
_symmetry_space_group_name_H-M "P 21 21 2"
_symmetry_group_IT_number 18
_symmetry_cell_setting 'orthorhombic'
loop_
_space_group_symop_operation_xyz
x,y,z
-x,-y,z
1/2+x,1/2-y,-z
1/2-x,1/2+y,-z
loop_
_atom_site_type_symbol
_atom_site_label
_atom_site_fract_x
_atom_site_fract_y
_atom_site_fract_z
Si Si1 0.938412 0.181174 0.206100
Si Si2 0.415143 0.816490 0.500000
Si Si3 0.292436 0.458294 0.500000
Si Si4 0.061588 0.818826 0.793900
O O1 0.836616 0.139773 0.322290
O O2 0.011933 0.303245 0.324293
O O3 0.918747 0.238690 1.000000
O O4 0.000000 0.000000 0.199417
O O5 0.346313 0.642932 0.500000
O O6 0.329937 0.962489 0.500000
O O7 0.488067 0.803245 0.324293
O O8 0.336616 0.360227 0.322291
O O9 0.000000 0.000000 0.800583
#
# Coordination Sequence:
#
# PCOD9313270 Si02
#       4
#     4   4   4   4
#     4   8  15  29  46  62  84 116 148 172 202 254
#     4   9  17  29  46  66  86 111 143 177 212 250
#     4   9  17  29  46  66  86 111 143 177 212 250
#     4   8  15  29  46  62  84 116 148 172 202 254
#
# _framework density 21.487276000000001
#
# number of rings (size 3 to 8) (size 9 to 14) (size 15 to 20)
#    0.000    3.500    0.000    3.000    0.000    2.000 
#    0.000    5.000    0.000    3.000    0.000    0.000 
#    0.000    0.000    0.000    0.000    0.000    0.000 
#
# Total GULP energy -89340.866886 kJ/mol
# GULP energy per Si atom -5583.804180 kJ/mol
# Density = 2.143837 g / cm^3
# Si number density = 21.487276 Si / 1000 Ang^3
#
#
#
# Elastic Constant Matrix: (Units=GPa)
#
#
# Indices 1 2 3 4 5 6 
#
# 1 84.9144 26.1334 40.1142 0.0000 0.0000 0.0000
# 2 26.1334 68.3543 19.2300 0.0000 0.0000 0.0000
# 3 40.1142 19.2300 180.7641 0.0000 0.0000 0.0000
# 4 0.0000 0.0000 0.0000 1.4039 0.0000 0.0000
# 5 0.0000 0.0000 0.0000 0.0000 4.7792 0.0000
# 6 0.0000 0.0000 0.0000 0.0000 0.0000 39.9319
#
#
#
# Elastic Compliance Matrix: (Units=1/GPa)
#
#
# Indices 1 2 3 4 5 6 
#
# 1 0.014534 -0.004793 -0.002716 0.000000 0.000000 0.000000
# 2 -0.004793 0.016662 -0.000709 0.000000 0.000000 0.000000
# 3 -0.002716 -0.000709 0.006210 0.000000 0.000000 0.000000
# 4 0.000000 0.000000 0.000000 0.712320 0.000000 0.000000
# 5 0.000000 0.000000 0.000000 0.000000 0.209242 0.000000
# 6 0.000000 0.000000 0.000000 0.000000 0.000000 0.025043
#
#
# Mechanical properties :
#
#
# Convention : Reuss Voigt Hill
#
# Bulk Modulus (GPa) = 47.68382 56.10979 51.89681
# Shear Modulus (GPa) = 4.96310 25.79333 15.37821
#
# Velocity S-wave (km/s) = 1.52145 3.46844 2.67814
# Velocity P-wave (km/s) = 5.03252 6.49691 5.81103
#
# Compressibility (1/GPa) = 0.02097147
#
# Stress axis : x y z
#
# Youngs Moduli (GPa) = 68.80192 60.01857 161.02799
#
# Poissons Ratio (x) = 0.28766 0.43728
# Poissons Ratio (y) = 0.32976 0.11415
# Poissons Ratio (z) = 0.18683 0.04254
#
# Static dielectric constant tensor:
#      x y z
#    x 1.739830 0.000000 0.000000 
#    y 0.000000 1.855320 0.000000 
#    z 0.000000 0.000000 1.753310 
# 
# From -- ./inp_files/2815.got.cif
#   From: 2010.05.17/outbox.cif.g08.bks.cpg/sg18_2_cif.got.tgz:2815.got - 2010.06.03 22:40:56.
