data_PCOD9313959
_publ_section_title
;
Structure prediction by ZEFSAII (Michael W. Deem and Ramdas Pophale) SiO2 
 PCOD9313959
Probable space group: P 21 21 21
;
_chemical_formula_sum "Si O2"
_cell_formula_units_Z 28
_cell_length_a 8.375856
_cell_length_b 9.267765
_cell_length_c 14.380761
_cell_angle_alpha 90.000000
_cell_angle_beta 90.000000
_cell_angle_gamma 90.000000
_cell_volume 1116.313261
_symmetry_space_group_name_H-M "P 21 21 21"
_symmetry_group_IT_number 19
_symmetry_cell_setting 'orthorhombic'
loop_
_space_group_symop_operation_xyz
x,y,z
1/2-x,-y,1/2+z
1/2+x,1/2-y,-z
-x,1/2+y,1/2-z
loop_
_atom_site_type_symbol
_atom_site_label
_atom_site_fract_x
_atom_site_fract_y
_atom_site_fract_z
Si Si1 0.365123 0.207610 0.485955
Si Si2 0.234863 0.009214 0.338696
Si Si3 0.548359 0.274289 0.318580
Si Si4 0.388965 0.476552 0.207113
Si Si5 0.197034 0.012453 0.134039
Si Si6 0.286735 0.540224 0.521567
Si Si7 0.385816 0.196608 0.984669
O O1 0.517961 0.207552 0.419135
O O2 0.399499 0.106407 0.574318
O O3 0.323404 0.374331 0.500079
O O4 0.232467 0.127815 0.421213
O O5 0.425193 0.968658 0.329605
O O6 0.155508 0.055860 0.240439
O O7 0.153432 0.871416 0.384737
O O8 0.387591 0.342198 0.276956
O O9 0.654633 0.409773 0.340020
O O10 0.616423 0.142453 0.258156
O O11 0.254311 0.456809 0.130957
O O12 0.264271 0.134293 0.064232
O O13 0.861989 0.131844 0.019568
O O14 0.440848 0.633796 0.491821
#
# Coordination Sequence:
#
# PCOD9313959 Si02
#       7
#     4   4   4   4   4   4   4
#     4  10  21  39  67 100 134 174 232 278 350 408
#     4   9  22  42  69  99 132 179 226 297 342 418
#     4  10  20  38  66 101 126 180 224 281 335 434
#     4  10  22  37  69  98 131 173 236 276 348 411
#     4  10  20  43  68  95 135 177 232 280 348 416
#     4  12  24  42  66 100 139 188 229 294 340 422
#     4  11  25  43  65  97 145 183 233 290 349 407
#
# _framework density 25.082566
#
# number of rings (size 3 to 8) (size 9 to 14) (size 15 to 20)
#    0.000    1.714    2.857    0.857    6.000    2.286 
#    0.000    2.857    0.000    0.000    0.000    0.000 
#    0.000    0.000    0.000    0.000    0.000    0.000 
#
# Total GULP energy -156086.587582 kJ/mol
# GULP energy per Si atom -5574.520985 kJ/mol
# Density = 2.502548 g / cm^3
# Si number density = 25.082566 Si / 1000 Ang^3
#
#
#
# Elastic Constant Matrix: (Units=GPa)
#
#
# Indices 1 2 3 4 5 6 
#
# 1 27.4583 24.7084 11.2756 0.0000 0.0000 0.0000
# 2 24.7084 118.8120 3.9769 0.0000 0.0000 0.0000
# 3 11.2756 3.9769 70.6275 0.0000 0.0000 0.0000
# 4 0.0000 0.0000 0.0000 38.1727 0.0000 0.0000
# 5 0.0000 0.0000 0.0000 0.0000 30.1324 0.0000
# 6 0.0000 0.0000 0.0000 0.0000 0.0000 29.5347
#
#
#
# Elastic Compliance Matrix: (Units=1/GPa)
#
#
# Indices 1 2 3 4 5 6 
#
# 1 0.048144 -0.009773 -0.007136 0.000000 0.000000 0.000000
# 2 -0.009773 0.010417 0.000974 0.000000 0.000000 0.000000
# 3 -0.007136 0.000974 0.015243 0.000000 0.000000 0.000000
# 4 0.000000 0.000000 0.000000 0.026197 0.000000 0.000000
# 5 0.000000 0.000000 0.000000 0.000000 0.033187 0.000000
# 6 0.000000 0.000000 0.000000 0.000000 0.000000 0.033858
#
#
# Mechanical properties :
#
#
# Convention : Reuss Voigt Hill
#
# Bulk Modulus (GPa) = 23.84763 32.97994 28.41378
# Shear Modulus (GPa) = 23.48593 31.36376 27.42484
#
# Velocity S-wave (km/s) = 3.06329 3.53996 3.31022
# Velocity P-wave (km/s) = 4.69468 5.46677 5.09537
#
# Compressibility (1/GPa) = 0.04193288
#
# Stress axis : x y z
#
# Youngs Moduli (GPa) = 20.77119 96.00136 65.60309
#
# Poissons Ratio (x) = 0.93824 0.46813
# Poissons Ratio (y) = 0.20300 -0.06388
# Poissons Ratio (z) = 0.14822 -0.09348
#
# Static dielectric constant tensor:
#      x y z
#    x 2.048670 0.000000 0.000000 
#    y 0.000000 2.168450 0.000000 
#    z 0.000000 0.000000 2.135700 
# 
# From -- ./inp_files/6077.got.cif
#   From: 2010.05.17/outbox.cif.g08.bks.cpg/sg19_4_cif.got.tgz:6077.got - 2010.06.03 22:46:19.
