data_PCOD9313718
_publ_section_title
;
Structure prediction by ZEFSAII (Michael W. Deem and Ramdas Pophale) SiO2 
 PCOD9313718
Probable space group: P 21 21 21
;
_chemical_formula_sum "Si O2"
_cell_formula_units_Z 24
_cell_length_a 9.496018
_cell_length_b 10.101110
_cell_length_c 9.649773
_cell_angle_alpha 90.000000
_cell_angle_beta 90.000000
_cell_angle_gamma 90.000000
_cell_volume 925.609337
_symmetry_space_group_name_H-M "P 21 21 21"
_symmetry_group_IT_number 19
_symmetry_cell_setting 'orthorhombic'
loop_
_space_group_symop_operation_xyz
x,y,z
1/2-x,-y,1/2+z
1/2+x,1/2-y,-z
-x,1/2+y,1/2-z
loop_
_atom_site_type_symbol
_atom_site_label
_atom_site_fract_x
_atom_site_fract_y
_atom_site_fract_z
Si Si1 0.278301 0.059178 0.061190
Si Si2 0.329451 0.713176 0.739564
Si Si3 0.908694 0.327844 0.554056
Si Si4 0.133819 0.757773 0.324588
Si Si5 0.585486 0.347865 0.299214
Si Si6 0.379323 0.433266 0.078728
O O1 0.377797 0.002453 0.180897
O O2 0.187479 0.179666 0.116661
O O3 0.179664 0.935301 0.031677
O O4 0.356765 0.115168 0.927699
O O5 0.225692 0.767460 0.857233
O O6 0.495413 0.717568 0.768442
O O7 0.264812 0.581367 0.667642
O O8 0.001489 0.193643 0.563958
O O9 0.044668 0.426434 0.581469
O O10 0.275786 0.765594 0.236737
O O11 0.133659 0.629832 0.425555
O O12 0.484382 0.336933 0.166197
#
# Coordination Sequence:
#
# PCOD9313718 Si02
#       6
#     4   4   4   4   4   4
#     4  11  21  43  67  92 135 175 223 290 335 390
#     4  10  21  37  70  93 126 174 235 270 332 410
#     4  11  22  43  65  95 142 178 215 284 345 396
#     4  11  21  42  71  96 125 182 235 274 334 412
#     4  11  24  42  69  98 135 179 223 278 342 401
#     4  10  19  41  64  96 123 180 217 268 336 401
#
# _framework density 25.928868000000001
#
# number of rings (size 3 to 8) (size 9 to 14) (size 15 to 20)
#    0.000    1.333    5.000    1.000    0.000    1.333 
#    9.000    1.667    0.000    0.000    0.000    0.000 
#    0.000    0.000    0.000    0.000    0.000    0.000 
#
# Total GULP energy -133739.347733 kJ/mol
# GULP energy per Si atom -5572.472822 kJ/mol
# Density = 2.586985 g / cm^3
# Si number density = 25.928868 Si / 1000 Ang^3
#
#
#
# Elastic Constant Matrix: (Units=GPa)
#
#
# Indices 1 2 3 4 5 6 
#
# 1 94.9884 -4.8530 7.4719 0.0000 0.0000 0.0000
# 2 -4.8530 32.8756 3.2265 0.0000 0.0000 0.0000
# 3 7.4719 3.2265 45.0024 0.0000 0.0000 0.0000
# 4 0.0000 0.0000 0.0000 35.0461 0.0000 0.0000
# 5 0.0000 0.0000 0.0000 0.0000 34.7799 0.0000
# 6 0.0000 0.0000 0.0000 0.0000 0.0000 31.6822
#
#
#
# Elastic Compliance Matrix: (Units=1/GPa)
#
#
# Indices 1 2 3 4 5 6 
#
# 1 0.010769 0.001778 -0.001915 0.000000 0.000000 0.000000
# 2 0.001778 0.030927 -0.002512 0.000000 0.000000 0.000000
# 3 -0.001915 -0.002512 0.022719 0.000000 0.000000 0.000000
# 4 0.000000 0.000000 0.000000 0.028534 0.000000 0.000000
# 5 0.000000 0.000000 0.000000 0.000000 0.028752 0.000000
# 6 0.000000 0.000000 0.000000 0.000000 0.000000 0.031563
#
#
# Mechanical properties :
#
#
# Convention : Reuss Voigt Hill
#
# Bulk Modulus (GPa) = 16.91631 20.50633 18.71132
# Shear Modulus (GPa) = 28.04736 31.43637 29.74186
#
# Velocity S-wave (km/s) = 3.29249 3.48574 3.39050
# Velocity P-wave (km/s) = 4.58174 4.91186 4.74967
#
# Compressibility (1/GPa) = 0.05911454
#
# Stress axis : x y z
#
# Youngs Moduli (GPa) = 92.85824 32.33452 44.01562
#
# Poissons Ratio (x) = -0.05748 0.08431
# Poissons Ratio (y) = -0.16507 0.11059
# Poissons Ratio (z) = 0.17787 0.08124
#
# Static dielectric constant tensor:
#      x y z
#    x 2.087250 0.000000 0.000000 
#    y 0.000000 1.963590 0.000000 
#    z 0.000000 0.000000 2.327820 
# 
# From -- ./inp_files/4561.got.cif
#   From: 2010.05.17/outbox.cif.g08.bks.cpg/sg19_3_cif.got.tgz:4561.got - 2010.06.03 22:46:19.
