data_PCOD9313825
_publ_section_title
;
Structure prediction by ZEFSAII (Michael W. Deem and Ramdas Pophale) SiO2 
 PCOD9313825
Probable space group: P 21 21 21
;
_chemical_formula_sum "Si O2"
_cell_formula_units_Z 28
_cell_length_a 13.544003
_cell_length_b 7.396469
_cell_length_c 12.725277
_cell_angle_alpha 90.000000
_cell_angle_beta 90.000000
_cell_angle_gamma 90.000000
_cell_volume 1274.790233
_symmetry_space_group_name_H-M "P 21 21 21"
_symmetry_group_IT_number 19
_symmetry_cell_setting 'orthorhombic'
loop_
_space_group_symop_operation_xyz
x,y,z
1/2-x,-y,1/2+z
1/2+x,1/2-y,-z
-x,1/2+y,1/2-z
loop_
_atom_site_type_symbol
_atom_site_label
_atom_site_fract_x
_atom_site_fract_y
_atom_site_fract_z
Si Si1 0.448737 0.956607 0.886061
Si Si2 0.606929 0.182751 0.778571
Si Si3 0.347421 0.622123 0.356018
Si Si4 0.567368 0.390474 0.984202
Si Si5 0.220006 0.451888 0.647604
Si Si6 0.633054 0.786755 0.011510
Si Si7 0.354202 0.293638 0.977008
O O1 0.500846 0.087313 0.798649
O O2 0.389965 0.804378 0.823996
O O3 0.539720 0.866593 0.946944
O O4 0.385859 0.085873 0.961329
O O5 0.689443 0.030579 0.784243
O O6 0.621018 0.307621 0.882285
O O7 0.423317 0.743086 0.423009
O O8 0.349356 0.646032 0.231257
O O9 0.361505 0.411691 0.385833
O O10 0.241348 0.677796 0.404883
O O11 0.453350 0.406018 0.949044
O O12 0.613887 0.576052 0.022581
O O13 0.269683 0.328463 0.558219
O O14 0.171993 0.623099 0.589835
#
# Coordination Sequence:
#
# PCOD9313825 Si02
#       7
#     4   4   4   4   4   4   4
#     4  10  20  35  68  98 131 165 220 278 332 389
#     4  10  20  36  62 102 127 164 222 280 334 385
#     4  11  23  45  64  97 137 172 218 283 322 397
#     4  11  22  43  68  94 134 174 221 274 326 400
#     4  10  23  44  65  92 139 177 214 275 343 394
#     4  10  22  43  64  99 130 164 227 281 320 393
#     4  10  22  44  67  94 136 174 218 277 331 394
#
# _framework density 21.964397000000002
#
# number of rings (size 3 to 8) (size 9 to 14) (size 15 to 20)
#    0.000    1.714    5.714    0.857   12.000    1.143 
#    5.143    0.000    0.000    0.000    0.000    0.000 
#    0.000    0.000    0.000    0.000    0.000    0.000 
#
# Total GULP energy -156377.686810 kJ/mol
# GULP energy per Si atom -5584.917386 kJ/mol
# Density = 2.191440 g / cm^3
# Si number density = 21.964397 Si / 1000 Ang^3
#
#
#
# Elastic Constant Matrix: (Units=GPa)
#
#
# Indices 1 2 3 4 5 6 
#
# 1 38.7187 -3.6762 -9.4497 0.0000 0.0000 0.0000
# 2 -3.6762 69.9189 -10.2415 0.0000 0.0000 0.0000
# 3 -9.4497 -10.2415 44.2393 0.0000 0.0000 0.0000
# 4 0.0000 0.0000 0.0000 26.9218 0.0000 0.0000
# 5 0.0000 0.0000 0.0000 0.0000 17.8214 0.0000
# 6 0.0000 0.0000 0.0000 0.0000 0.0000 16.6133
#
#
#
# Elastic Compliance Matrix: (Units=1/GPa)
#
#
# Indices 1 2 3 4 5 6 
#
# 1 0.027631 0.002399 0.006457 0.000000 0.000000 0.000000
# 2 0.002399 0.015013 0.003988 0.000000 0.000000 0.000000
# 3 0.006457 0.003988 0.024907 0.000000 0.000000 0.000000
# 4 0.000000 0.000000 0.000000 0.037145 0.000000 0.000000
# 5 0.000000 0.000000 0.000000 0.000000 0.056112 0.000000
# 6 0.000000 0.000000 0.000000 0.000000 0.000000 0.060193
#
#
# Mechanical properties :
#
#
# Convention : Reuss Voigt Hill
#
# Bulk Modulus (GPa) = 10.72524 11.79358 11.25941
# Shear Modulus (GPa) = 22.08560 24.02091 23.05325
#
# Velocity S-wave (km/s) = 3.17443 3.31059 3.24323
# Velocity P-wave (km/s) = 4.28131 4.47151 4.37745
#
# Compressibility (1/GPa) = 0.09323801
#
# Stress axis : x y z
#
# Youngs Moduli (GPa) = 36.19116 66.61112 40.14960
#
# Poissons Ratio (x) = -0.15978 -0.25926
# Poissons Ratio (y) = -0.08681 -0.16011
# Poissons Ratio (z) = -0.23370 -0.26563
#
# Static dielectric constant tensor:
#      x y z
#    x 1.848240 0.000000 0.000000 
#    y 0.000000 1.804830 0.000000 
#    z 0.000000 0.000000 1.808220 
# 
# From -- ./inp_files/5186.got.cif
#   From: 2010.05.17/outbox.cif.g08.bks.cpg/sg19_3_cif.got.tgz:5186.got - 2010.06.03 22:46:19.
