data_PCOD9313792
_publ_section_title
;
Structure prediction by ZEFSAII (Michael W. Deem and Ramdas Pophale) SiO2 
 PCOD9313792
Probable space group: P 21 21 21
;
_chemical_formula_sum "Si O2"
_cell_formula_units_Z 32
_cell_length_a 11.254099
_cell_length_b 9.765504
_cell_length_c 12.139982
_cell_angle_alpha 90.000000
_cell_angle_beta 90.000000
_cell_angle_gamma 90.000000
_cell_volume 1334.207680
_symmetry_space_group_name_H-M "P 21 21 21"
_symmetry_group_IT_number 19
_symmetry_cell_setting 'orthorhombic'
loop_
_space_group_symop_operation_xyz
x,y,z
1/2-x,-y,1/2+z
1/2+x,1/2-y,-z
-x,1/2+y,1/2-z
loop_
_atom_site_type_symbol
_atom_site_label
_atom_site_fract_x
_atom_site_fract_y
_atom_site_fract_z
Si Si1 0.765792 0.623062 0.939938
Si Si2 0.613751 0.058710 0.995233
Si Si3 0.274097 0.117868 0.806833
Si Si4 0.401078 0.147835 0.134166
Si Si5 0.003313 0.719043 0.354395
Si Si6 0.562250 0.364081 0.625212
Si Si7 0.083428 0.928207 0.879346
Si Si8 0.616318 0.941606 0.482821
O O1 0.747779 0.671182 0.816046
O O2 0.809922 0.464530 0.918068
O O3 0.866300 0.687340 0.018993
O O4 0.649316 0.632978 0.014945
O O5 0.592473 0.195372 0.922367
O O6 0.749818 0.027647 0.016306
O O7 0.551927 0.941645 0.922136
O O8 0.529797 0.085914 0.100142
O O9 0.363760 0.218998 0.866550
O O10 0.148712 0.076304 0.859761
O O11 0.350068 0.976695 0.817154
O O12 0.385856 0.297246 0.083463
O O13 0.392280 0.150029 0.265767
O O14 0.026233 0.574270 0.412824
O O15 0.971835 0.729207 0.226931
O O16 0.946254 0.951508 0.902203
#
# Coordination Sequence:
#
# PCOD9313792 Si02
#       8
#     4   4   4   4   4   4   4   4
#     4   9  18  35  59  78 112 145 186 228 269 334
#     4   9  21  36  53  85 112 142 188 222 280 329
#     4   9  19  35  56  85 107 142 189 229 267 330
#     4   9  21  36  56  82 116 143 182 236 273 324
#     4  10  21  34  62  80 108 147 189 227 269 333
#     4   9  18  36  58  79 110 146 178 233 275 320
#     4  10  20  35  56  86 110 147 186 226 279 328
#     4  11  22  33  58  85 109 146 184 231 270 340
#
# _framework density 23.984273000000002
#
# number of rings (size 3 to 8) (size 9 to 14) (size 15 to 20)
#    0.000    2.500    0.000    3.000   12.250    1.000 
#    0.000    3.750    5.500    0.000    0.000    0.000 
#    0.000    0.000    0.000    0.000    0.000    0.000 
#
# Total GULP energy -178764.385530 kJ/mol
# GULP energy per Si atom -5586.387048 kJ/mol
# Density = 2.392968 g / cm^3
# Si number density = 23.984273 Si / 1000 Ang^3
#
#
#
# Elastic Constant Matrix: (Units=GPa)
#
#
# Indices 1 2 3 4 5 6 
#
# 1 103.7837 13.4489 18.0849 0.0000 0.0000 0.0000
# 2 13.4489 24.4847 16.8037 0.0000 0.0000 0.0000
# 3 18.0849 16.8037 100.3148 0.0000 0.0000 0.0000
# 4 0.0000 0.0000 0.0000 20.5660 0.0000 0.0000
# 5 0.0000 0.0000 0.0000 0.0000 37.1161 0.0000
# 6 0.0000 0.0000 0.0000 0.0000 0.0000 11.9657
#
#
#
# Elastic Compliance Matrix: (Units=1/GPa)
#
#
# Indices 1 2 3 4 5 6 
#
# 1 0.010470 -0.005034 -0.001044 0.000000 0.000000 0.000000
# 2 -0.005034 0.048567 -0.007228 0.000000 0.000000 0.000000
# 3 -0.001044 -0.007228 0.011368 0.000000 0.000000 0.000000
# 4 0.000000 0.000000 0.000000 0.048624 0.000000 0.000000
# 5 0.000000 0.000000 0.000000 0.000000 0.026942 0.000000
# 6 0.000000 0.000000 0.000000 0.000000 0.000000 0.083572
#
#
# Mechanical properties :
#
#
# Convention : Reuss Voigt Hill
#
# Bulk Modulus (GPa) = 22.83513 36.13979 29.48746
# Shear Modulus (GPa) = 18.46698 25.94594 22.20646
#
# Velocity S-wave (km/s) = 2.77783 3.29263 3.04612
# Velocity P-wave (km/s) = 4.45309 5.43654 4.96921
#
# Compressibility (1/GPa) = 0.04379217
#
# Stress axis : x y z
#
# Youngs Moduli (GPa) = 95.51335 20.58990 87.96904
#
# Poissons Ratio (x) = 0.10365 0.09186
# Poissons Ratio (y) = 0.48083 0.63584
# Poissons Ratio (z) = 0.09974 0.14882
#
# Static dielectric constant tensor:
#      x y z
#    x 1.928410 0.000000 0.000000 
#    y 0.000000 1.995320 0.000000 
#    z 0.000000 0.000000 1.897600 
# 
# From -- ./inp_files/5030.got.cif
#   From: 2010.05.17/outbox.cif.g08.bks.cpg/sg19_3_cif.got.tgz:5030.got - 2010.06.03 22:46:19.
