data_PCOD9313425
_publ_section_title
;
Structure prediction by ZEFSAII (Michael W. Deem and Ramdas Pophale) SiO2 
 PCOD9313425
Probable space group: P 21 21 21
;
_chemical_formula_sum "Si O2"
_cell_formula_units_Z 32
_cell_length_a 7.741254
_cell_length_b 19.374845
_cell_length_c 8.211687
_cell_angle_alpha 90.000000
_cell_angle_beta 90.000000
_cell_angle_gamma 90.000000
_cell_volume 1231.634772
_symmetry_space_group_name_H-M "P 21 21 21"
_symmetry_group_IT_number 19
_symmetry_cell_setting 'orthorhombic'
loop_
_space_group_symop_operation_xyz
x,y,z
1/2-x,-y,1/2+z
1/2+x,1/2-y,-z
-x,1/2+y,1/2-z
loop_
_atom_site_type_symbol
_atom_site_label
_atom_site_fract_x
_atom_site_fract_y
_atom_site_fract_z
Si Si1 0.761755 0.405618 0.147188
Si Si2 0.860530 0.597809 0.013867
Si Si3 0.414781 0.522744 0.478585
Si Si4 0.851107 0.720097 0.472851
Si Si5 0.344999 0.649025 0.042532
Si Si6 0.715291 0.853156 0.590682
Si Si7 0.701340 0.726345 0.124619
Si Si8 0.462245 0.023585 0.391208
O O1 0.721584 0.418059 0.336552
O O2 0.614378 0.450572 0.054458
O O3 0.939888 0.434370 0.077575
O O4 0.735109 0.325269 0.114355
O O5 0.038251 0.555676 0.030832
O O6 0.849583 0.678828 0.040942
O O7 0.718007 0.565812 0.135515
O O8 0.246530 0.571342 0.489039
O O9 0.449495 0.520205 0.284816
O O10 0.033994 0.684302 0.439130
O O11 0.856023 0.799957 0.518013
O O12 0.732122 0.715459 0.314345
O O13 0.254495 0.646233 0.217769
O O14 0.521899 0.693500 0.067010
O O15 0.415311 0.572281 0.999024
O O16 0.232528 0.693673 0.917913
#
# Coordination Sequence:
#
# PCOD9313425 Si02
#       8
#     4   4   4   4   4   4   4   4
#     4  10  18  33  59  85 112 147 186 227 274 334
#     4   9  18  33  57  85 113 148 185 223 276 339
#     4   9  18  36  59  84 113 146 186 231 276 336
#     4  12  24  38  56  81 110 148 189 237 286 336
#     4  10  20  38  59  84 114 147 185 230 277 335
#     4  11  23  40  58  80 110 146 189 237 288 337
#     4  11  22  37  58  86 116 149 189 231 279 336
#     4   8  17  33  56  83 114 149 185 224 274 335
#
# _framework density 25.981732000000001
#
# number of rings (size 3 to 8) (size 9 to 14) (size 15 to 20)
#    0.000    2.000    0.000    5.250    0.000    4.000 
#    0.000    5.000    0.000    0.000    0.000    0.000 
#    0.000    0.000    0.000    0.000    0.000    0.000 
#
# Total GULP energy -178931.226574 kJ/mol
# GULP energy per Si atom -5591.600830 kJ/mol
# Density = 2.592260 g / cm^3
# Si number density = 25.981732 Si / 1000 Ang^3
#
#
#
# Elastic Constant Matrix: (Units=GPa)
#
#
# Indices 1 2 3 4 5 6 
#
# 1 80.1339 -7.9604 6.4473 0.0000 0.0000 0.0000
# 2 -7.9604 126.0410 6.1284 0.0000 0.0000 0.0000
# 3 6.4473 6.1284 24.8417 0.0000 0.0000 0.0000
# 4 0.0000 0.0000 0.0000 30.4603 0.0000 0.0000
# 5 0.0000 0.0000 0.0000 0.0000 11.5978 0.0000
# 6 0.0000 0.0000 0.0000 0.0000 0.0000 40.4070
#
#
#
# Elastic Compliance Matrix: (Units=1/GPa)
#
#
# Indices 1 2 3 4 5 6 
#
# 1 0.012865 0.000987 -0.003582 0.000000 0.000000 0.000000
# 2 0.000987 0.008106 -0.002256 0.000000 0.000000 0.000000
# 3 -0.003582 -0.002256 0.041741 0.000000 0.000000 0.000000
# 4 0.000000 0.000000 0.000000 0.032830 0.000000 0.000000
# 5 0.000000 0.000000 0.000000 0.000000 0.086223 0.000000
# 6 0.000000 0.000000 0.000000 0.000000 0.000000 0.024748
#
#
# Mechanical properties :
#
#
# Convention : Reuss Voigt Hill
#
# Bulk Modulus (GPa) = 18.86457 26.69412 22.77934
# Shear Modulus (GPa) = 21.37792 31.58645 26.48218
#
# Velocity S-wave (km/s) = 2.87157 3.49050 3.19605
# Velocity P-wave (km/s) = 4.27446 5.15182 4.73351
#
# Compressibility (1/GPa) = 0.05300943
#
# Stress axis : x y z
#
# Youngs Moduli (GPa) = 77.72803 123.36650 23.95716
#
# Poissons Ratio (x) = -0.12173 0.08583
# Poissons Ratio (y) = -0.07670 0.05404
# Poissons Ratio (z) = 0.27846 0.27829
#
# Static dielectric constant tensor:
#      x y z
#    x 2.086740 0.000000 0.000000 
#    y 0.000000 2.050810 0.000000 
#    z 0.000000 0.000000 1.966810 
# 
# From -- ./inp_files/3197.got.cif
#   From: 2010.05.17/outbox.cif.g08.bks.cpg/sg19_2_cif.got.tgz:3197.got - 2010.06.03 22:46:19.
