data_PCOD9313698
_publ_section_title
;
Structure prediction by ZEFSAII (Michael W. Deem and Ramdas Pophale) SiO2 
 PCOD9313698
Probable space group: P 21 21 21
;
_chemical_formula_sum "Si O2"
_cell_formula_units_Z 28
_cell_length_a 12.865612
_cell_length_b 8.939235
_cell_length_c 9.665134
_cell_angle_alpha 90.000000
_cell_angle_beta 90.000000
_cell_angle_gamma 90.000000
_cell_volume 1111.574778
_symmetry_space_group_name_H-M "P 21 21 21"
_symmetry_group_IT_number 19
_symmetry_cell_setting 'orthorhombic'
loop_
_space_group_symop_operation_xyz
x,y,z
1/2-x,-y,1/2+z
1/2+x,1/2-y,-z
-x,1/2+y,1/2-z
loop_
_atom_site_type_symbol
_atom_site_label
_atom_site_fract_x
_atom_site_fract_y
_atom_site_fract_z
Si Si1 0.991606 0.524059 0.096964
Si Si2 0.072679 0.224208 0.174732
Si Si3 0.396338 0.411725 0.011570
Si Si4 0.221286 0.039493 0.322562
Si Si5 0.779554 0.768128 0.677010
Si Si6 0.581202 0.962248 0.171883
Si Si7 0.241019 0.311742 0.512266
O O1 0.076131 0.399737 0.140809
O O2 0.986260 0.677979 0.182249
O O3 0.885874 0.448780 0.152723
O O4 0.985743 0.548110 0.933363
O O5 0.001652 0.138840 0.063531
O O6 0.186557 0.149414 0.197603
O O7 0.298277 0.323297 0.943837
O O8 0.360565 0.584738 0.990722
O O9 0.414158 0.396339 0.175664
O O10 0.303174 0.908405 0.316829
O O11 0.232699 0.145695 0.453751
O O12 0.884441 0.864777 0.674172
O O13 0.732538 0.811364 0.826569
O O14 0.669190 0.882266 0.080276
#
# Coordination Sequence:
#
# PCOD9313698 Si02
#       7
#     4   4   4   4   4   4   4
#     4  10  22  41  62  96 118 168 213 261 312 385
#     4  10  20  38  66  87 128 163 214 257 320 381
#     4  10  19  40  61  91 117 168 205 259 314 387
#     4  10  23  38  64  93 126 161 218 267 312 378
#     4  10  21  41  64  90 127 167 213 260 317 382
#     4  10  23  39  66  91 126 166 217 262 315 385
#     4  10  22  39  63  88 126 169 214 258 316 382
#
# _framework density 25.189488999999998
#
# number of rings (size 3 to 8) (size 9 to 14) (size 15 to 20)
#    0.857    1.143    1.429    1.714    0.000    6.857 
#    5.143    0.000    0.000    0.000    0.000    0.000 
#    0.000    0.000    0.000    0.000    0.000    0.000 
#
# Total GULP energy -156263.588866 kJ/mol
# GULP energy per Si atom -5580.842459 kJ/mol
# Density = 2.513216 g / cm^3
# Si number density = 25.189489 Si / 1000 Ang^3
#
#
#
# Elastic Constant Matrix: (Units=GPa)
#
#
# Indices 1 2 3 4 5 6 
#
# 1 26.6244 13.9478 22.1203 0.0000 0.0000 0.0000
# 2 13.9478 122.0632 49.6455 0.0000 0.0000 0.0000
# 3 22.1203 49.6455 165.0752 0.0000 0.0000 0.0000
# 4 0.0000 0.0000 0.0000 29.3674 0.0000 0.0000
# 5 0.0000 0.0000 0.0000 0.0000 21.4878 0.0000
# 6 0.0000 0.0000 0.0000 0.0000 0.0000 27.4624
#
#
#
# Elastic Compliance Matrix: (Units=1/GPa)
#
#
# Indices 1 2 3 4 5 6 
#
# 1 0.043171 -0.002940 -0.004901 0.000000 0.000000 0.000000
# 2 -0.002940 0.009534 -0.002473 0.000000 0.000000 0.000000
# 3 -0.004901 -0.002473 0.007458 0.000000 0.000000 0.000000
# 4 0.000000 0.000000 0.000000 0.034051 0.000000 0.000000
# 5 0.000000 0.000000 0.000000 0.000000 0.046538 0.000000
# 6 0.000000 0.000000 0.000000 0.000000 0.000000 0.036413
#
#
# Mechanical properties :
#
#
# Convention : Reuss Voigt Hill
#
# Bulk Modulus (GPa) = 25.29342 53.90999 39.60170
# Shear Modulus (GPa) = 23.69958 30.86680 27.28319
#
# Velocity S-wave (km/s) = 3.07066 3.50435 3.29465
# Velocity P-wave (km/s) = 4.75762 6.14997 5.49805
#
# Compressibility (1/GPa) = 0.03953597
#
# Stress axis : x y z
#
# Youngs Moduli (GPa) = 23.16345 104.88317 134.07598
#
# Poissons Ratio (x) = 0.30834 0.65709
# Poissons Ratio (y) = 0.06810 0.33164
# Poissons Ratio (z) = 0.11352 0.25943
#
# Static dielectric constant tensor:
#      x y z
#    x 2.077740 0.000000 0.000000 
#    y 0.000000 1.982380 0.000000 
#    z 0.000000 0.000000 2.014610 
# 
# From -- ./inp_files/4136.got.cif
#   From: 2010.05.17/outbox.cif.g08.bks.cpg/sg19_3_cif.got.tgz:4136.got - 2010.06.03 22:46:19.
