data_PCOD9313035
_publ_section_title
;
Structure prediction by ZEFSAII (Michael W. Deem and Ramdas Pophale) SiO2 
 PCOD9313035
Probable space group: P 21 21 2
;
_chemical_formula_sum "Si O2"
_cell_formula_units_Z 24
_cell_length_a 7.732979
_cell_length_b 12.698097
_cell_length_c 10.475119
_cell_angle_alpha 90.000000
_cell_angle_beta 90.000000
_cell_angle_gamma 90.000000
_cell_volume 1028.595065
_symmetry_space_group_name_H-M "P 21 21 2"
_symmetry_group_IT_number 18
_symmetry_cell_setting 'orthorhombic'
loop_
_space_group_symop_operation_xyz
x,y,z
-x,-y,z
1/2+x,1/2-y,-z
1/2-x,1/2+y,-z
loop_
_atom_site_type_symbol
_atom_site_label
_atom_site_fract_x
_atom_site_fract_y
_atom_site_fract_z
Si Si1 0.122912 0.628575 0.623386
Si Si2 0.360814 0.142728 0.867487
Si Si3 0.996022 0.266488 0.873052
Si Si4 0.182142 0.936702 0.480653
Si Si5 0.984300 0.743526 0.382044
Si Si6 0.182688 0.938354 0.779912
O O1 0.032146 0.653966 0.756102
O O2 0.185384 0.511427 0.592776
O O3 0.007841 0.672607 0.507641
O O4 0.302858 0.695743 0.623198
O O5 0.468803 0.180467 0.744982
O O6 0.182250 0.210376 0.868811
O O7 0.309191 0.020581 0.848860
O O8 0.458632 0.173643 0.996102
O O9 0.858464 0.171022 0.850064
O O10 0.131853 0.832272 0.404760
O O11 0.228506 0.921852 0.630392
O O12 0.000000 0.000000 0.486432
O O13 0.000000 0.000000 0.777539
#
# Coordination Sequence:
#
# PCOD9313035 Si02
#       6
#     4   4   4   4   4   4
#     4  11  21  37  61  89 118 153 197 243 290 345
#     4  11  23  41  62  87 120 157 200 244 294 352
#     4  11  23  41  62  87 120 157 200 244 294 352
#     4   9  18  35  60  87 117 157 198 232 287 364
#     4  11  21  37  61  89 118 153 197 243 290 345
#     4   9  18  37  62  83 113 161 198 230 291 368
#
# _framework density 23.332795000000001
#
# number of rings (size 3 to 8) (size 9 to 14) (size 15 to 20)
#    0.000    1.667    3.333    2.000    0.000    1.333 
#    0.000   15.000    0.000    0.000    0.000    0.000 
#    0.000    0.000    0.000    0.000    0.000    0.000 
#
# Total GULP energy -134515.670906 kJ/mol
# GULP energy per Si atom -5604.819621 kJ/mol
# Density = 2.327969 g / cm^3
# Si number density = 23.332795 Si / 1000 Ang^3
#
#
#
# Elastic Constant Matrix: (Units=GPa)
#
#
# Indices 1 2 3 4 5 6 
#
# 1 120.3856 7.7533 38.0426 0.0000 0.0000 0.0000
# 2 7.7533 111.2719 48.3917 0.0000 0.0000 0.0000
# 3 38.0426 48.3917 181.0393 0.0000 0.0000 0.0000
# 4 0.0000 0.0000 0.0000 38.1134 0.0000 0.0000
# 5 0.0000 0.0000 0.0000 0.0000 38.5603 0.0000
# 6 0.0000 0.0000 0.0000 0.0000 0.0000 47.2403
#
#
#
# Elastic Compliance Matrix: (Units=1/GPa)
#
#
# Indices 1 2 3 4 5 6 
#
# 1 0.008902 0.000219 -0.001929 0.000000 0.000000 0.000000
# 2 0.000219 0.010175 -0.002766 0.000000 0.000000 0.000000
# 3 -0.001929 -0.002766 0.006668 0.000000 0.000000 0.000000
# 4 0.000000 0.000000 0.000000 0.026237 0.000000 0.000000
# 5 0.000000 0.000000 0.000000 0.000000 0.025933 0.000000
# 6 0.000000 0.000000 0.000000 0.000000 0.000000 0.021168
#
#
# Mechanical properties :
#
#
# Convention : Reuss Voigt Hill
#
# Bulk Modulus (GPa) = 59.54898 66.78577 63.16737
# Shear Modulus (GPa) = 44.00099 46.01677 45.00888
#
# Velocity S-wave (km/s) = 4.34729 4.44576 4.39680
# Velocity P-wave (km/s) = 7.12570 7.41878 7.27371
#
# Compressibility (1/GPa) = 0.01679290
#
# Stress axis : x y z
#
# Youngs Moduli (GPa) = 112.33218 98.28492 149.96381
#
# Poissons Ratio (x) = -0.02149 0.28930
# Poissons Ratio (y) = -0.02456 0.41474
# Poissons Ratio (z) = 0.21670 0.27182
#
# Static dielectric constant tensor:
#      x y z
#    x 1.958830 0.000000 0.000000 
#    y 0.000000 1.876720 0.000000 
#    z 0.000000 0.000000 1.769710 
# 
# From -- ./inp_files/3150.got.cif
#   From: 2010.05.17/outbox.cif.g08.bks.cpg/sg18_2_cif.got.tgz:3150.got - 2010.06.03 22:40:56.
