data_PCOD9313977
_publ_section_title
;
Structure prediction by ZEFSAII (Michael W. Deem and Ramdas Pophale) SiO2 
 PCOD9313977
Probable space group: P 21 21 21
;
_chemical_formula_sum "Si O2"
_cell_formula_units_Z 32
_cell_length_a 11.299724
_cell_length_b 12.581212
_cell_length_c 9.021807
_cell_angle_alpha 90.000000
_cell_angle_beta 90.000000
_cell_angle_gamma 90.000000
_cell_volume 1282.578184
_symmetry_space_group_name_H-M "P 21 21 21"
_symmetry_group_IT_number 19
_symmetry_cell_setting 'orthorhombic'
loop_
_space_group_symop_operation_xyz
x,y,z
1/2-x,-y,1/2+z
1/2+x,1/2-y,-z
-x,1/2+y,1/2-z
loop_
_atom_site_type_symbol
_atom_site_label
_atom_site_fract_x
_atom_site_fract_y
_atom_site_fract_z
Si Si1 0.861289 0.483971 0.894175
Si Si2 0.538206 0.766097 0.041961
Si Si3 0.794596 0.630178 0.626186
Si Si4 0.112842 0.712250 0.272216
Si Si5 0.882467 0.767188 0.391074
Si Si6 0.206689 0.549517 0.497027
Si Si7 0.197831 0.194033 0.427225
Si Si8 0.098765 0.534078 0.801125
O O1 0.818443 0.530849 0.734282
O O2 0.997961 0.456781 0.864507
O O3 0.790714 0.397443 0.986990
O O4 0.846329 0.583759 0.004604
O O5 0.572330 0.825779 0.887943
O O6 0.403012 0.729173 0.008544
O O7 0.658808 0.697140 0.055060
O O8 0.544171 0.848437 0.177623
O O9 0.732548 0.720206 0.726289
O O10 0.895895 0.689420 0.532730
O O11 0.127879 0.613610 0.380208
O O12 0.012997 0.792422 0.332501
O O13 0.798722 0.864240 0.435082
O O14 0.825651 0.711098 0.246343
O O15 0.133084 0.507619 0.634863
O O16 0.284547 0.468768 0.401739
#
# Coordination Sequence:
#
# PCOD9313977 Si02
#       8
#     4   4   4   4   4   4   4   4
#     4  11  23  40  62  91 126 163 209 264 316 373
#     4  10  20  39  62  90 124 160 207 255 310 371
#     4  11  22  39  63  87 128 157 212 251 316 374
#     4  10  21  39  62  88 121 164 206 255 311 371
#     4  10  21  39  62  88 121 164 206 255 311 371
#     4  11  22  39  63  87 128 157 212 251 316 374
#     4  10  20  39  62  90 124 160 207 255 310 371
#     4  11  23  40  62  91 126 163 209 264 316 373
#
# _framework density 24.949748
#
# number of rings (size 3 to 8) (size 9 to 14) (size 15 to 20)
#    0.000    1.500    2.500    3.000    0.000    0.000 
#    0.000   10.000    0.000    0.000    0.000    0.000 
#    0.000    0.000    0.000    0.000    0.000    0.000 
#
# Total GULP energy -178568.676443 kJ/mol
# GULP energy per Si atom -5580.271139 kJ/mol
# Density = 2.489296 g / cm^3
# Si number density = 24.949748 Si / 1000 Ang^3
#
#
#
# Elastic Constant Matrix: (Units=GPa)
#
#
# Indices 1 2 3 4 5 6 
#
# 1 90.4451 3.3050 29.1440 0.0000 0.0000 0.0000
# 2 3.3050 27.3720 22.8258 0.0000 0.0000 0.0000
# 3 29.1440 22.8258 125.7633 0.0000 0.0000 0.0000
# 4 0.0000 0.0000 0.0000 34.5933 0.0000 0.0000
# 5 0.0000 0.0000 0.0000 0.0000 43.2014 0.0000
# 6 0.0000 0.0000 0.0000 0.0000 0.0000 26.0683
#
#
#
# Elastic Compliance Matrix: (Units=1/GPa)
#
#
# Indices 1 2 3 4 5 6 
#
# 1 0.011973 0.001023 -0.002960 0.000000 0.000000 0.000000
# 2 0.001023 0.043137 -0.008066 0.000000 0.000000 0.000000
# 3 -0.002960 -0.008066 0.010101 0.000000 0.000000 0.000000
# 4 0.000000 0.000000 0.000000 0.028907 0.000000 0.000000
# 5 0.000000 0.000000 0.000000 0.000000 0.023147 0.000000
# 6 0.000000 0.000000 0.000000 0.000000 0.000000 0.038361
#
#
# Mechanical properties :
#
#
# Convention : Reuss Voigt Hill
#
# Bulk Modulus (GPa) = 22.12197 39.34777 30.73487
# Shear Modulus (GPa) = 26.21895 33.32631 29.77263
#
# Velocity S-wave (km/s) = 3.24523 3.65874 3.45817
# Velocity P-wave (km/s) = 4.78831 5.80117 5.31890
#
# Compressibility (1/GPa) = 0.04520394
#
# Stress axis : x y z
#
# Youngs Moduli (GPa) = 83.52181 23.18208 98.99568
#
# Poissons Ratio (x) = -0.02371 0.29305
# Poissons Ratio (y) = -0.08543 0.79853
# Poissons Ratio (z) = 0.24724 0.18699
#
# Static dielectric constant tensor:
#      x y z
#    x 2.088980 0.000000 0.000000 
#    y 0.000000 1.990330 0.000000 
#    z 0.000000 0.000000 1.955570 
# 
# From -- ./inp_files/3596.got.cif
#   From: 2010.05.17/outbox.cif.g08.bks.cpg/sg19_2_cif.got.tgz:3596.got - 2010.06.03 22:46:19.
