data_PCOD9313420
_publ_section_title
;
Structure prediction by ZEFSAII (Michael W. Deem and Ramdas Pophale) SiO2 
 PCOD9313420
Probable space group: P 21 21 21
;
_chemical_formula_sum "Si O2"
_cell_formula_units_Z 28
_cell_length_a 13.952170
_cell_length_b 8.291737
_cell_length_c 9.485322
_cell_angle_alpha 90.000000
_cell_angle_beta 90.000000
_cell_angle_gamma 90.000000
_cell_volume 1097.335316
_symmetry_space_group_name_H-M "P 21 21 21"
_symmetry_group_IT_number 19
_symmetry_cell_setting 'orthorhombic'
loop_
_space_group_symop_operation_xyz
x,y,z
1/2-x,-y,1/2+z
1/2+x,1/2-y,-z
-x,1/2+y,1/2-z
loop_
_atom_site_type_symbol
_atom_site_label
_atom_site_fract_x
_atom_site_fract_y
_atom_site_fract_z
Si Si1 0.769070 0.216039 0.202901
Si Si2 0.759637 0.281814 0.774496
Si Si3 0.296942 0.485395 0.535983
Si Si4 0.091149 0.264012 0.413325
Si Si5 0.150126 0.068941 0.996016
Si Si6 0.065301 0.735163 0.892868
Si Si7 0.973663 0.130188 0.160649
O O1 0.756705 0.154810 0.361962
O O2 0.881760 0.246187 0.173378
O O3 0.700923 0.352359 0.138910
O O4 0.750195 0.060819 0.102468
O O5 0.700060 0.281255 0.628430
O O6 0.726659 0.427201 0.875733
O O7 0.872617 0.245452 0.752254
O O8 0.711033 0.136600 0.860990
O O9 0.395634 0.420519 0.474103
O O10 0.063652 0.447716 0.366650
O O11 0.047186 0.243364 0.570965
O O12 0.030889 0.151533 0.306037
O O13 0.053407 0.164099 0.041903
O O14 0.110120 0.893141 0.965965
#
# Coordination Sequence:
#
# PCOD9313420 Si02
#       7
#     4   4   4   4   4   4   4
#     4  11  21  39  62  86 123 153 202 249 294 357
#     4  10  20  37  55  86 114 148 204 241 288 356
#     4  11  20  36  62  84 113 161 194 239 294 351
#     4  10  18  33  57  85 111 150 195 247 283 351
#     4   9  24  35  60  86 119 153 196 246 301 349
#     4  11  20  34  59  85 115 150 193 247 297 334
#     4  10  19  36  59  88 113 153 202 247 287 356
#
# _framework density 25.516358
#
# number of rings (size 3 to 8) (size 9 to 14) (size 15 to 20)
#    0.000    1.714    4.286    0.000    2.000    1.143 
#    0.000    0.000   18.857    0.000    0.000    0.000 
#    0.000    0.000    0.000    0.000    0.000    0.000 
#
# Total GULP energy -156104.779596 kJ/mol
# GULP energy per Si atom -5575.170700 kJ/mol
# Density = 2.545828 g / cm^3
# Si number density = 25.516358 Si / 1000 Ang^3
#
#
#
# Elastic Constant Matrix: (Units=GPa)
#
#
# Indices 1 2 3 4 5 6 
#
# 1 34.1911 -9.2217 -20.2633 0.0000 0.0000 0.0000
# 2 -9.2217 50.1412 -3.1786 0.0000 0.0000 0.0000
# 3 -20.2633 -3.1786 56.8662 0.0000 0.0000 0.0000
# 4 0.0000 0.0000 0.0000 79.1669 0.0000 0.0000
# 5 0.0000 0.0000 0.0000 0.0000 29.2375 0.0000
# 6 0.0000 0.0000 0.0000 0.0000 0.0000 24.1184
#
#
#
# Elastic Compliance Matrix: (Units=1/GPa)
#
#
# Indices 1 2 3 4 5 6 
#
# 1 0.040282 0.008348 0.014821 0.000000 0.000000 0.000000
# 2 0.008348 0.021745 0.004190 0.000000 0.000000 0.000000
# 3 0.014821 0.004190 0.023100 0.000000 0.000000 0.000000
# 4 0.000000 0.000000 0.000000 0.012632 0.000000 0.000000
# 5 0.000000 0.000000 0.000000 0.000000 0.034203 0.000000
# 6 0.000000 0.000000 0.000000 0.000000 0.000000 0.041462
#
#
# Mechanical properties :
#
#
# Convention : Reuss Voigt Hill
#
# Bulk Modulus (GPa) = 7.15080 8.43016 7.79048
# Shear Modulus (GPa) = 30.24413 38.09535 34.16974
#
# Velocity S-wave (km/s) = 3.44653 3.86810 3.66338
# Velocity P-wave (km/s) = 4.31817 4.82292 4.57751
#
# Compressibility (1/GPa) = 0.13984443
#
# Stress axis : x y z
#
# Youngs Moduli (GPa) = 24.82481 45.98838 43.28935
#
# Poissons Ratio (x) = -0.38391 -0.64157
# Poissons Ratio (y) = -0.20724 -0.18139
# Poissons Ratio (z) = -0.36792 -0.19270
#
# Static dielectric constant tensor:
#      x y z
#    x 1.722120 0.000000 0.000000 
#    y 0.000000 2.116890 0.000000 
#    z 0.000000 0.000000 2.083240 
# 
# From -- ./inp_files/3033.got.cif
#   From: 2010.05.17/outbox.cif.g08.bks.cpg/sg19_2_cif.got.tgz:3033.got - 2010.06.03 22:46:19.
