data_PCOD9313047
_publ_section_title
;
Structure prediction by ZEFSAII (Michael W. Deem and Ramdas Pophale) SiO2 
 PCOD9313047
Probable space group: P 21 21 2
;
_chemical_formula_sum "Si O2"
_cell_formula_units_Z 22
_cell_length_a 11.932198
_cell_length_b 11.788358
_cell_length_c 6.355341
_cell_angle_alpha 90.000000
_cell_angle_beta 90.000000
_cell_angle_gamma 90.000000
_cell_volume 893.948759
_symmetry_space_group_name_H-M "P 21 21 2"
_symmetry_group_IT_number 18
_symmetry_cell_setting 'orthorhombic'
loop_
_space_group_symop_operation_xyz
x,y,z
-x,-y,z
1/2+x,1/2-y,-z
1/2-x,1/2+y,-z
loop_
_atom_site_type_symbol
_atom_site_label
_atom_site_fract_x
_atom_site_fract_y
_atom_site_fract_z
Si Si1 0.391282 0.665087 0.740014
Si Si2 0.500000 0.500000 0.061452
Si Si3 0.785519 0.433889 0.427040
Si Si4 0.701670 0.225289 0.137962
Si Si5 0.698970 0.627442 0.185746
Si Si6 0.522898 0.801129 0.390276
O O1 0.308430 0.587017 0.605568
O O2 0.471679 0.732068 0.585134
O O3 0.462992 0.601724 0.913161
O O4 0.314986 0.749118 0.884669
O O5 0.604806 0.525089 0.205549
O O6 0.758003 0.329694 0.260285
O O7 0.788331 0.560221 0.331939
O O8 0.906639 0.406886 0.526603
O O9 0.585177 0.187549 0.238291
O O10 0.784324 0.124909 0.072320
O O11 0.619027 0.726659 0.276894
#
# Coordination Sequence:
#
# PCOD9313047 Si02
#       6
#     4   2   4   4   4   4
#     4  11  21  41  70 102 136 181 232 294 355 425
#     4  12  20  40  76 102 132 180 238 294 352 416
#     4  11  24  43  72 104 139 187 242 297 354 435
#     4  11  24  44  71 105 141 186 237 303 360 426
#     4  12  23  44  75 106 140 187 247 291 359 438
#     4  11  24  43  73 101 146 187 234 299 364 426
#
# _framework density 24.609912999999999
#
# number of rings (size 3 to 8) (size 9 to 14) (size 15 to 20)
#    0.000    0.727    5.455    3.273    0.000    0.000 
#    0.000    0.909    8.000    0.000    0.000    0.000 
#    0.000    0.000    0.000    0.000    0.000    0.000 
#
# Total GULP energy -122854.040240 kJ/mol
# GULP energy per Si atom -5584.274556 kJ/mol
# Density = 2.455390 g / cm^3
# Si number density = 24.609913 Si / 1000 Ang^3
#
#
#
# Elastic Constant Matrix: (Units=GPa)
#
#
# Indices 1 2 3 4 5 6 
#
# 1 94.0005 31.7802 20.0170 0.0000 0.0000 0.0000
# 2 31.7802 57.3945 33.4903 0.0000 0.0000 0.0000
# 3 20.0170 33.4903 90.8225 0.0000 0.0000 0.0000
# 4 0.0000 0.0000 0.0000 48.5634 0.0000 0.0000
# 5 0.0000 0.0000 0.0000 0.0000 41.8141 0.0000
# 6 0.0000 0.0000 0.0000 0.0000 0.0000 35.4291
#
#
#
# Elastic Compliance Matrix: (Units=1/GPa)
#
#
# Indices 1 2 3 4 5 6 
#
# 1 0.013094 -0.007092 -0.000271 0.000000 0.000000 0.000000
# 2 -0.007092 0.026042 -0.008040 0.000000 0.000000 0.000000
# 3 -0.000271 -0.008040 0.014035 0.000000 0.000000 0.000000
# 4 0.000000 0.000000 0.000000 0.020592 0.000000 0.000000
# 5 0.000000 0.000000 0.000000 0.000000 0.023915 0.000000
# 6 0.000000 0.000000 0.000000 0.000000 0.000000 0.028225
#
#
# Mechanical properties :
#
#
# Convention : Reuss Voigt Hill
#
# Bulk Modulus (GPa) = 44.71260 45.86584 45.28922
# Shear Modulus (GPa) = 30.45768 35.62330 33.04049
#
# Velocity S-wave (km/s) = 3.52180 3.80875 3.66808
# Velocity P-wave (km/s) = 5.89452 6.16602 6.03180
#
# Compressibility (1/GPa) = 0.02236506
#
# Stress axis : x y z
#
# Youngs Moduli (GPa) = 76.37286 38.40013 71.25205
#
# Poissons Ratio (x) = 0.27234 0.01928
# Poissons Ratio (y) = 0.54166 0.57284
# Poissons Ratio (z) = 0.02066 0.30872
#
# Static dielectric constant tensor:
#      x y z
#    x -0.043510 0.000000 0.000000 
#    y 0.000000 -3.702430 0.000000 
#    z 0.000000 0.000000 1.962410 
# 
# From -- ./inp_files/1043.got.cif
#   From: 2010.05.17/outbox.cif.g08.bks.cpg/sg18_1_cif.got.tgz:1043.got - 2010.06.03 22:40:56.
