data_PCOD9313730
_publ_section_title
;
Structure prediction by ZEFSAII (Michael W. Deem and Ramdas Pophale) SiO2 
 PCOD9313730
Probable space group: P 21 21 21
;
_chemical_formula_sum "Si O2"
_cell_formula_units_Z 24
_cell_length_a 4.894378
_cell_length_b 10.747651
_cell_length_c 17.652809
_cell_angle_alpha 90.000000
_cell_angle_beta 90.000000
_cell_angle_gamma 90.000000
_cell_volume 928.591888
_symmetry_space_group_name_H-M "P 21 21 21"
_symmetry_group_IT_number 19
_symmetry_cell_setting 'orthorhombic'
loop_
_space_group_symop_operation_xyz
x,y,z
1/2-x,-y,1/2+z
1/2+x,1/2-y,-z
-x,1/2+y,1/2-z
loop_
_atom_site_type_symbol
_atom_site_label
_atom_site_fract_x
_atom_site_fract_y
_atom_site_fract_z
Si Si1 0.219032 0.674080 0.972602
Si Si2 0.109051 0.762483 0.812399
Si Si3 0.106046 0.153761 0.063284
Si Si4 0.135650 0.570152 0.192429
Si Si5 0.094628 0.366144 0.830680
Si Si6 0.996942 0.930001 0.447574
O O1 0.156690 0.671436 0.882611
O O2 0.522185 0.724768 0.986769
O O3 0.147687 0.542210 0.008452
O O4 0.892655 0.862574 0.847445
O O5 0.971312 0.751289 0.728432
O O6 0.397633 0.828745 0.796129
O O7 0.315566 0.103922 0.127360
O O8 0.158921 0.299473 0.047613
O O9 0.816330 0.154088 0.104787
O O10 0.209062 0.085744 0.987472
O O11 0.272093 0.535025 0.272196
O O12 0.005968 0.466123 0.140305
#
# Coordination Sequence:
#
# PCOD9313730 Si02
#       6
#     4   4   4   4   4   4
#     4  12  23  43  77 112 144 191 261 329 388 447
#     4  10  19  42  73 106 140 181 246 335 374 428
#     4  12  27  47  72 106 161 208 246 300 391 490
#     4  10  21  44  78 102 143 197 256 322 383 435
#     4  10  22  49  70 105 147 195 268 302 376 459
#     4  12  28  49  76 111 161 208 251 318 396 475
#
# _framework density 25.845582
#
# number of rings (size 3 to 8) (size 9 to 14) (size 15 to 20)
#    1.000    0.000    5.000    1.000    0.000    8.000 
#    6.000    0.000    0.000    0.000    0.000    0.000 
#    0.000    0.000    0.000    0.000    0.000    0.000 
#
# Total GULP energy -134063.723240 kJ/mol
# GULP energy per Si atom -5585.988468 kJ/mol
# Density = 2.578676 g / cm^3
# Si number density = 25.845582 Si / 1000 Ang^3
#
#
#
# Elastic Constant Matrix: (Units=GPa)
#
#
# Indices 1 2 3 4 5 6 
#
# 1 104.4374 -6.6969 7.7529 0.0000 0.0000 0.0000
# 2 -6.6969 60.4737 14.1097 0.0000 0.0000 0.0000
# 3 7.7529 14.1097 152.8023 0.0000 0.0000 0.0000
# 4 0.0000 0.0000 0.0000 40.9836 0.0000 0.0000
# 5 0.0000 0.0000 0.0000 0.0000 44.0307 0.0000
# 6 0.0000 0.0000 0.0000 0.0000 0.0000 29.2902
#
#
#
# Elastic Compliance Matrix: (Units=1/GPa)
#
#
# Indices 1 2 3 4 5 6 
#
# 1 0.009698 0.001215 -0.000604 0.000000 0.000000 0.000000
# 2 0.001215 0.017052 -0.001636 0.000000 0.000000 0.000000
# 3 -0.000604 -0.001636 0.006726 0.000000 0.000000 0.000000
# 4 0.000000 0.000000 0.000000 0.024400 0.000000 0.000000
# 5 0.000000 0.000000 0.000000 0.000000 0.022711 0.000000
# 6 0.000000 0.000000 0.000000 0.000000 0.000000 0.034141
#
#
# Mechanical properties :
#
#
# Convention : Reuss Voigt Hill
#
# Bulk Modulus (GPa) = 31.82149 38.67165 35.24657
# Shear Modulus (GPa) = 39.29111 43.03075 41.16093
#
# Velocity S-wave (km/s) = 3.90324 4.08477 3.99503
# Velocity P-wave (km/s) = 5.71424 6.10263 5.91163
#
# Compressibility (1/GPa) = 0.03142531
#
# Stress axis : x y z
#
# Youngs Moduli (GPa) = 103.11542 58.64270 148.67336
#
# Poissons Ratio (x) = -0.07125 0.08983
# Poissons Ratio (y) = -0.12528 0.24327
# Poissons Ratio (z) = 0.06231 0.09595
#
# Static dielectric constant tensor:
#      x y z
#    x 2.041870 0.000000 0.000000 
#    y 0.000000 2.088790 0.000000 
#    z 0.000000 0.000000 2.094780 
# 
# From -- ./inp_files/6864.got.cif
#   From: 2010.05.17/outbox.cif.g08.bks.cpg/sg19_4_cif.got.tgz:6864.got - 2010.06.03 22:46:19.
