data_PCOD9313417
_publ_section_title
;
Structure prediction by ZEFSAII (Michael W. Deem and Ramdas Pophale) SiO2 
 PCOD9313417
Probable space group: P 21 21 21
;
_chemical_formula_sum "Si O2"
_cell_formula_units_Z 32
_cell_length_a 19.461307
_cell_length_b 5.670118
_cell_length_c 12.039903
_cell_angle_alpha 90.000000
_cell_angle_beta 90.000000
_cell_angle_gamma 90.000000
_cell_volume 1328.578098
_symmetry_space_group_name_H-M "P 21 21 21"
_symmetry_group_IT_number 19
_symmetry_cell_setting 'orthorhombic'
loop_
_space_group_symop_operation_xyz
x,y,z
1/2-x,-y,1/2+z
1/2+x,1/2-y,-z
-x,1/2+y,1/2-z
loop_
_atom_site_type_symbol
_atom_site_label
_atom_site_fract_x
_atom_site_fract_y
_atom_site_fract_z
Si Si1 0.707281 0.643434 0.077491
Si Si2 0.159575 0.403678 0.153984
Si Si3 0.931787 0.622261 0.186253
Si Si4 0.912884 0.729559 0.540332
Si Si5 0.209403 0.765889 0.319944
Si Si6 0.645151 0.037821 0.234833
Si Si7 0.792735 0.009034 0.948196
Si Si8 0.037246 0.617003 0.384902
O O1 0.649345 0.460270 0.036741
O O2 0.772605 0.526639 0.139700
O O3 0.667012 0.807149 0.165563
O O4 0.745686 0.782488 0.978556
O O5 0.124457 0.192949 0.221730
O O6 0.114624 0.433514 0.043217
O O7 0.161959 0.639469 0.228374
O O8 0.236803 0.337565 0.119892
O O9 0.999936 0.603997 0.263051
O O10 0.924567 0.372959 0.123356
O O11 0.932890 0.851919 0.107726
O O12 0.982083 0.641474 0.484062
O O13 0.914063 0.832302 0.664886
O O14 0.286127 0.694987 0.278258
O O15 0.195223 0.624620 0.433667
O O16 0.642133 0.009002 0.367265
#
# Coordination Sequence:
#
# PCOD9313417 Si02
#       8
#     4   4   4   4   4   4   4   4
#     4  10  18  33  52  76 102 152 187 221 282 327
#     4  10  18  34  50  73 113 136 180 222 273 331
#     4   9  19  33  48  78 104 144 175 227 277 331
#     4  10  19  33  52  78 103 144 181 226 280 328
#     4   9  19  33  45  77  99 145 181 215 268 320
#     4   9  19  33  45  75 103 136 183 225 268 323
#     4  10  19  34  48  72 113 138 184 226 259 330
#     4   9  19  33  52  75 109 135 185 226 277 334
#
# _framework density 24.085902999999998
#
# number of rings (size 3 to 8) (size 9 to 14) (size 15 to 20)
#    0.000    2.500    3.750    0.000    1.750    6.000 
#   13.500    0.000    0.000    0.000    0.000    1.750 
#    0.000    0.000    0.000    0.000    0.000    0.000 
#
# Total GULP energy -178436.960268 kJ/mol
# GULP energy per Si atom -5576.155008 kJ/mol
# Density = 2.403108 g / cm^3
# Si number density = 24.085903 Si / 1000 Ang^3
#
#
#
# Elastic Constant Matrix: (Units=GPa)
#
#
# Indices 1 2 3 4 5 6 
#
# 1 36.1952 21.4851 3.6454 0.0000 0.0000 0.0000
# 2 21.4851 108.4504 13.0863 0.0000 0.0000 0.0000
# 3 3.6454 13.0863 76.6345 0.0000 0.0000 0.0000
# 4 0.0000 0.0000 0.0000 -0.6913 0.0000 0.0000
# 5 0.0000 0.0000 0.0000 0.0000 32.4822 0.0000
# 6 0.0000 0.0000 0.0000 0.0000 0.0000 28.7032
#
#
#
# Elastic Compliance Matrix: (Units=1/GPa)
#
#
# Indices 1 2 3 4 5 6 
#
# 1 0.031324 -0.006153 -0.000439 0.000000 0.000000 0.000000
# 2 -0.006153 0.010623 -0.001521 0.000000 0.000000 0.000000
# 3 -0.000439 -0.001521 0.013330 0.000000 0.000000 0.000000
# 4 0.000000 0.000000 0.000000 -1.446547 0.000000 0.000000
# 5 0.000000 0.000000 0.000000 0.000000 0.030786 0.000000
# 6 0.000000 0.000000 0.000000 0.000000 0.000000 0.034839
#
#
# Mechanical properties :
#
#
# Convention : Reuss Voigt Hill
#
# Bulk Modulus (GPa) = 25.60793 33.07932 29.34363
# Shear Modulus (GPa) = -3.85683 24.30303 10.22310
#
# Velocity S-wave (km/s) = -1.26679 3.17995 2.06244
# Velocity P-wave (km/s) = 2.91810 5.21981 4.22858
#
# Compressibility (1/GPa) = 0.03905040
#
# Stress axis : x y z
#
# Youngs Moduli (GPa) = 31.92399 94.13279 75.02068
#
# Poissons Ratio (x) = 0.57917 0.03297
# Poissons Ratio (y) = 0.19642 0.11414
# Poissons Ratio (z) = 0.01403 0.14321
#
# Static dielectric constant tensor:
#      x y z
#    x 2.045090 0.000000 0.000000 
#    y 0.000000 2.021960 0.000000 
#    z 0.000000 0.000000 1.953970 
# 
# From -- ./inp_files/5610.got.cif
#   From: 2010.05.17/outbox.cif.g08.bks.cpg/sg19_3_cif.got.tgz:5610.got - 2010.06.03 22:46:19.
