data_PCOD9313719
_publ_section_title
;
Structure prediction by ZEFSAII (Michael W. Deem and Ramdas Pophale) SiO2 
 PCOD9313719
Probable space group: P 21 21 21
;
_chemical_formula_sum "Si O2"
_cell_formula_units_Z 28
_cell_length_a 10.340310
_cell_length_b 11.881840
_cell_length_c 9.237576
_cell_angle_alpha 90.000000
_cell_angle_beta 90.000000
_cell_angle_gamma 90.000000
_cell_volume 1134.946222
_symmetry_space_group_name_H-M "P 21 21 21"
_symmetry_group_IT_number 19
_symmetry_cell_setting 'orthorhombic'
loop_
_space_group_symop_operation_xyz
x,y,z
1/2-x,-y,1/2+z
1/2+x,1/2-y,-z
-x,1/2+y,1/2-z
loop_
_atom_site_type_symbol
_atom_site_label
_atom_site_fract_x
_atom_site_fract_y
_atom_site_fract_z
Si Si1 0.935803 0.592469 0.470970
Si Si2 0.652042 0.163653 0.943802
Si Si3 0.596866 0.575723 0.198677
Si Si4 0.697072 0.153631 0.284903
Si Si5 0.388845 0.890692 0.081857
Si Si6 0.881849 0.167837 0.764764
Si Si7 0.031117 0.541212 0.165397
O O1 0.865318 0.704498 0.418442
O O2 0.862609 0.494081 0.557285
O O3 0.027574 0.650322 0.594088
O O4 0.005014 0.535661 0.335760
O O5 0.747575 0.120975 0.818013
O O6 0.533124 0.080311 0.914861
O O7 0.701833 0.154391 0.108869
O O8 0.437981 0.587207 0.184001
O O9 0.651443 0.501807 0.331135
O O10 0.633889 0.703404 0.220372
O O11 0.676151 0.279095 0.351619
O O12 0.830894 0.105319 0.346493
O O13 0.539976 0.885996 0.135039
O O14 0.411501 0.894394 0.911479
#
# Coordination Sequence:
#
# PCOD9313719 Si02
#       7
#     4   4   4   4   4   4   4
#     4  11  23  41  66  99 134 170 219 281 325 394
#     4  12  23  42  68  96 134 174 226 273 327 404
#     4  10  19  41  65  88 130 179 213 263 344 386
#     4  11  22  40  70  95 131 176 220 274 335 397
#     4  10  21  41  64  92 135 172 215 272 338 394
#     4  10  21  38  66  93 127 177 221 265 330 395
#     4  12  25  39  69 105 129 168 230 280 329 396
#
# _framework density 24.670773000000001
#
# number of rings (size 3 to 8) (size 9 to 14) (size 15 to 20)
#    0.000    1.143    7.143    1.714    0.000    3.429 
#    0.000    7.143    0.000    0.000    0.000    0.000 
#    0.000    0.000    0.000    0.000    0.000    0.000 
#
# Total GULP energy -156363.886136 kJ/mol
# GULP energy per Si atom -5584.424505 kJ/mol
# Density = 2.461462 g / cm^3
# Si number density = 24.670773 Si / 1000 Ang^3
#
#
#
# Elastic Constant Matrix: (Units=GPa)
#
#
# Indices 1 2 3 4 5 6 
#
# 1 36.4206 -14.3870 9.3708 0.0000 0.0000 0.0000
# 2 -14.3870 103.1176 11.1085 0.0000 0.0000 0.0000
# 3 9.3708 11.1085 107.0819 0.0000 0.0000 0.0000
# 4 0.0000 0.0000 0.0000 31.5368 0.0000 0.0000
# 5 0.0000 0.0000 0.0000 0.0000 45.0701 0.0000
# 6 0.0000 0.0000 0.0000 0.0000 0.0000 17.1473
#
#
#
# Elastic Compliance Matrix: (Units=1/GPa)
#
#
# Indices 1 2 3 4 5 6 
#
# 1 0.030042 0.004525 -0.003098 0.000000 0.000000 0.000000
# 2 0.004525 0.010489 -0.001484 0.000000 0.000000 0.000000
# 3 -0.003098 -0.001484 0.009764 0.000000 0.000000 0.000000
# 4 0.000000 0.000000 0.000000 0.031709 0.000000 0.000000
# 5 0.000000 0.000000 0.000000 0.000000 0.022188 0.000000
# 6 0.000000 0.000000 0.000000 0.000000 0.000000 0.058318
#
#
# Mechanical properties :
#
#
# Convention : Reuss Voigt Hill
#
# Bulk Modulus (GPa) = 19.92833 28.75609 24.34221
# Shear Modulus (GPa) = 27.87834 34.78601 31.33217
#
# Velocity S-wave (km/s) = 3.36522 3.75908 3.56759
# Velocity P-wave (km/s) = 4.81610 5.52469 5.18252
#
# Compressibility (1/GPa) = 0.05017983
#
# Stress axis : x y z
#
# Youngs Moduli (GPa) = 33.28696 95.33885 102.41965
#
# Poissons Ratio (x) = -0.43143 0.31734
# Poissons Ratio (y) = -0.15063 0.15200
# Poissons Ratio (z) = 0.10314 0.14149
#
# Static dielectric constant tensor:
#      x y z
#    x 2.043610 0.000000 0.000000 
#    y 0.000000 1.940930 0.000000 
#    z 0.000000 0.000000 1.942720 
# 
# From -- ./inp_files/3897.got.cif
#   From: 2010.05.17/outbox.cif.g08.bks.cpg/sg19_2_cif.got.tgz:3897.got - 2010.06.03 22:46:19.
