data_PCOD9313140
_publ_section_title
;
Structure prediction by ZEFSAII (Michael W. Deem and Ramdas Pophale) SiO2 
 PCOD9313140
Probable space group: P 21 21 2
;
_chemical_formula_sum "Si O2"
_cell_formula_units_Z 26
_cell_length_a 21.168110
_cell_length_b 7.743679
_cell_length_c 7.196081
_cell_angle_alpha 90.000000
_cell_angle_beta 90.000000
_cell_angle_gamma 90.000000
_cell_volume 1179.574753
_symmetry_space_group_name_H-M "P 21 21 2"
_symmetry_group_IT_number 18
_symmetry_cell_setting 'orthorhombic'
loop_
_space_group_symop_operation_xyz
x,y,z
-x,-y,z
1/2+x,1/2-y,-z
1/2-x,1/2+y,-z
loop_
_atom_site_type_symbol
_atom_site_label
_atom_site_fract_x
_atom_site_fract_y
_atom_site_fract_z
Si Si1 0.420042 0.612454 0.911959
Si Si2 0.000000 0.500000 0.676274
Si Si3 0.372175 0.998011 0.473727
Si Si4 0.448341 0.263834 0.023858
Si Si5 0.864421 0.187129 0.293628
Si Si6 0.805232 0.664668 0.171633
Si Si7 0.764063 0.511262 0.808875
O O1 0.402538 0.493695 0.732562
O O2 0.362425 0.740184 0.936964
O O3 0.426446 0.460869 0.067566
O O4 0.486279 0.709596 0.909589
O O5 0.057268 0.427759 0.553593
O O6 0.033968 0.639536 0.809621
O O7 0.375967 0.201627 0.524580
O O8 0.335062 0.919573 0.647764
O O9 0.329458 0.961533 0.295851
O O10 0.393885 0.204360 0.881288
O O11 0.791633 0.137462 0.262889
O O12 0.758119 0.817030 0.229357
O O13 0.771025 0.539163 0.028436
#
# Coordination Sequence:
#
# PCOD9313140 Si02
#       7
#     4   2   4   4   4   4   4
#     4   8  19  39  70  93 127 179 221 280 337 402
#     4  12  28  38  66 108 144 184 236 292 348 418
#     4  12  27  41  64 108 142 179 230 291 346 424
#     4   9  20  42  66  96 131 175 232 274 337 417
#     4   9  21  42  69  96 132 183 226 284 345 410
#     4  11  24  42  72  97 138 183 231 281 354 416
#     4  11  24  45  70 104 134 186 231 290 352 414
#
# _framework density 22.041841000000002
#
# number of rings (size 3 to 8) (size 9 to 14) (size 15 to 20)
#    0.923    0.923    0.000    2.769    8.615    0.000 
#    0.000    9.231    0.000    0.000    0.000    0.000 
#    0.000    0.000    0.000    0.000    0.000    0.000 
#
# Total GULP energy -145014.936772 kJ/mol
# GULP energy per Si atom -5577.497568 kJ/mol
# Density = 2.199167 g / cm^3
# Si number density = 22.041841 Si / 1000 Ang^3
#
#
#
# Elastic Constant Matrix: (Units=GPa)
#
#
# Indices 1 2 3 4 5 6 
#
# 1 92.2909 3.4102 21.6952 0.0000 0.0000 0.0000
# 2 3.4102 47.9852 16.2398 0.0000 0.0000 0.0000
# 3 21.6952 16.2398 67.6514 0.0000 0.0000 0.0000
# 4 0.0000 0.0000 0.0000 17.4785 0.0000 0.0000
# 5 0.0000 0.0000 0.0000 0.0000 39.8601 0.0000
# 6 0.0000 0.0000 0.0000 0.0000 0.0000 32.5133
#
#
#
# Elastic Compliance Matrix: (Units=1/GPa)
#
#
# Indices 1 2 3 4 5 6 
#
# 1 0.011729 0.000478 -0.003876 0.000000 0.000000 0.000000
# 2 0.000478 0.022702 -0.005603 0.000000 0.000000 0.000000
# 3 -0.003876 -0.005603 0.017370 0.000000 0.000000 0.000000
# 4 0.000000 0.000000 0.000000 0.057213 0.000000 0.000000
# 5 0.000000 0.000000 0.000000 0.000000 0.025088 0.000000
# 6 0.000000 0.000000 0.000000 0.000000 0.000000 0.030757
#
#
# Mechanical properties :
#
#
# Convention : Reuss Voigt Hill
#
# Bulk Modulus (GPa) = 29.58686 32.29086 30.93886
# Shear Modulus (GPa) = 25.75647 29.07587 27.41617
#
# Velocity S-wave (km/s) = 3.42208 3.63591 3.53061
# Velocity P-wave (km/s) = 5.39132 5.68402 5.53960
#
# Compressibility (1/GPa) = 0.03379878
#
# Stress axis : x y z
#
# Youngs Moduli (GPa) = 85.26011 44.04896 57.57148
#
# Poissons Ratio (x) = -0.02107 0.22315
# Poissons Ratio (y) = -0.04078 0.32257
# Poissons Ratio (z) = 0.33048 0.24681
#
# Static dielectric constant tensor:
#      x y z
#    x 1.811780 0.000000 0.000000 
#    y 0.000000 1.862890 0.000000 
#    z 0.000000 0.000000 1.799060 
# 
# From -- ./inp_files/2082.got.cif
#   From: 2010.05.17/outbox.cif.g08.bks.cpg/sg18_2_cif.got.tgz:2082.got - 2010.06.03 22:40:56.
