data_PCOD9313323
_publ_section_title
;
Structure prediction by ZEFSAII (Michael W. Deem and Ramdas Pophale) SiO2 
 PCOD9313323
Probable space group: P 21 21 21
;
_chemical_formula_sum "Si O2"
_cell_formula_units_Z 32
_cell_length_a 13.000492
_cell_length_b 10.630150
_cell_length_c 8.628477
_cell_angle_alpha 90.000000
_cell_angle_beta 90.000000
_cell_angle_gamma 90.000000
_cell_volume 1192.431189
_symmetry_space_group_name_H-M "P 21 21 21"
_symmetry_group_IT_number 19
_symmetry_cell_setting 'orthorhombic'
loop_
_space_group_symop_operation_xyz
x,y,z
1/2-x,-y,1/2+z
1/2+x,1/2-y,-z
-x,1/2+y,1/2-z
loop_
_atom_site_type_symbol
_atom_site_label
_atom_site_fract_x
_atom_site_fract_y
_atom_site_fract_z
Si Si1 0.599506 0.797349 0.009533
Si Si2 0.326301 0.279013 0.903528
Si Si3 0.256745 0.748698 0.736372
Si Si4 0.550799 0.286920 0.946129
Si Si5 0.478816 0.042359 0.117765
Si Si6 0.756596 0.036588 0.302095
Si Si7 0.573200 0.144003 0.426404
Si Si8 0.171477 0.130095 0.743148
O O1 0.685856 0.729566 0.115205
O O2 0.512912 0.696344 0.957297
O O3 0.541768 0.910101 0.103743
O O4 0.657572 0.878062 0.881517
O O5 0.440159 0.334792 0.892774
O O6 0.238828 0.381201 0.853782
O O7 0.286884 0.157537 0.804188
O O8 0.311868 0.246045 0.082349
O O9 0.364336 0.810037 0.687067
O O10 0.286685 0.601005 0.747273
O O11 0.517737 0.140811 0.987089
O O12 0.598977 0.349186 0.102909
O O13 0.507487 0.112233 0.275123
O O14 0.362221 0.994429 0.151838
O O15 0.658344 0.035383 0.415810
O O16 0.643511 0.262783 0.381512
#
# Coordination Sequence:
#
# PCOD9313323 Si02
#       8
#     4   4   4   4   4   4   4   4
#     4  11  21  35  60  88 116 150 196 251 293 345
#     4  10  21  38  57  84 125 152 191 254 301 348
#     4  11  20  37  62  90 109 157 205 241 293 356
#     4  10  20  34  60  88 119 155 198 252 305 342
#     4  10  16  34  57  83 110 154 203 233 291 358
#     4  11  21  36  58  88 117 150 200 252 287 348
#     4   9  19  33  55  83 112 149 192 239 284 350
#     4   8  18  33  55  82 110 151 199 238 284 359
#
# _framework density 26.835930999999999
#
# number of rings (size 3 to 8) (size 9 to 14) (size 15 to 20)
#    0.000    2.000    2.500    3.750    0.000    1.000 
#    0.000    3.750    8.250    0.000    0.000    0.000 
#    0.000    0.000    0.000    0.000    0.000    0.000 
#
# Total GULP energy -178512.567619 kJ/mol
# GULP energy per Si atom -5578.517738 kJ/mol
# Density = 2.677485 g / cm^3
# Si number density = 26.835931 Si / 1000 Ang^3
#
#
#
# Elastic Constant Matrix: (Units=GPa)
#
#
# Indices 1 2 3 4 5 6 
#
# 1 138.3084 -3.7337 33.6136 0.0000 0.0000 0.0000
# 2 -3.7337 59.0639 -1.2334 0.0000 0.0000 0.0000
# 3 33.6136 -1.2334 48.6367 0.0000 0.0000 0.0000
# 4 0.0000 0.0000 0.0000 29.0300 0.0000 0.0000
# 5 0.0000 0.0000 0.0000 0.0000 45.3128 0.0000
# 6 0.0000 0.0000 0.0000 0.0000 0.0000 36.5388
#
#
#
# Elastic Compliance Matrix: (Units=1/GPa)
#
#
# Indices 1 2 3 4 5 6 
#
# 1 0.008700 0.000425 -0.006002 0.000000 0.000000 0.000000
# 2 0.000425 0.016961 0.000137 0.000000 0.000000 0.000000
# 3 -0.006002 0.000137 0.024712 0.000000 0.000000 0.000000
# 4 0.000000 0.000000 0.000000 0.034447 0.000000 0.000000
# 5 0.000000 0.000000 0.000000 0.000000 0.022069 0.000000
# 6 0.000000 0.000000 0.000000 0.000000 0.000000 0.027368
#
#
# Mechanical properties :
#
#
# Convention : Reuss Voigt Hill
#
# Bulk Modulus (GPa) = 25.32201 33.70022 29.51111
# Shear Modulus (GPa) = 31.58499 36.66715 34.12607
#
# Velocity S-wave (km/s) = 3.43442 3.70042 3.56990
# Velocity P-wave (km/s) = 5.01830 5.55361 5.29273
#
# Compressibility (1/GPa) = 0.03949134
#
# Stress axis : x y z
#
# Youngs Moduli (GPa) = 114.93691 58.96047 40.46571
#
# Poissons Ratio (x) = -0.02504 0.24288
# Poissons Ratio (y) = -0.04881 -0.00553
# Poissons Ratio (z) = 0.68988 -0.00806
#
# Static dielectric constant tensor:
#      x y z
#    x 2.171800 0.000000 0.000000 
#    y 0.000000 2.167040 0.000000 
#    z 0.000000 0.000000 2.182640 
# 
# From -- ./inp_files/5068.got.cif
#   From: 2010.05.17/outbox.cif.g08.bks.cpg/sg19_3_cif.got.tgz:5068.got - 2010.06.03 22:46:19.
