data_PCOD9313849
_publ_section_title
;
Structure prediction by ZEFSAII (Michael W. Deem and Ramdas Pophale) SiO2 
 PCOD9313849
Probable space group: P 21 21 21
;
_chemical_formula_sum "Si O2"
_cell_formula_units_Z 32
_cell_length_a 13.156637
_cell_length_b 7.422159
_cell_length_c 12.769536
_cell_angle_alpha 90.000000
_cell_angle_beta 90.000000
_cell_angle_gamma 90.000000
_cell_volume 1246.953513
_symmetry_space_group_name_H-M "P 21 21 21"
_symmetry_group_IT_number 19
_symmetry_cell_setting 'orthorhombic'
loop_
_space_group_symop_operation_xyz
x,y,z
1/2-x,-y,1/2+z
1/2+x,1/2-y,-z
-x,1/2+y,1/2-z
loop_
_atom_site_type_symbol
_atom_site_label
_atom_site_fract_x
_atom_site_fract_y
_atom_site_fract_z
Si Si1 0.478379 0.902582 0.849776
Si Si2 0.866806 0.255910 0.503239
Si Si3 0.842351 0.105322 0.718263
Si Si4 0.977801 0.639542 0.496750
Si Si5 0.872893 0.207627 0.166538
Si Si6 0.221179 0.143630 0.683482
Si Si7 0.335976 0.759572 0.692470
Si Si8 0.532672 0.590896 0.315329
O O1 0.535817 0.846265 0.953802
O O2 0.565476 0.887755 0.760635
O O3 0.398214 0.762987 0.800836
O O4 0.419717 0.091148 0.850649
O O5 0.821808 0.133250 0.596037
O O6 0.914514 0.457646 0.524788
O O7 0.777375 0.274544 0.417629
O O8 0.749113 0.109571 0.796837
O O9 0.900850 0.291300 0.738985
O O10 0.927611 0.960582 0.737944
O O11 0.905775 0.736854 0.409503
O O12 0.004018 0.778400 0.588512
O O13 0.086325 0.606994 0.437282
O O14 0.759369 0.248285 0.211120
O O15 0.279630 0.951466 0.690735
O O16 0.104524 0.083851 0.664732
#
# Coordination Sequence:
#
# PCOD9313849 Si02
#       8
#     4   4   4   4   4   4   4   4
#     4   9  16  31  55  87 118 149 190 239 291 344
#     4  10  20  36  59  88 119 153 196 239 288 353
#     4  11  23  40  58  82 120 156 191 239 297 358
#     4  10  20  38  63  87 113 153 201 247 293 347
#     4   9  16  31  57  87 119 151 191 243 289 339
#     4   8  18  35  58  86 116 156 195 227 286 365
#     4   8  18  37  59  83 115 150 194 249 295 343
#     4  11  23  40  59  82 114 156 196 237 295 359
#
# _framework density 25.662545000000001
#
# number of rings (size 3 to 8) (size 9 to 14) (size 15 to 20)
#    0.000    2.500    0.000    3.750    0.000    4.000 
#    0.000   13.750    0.000    0.000    0.000    0.000 
#    0.000    0.000    0.000    0.000    0.000    0.000 
#
# Total GULP energy -178643.759673 kJ/mol
# GULP energy per Si atom -5582.617490 kJ/mol
# Density = 2.560414 g / cm^3
# Si number density = 25.662545 Si / 1000 Ang^3
#
#
#
# Elastic Constant Matrix: (Units=GPa)
#
#
# Indices 1 2 3 4 5 6 
#
# 1 89.7353 2.6403 -11.2276 0.0000 0.0000 0.0000
# 2 2.6403 71.5875 -3.1433 0.0000 0.0000 0.0000
# 3 -11.2276 -3.1433 36.7095 0.0000 0.0000 0.0000
# 4 0.0000 0.0000 0.0000 25.2343 0.0000 0.0000
# 5 0.0000 0.0000 0.0000 0.0000 9.1203 0.0000
# 6 0.0000 0.0000 0.0000 0.0000 0.0000 34.9886
#
#
#
# Elastic Compliance Matrix: (Units=1/GPa)
#
#
# Indices 1 2 3 4 5 6 
#
# 1 0.011593 -0.000273 0.003522 0.000000 0.000000 0.000000
# 2 -0.000273 0.014028 0.001118 0.000000 0.000000 0.000000
# 3 0.003522 0.001118 0.028414 0.000000 0.000000 0.000000
# 4 0.000000 0.000000 0.000000 0.039629 0.000000 0.000000
# 5 0.000000 0.000000 0.000000 0.000000 0.109645 0.000000
# 6 0.000000 0.000000 0.000000 0.000000 0.000000 0.028581
#
#
# Mechanical properties :
#
#
# Convention : Reuss Voigt Hill
#
# Bulk Modulus (GPa) = 15.93154 19.39679 17.66416
# Shear Modulus (GPa) = 20.48525 27.85283 24.16904
#
# Velocity S-wave (km/s) = 2.82841 3.29804 3.07221
# Velocity P-wave (km/s) = 4.10951 4.69868 4.41393
#
# Compressibility (1/GPa) = 0.06276858
#
# Stress axis : x y z
#
# Youngs Moduli (GPa) = 86.26177 71.28573 35.19410
#
# Poissons Ratio (x) = 0.01945 -0.12396
# Poissons Ratio (y) = 0.02354 -0.03934
# Poissons Ratio (z) = -0.30383 -0.07968
#
# Static dielectric constant tensor:
#      x y z
#    x 2.116250 0.000000 0.000000 
#    y 0.000000 2.111950 0.000000 
#    z 0.000000 0.000000 2.030120 
# 
# From -- ./inp_files/6168.got.cif
#   From: 2010.05.17/outbox.cif.g08.bks.cpg/sg19_4_cif.got.tgz:6168.got - 2010.06.03 22:46:19.
