data_PCOD9313069
_publ_section_title
;
Structure prediction by ZEFSAII (Michael W. Deem and Ramdas Pophale) SiO2 
 PCOD9313069
Probable space group: P 21 21 2
;
_chemical_formula_sum "Si O2"
_cell_formula_units_Z 32
_cell_length_a 7.629008
_cell_length_b 15.145666
_cell_length_c 11.524089
_cell_angle_alpha 90.000000
_cell_angle_beta 90.000000
_cell_angle_gamma 90.000000
_cell_volume 1331.567079
_symmetry_space_group_name_H-M "P 21 21 2"
_symmetry_group_IT_number 18
_symmetry_cell_setting 'orthorhombic'
loop_
_space_group_symop_operation_xyz
x,y,z
-x,-y,z
1/2+x,1/2-y,-z
1/2-x,1/2+y,-z
loop_
_atom_site_type_symbol
_atom_site_label
_atom_site_fract_x
_atom_site_fract_y
_atom_site_fract_z
Si Si1 0.043742 0.229290 0.905522
Si Si2 0.260457 0.130271 0.520140
Si Si3 0.637405 0.250546 0.834128
Si Si4 0.663654 0.114994 0.246362
Si Si5 0.883533 0.576626 0.297378
Si Si6 0.827119 0.670707 0.499962
Si Si7 0.747428 0.429012 0.722308
Si Si8 0.163066 0.063100 0.775148
O O1 0.156407 0.307569 0.846602
O O2 0.132992 0.137892 0.868719
O O3 0.845017 0.229490 0.855743
O O4 0.045361 0.242827 0.042268
O O5 0.187164 0.225561 0.483380
O O6 0.469032 0.146246 0.515241
O O7 0.213392 0.064252 0.415819
O O8 0.200121 0.106398 0.649151
O O9 0.557868 0.168248 0.761656
O O10 0.640314 0.346648 0.773561
O O11 0.731472 0.148732 0.370894
O O12 0.455476 0.093983 0.264840
O O13 0.765831 0.024791 0.218773
O O14 0.747433 0.613250 0.394866
O O15 0.809310 0.510810 0.199309
O O16 0.000000 0.500000 0.358678
O O17 0.000000 0.000000 0.764459
#
# Coordination Sequence:
#
# PCOD9313069 Si02
#       8
#     4   4   4   4   4   4   4   4
#     4  11  25  45  66  95 129 179 226 285 338 396
#     4  11  22  39  67  99 137 176 212 272 340 406
#     4  11  25  45  68  93 133 173 229 283 336 397
#     4   9  19  38  64  91 127 167 213 259 331 396
#     4  12  25  43  68 102 133 178 229 280 339 422
#     4  11  22  38  67  99 136 172 218 271 337 409
#     4   9  19  39  63  94 126 166 211 267 323 392
#     4  12  25  43  67  98 138 179 225 279 350 409
#
# _framework density 24.031834
#
# number of rings (size 3 to 8) (size 9 to 14) (size 15 to 20)
#    0.000    1.250    5.000    0.750    5.250    1.000 
#    2.250    0.000    0.000    0.000    0.000    0.000 
#    0.000    0.000    0.000    0.000    0.000    0.000 
#
# Total GULP energy -178718.474594 kJ/mol
# GULP energy per Si atom -5584.952331 kJ/mol
# Density = 2.397714 g / cm^3
# Si number density = 24.031834 Si / 1000 Ang^3
#
#
#
# Elastic Constant Matrix: (Units=GPa)
#
#
# Indices 1 2 3 4 5 6 
#
# 1 41.3786 29.4631 6.0089 0.0000 0.0000 0.0000
# 2 29.4631 174.9322 52.8891 0.0000 0.0000 0.0000
# 3 6.0089 52.8891 114.0766 0.0000 0.0000 0.0000
# 4 0.0000 0.0000 0.0000 19.0568 0.0000 0.0000
# 5 0.0000 0.0000 0.0000 0.0000 17.5393 0.0000
# 6 0.0000 0.0000 0.0000 0.0000 0.0000 29.5030
#
#
#
# Elastic Compliance Matrix: (Units=1/GPa)
#
#
# Indices 1 2 3 4 5 6 
#
# 1 0.027525 -0.004882 0.000814 0.000000 0.000000 0.000000
# 2 -0.004882 0.007514 -0.003227 0.000000 0.000000 0.000000
# 3 0.000814 -0.003227 0.010219 0.000000 0.000000 0.000000
# 4 0.000000 0.000000 0.000000 0.052475 0.000000 0.000000
# 5 0.000000 0.000000 0.000000 0.000000 0.057015 0.000000
# 6 0.000000 0.000000 0.000000 0.000000 0.000000 0.033895
#
#
# Mechanical properties :
#
#
# Convention : Reuss Voigt Hill
#
# Bulk Modulus (GPa) = 32.60686 56.34550 44.47618
# Shear Modulus (GPa) = 23.42406 29.35491 26.38949
#
# Velocity S-wave (km/s) = 3.12542 3.49879 3.31736
# Velocity P-wave (km/s) = 5.15965 6.31024 5.76373
#
# Compressibility (1/GPa) = 0.03066839
#
# Stress axis : x y z
#
# Youngs Moduli (GPa) = 36.33059 133.07968 97.85523
#
# Poissons Ratio (x) = 0.64968 -0.07961
# Poissons Ratio (y) = 0.17736 0.31575
# Poissons Ratio (z) = -0.02956 0.42941
#
# Static dielectric constant tensor:
#      x y z
#    x 2.232260 0.000000 0.000000 
#    y 0.000000 1.957220 0.000000 
#    z 0.000000 0.000000 1.892490 
# 
# From -- ./inp_files/5676.got.cif
#   From: 2010.05.17/outbox.cif.g08.bks.cpg/sg18_3_cif.got.tgz:5676.got - 2010.06.03 22:40:56.
