data_PCOD9313139
_publ_section_title
;
Structure prediction by ZEFSAII (Michael W. Deem and Ramdas Pophale) SiO2 
 PCOD9313139
Probable space group: P 21 21 2
;
_chemical_formula_sum "Si O2"
_cell_formula_units_Z 30
_cell_length_a 20.679033
_cell_length_b 10.607481
_cell_length_c 6.523841
_cell_angle_alpha 90.000000
_cell_angle_beta 90.000000
_cell_angle_gamma 90.000000
_cell_volume 1431.020504
_symmetry_space_group_name_H-M "P 21 21 2"
_symmetry_group_IT_number 18
_symmetry_cell_setting 'orthorhombic'
loop_
_space_group_symop_operation_xyz
x,y,z
-x,-y,z
1/2+x,1/2-y,-z
1/2-x,1/2+y,-z
loop_
_atom_site_type_symbol
_atom_site_label
_atom_site_fract_x
_atom_site_fract_y
_atom_site_fract_z
Si Si1 0.225119 0.704223 0.082858
Si Si2 0.360832 0.370477 0.212853
Si Si3 0.500000 0.000000 0.076120
Si Si4 0.050537 0.684948 0.580049
Si Si5 0.934144 0.680155 0.256518
Si Si6 0.337630 0.024711 0.615306
Si Si7 0.721749 0.571018 0.603589
Si Si8 0.856082 0.904315 0.091560
O O1 0.198068 0.576209 0.183094
O O2 0.235875 0.804700 0.265138
O O3 0.171228 0.767102 0.937971
O O4 0.293235 0.675907 0.976855
O O5 0.423524 0.314114 0.324182
O O6 0.306803 0.394265 0.384198
O O7 0.373659 0.498274 0.088590
O O8 0.461151 0.090086 0.230887
O O9 0.540621 0.089115 0.924567
O O10 0.107726 0.625302 0.443740
O O11 0.988117 0.692606 0.433766
O O12 0.872226 0.608434 0.349867
O O13 0.912601 0.812076 0.161325
O O14 0.285965 0.009843 0.434469
O O15 0.668581 0.489743 0.721558
#
# Coordination Sequence:
#
# PCOD9313139 Si02
#       8
#     4   4   2   4   4   4   4   4
#     4  11  24  42  72 108 140 182 232 297 367 437
#     4  11  24  46  70 102 140 193 233 291 364 426
#     4  12  24  48  70 104 132 188 246 294 358 402
#     4  12  25  46  73 101 140 190 243 297 357 418
#     4  12  27  46  70 106 143 186 248 301 345 440
#     4  12  22  43  73 105 140 179 235 299 361 423
#     4  11  25  43  70 104 143 181 228 292 367 427
#     4  11  27  44  69 108 146 187 237 291 369 439
#
# _framework density 20.964061000000001
#
# number of rings (size 3 to 8) (size 9 to 14) (size 15 to 20)
#    0.000    0.533    5.333    2.400    5.600    1.067 
#    0.000    4.000    0.000    0.000    0.000    0.000 
#    0.000    0.000    0.000    0.000    0.000    0.000 
#
# Total GULP energy -167895.063293 kJ/mol
# GULP energy per Si atom -5596.502110 kJ/mol
# Density = 2.091635 g / cm^3
# Si number density = 20.964061 Si / 1000 Ang^3
#
#
#
# Elastic Constant Matrix: (Units=GPa)
#
#
# Indices 1 2 3 4 5 6 
#
# 1 69.5001 40.1726 35.9172 0.0000 0.0000 0.0000
# 2 40.1726 91.9978 33.0962 0.0000 0.0000 0.0000
# 3 35.9172 33.0962 94.9936 0.0000 0.0000 0.0000
# 4 0.0000 0.0000 0.0000 37.5318 0.0000 0.0000
# 5 0.0000 0.0000 0.0000 0.0000 29.0026 0.0000
# 6 0.0000 0.0000 0.0000 0.0000 0.0000 30.9042
#
#
#
# Elastic Compliance Matrix: (Units=1/GPa)
#
#
# Indices 1 2 3 4 5 6 
#
# 1 0.021546 -0.007406 -0.005566 0.000000 0.000000 0.000000
# 2 -0.007406 0.014973 -0.002416 0.000000 0.000000 0.000000
# 3 -0.005566 -0.002416 0.013474 0.000000 0.000000 0.000000
# 4 0.000000 0.000000 0.000000 0.026644 0.000000 0.000000
# 5 0.000000 0.000000 0.000000 0.000000 0.034480 0.000000
# 6 0.000000 0.000000 0.000000 0.000000 0.000000 0.032358
#
#
# Mechanical properties :
#
#
# Convention : Reuss Voigt Hill
#
# Bulk Modulus (GPa) = 52.04235 52.76261 52.40248
# Shear Modulus (GPa) = 27.67679 29.30809 28.49244
#
# Velocity S-wave (km/s) = 3.63740 3.74306 3.69061
# Velocity P-wave (km/s) = 6.52069 6.62597 6.57354
#
# Compressibility (1/GPa) = 0.01921512
#
# Stress axis : x y z
#
# Youngs Moduli (GPa) = 46.41254 66.78633 74.21944
#
# Poissons Ratio (x) = 0.49462 0.41312
# Poissons Ratio (y) = 0.34373 0.17935
# Poissons Ratio (z) = 0.25834 0.16139
#
# Static dielectric constant tensor:
#      x y z
#    x 1.752000 0.000000 0.000000 
#    y 0.000000 1.748190 0.000000 
#    z 0.000000 0.000000 1.757490 
# 
# From -- ./inp_files/2012.got.cif
#   From: 2010.05.17/outbox.cif.g08.bks.cpg/sg18_2_cif.got.tgz:2012.got - 2010.06.03 22:40:56.
