data_PCOD9313015
_publ_section_title
;
Structure prediction by ZEFSAII (Michael W. Deem and Ramdas Pophale) SiO2 
 PCOD9313015
Probable space group: P 21 21 2
;
_chemical_formula_sum "Si O2"
_cell_formula_units_Z 28
_cell_length_a 15.078322
_cell_length_b 14.007895
_cell_length_c 4.785345
_cell_angle_alpha 90.000000
_cell_angle_beta 90.000000
_cell_angle_gamma 90.000000
_cell_volume 1010.739283
_symmetry_space_group_name_H-M "P 21 21 2"
_symmetry_group_IT_number 18
_symmetry_cell_setting 'orthorhombic'
loop_
_space_group_symop_operation_xyz
x,y,z
-x,-y,z
1/2+x,1/2-y,-z
1/2-x,1/2+y,-z
loop_
_atom_site_type_symbol
_atom_site_label
_atom_site_fract_x
_atom_site_fract_y
_atom_site_fract_z
Si Si1 0.979074 0.366462 0.653777
Si Si2 0.332720 0.915368 0.579972
Si Si3 0.661089 0.606480 0.684720
Si Si4 0.357414 0.103086 0.875004
Si Si5 0.388971 0.603034 0.492507
Si Si6 0.500185 0.670316 0.004836
Si Si7 0.260539 0.237586 0.304667
O O1 0.067829 0.407381 0.522024
O O2 0.913138 0.358472 0.388870
O O3 0.999188 0.271096 0.834909
O O4 0.926422 0.426935 0.884603
O O5 0.266092 0.914642 0.315350
O O6 0.311785 0.009067 0.755925
O O7 0.120697 0.992891 0.423281
O O8 0.702037 0.819674 0.040561
O O9 0.600411 0.635291 0.944703
O O10 0.810247 0.679293 0.241952
O O11 0.204265 0.160272 0.484414
O O12 0.436265 0.606388 0.195315
O O13 0.454384 0.660281 0.702565
O O14 0.668306 0.697366 0.474519
#
# Coordination Sequence:
#
# PCOD9313015 Si02
#       7
#     4   4   4   4   4   4   4
#     4  12  29  58  90 134 187 244 310 389 472 556
#     4  10  27  61  92 137 185 249 307 393 472 555
#     4  10  28  56  96 133 182 248 310 382 471 565
#     4  12  30  56  95 135 188 246 315 385 468 572
#     4  12  28  57  92 129 190 241 311 382 476 557
#     4  12  28  57  88 134 180 249 305 388 464 566
#     4  10  28  59  97 131 187 243 308 397 459 560
#
# _framework density 27.702496
#
# number of rings (size 3 to 8) (size 9 to 14) (size 15 to 20)
#    0.857    0.000    1.429    1.714    8.000    4.571 
#    7.714    0.000    0.000    0.000    0.000    0.000 
#    0.000    0.000    0.000    0.000    0.000    0.000 
#
# Total GULP energy -156900.200872 kJ/mol
# GULP energy per Si atom -5603.578603 kJ/mol
# Density = 2.763944 g / cm^3
# Si number density = 27.702496 Si / 1000 Ang^3
#
#
#
# Elastic Constant Matrix: (Units=GPa)
#
#
# Indices 1 2 3 4 5 6 
#
# 1 88.4400 60.6524 39.6133 0.0000 0.0000 0.0000
# 2 60.6524 205.5923 57.6288 0.0000 0.0000 0.0000
# 3 39.6133 57.6288 145.2402 0.0000 0.0000 0.0000
# 4 0.0000 0.0000 0.0000 -12.3531 0.0000 0.0000
# 5 0.0000 0.0000 0.0000 0.0000 448.9333 0.0000
# 6 0.0000 0.0000 0.0000 0.0000 0.0000 48.7999
#
#
#
# Elastic Compliance Matrix: (Units=1/GPa)
#
#
# Indices 1 2 3 4 5 6 
#
# 1 0.015018 -0.003693 -0.002631 0.000000 0.000000 0.000000
# 2 -0.003693 0.006381 -0.001525 0.000000 0.000000 0.000000
# 3 -0.002631 -0.001525 0.008208 0.000000 0.000000 0.000000
# 4 0.000000 0.000000 0.000000 -0.080951 0.000000 0.000000
# 5 0.000000 0.000000 0.000000 0.000000 0.002228 0.000000
# 6 0.000000 0.000000 0.000000 0.000000 0.000000 0.020492
#
#
# Mechanical properties :
#
#
# Convention : Reuss Voigt Hill
#
# Bulk Modulus (GPa) = 71.89179 83.89571 77.89375
# Shear Modulus (GPa) = -603.00386 115.83456 -243.58465
#
# Velocity S-wave (km/s) = -14.76969 6.47337 -9.38721
# Velocity P-wave (km/s) = 16.27424 9.28563 9.45060
#
# Compressibility (1/GPa) = 0.01390979
#
# Stress axis : x y z
#
# Youngs Moduli (GPa) = 66.58580 156.71872 121.83873
#
# Poissons Ratio (x) = 0.57879 0.32053
# Poissons Ratio (y) = 0.24591 0.18575
# Poissons Ratio (z) = 0.17517 0.23892
#
# Static dielectric constant tensor:
#      x y z
#    x 2.300380 0.000000 0.000000 
#    y 0.000000 2.150810 0.000000 
#    z 0.000000 0.000000 2.102670 
# 
# From -- ./inp_files/1897.got.cif
#   From: 2010.05.17/outbox.cif.g08.bks.cpg/sg18_1_cif.got.tgz:1897.got - 2010.06.03 22:40:56.
