data_PCOD9313115
_publ_section_title
;
Structure prediction by ZEFSAII (Michael W. Deem and Ramdas Pophale) SiO2 
 PCOD9313115
Probable space group: P 21 21 2
;
_chemical_formula_sum "Si O2"
_cell_formula_units_Z 32
_cell_length_a 9.649052
_cell_length_b 25.781722
_cell_length_c 6.551189
_cell_angle_alpha 90.000000
_cell_angle_beta 90.000000
_cell_angle_gamma 90.000000
_cell_volume 1629.733891
_symmetry_space_group_name_H-M "P 21 21 2"
_symmetry_group_IT_number 18
_symmetry_cell_setting 'orthorhombic'
loop_
_space_group_symop_operation_xyz
x,y,z
-x,-y,z
1/2+x,1/2-y,-z
1/2-x,1/2+y,-z
loop_
_atom_site_type_symbol
_atom_site_label
_atom_site_fract_x
_atom_site_fract_y
_atom_site_fract_z
Si Si1 0.967348 0.057991 0.238621
Si Si2 0.535375 0.149272 0.455352
Si Si3 0.964622 0.850729 0.544656
Si Si4 0.694625 0.397415 0.068904
Si Si5 0.733563 0.808599 0.245579
Si Si6 0.532652 0.942010 0.761385
Si Si7 0.805377 0.602585 0.931089
Si Si8 0.233563 0.808599 0.754428
O O1 0.979645 0.099634 0.419746
O O2 0.815830 0.064459 0.141500
O O3 0.080775 0.074021 0.069201
O O4 0.000000 0.000000 0.308939
O O5 0.406156 0.181948 0.373488
O O6 0.479641 0.099634 0.580263
O O7 0.622248 0.128333 0.263907
O O8 0.636069 0.180539 0.606539
O O9 0.877746 0.871666 0.736099
O O10 0.863932 0.819460 0.393466
O O11 0.093843 0.818053 0.626523
O O12 0.815831 0.435542 0.141489
O O13 0.760103 0.351342 0.932532
O O14 0.738311 0.750000 0.166294
O O15 0.500000 0.000000 0.691064
O O16 0.419224 0.925980 0.930803
O O17 0.739899 0.648658 0.067458
#
# Coordination Sequence:
#
# PCOD9313115 Si02
#       8
#     4   4   4   4   4   4   4   4
#     4  11  24  42  68  94 128 171 210 264 321 371
#     4  11  23  44  64  94 131 161 214 264 307 387
#     4  11  23  44  64  94 131 161 214 264 307 387
#     4  11  23  44  63  94 130 161 216 263 309 384
#     4  11  24  42  66  92 124 168 209 263 321 370
#     4  11  24  42  68  94 128 171 210 264 321 371
#     4  11  23  44  63  94 130 161 216 263 309 384
#     4  11  24  42  66  92 124 168 209 263 321 370
#
# _framework density 19.635107000000001
#
# number of rings (size 3 to 8) (size 9 to 14) (size 15 to 20)
#    0.000    1.000    5.000    1.500    0.000    4.000 
#    0.000    0.000    0.000    0.000    0.000    0.000 
#    0.000    0.000    0.000    0.000    0.000    0.000 
#
# Total GULP energy -178996.827559 kJ/mol
# GULP energy per Si atom -5593.650861 kJ/mol
# Density = 1.959042 g / cm^3
# Si number density = 19.635107 Si / 1000 Ang^3
#
#
#
# Elastic Constant Matrix: (Units=GPa)
#
#
# Indices 1 2 3 4 5 6 
#
# 1 65.1835 -11.2149 -4.2453 0.0000 0.0000 0.0000
# 2 -11.2149 41.6714 -22.7958 0.0000 0.0000 0.0000
# 3 -4.2453 -22.7958 46.3891 0.0000 0.0000 0.0000
# 4 0.0000 0.0000 0.0000 12.5438 0.0000 0.0000
# 5 0.0000 0.0000 0.0000 0.0000 27.2130 0.0000
# 6 0.0000 0.0000 0.0000 0.0000 0.0000 6.9680
#
#
#
# Elastic Compliance Matrix: (Units=1/GPa)
#
#
# Indices 1 2 3 4 5 6 
#
# 1 0.016952 0.007400 0.005188 0.000000 0.000000 0.000000
# 2 0.007400 0.036050 0.018392 0.000000 0.000000 0.000000
# 3 0.005188 0.018392 0.031070 0.000000 0.000000 0.000000
# 4 0.000000 0.000000 0.000000 0.079721 0.000000 0.000000
# 5 0.000000 0.000000 0.000000 0.000000 0.036747 0.000000
# 6 0.000000 0.000000 0.000000 0.000000 0.000000 0.143512
#
#
# Mechanical properties :
#
#
# Convention : Reuss Voigt Hill
#
# Bulk Modulus (GPa) = 6.84772 8.52579 7.68675
# Shear Modulus (GPa) = 15.11629 22.11163 18.61396
#
# Velocity S-wave (km/s) = 2.77765 3.35942 3.08229
# Velocity P-wave (km/s) = 3.71243 4.40445 4.07316
#
# Compressibility (1/GPa) = 0.14603406
#
# Stress axis : x y z
#
# Youngs Moduli (GPa) = 58.98862 27.73904 32.18569
#
# Poissons Ratio (x) = -0.20528 -0.16698
# Poissons Ratio (y) = -0.43654 -0.59197
# Poissons Ratio (z) = -0.30603 -0.51019
#
# Static dielectric constant tensor:
#      x y z
#    x 1.675230 0.000000 0.000000 
#    y 0.000000 1.654650 0.000000 
#    z 0.000000 0.000000 1.653560 
# 
# From -- ./inp_files/755.got.cif
#   From: 2010.05.17/outbox.cif.g08.bks.cpg/sg18_1_cif.got.tgz:755.got - 2010.06.03 22:40:56.
