data_PCOD9313927
_publ_section_title
;
Structure prediction by ZEFSAII (Michael W. Deem and Ramdas Pophale) SiO2 
 PCOD9313927
Probable space group: P 21 21 21
;
_chemical_formula_sum "Si O2"
_cell_formula_units_Z 24
_cell_length_a 5.434474
_cell_length_b 14.067542
_cell_length_c 14.969999
_cell_angle_alpha 90.000000
_cell_angle_beta 90.000000
_cell_angle_gamma 90.000000
_cell_volume 1144.451801
_symmetry_space_group_name_H-M "P 21 21 21"
_symmetry_group_IT_number 19
_symmetry_cell_setting 'orthorhombic'
loop_
_space_group_symop_operation_xyz
x,y,z
1/2-x,-y,1/2+z
1/2+x,1/2-y,-z
-x,1/2+y,1/2-z
loop_
_atom_site_type_symbol
_atom_site_label
_atom_site_fract_x
_atom_site_fract_y
_atom_site_fract_z
Si Si1 0.865214 0.298943 0.198242
Si Si2 0.209038 0.481399 0.945525
Si Si3 0.558312 0.403681 0.790938
Si Si4 0.807527 0.970060 0.352345
Si Si5 0.963384 0.781589 0.547429
Si Si6 0.430812 0.931784 0.201060
O O1 0.049371 0.210118 0.208988
O O2 0.638359 0.256790 0.141358
O O3 0.768119 0.348415 0.288568
O O4 0.984245 0.387825 0.145861
O O5 0.422576 0.441153 0.881000
O O6 0.015812 0.394501 0.949080
O O7 0.083946 0.566189 0.890222
O O8 0.278188 0.497221 0.048438
O O9 0.408746 0.440895 0.704336
O O10 0.805315 0.464759 0.787639
O O11 0.604155 0.925713 0.287267
O O12 0.723198 0.760155 0.484550
#
# Coordination Sequence:
#
# PCOD9313927 Si02
#       6
#     4   4   4   4   4   4
#     4  10  21  36  60  88 130 159 211 257 325 375
#     4  10  21  35  61  88 126 158 215 256 322 376
#     4   9  22  37  58  93 120 165 205 256 319 382
#     4  10  20  38  60  91 120 167 202 259 319 377
#     4  11  22  34  59 100 128 161 207 262 327 383
#     4  10  22  38  58  86 128 164 204 270 316 385
#
# _framework density 20.970738000000001
#
# number of rings (size 3 to 8) (size 9 to 14) (size 15 to 20)
#    0.000    2.000    1.667    1.000    4.667    5.333 
#    0.000    0.000   11.000    0.000    0.000    0.000 
#    0.000    0.000    0.000    0.000    0.000    0.000 
#
# Total GULP energy -133861.869804 kJ/mol
# GULP energy per Si atom -5577.577908 kJ/mol
# Density = 2.092301 g / cm^3
# Si number density = 20.970738 Si / 1000 Ang^3
#
#
#
# Elastic Constant Matrix: (Units=GPa)
#
#
# Indices 1 2 3 4 5 6 
#
# 1 45.4615 6.4985 13.5471 0.0000 0.0000 0.0000
# 2 6.4985 64.2791 25.4812 0.0000 0.0000 0.0000
# 3 13.5471 25.4812 131.4838 0.0000 0.0000 0.0000
# 4 0.0000 0.0000 0.0000 21.1477 0.0000 0.0000
# 5 0.0000 0.0000 0.0000 0.0000 29.2167 0.0000
# 6 0.0000 0.0000 0.0000 0.0000 0.0000 27.7871
#
#
#
# Elastic Compliance Matrix: (Units=1/GPa)
#
#
# Indices 1 2 3 4 5 6 
#
# 1 0.022824 -0.001490 -0.002063 0.000000 0.000000 0.000000
# 2 -0.001490 0.016949 -0.003131 0.000000 0.000000 0.000000
# 3 -0.002063 -0.003131 0.008425 0.000000 0.000000 0.000000
# 4 0.000000 0.000000 0.000000 0.047287 0.000000 0.000000
# 5 0.000000 0.000000 0.000000 0.000000 0.034227 0.000000
# 6 0.000000 0.000000 0.000000 0.000000 0.000000 0.035988
#
#
# Mechanical properties :
#
#
# Convention : Reuss Voigt Hill
#
# Bulk Modulus (GPa) = 28.71045 36.91977 32.81511
# Shear Modulus (GPa) = 26.22229 28.67681 27.44955
#
# Velocity S-wave (km/s) = 3.53997 3.70194 3.62186
# Velocity P-wave (km/s) = 5.51624 5.99300 5.75956
#
# Compressibility (1/GPa) = 0.03483053
#
# Stress axis : x y z
#
# Youngs Moduli (GPa) = 43.81290 59.00048 118.69627
#
# Poissons Ratio (x) = 0.08789 0.24486
# Poissons Ratio (y) = 0.06527 0.37166
# Poissons Ratio (z) = 0.09038 0.18474
#
# Static dielectric constant tensor:
#      x y z
#    x 1.819270 0.000000 0.000000 
#    y 0.000000 1.753480 0.000000 
#    z 0.000000 0.000000 1.824350 
# 
# From -- ./inp_files/1439.got.cif
#   From: 2010.05.17/outbox.cif.g08.bks.cpg/sg19_1_cif.got.tgz:1439.got - 2010.06.03 22:46:19.
