data_PCOD9313618
_publ_section_title
;
Structure prediction by ZEFSAII (Michael W. Deem and Ramdas Pophale) SiO2 
 PCOD9313618
Probable space group: P 21 21 21
;
_chemical_formula_sum "Si O2"
_cell_formula_units_Z 32
_cell_length_a 8.947264
_cell_length_b 17.305673
_cell_length_c 9.135902
_cell_angle_alpha 90.000000
_cell_angle_beta 90.000000
_cell_angle_gamma 90.000000
_cell_volume 1414.588677
_symmetry_space_group_name_H-M "P 21 21 21"
_symmetry_group_IT_number 19
_symmetry_cell_setting 'orthorhombic'
loop_
_space_group_symop_operation_xyz
x,y,z
1/2-x,-y,1/2+z
1/2+x,1/2-y,-z
-x,1/2+y,1/2-z
loop_
_atom_site_type_symbol
_atom_site_label
_atom_site_fract_x
_atom_site_fract_y
_atom_site_fract_z
Si Si1 0.423479 0.175185 0.985568
Si Si2 0.772069 0.987743 0.610344
Si Si3 0.626828 0.827682 0.700027
Si Si4 0.364675 0.699760 0.061877
Si Si5 0.166332 0.358741 0.252218
Si Si6 0.938504 0.970613 0.876427
Si Si7 0.128988 0.098011 0.025458
Si Si8 0.505950 0.795506 0.286518
O O1 0.357481 0.249809 0.896114
O O2 0.549137 0.144123 0.877374
O O3 0.304873 0.111343 0.036527
O O4 0.492410 0.214807 0.127529
O O5 0.673178 0.056616 0.679011
O O6 0.727107 0.005437 0.442492
O O7 0.720253 0.900758 0.640057
O O8 0.925549 0.993701 0.704269
O O9 0.701385 0.809839 0.858545
O O10 0.459771 0.860687 0.660681
O O11 0.451580 0.620814 0.104724
O O12 0.442112 0.774912 0.129105
O O13 0.367475 0.699104 0.887086
O O14 0.330638 0.332009 0.206850
O O15 0.058194 0.016374 0.976152
O O16 0.092832 0.147806 0.881020
#
# Coordination Sequence:
#
# PCOD9313618 Si02
#       8
#     4   4   4   4   4   4   4   4
#     4  11  23  38  59  89 118 162 202 255 298 363
#     4   9  18  35  59  86 112 155 200 248 299 365
#     4   9  19  36  62  87 119 154 204 253 307 361
#     4  10  22  37  59  90 126 160 197 262 314 366
#     4  11  24  38  61  90 125 161 207 249 313 371
#     4   9  18  35  58  85 119 153 201 251 304 366
#     4  10  19  36  62  87 116 153 204 252 295 360
#     4  11  21  37  60  88 115 158 205 248 306 358
#
# _framework density 22.621417999999998
#
# number of rings (size 3 to 8) (size 9 to 14) (size 15 to 20)
#    0.000    2.000    2.500    1.500    3.500    1.000 
#    0.000    5.000    0.000    0.000    0.000    0.000 
#    0.000    0.000    0.000    0.000    0.000    0.000 
#
# Total GULP energy -178323.339811 kJ/mol
# GULP energy per Si atom -5572.604369 kJ/mol
# Density = 2.256993 g / cm^3
# Si number density = 22.621418 Si / 1000 Ang^3
#
#
#
# Elastic Constant Matrix: (Units=GPa)
#
#
# Indices 1 2 3 4 5 6 
#
# 1 59.1119 21.5249 15.5373 0.0000 0.0000 0.0000
# 2 21.5249 61.2632 -4.3120 0.0000 0.0000 0.0000
# 3 15.5373 -4.3120 57.9108 0.0000 0.0000 0.0000
# 4 0.0000 0.0000 0.0000 33.2761 0.0000 0.0000
# 5 0.0000 0.0000 0.0000 0.0000 24.0399 0.0000
# 6 0.0000 0.0000 0.0000 0.0000 0.0000 21.5217
#
#
#
# Elastic Compliance Matrix: (Units=1/GPa)
#
#
# Indices 1 2 3 4 5 6 
#
# 1 0.021505 -0.008004 -0.006366 0.000000 0.000000 0.000000
# 2 -0.008004 0.019388 0.003591 0.000000 0.000000 0.000000
# 3 -0.006366 0.003591 0.019243 0.000000 0.000000 0.000000
# 4 0.000000 0.000000 0.000000 0.030052 0.000000 0.000000
# 5 0.000000 0.000000 0.000000 0.000000 0.041598 0.000000
# 6 0.000000 0.000000 0.000000 0.000000 0.000000 0.046465
#
#
# Mechanical properties :
#
#
# Convention : Reuss Voigt Hill
#
# Bulk Modulus (GPa) = 25.92078 27.08736 26.50407
# Shear Modulus (GPa) = 23.51104 25.46992 24.49048
#
# Velocity S-wave (km/s) = 3.22736 3.35911 3.29389
# Velocity P-wave (km/s) = 5.03698 5.20049 5.11939
#
# Compressibility (1/GPa) = 0.03857909
#
# Stress axis : x y z
#
# Youngs Moduli (GPa) = 46.50143 51.57854 51.96645
#
# Poissons Ratio (x) = 0.41282 0.33080
# Poissons Ratio (y) = 0.37219 -0.18661
# Poissons Ratio (z) = 0.29601 -0.18522
#
# Static dielectric constant tensor:
#      x y z
#    x 1.937150 0.000000 0.000000 
#    y 0.000000 1.843140 0.000000 
#    z 0.000000 0.000000 1.897450 
# 
# From -- ./inp_files/3170.got.cif
#   From: 2010.05.17/outbox.cif.g08.bks.cpg/sg19_2_cif.got.tgz:3170.got - 2010.06.03 22:46:19.
