data_PCOD9313961
_publ_section_title
;
Structure prediction by ZEFSAII (Michael W. Deem and Ramdas Pophale) SiO2 
 PCOD9313961
Probable space group: P 21 21 21
;
_chemical_formula_sum "Si O2"
_cell_formula_units_Z 24
_cell_length_a 11.625081
_cell_length_b 5.303300
_cell_length_c 14.684638
_cell_angle_alpha 90.000000
_cell_angle_beta 90.000000
_cell_angle_gamma 90.000000
_cell_volume 905.326906
_symmetry_space_group_name_H-M "P 21 21 21"
_symmetry_group_IT_number 19
_symmetry_cell_setting 'orthorhombic'
loop_
_space_group_symop_operation_xyz
x,y,z
1/2-x,-y,1/2+z
1/2+x,1/2-y,-z
-x,1/2+y,1/2-z
loop_
_atom_site_type_symbol
_atom_site_label
_atom_site_fract_x
_atom_site_fract_y
_atom_site_fract_z
Si Si1 0.303981 0.363579 0.570326
Si Si2 0.188266 0.894344 0.245281
Si Si3 0.312160 0.634671 0.400374
Si Si4 0.969534 0.491232 0.518021
Si Si5 0.036013 0.257597 0.156792
Si Si6 0.973551 0.208677 0.692871
O O1 0.253267 0.267416 0.664983
O O2 0.251696 0.548110 0.494501
O O3 0.345931 0.124863 0.512591
O O4 0.423256 0.498568 0.601471
O O5 0.249831 0.840738 0.339328
O O6 0.058790 0.800374 0.267771
O O7 0.155365 0.160513 0.201344
O O8 0.347727 0.400522 0.335926
O O9 0.434353 0.755228 0.429719
O O10 0.015643 0.566630 0.418810
O O11 0.021348 0.305011 0.593642
O O12 0.028128 0.963899 0.744766
#
# Coordination Sequence:
#
# PCOD9313961 Si02
#       6
#     4   4   4   4   4   4
#     4   9  20  40  61  89 130 173 222 284 343 400
#     4  11  21  39  67 100 134 182 232 283 345 409
#     4  10  22  40  65  97 140 180 224 297 340 414
#     4   9  20  40  63  89 131 178 224 286 341 398
#     4  10  20  38  66  95 132 184 230 283 341 413
#     4  11  21  41  68  96 133 185 230 279 350 412
#
# _framework density 26.509761000000001
#
# number of rings (size 3 to 8) (size 9 to 14) (size 15 to 20)
#    0.000    2.000    3.333    0.000    0.000    2.667 
#    3.000    0.000   18.333    0.000    0.000    0.000 
#    0.000    0.000    0.000    0.000    0.000    0.000 
#
# Total GULP energy -133737.871535 kJ/mol
# GULP energy per Si atom -5572.411314 kJ/mol
# Density = 2.644942 g / cm^3
# Si number density = 26.509761 Si / 1000 Ang^3
#
#
#
# Elastic Constant Matrix: (Units=GPa)
#
#
# Indices 1 2 3 4 5 6 
#
# 1 22.0878 -0.1344 5.3507 0.0000 0.0000 0.0000
# 2 -0.1344 115.0434 42.1909 0.0000 0.0000 0.0000
# 3 5.3507 42.1909 157.5588 0.0000 0.0000 0.0000
# 4 0.0000 0.0000 0.0000 51.2656 0.0000 0.0000
# 5 0.0000 0.0000 0.0000 0.0000 37.3719 0.0000
# 6 0.0000 0.0000 0.0000 0.0000 0.0000 23.4418
#
#
#
# Elastic Compliance Matrix: (Units=1/GPa)
#
#
# Indices 1 2 3 4 5 6 
#
# 1 0.045699 0.000690 -0.001737 0.000000 0.000000 0.000000
# 2 0.000690 0.009649 -0.002607 0.000000 0.000000 0.000000
# 3 -0.001737 -0.002607 0.007104 0.000000 0.000000 0.000000
# 4 0.000000 0.000000 0.000000 0.019506 0.000000 0.000000
# 5 0.000000 0.000000 0.000000 0.000000 0.026758 0.000000
# 6 0.000000 0.000000 0.000000 0.000000 0.000000 0.042659
#
#
# Mechanical properties :
#
#
# Convention : Reuss Voigt Hill
#
# Bulk Modulus (GPa) = 18.13417 43.27826 30.70622
# Shear Modulus (GPa) = 28.23833 38.90139 33.56986
#
# Velocity S-wave (km/s) = 3.26729 3.83487 3.56240
# Velocity P-wave (km/s) = 4.59227 5.99743 5.34126
#
# Compressibility (1/GPa) = 0.05514451
#
# Stress axis : x y z
#
# Youngs Moduli (GPa) = 21.88246 103.63348 140.76554
#
# Poissons Ratio (x) = -0.07154 0.24448
# Poissons Ratio (y) = -0.01511 0.36702
# Poissons Ratio (z) = 0.03800 0.27021
#
# Static dielectric constant tensor:
#      x y z
#    x 2.191050 0.000000 0.000000 
#    y 0.000000 2.137410 0.000000 
#    z 0.000000 0.000000 1.998900 
# 
# From -- ./inp_files/5674.got.cif
#   From: 2010.05.17/outbox.cif.g08.bks.cpg/sg19_3_cif.got.tgz:5674.got - 2010.06.03 22:46:19.
