data_PCOD9313621
_publ_section_title
;
Structure prediction by ZEFSAII (Michael W. Deem and Ramdas Pophale) SiO2 
 PCOD9313621
Probable space group: P 21 21 21
;
_chemical_formula_sum "Si O2"
_cell_formula_units_Z 32
_cell_length_a 15.346368
_cell_length_b 9.308328
_cell_length_c 10.876936
_cell_angle_alpha 90.000000
_cell_angle_beta 90.000000
_cell_angle_gamma 90.000000
_cell_volume 1553.759724
_symmetry_space_group_name_H-M "P 21 21 21"
_symmetry_group_IT_number 19
_symmetry_cell_setting 'orthorhombic'
loop_
_space_group_symop_operation_xyz
x,y,z
1/2-x,-y,1/2+z
1/2+x,1/2-y,-z
-x,1/2+y,1/2-z
loop_
_atom_site_type_symbol
_atom_site_label
_atom_site_fract_x
_atom_site_fract_y
_atom_site_fract_z
Si Si1 0.574717 0.097717 0.331175
Si Si2 0.385474 0.978393 0.822084
Si Si3 0.280534 0.882120 0.394297
Si Si4 0.194237 0.453801 0.881833
Si Si5 0.566809 0.404150 0.263040
Si Si6 0.645927 0.624384 0.939763
Si Si7 0.963778 0.093017 0.487045
Si Si8 0.312066 0.708526 0.949804
O O1 0.652547 0.026474 0.253538
O O2 0.548782 0.235155 0.248430
O O3 0.612489 0.159168 0.457012
O O4 0.493301 0.993182 0.329380
O O5 0.345266 0.818327 0.844949
O O6 0.318795 0.069673 0.905931
O O7 0.375937 0.064123 0.695048
O O8 0.483875 0.960436 0.868520
O O9 0.283561 0.711567 0.402880
O O10 0.330887 0.923519 0.265782
O O11 0.337582 0.976499 0.486883
O O12 0.120532 0.500703 0.978832
O O13 0.272457 0.564149 0.894710
O O14 0.531132 0.432824 0.399683
O O15 0.572245 0.742569 0.977852
O O16 0.735680 0.712876 0.970049
#
# Coordination Sequence:
#
# PCOD9313621 Si02
#       8
#     4   4   4   4   4   4   4   4
#     4  10  19  36  62  89 120 159 208 267 313 381
#     4  11  23  39  65  92 127 181 219 265 330 399
#     4  10  22  38  62  96 128 165 226 275 314 383
#     4   9  21  39  58  91 128 164 207 277 323 383
#     4  10  19  37  64  90 123 157 215 267 318 376
#     4  10  22  40  62  90 131 175 216 274 321 393
#     4  10  21  40  64  89 127 176 213 266 342 381
#     4  10  21  41  63  89 130 171 214 265 335 388
#
# _framework density 20.595206000000001
#
# number of rings (size 3 to 8) (size 9 to 14) (size 15 to 20)
#    0.000    2.000    1.250    2.250    1.750    3.000 
#    6.750    2.500    0.000    0.000    0.000    0.000 
#    0.000    0.000    0.000    0.000    0.000    0.000 
#
# Total GULP energy -178218.581404 kJ/mol
# GULP energy per Si atom -5569.330669 kJ/mol
# Density = 2.054833 g / cm^3
# Si number density = 20.595206 Si / 1000 Ang^3
#
#
#
# Elastic Constant Matrix: (Units=GPa)
#
#
# Indices 1 2 3 4 5 6 
#
# 1 47.5794 12.6985 -5.2222 0.0000 0.0000 0.0000
# 2 12.6985 85.1804 3.4816 0.0000 0.0000 0.0000
# 3 -5.2222 3.4816 35.3800 0.0000 0.0000 0.0000
# 4 0.0000 0.0000 0.0000 31.1205 0.0000 0.0000
# 5 0.0000 0.0000 0.0000 0.0000 21.7971 0.0000
# 6 0.0000 0.0000 0.0000 0.0000 0.0000 28.7699
#
#
#
# Elastic Compliance Matrix: (Units=1/GPa)
#
#
# Indices 1 2 3 4 5 6 
#
# 1 0.022346 -0.003480 0.003641 0.000000 0.000000 0.000000
# 2 -0.003480 0.012329 -0.001727 0.000000 0.000000 0.000000
# 3 0.003641 -0.001727 0.028972 0.000000 0.000000 0.000000
# 4 0.000000 0.000000 0.000000 0.032133 0.000000 0.000000
# 5 0.000000 0.000000 0.000000 0.000000 0.045878 0.000000
# 6 0.000000 0.000000 0.000000 0.000000 0.000000 0.034759
#
#
# Mechanical properties :
#
#
# Convention : Reuss Voigt Hill
#
# Bulk Modulus (GPa) = 16.52494 21.11728 18.82111
# Shear Modulus (GPa) = 25.03499 26.81629 25.92564
#
# Velocity S-wave (km/s) = 3.49029 3.61233 3.55183
# Velocity P-wave (km/s) = 4.92787 5.26064 5.09697
#
# Compressibility (1/GPa) = 0.06051460
#
# Stress axis : x y z
#
# Youngs Moduli (GPa) = 44.75088 81.10836 34.51615
#
# Poissons Ratio (x) = 0.28226 -0.12567
# Poissons Ratio (y) = 0.15574 0.05961
# Poissons Ratio (z) = -0.16293 0.14007
#
# Static dielectric constant tensor:
#      x y z
#    x 1.773220 0.000000 0.000000 
#    y 0.000000 1.720850 0.000000 
#    z 0.000000 0.000000 1.805900 
# 
# From -- ./inp_files/5291.got.cif
#   From: 2010.05.17/outbox.cif.g08.bks.cpg/sg19_3_cif.got.tgz:5291.got - 2010.06.03 22:46:19.
