data_PCOD9313050
_publ_section_title
;
Structure prediction by ZEFSAII (Michael W. Deem and Ramdas Pophale) SiO2 
 PCOD9313050
Probable space group: P 21 21 2
;
_chemical_formula_sum "Si O2"
_cell_formula_units_Z 24
_cell_length_a 8.389855
_cell_length_b 9.668413
_cell_length_c 13.985113
_cell_angle_alpha 90.000000
_cell_angle_beta 90.000000
_cell_angle_gamma 90.000000
_cell_volume 1134.424582
_symmetry_space_group_name_H-M "P 21 21 2"
_symmetry_group_IT_number 18
_symmetry_cell_setting 'orthorhombic'
loop_
_space_group_symop_operation_xyz
x,y,z
-x,-y,z
1/2+x,1/2-y,-z
1/2-x,1/2+y,-z
loop_
_atom_site_type_symbol
_atom_site_label
_atom_site_fract_x
_atom_site_fract_y
_atom_site_fract_z
Si Si1 0.692202 0.992727 0.776433
Si Si2 0.191223 0.278383 0.078082
Si Si3 0.835443 0.585815 0.428021
Si Si4 0.823209 0.216811 0.131400
Si Si5 0.819938 0.448862 0.787554
Si Si6 0.343695 0.588246 0.589859
O O1 0.734365 0.834608 0.795031
O O2 0.500000 0.000000 0.773303
O O3 0.737084 0.078125 0.870671
O O4 0.744363 0.058993 0.676362
O O5 0.297885 0.166174 0.131848
O O6 0.006979 0.245339 0.103281
O O7 0.222941 0.279837 0.966166
O O8 0.733707 0.509045 0.508880
O O9 0.866657 0.750595 0.442098
O O10 0.000000 0.500000 0.427722
O O11 0.796970 0.071935 0.181439
O O12 0.766827 0.400194 0.683196
O O13 0.000000 0.500000 0.785570
O O14 0.500000 0.500000 0.617484
#
# Coordination Sequence:
#
# PCOD9313050 Si02
#       6
#     4   4   4   4   4   4
#     4   9  21  40  66  93 130 171 220 270 336 406
#     4  11  21  43  64 100 134 177 227 280 346 404
#     4  11  24  46  72 101 137 176 225 282 346 426
#     4  11  23  39  70  97 134 180 223 284 341 416
#     4  12  26  43  65  97 137 181 233 282 337 408
#     4  12  26  45  73 102 136 179 226 286 352 418
#
# _framework density 21.156099999999999
#
# number of rings (size 3 to 8) (size 9 to 14) (size 15 to 20)
#    0.000    1.000    1.667    5.000    7.000    1.333 
#    0.000    2.500    0.000    0.000    0.000    0.000 
#    0.000    0.000    0.000    0.000    0.000    0.000 
#
# Total GULP energy -134112.202721 kJ/mol
# GULP energy per Si atom -5588.008447 kJ/mol
# Density = 2.110795 g / cm^3
# Si number density = 21.156100 Si / 1000 Ang^3
#
#
#
# Elastic Constant Matrix: (Units=GPa)
#
#
# Indices 1 2 3 4 5 6 
#
# 1 59.8302 9.0219 10.0251 0.0000 0.0000 0.0000
# 2 9.0219 108.7645 31.8751 0.0000 0.0000 0.0000
# 3 10.0251 31.8751 95.8206 0.0000 0.0000 0.0000
# 4 0.0000 0.0000 0.0000 30.5616 0.0000 0.0000
# 5 0.0000 0.0000 0.0000 0.0000 47.6384 0.0000
# 6 0.0000 0.0000 0.0000 0.0000 0.0000 14.0521
#
#
#
# Elastic Compliance Matrix: (Units=1/GPa)
#
#
# Indices 1 2 3 4 5 6 
#
# 1 0.017108 -0.000991 -0.001460 0.000000 0.000000 0.000000
# 2 -0.000991 0.010245 -0.003304 0.000000 0.000000 0.000000
# 3 -0.001460 -0.003304 0.011688 0.000000 0.000000 0.000000
# 4 0.000000 0.000000 0.000000 0.032721 0.000000 0.000000
# 5 0.000000 0.000000 0.000000 0.000000 0.020991 0.000000
# 6 0.000000 0.000000 0.000000 0.000000 0.000000 0.071164
#
#
# Mechanical properties :
#
#
# Convention : Reuss Voigt Hill
#
# Bulk Modulus (GPa) = 36.32439 40.69550 38.50994
# Shear Modulus (GPa) = 27.08491 32.68332 29.88412
#
# Velocity S-wave (km/s) = 3.58193 3.93474 3.76247
# Velocity P-wave (km/s) = 5.85781 6.31827 6.09239
#
# Compressibility (1/GPa) = 0.02752971
#
# Stress axis : x y z
#
# Youngs Moduli (GPa) = 58.45190 97.61092 85.55702
#
# Poissons Ratio (x) = 0.09675 0.12493
# Poissons Ratio (y) = 0.05794 0.28270
# Poissons Ratio (z) = 0.08535 0.32253
#
# Static dielectric constant tensor:
#      x y z
#    x 1.801300 0.000000 0.000000 
#    y 0.000000 1.689470 0.000000 
#    z 0.000000 0.000000 1.744390 
# 
# From -- ./inp_files/6655.got.cif
#   From: 2010.05.17/outbox.cif.g08.bks.cpg/sg18_4_cif.got.tgz:6655.got - 2010.06.03 22:40:56.
