data_PCOD9313169
_publ_section_title
;
Structure prediction by ZEFSAII (Michael W. Deem and Ramdas Pophale) SiO2 
 PCOD9313169
Probable space group: P 21 21 2
;
_chemical_formula_sum "Si O2"
_cell_formula_units_Z 16
_cell_length_a 11.741937
_cell_length_b 10.080878
_cell_length_c 4.688291
_cell_angle_alpha 90.000000
_cell_angle_beta 90.000000
_cell_angle_gamma 90.000000
_cell_volume 554.948479
_symmetry_space_group_name_H-M "P 21 21 2"
_symmetry_group_IT_number 18
_symmetry_cell_setting 'orthorhombic'
loop_
_space_group_symop_operation_xyz
x,y,z
-x,-y,z
1/2+x,1/2-y,-z
1/2-x,1/2+y,-z
loop_
_atom_site_type_symbol
_atom_site_label
_atom_site_fract_x
_atom_site_fract_y
_atom_site_fract_z
Si Si1 0.097493 0.087786 0.304362
Si Si2 0.470005 0.857408 0.031128
Si Si3 0.331955 0.193188 0.488143
Si Si4 0.788065 0.137680 0.008771
O O1 0.216833 0.108718 0.463603
O O2 0.053814 0.224934 0.162949
O O3 0.135053 0.988130 0.056936
O O4 0.000000 0.000000 0.456831
O O5 0.500000 0.000000 0.885521
O O6 0.553428 0.843267 0.309760
O O7 0.338681 0.881949 0.123394
O O8 0.337941 0.234239 0.818176
O O9 0.292621 0.324328 0.318513
#
# Coordination Sequence:
#
# PCOD9313169 Si02
#       4
#     4   4   4   4
#     4  11  24  48  77 116 151 209 256 324 383 472
#     4  11  24  49  78 115 159 206 259 331 394 469
#     4  11  26  48  74 115 152 203 255 322 382 463
#     4  11  26  47  75 111 154 199 262 312 390 458
#
# _framework density 28.831507999999999
#
# number of rings (size 3 to 8) (size 9 to 14) (size 15 to 20)
#    0.000    1.000    5.000    0.000    3.500    4.000 
#    0.000    6.250    0.000    0.000    0.000    0.000 
#    0.000    0.000    0.000    0.000    0.000    0.000 
#
# Total GULP energy -89451.764225 kJ/mol
# GULP energy per Si atom -5590.735264 kJ/mol
# Density = 2.876589 g / cm^3
# Si number density = 28.831508 Si / 1000 Ang^3
#
#
#
# Elastic Constant Matrix: (Units=GPa)
#
#
# Indices 1 2 3 4 5 6 
#
# 1 215.2800 39.4817 7.1032 0.0000 0.0000 0.0000
# 2 39.4817 189.3004 35.7097 0.0000 0.0000 0.0000
# 3 7.1032 35.7097 107.5388 0.0000 0.0000 0.0000
# 4 0.0000 0.0000 0.0000 38.1989 0.0000 0.0000
# 5 0.0000 0.0000 0.0000 0.0000 20.0876 0.0000
# 6 0.0000 0.0000 0.0000 0.0000 0.0000 62.1033
#
#
#
# Elastic Compliance Matrix: (Units=1/GPa)
#
#
# Indices 1 2 3 4 5 6 
#
# 1 0.004830 -0.001010 0.000017 0.000000 0.000000 0.000000
# 2 -0.001010 0.005847 -0.001875 0.000000 0.000000 0.000000
# 3 0.000017 -0.001875 0.009920 0.000000 0.000000 0.000000
# 4 0.000000 0.000000 0.000000 0.026179 0.000000 0.000000
# 5 0.000000 0.000000 0.000000 0.000000 0.049782 0.000000
# 6 0.000000 0.000000 0.000000 0.000000 0.000000 0.016102
#
#
# Mechanical properties :
#
#
# Convention : Reuss Voigt Hill
#
# Bulk Modulus (GPa) = 67.29579 75.18983 71.24281
# Shear Modulus (GPa) = 40.53473 52.73294 46.63383
#
# Velocity S-wave (km/s) = 3.75362 4.28133 4.02613
# Velocity P-wave (km/s) = 6.49446 7.11163 6.81004
#
# Compressibility (1/GPa) = 0.01485977
#
# Stress axis : x y z
#
# Youngs Moduli (GPa) = 207.04428 171.02701 100.80188
#
# Poissons Ratio (x) = 0.17282 -0.00166
# Poissons Ratio (y) = 0.20921 0.18899
# Poissons Ratio (z) = -0.00342 0.32065
#
# Static dielectric constant tensor:
#      x y z
#    x 2.400120 0.000000 0.000000 
#    y 0.000000 2.304610 0.000000 
#    z 0.000000 0.000000 2.163620 
# 
# From -- ./inp_files/879.got.cif
#   From: 2010.05.17/outbox.cif.g08.bks.cpg/sg18_1_cif.got.tgz:879.got - 2010.06.03 22:40:56.
