data_PCOD9313705
_publ_section_title
;
Structure prediction by ZEFSAII (Michael W. Deem and Ramdas Pophale) SiO2 
 PCOD9313705
Probable space group: P 21 21 21
;
_chemical_formula_sum "Si O2"
_cell_formula_units_Z 32
_cell_length_a 9.187471
_cell_length_b 9.100922
_cell_length_c 20.245679
_cell_angle_alpha 90.000000
_cell_angle_beta 90.000000
_cell_angle_gamma 90.000000
_cell_volume 1692.831455
_symmetry_space_group_name_H-M "P 21 21 21"
_symmetry_group_IT_number 19
_symmetry_cell_setting 'orthorhombic'
loop_
_space_group_symop_operation_xyz
x,y,z
1/2-x,-y,1/2+z
1/2+x,1/2-y,-z
-x,1/2+y,1/2-z
loop_
_atom_site_type_symbol
_atom_site_label
_atom_site_fract_x
_atom_site_fract_y
_atom_site_fract_z
Si Si1 0.052166 0.068403 0.505437
Si Si2 0.060928 0.307561 0.394295
Si Si3 0.809936 0.538209 0.405219
Si Si4 0.438024 0.646729 0.605169
Si Si5 0.135584 0.556515 0.865432
Si Si6 0.342550 0.384829 0.689925
Si Si7 0.858502 0.631822 0.794648
Si Si8 0.778364 0.228729 0.174678
O O1 0.971759 0.949766 0.459249
O O2 0.077753 0.210257 0.460072
O O3 0.950574 0.097484 0.568260
O O4 0.202236 0.009427 0.536156
O O5 0.959736 0.447619 0.409001
O O6 0.972588 0.209115 0.342020
O O7 0.214385 0.356855 0.366046
O O8 0.844670 0.709011 0.407825
O O9 0.731242 0.488444 0.336761
O O10 0.356259 0.543255 0.658139
O O11 0.594767 0.697056 0.633405
O O12 0.172861 0.382578 0.863560
O O13 0.026779 0.598203 0.806053
O O14 0.195965 0.289681 0.675240
O O15 0.352111 0.375328 0.768836
O O16 0.807816 0.651340 0.719063
#
# Coordination Sequence:
#
# PCOD9313705 Si02
#       8
#     4   4   4   4   4   4   4   4
#     4  10  24  40  57  92 125 159 213 253 312 370
#     4  10  19  40  66  87 118 165 212 248 299 378
#     4  10  20  39  64  86 120 168 199 260 308 369
#     4  11  22  37  64  91 121 161 209 265 308 367
#     4  11  21  41  65  92 125 167 203 265 310 370
#     4   8  21  39  60  93 119 154 210 253 307 374
#     4   8  21  41  59  89 125 156 206 247 318 381
#     4  10  22  39  63  94 123 158 206 259 316 373
#
# _framework density 18.90324
#
# number of rings (size 3 to 8) (size 9 to 14) (size 15 to 20)
#    0.750    1.500    1.250    0.750    5.250    1.000 
#    9.000    1.250    0.000    0.000    0.000    0.000 
#    0.000    0.000    0.000    0.000    0.000    0.000 
#
# Total GULP energy -178395.614993 kJ/mol
# GULP energy per Si atom -5574.862969 kJ/mol
# Density = 1.886022 g / cm^3
# Si number density = 18.903240 Si / 1000 Ang^3
#
#
#
# Elastic Constant Matrix: (Units=GPa)
#
#
# Indices 1 2 3 4 5 6 
#
# 1 51.3919 4.1136 -16.7999 0.0000 0.0000 0.0000
# 2 4.1136 61.3702 -18.0964 0.0000 0.0000 0.0000
# 3 -16.7999 -18.0964 26.8978 0.0000 0.0000 0.0000
# 4 0.0000 0.0000 0.0000 12.5315 0.0000 0.0000
# 5 0.0000 0.0000 0.0000 0.0000 22.8510 0.0000
# 6 0.0000 0.0000 0.0000 0.0000 0.0000 17.7273
#
#
#
# Elastic Compliance Matrix: (Units=1/GPa)
#
#
# Indices 1 2 3 4 5 6 
#
# 1 0.025095 0.003667 0.018141 0.000000 0.000000 0.000000
# 2 0.003667 0.020863 0.016327 0.000000 0.000000 0.000000
# 3 0.018141 0.016327 0.059493 0.000000 0.000000 0.000000
# 4 0.000000 0.000000 0.000000 0.079799 0.000000 0.000000
# 5 0.000000 0.000000 0.000000 0.000000 0.043762 0.000000
# 6 0.000000 0.000000 0.000000 0.000000 0.000000 0.056410
#
#
# Mechanical properties :
#
#
# Convention : Reuss Voigt Hill
#
# Bulk Modulus (GPa) = 5.50292 8.67716 7.09004
# Shear Modulus (GPa) = 18.53740 21.98481 20.26110
#
# Velocity S-wave (km/s) = 3.13492 3.41400 3.27744
# Velocity P-wave (km/s) = 4.00264 4.48785 4.25217
#
# Compressibility (1/GPa) = 0.18172176
#
# Stress axis : x y z
#
# Youngs Moduli (GPa) = 39.84842 47.93150 16.80873
#
# Poissons Ratio (x) = -0.17578 -0.30493
# Poissons Ratio (y) = -0.14613 -0.27443
# Poissons Ratio (z) = -0.72290 -0.78257
#
# Static dielectric constant tensor:
#      x y z
#    x 1.651850 0.000000 0.000000 
#    y 0.000000 1.650170 0.000000 
#    z 0.000000 0.000000 1.672420 
# 
# From -- ./inp_files/7092.got.cif
#   From: 2010.05.17/outbox.cif.g08.bks.cpg/sg19_4_cif.got.tgz:7092.got - 2010.06.03 22:46:19.
