data_PCOD9313383
_publ_section_title
;
Structure prediction by ZEFSAII (Michael W. Deem and Ramdas Pophale) SiO2 
 PCOD9313383
Probable space group: P 21 21 21
;
_chemical_formula_sum "Si O2"
_cell_formula_units_Z 28
_cell_length_a 7.593430
_cell_length_b 20.026206
_cell_length_c 6.724682
_cell_angle_alpha 90.000000
_cell_angle_beta 90.000000
_cell_angle_gamma 90.000000
_cell_volume 1022.606208
_symmetry_space_group_name_H-M "P 21 21 21"
_symmetry_group_IT_number 19
_symmetry_cell_setting 'orthorhombic'
loop_
_space_group_symop_operation_xyz
x,y,z
1/2-x,-y,1/2+z
1/2+x,1/2-y,-z
-x,1/2+y,1/2-z
loop_
_atom_site_type_symbol
_atom_site_label
_atom_site_fract_x
_atom_site_fract_y
_atom_site_fract_z
Si Si1 0.741314 0.869641 0.196547
Si Si2 0.144087 0.119703 0.194321
Si Si3 0.187904 0.317535 0.873871
Si Si4 0.607771 0.419848 0.238822
Si Si5 0.486076 0.022899 0.765004
Si Si6 0.006343 0.762825 0.278293
Si Si7 0.008723 0.439740 0.765680
O O1 0.412975 0.807552 0.753565
O O2 0.711786 0.847319 0.430633
O O3 0.537850 0.879679 0.133322
O O4 0.846992 0.939042 0.174613
O O5 0.330802 0.099447 0.282220
O O6 0.022458 0.056101 0.243469
O O7 0.160882 0.120288 0.955771
O O8 0.291208 0.258975 0.762417
O O9 0.154370 0.382858 0.742493
O O10 0.999813 0.458025 0.001384
O O11 0.796899 0.448119 0.311626
O O12 0.502728 0.487358 0.170947
O O13 0.603830 0.184299 0.649017
O O14 0.480323 0.711699 0.492330
#
# Coordination Sequence:
#
# PCOD9313383 Si02
#       7
#     4   4   4   4   4   4   4
#     4   9  20  30  49  76 104 142 169 216 265 314
#     4  10  18  33  52  80 103 138 176 223 264 308
#     4   9  18  29  47  77 107 132 173 219 260 310
#     4  10  19  33  52  76 108 136 171 218 268 307
#     4   9  20  33  51  78 108 136 179 215 260 318
#     4  10  18  29  49  79 102 139 172 227 259 307
#     4   9  19  33  50  78 106 139 172 214 270 318
#
# _framework density 27.381018000000001
#
# number of rings (size 3 to 8) (size 9 to 14) (size 15 to 20)
#    0.857    1.714    1.429    0.857    4.000    0.000 
#    0.000    0.000    0.000    0.000   18.571    0.000 
#    0.000    0.000    0.000    0.000    0.000    0.000 
#
# Total GULP energy -156308.949486 kJ/mol
# GULP energy per Si atom -5582.462482 kJ/mol
# Density = 2.731870 g / cm^3
# Si number density = 27.381018 Si / 1000 Ang^3
#
#
#
# Elastic Constant Matrix: (Units=GPa)
#
#
# Indices 1 2 3 4 5 6 
#
# 1 138.7498 51.0776 5.8754 0.0000 0.0000 0.0000
# 2 51.0776 106.9596 0.4877 0.0000 0.0000 0.0000
# 3 5.8754 0.4877 66.5568 0.0000 0.0000 0.0000
# 4 0.0000 0.0000 0.0000 31.3448 0.0000 0.0000
# 5 0.0000 0.0000 0.0000 0.0000 6.3589 0.0000
# 6 0.0000 0.0000 0.0000 0.0000 0.0000 70.7671
#
#
#
# Elastic Compliance Matrix: (Units=1/GPa)
#
#
# Indices 1 2 3 4 5 6 
#
# 1 0.008781 -0.004190 -0.000744 0.000000 0.000000 0.000000
# 2 -0.004190 0.011349 0.000287 0.000000 0.000000 0.000000
# 3 -0.000744 0.000287 0.015088 0.000000 0.000000 0.000000
# 4 0.000000 0.000000 0.000000 0.031903 0.000000 0.000000
# 5 0.000000 0.000000 0.000000 0.000000 0.157260 0.000000
# 6 0.000000 0.000000 0.000000 0.000000 0.000000 0.014131
#
#
# Mechanical properties :
#
#
# Convention : Reuss Voigt Hill
#
# Bulk Modulus (GPa) = 38.57576 47.46083 43.01830
# Shear Modulus (GPa) = 19.49707 38.68251 29.08979
#
# Velocity S-wave (km/s) = 2.67135 3.76273 3.26299
# Velocity P-wave (km/s) = 4.86147 6.02069 5.47186
#
# Compressibility (1/GPa) = 0.02592301
#
# Stress axis : x y z
#
# Youngs Moduli (GPa) = 113.87978 88.11419 66.27617
#
# Poissons Ratio (x) = 0.36920 0.04934
# Poissons Ratio (y) = 0.47715 -0.01900
# Poissons Ratio (z) = 0.08478 -0.02526
#
# Static dielectric constant tensor:
#      x y z
#    x 2.182430 0.000000 0.000000 
#    y 0.000000 2.074740 0.000000 
#    z 0.000000 0.000000 2.224040 
# 
# From -- ./inp_files/4781.got.cif
#   From: 2010.05.17/outbox.cif.g08.bks.cpg/sg19_3_cif.got.tgz:4781.got - 2010.06.03 22:46:19.
