data_PCOD9313591
_publ_section_title
;
Structure prediction by ZEFSAII (Michael W. Deem and Ramdas Pophale) SiO2 
 PCOD9313591
Probable space group: P 21 21 21
;
_chemical_formula_sum "Si O2"
_cell_formula_units_Z 32
_cell_length_a 15.322012
_cell_length_b 11.234778
_cell_length_c 9.094041
_cell_angle_alpha 90.000000
_cell_angle_beta 90.000000
_cell_angle_gamma 90.000000
_cell_volume 1565.442792
_symmetry_space_group_name_H-M "P 21 21 21"
_symmetry_group_IT_number 19
_symmetry_cell_setting 'orthorhombic'
loop_
_space_group_symop_operation_xyz
x,y,z
1/2-x,-y,1/2+z
1/2+x,1/2-y,-z
-x,1/2+y,1/2-z
loop_
_atom_site_type_symbol
_atom_site_label
_atom_site_fract_x
_atom_site_fract_y
_atom_site_fract_z
Si Si1 0.457312 0.578323 0.464507
Si Si2 0.338622 0.501713 0.185482
Si Si3 0.302843 0.726855 0.999890
Si Si4 0.903215 0.569242 0.834287
Si Si5 0.331239 0.646935 0.705091
Si Si6 0.509685 0.849938 0.449879
Si Si7 0.219670 0.928500 0.860284
Si Si8 0.652544 0.407072 0.880539
O O1 0.396554 0.556281 0.319082
O O2 0.529910 0.477766 0.454016
O O3 0.397240 0.571931 0.607754
O O4 0.505337 0.707214 0.466373
O O5 0.258031 0.421584 0.236878
O O6 0.400458 0.419828 0.080640
O O7 0.295407 0.610090 0.096194
O O8 0.365027 0.690553 0.863392
O O9 0.221527 0.794282 0.922274
O O10 0.341546 0.831098 0.099671
O O11 0.955345 0.625249 0.698744
O O12 0.851140 0.458164 0.764050
O O13 0.317393 0.768934 0.613170
O O14 0.450175 0.904764 0.581347
O O15 0.311931 0.949703 0.777408
O O16 0.199223 0.016797 0.993174
#
# Coordination Sequence:
#
# PCOD9313591 Si02
#       8
#     4   4   4   4   4   4   4   4
#     4  10  21  41  65  87 122 168 214 257 308 383
#     4  11  22  40  65  88 124 168 206 256 318 378
#     4  11  22  39  60  92 127 158 205 268 310 368
#     4  10  20  38  64  91 119 165 213 255 308 364
#     4  10  23  40  60  92 129 159 205 258 323 370
#     4   9  20  37  61  88 121 157 214 252 298 377
#     4  10  19  35  62  89 120 160 206 261 311 358
#     4   9  19  36  57  89 120 157 209 261 302 366
#
# _framework density 20.441502
#
# number of rings (size 3 to 8) (size 9 to 14) (size 15 to 20)
#    0.000    2.000    2.500    0.750    3.500    0.000 
#    6.750    0.000    2.750    0.000    0.000    0.000 
#    0.000    0.000    0.000    0.000    0.000    0.000 
#
# Total GULP energy -178320.059214 kJ/mol
# GULP energy per Si atom -5572.501850 kJ/mol
# Density = 2.039498 g / cm^3
# Si number density = 20.441502 Si / 1000 Ang^3
#
#
#
# Elastic Constant Matrix: (Units=GPa)
#
#
# Indices 1 2 3 4 5 6 
#
# 1 29.4645 18.4274 -1.5123 0.0000 0.0000 0.0000
# 2 18.4274 74.4020 9.6408 0.0000 0.0000 0.0000
# 3 -1.5123 9.6408 36.7946 0.0000 0.0000 0.0000
# 4 0.0000 0.0000 0.0000 26.4463 0.0000 0.0000
# 5 0.0000 0.0000 0.0000 0.0000 23.2641 0.0000
# 6 0.0000 0.0000 0.0000 0.0000 0.0000 16.7324
#
#
#
# Elastic Compliance Matrix: (Units=1/GPa)
#
#
# Indices 1 2 3 4 5 6 
#
# 1 0.040862 -0.010701 0.004483 0.000000 0.000000 0.000000
# 2 -0.010701 0.016715 -0.004820 0.000000 0.000000 0.000000
# 3 0.004483 -0.004820 0.028625 0.000000 0.000000 0.000000
# 4 0.000000 0.000000 0.000000 0.037813 0.000000 0.000000
# 5 0.000000 0.000000 0.000000 0.000000 0.042985 0.000000
# 6 0.000000 0.000000 0.000000 0.000000 0.000000 0.059764
#
#
# Mechanical properties :
#
#
# Convention : Reuss Voigt Hill
#
# Bulk Modulus (GPa) = 15.59394 21.53030 18.56212
# Shear Modulus (GPa) = 18.50380 20.89557 19.69969
#
# Velocity S-wave (km/s) = 3.01193 3.20068 3.10774
# Velocity P-wave (km/s) = 4.44306 4.92083 4.68804
#
# Compressibility (1/GPa) = 0.06412746
#
# Stress axis : x y z
#
# Youngs Moduli (GPa) = 24.47259 59.82492 34.93453
#
# Poissons Ratio (x) = 0.64021 -0.15663
# Poissons Ratio (y) = 0.26189 0.16837
# Poissons Ratio (z) = -0.10972 0.28833
#
# Static dielectric constant tensor:
#      x y z
#    x 1.745500 0.000000 0.000000 
#    y 0.000000 1.733740 0.000000 
#    z 0.000000 0.000000 1.761570 
# 
# From -- ./inp_files/3931.got.cif
#   From: 2010.05.17/outbox.cif.g08.bks.cpg/sg19_2_cif.got.tgz:3931.got - 2010.06.03 22:46:19.
