data_PCOD9313045
_publ_section_title
;
Structure prediction by ZEFSAII (Michael W. Deem and Ramdas Pophale) SiO2 
 PCOD9313045
Probable space group: P 21 21 2
;
_chemical_formula_sum "Si O2"
_cell_formula_units_Z 20
_cell_length_a 17.918135
_cell_length_b 5.835886
_cell_length_c 9.491528
_cell_angle_alpha 90.000000
_cell_angle_beta 90.000000
_cell_angle_gamma 90.000000
_cell_volume 992.511934
_symmetry_space_group_name_H-M "P 21 21 2"
_symmetry_group_IT_number 18
_symmetry_cell_setting 'orthorhombic'
loop_
_space_group_symop_operation_xyz
x,y,z
-x,-y,z
1/2+x,1/2-y,-z
1/2-x,1/2+y,-z
loop_
_atom_site_type_symbol
_atom_site_label
_atom_site_fract_x
_atom_site_fract_y
_atom_site_fract_z
Si Si1 0.079784 0.531059 0.284447
Si Si2 0.176294 0.223139 0.083684
Si Si3 0.166128 0.568986 0.826108
Si Si4 0.430383 0.338480 0.986424
Si Si5 0.206962 0.571839 0.510289
O O1 0.119334 0.324661 0.199116
O O2 0.057516 0.697250 0.155618
O O3 0.144071 0.609169 0.390931
O O4 0.000000 0.500000 0.359822
O O5 0.258829 0.215768 0.145141
O O6 0.144563 0.976321 0.048515
O O7 0.174062 0.361960 0.937563
O O8 0.169030 0.522655 0.661507
O O9 0.090767 0.689564 0.878476
O O10 0.500000 0.500000 0.013204
O O11 0.250187 0.323872 0.481732
#
# Coordination Sequence:
#
# PCOD9313045 Si02
#       5
#     4   4   4   4   4
#     4  11  24  44  69  99 137 186 234 285 354 427
#     4  11  21  41  68  97 129 173 235 285 346 410
#     4  11  24  39  69 100 131 181 231 293 344 411
#     4  11  23  42  70 100 136 177 235 297 348 415
#     4  12  28  47  71 104 144 187 236 291 351 426
#
# _framework density 20.15089
#
# number of rings (size 3 to 8) (size 9 to 14) (size 15 to 20)
#    0.000    0.800    6.000    1.200    5.600    0.000 
#    3.600    1.000    0.000    0.000    0.000    0.000 
#    0.000    0.000    0.000    0.000    0.000    0.000 
#
# Total GULP energy -111410.796320 kJ/mol
# GULP energy per Si atom -5570.539816 kJ/mol
# Density = 2.010503 g / cm^3
# Si number density = 20.150890 Si / 1000 Ang^3
#
#
#
# Elastic Constant Matrix: (Units=GPa)
#
#
# Indices 1 2 3 4 5 6 
#
# 1 101.4791 22.2891 19.4217 0.0000 0.0000 0.0000
# 2 22.2891 50.8972 4.1275 0.0000 0.0000 0.0000
# 3 19.4217 4.1275 99.9433 0.0000 0.0000 0.0000
# 4 0.0000 0.0000 0.0000 15.8453 0.0000 0.0000
# 5 0.0000 0.0000 0.0000 0.0000 23.8960 0.0000
# 6 0.0000 0.0000 0.0000 0.0000 0.0000 30.6843
#
#
#
# Elastic Compliance Matrix: (Units=1/GPa)
#
#
# Indices 1 2 3 4 5 6 
#
# 1 0.011286 -0.004781 -0.001996 0.000000 0.000000 0.000000
# 2 -0.004781 0.021738 0.000031 0.000000 0.000000 0.000000
# 3 -0.001996 0.000031 0.010392 0.000000 0.000000 0.000000
# 4 0.000000 0.000000 0.000000 0.063110 0.000000 0.000000
# 5 0.000000 0.000000 0.000000 0.000000 0.041848 0.000000
# 6 0.000000 0.000000 0.000000 0.000000 0.000000 0.032590
#
#
# Mechanical properties :
#
#
# Convention : Reuss Voigt Hill
#
# Bulk Modulus (GPa) = 33.41516 38.22179 35.81848
# Shear Modulus (GPa) = 24.45809 27.85052 26.15431
#
# Velocity S-wave (km/s) = 3.48767 3.72169 3.60658
# Velocity P-wave (km/s) = 5.73035 6.12184 5.92933
#
# Compressibility (1/GPa) = 0.02992653
#
# Stress axis : x y z
#
# Youngs Moduli (GPa) = 88.60338 46.00134 96.22586
#
# Poissons Ratio (x) = 0.21992 0.19205
# Poissons Ratio (y) = 0.42358 -0.00301
# Poissons Ratio (z) = 0.17683 -0.00144
#
# Static dielectric constant tensor:
#      x y z
#    x 1.716790 0.000000 0.000000 
#    y 0.000000 1.786680 0.000000 
#    z 0.000000 0.000000 1.714960 
# 
# From -- ./inp_files/2464.got.cif
#   From: 2010.05.17/outbox.cif.g08.bks.cpg/sg18_2_cif.got.tgz:2464.got - 2010.06.03 22:40:56.
