data_PCOD9313362
_publ_section_title
;
Structure prediction by ZEFSAII (Michael W. Deem and Ramdas Pophale) SiO2 
 PCOD9313362
Probable space group: P 21 21 21
;
_chemical_formula_sum "Si O2"
_cell_formula_units_Z 32
_cell_length_a 9.180468
_cell_length_b 8.543131
_cell_length_c 15.918274
_cell_angle_alpha 90.000000
_cell_angle_beta 90.000000
_cell_angle_gamma 90.000000
_cell_volume 1248.469287
_symmetry_space_group_name_H-M "P 21 21 21"
_symmetry_group_IT_number 19
_symmetry_cell_setting 'orthorhombic'
loop_
_space_group_symop_operation_xyz
x,y,z
1/2-x,-y,1/2+z
1/2+x,1/2-y,-z
-x,1/2+y,1/2-z
loop_
_atom_site_type_symbol
_atom_site_label
_atom_site_fract_x
_atom_site_fract_y
_atom_site_fract_z
Si Si1 0.636226 0.729710 0.672806
Si Si2 0.444898 0.089884 0.459743
Si Si3 0.082972 0.265744 0.395968
Si Si4 0.370204 0.014336 0.272242
Si Si5 0.669646 0.556542 0.514432
Si Si6 0.270829 0.359786 0.666835
Si Si7 0.197855 0.307114 0.216582
Si Si8 0.985541 0.619833 0.882679
O O1 0.717034 0.577973 0.715700
O O2 0.660520 0.705815 0.573868
O O3 0.719376 0.851985 0.731295
O O4 0.463842 0.744697 0.685727
O O5 0.573680 0.116218 0.525967
O O6 0.438019 0.021705 0.365317
O O7 0.333641 0.981100 0.511639
O O8 0.404358 0.272990 0.435899
O O9 0.919577 0.217650 0.366464
O O10 0.140496 0.098166 0.427969
O O11 0.163635 0.333745 0.315725
O O12 0.318613 0.171855 0.225366
O O13 0.491448 0.936944 0.212446
O O14 0.560530 0.527921 0.438578
O O15 0.264860 0.546575 0.656209
O O16 0.146027 0.248980 0.628924
#
# Coordination Sequence:
#
# PCOD9313362 Si02
#       8
#     4   4   4   4   4   4   4   4
#     4   9  17  32  55  84 113 150 190 244 293 341
#     4  10  20  36  60  83 115 157 203 234 287 367
#     4  10  18  33  57  88 108 150 197 243 293 346
#     4  10  21  38  59  88 119 160 194 245 308 349
#     4  10  17  36  60  82 114 156 199 244 293 343
#     4  10  19  31  54  92 115 139 199 249 291 350
#     4  11  18  32  60  88 119 145 196 256 294 346
#     4  10  22  36  61  85 119 159 206 239 295 370
#
# _framework density 25.631387
#
# number of rings (size 3 to 8) (size 9 to 14) (size 15 to 20)
#    0.000    2.000    5.000    0.750    0.000    1.000 
#    0.000    0.000   11.000    1.500    0.000    0.000 
#    0.000    0.000    0.000    0.000    0.000    0.000 
#
# Total GULP energy -178230.437825 kJ/mol
# GULP energy per Si atom -5569.701182 kJ/mol
# Density = 2.557305 g / cm^3
# Si number density = 25.631387 Si / 1000 Ang^3
#
#
#
# Elastic Constant Matrix: (Units=GPa)
#
#
# Indices 1 2 3 4 5 6 
#
# 1 68.2626 10.6911 -3.1218 0.0000 0.0000 0.0000
# 2 10.6911 42.3629 -1.1053 0.0000 0.0000 0.0000
# 3 -3.1218 -1.1053 77.0335 0.0000 0.0000 0.0000
# 4 0.0000 0.0000 0.0000 36.5972 0.0000 0.0000
# 5 0.0000 0.0000 0.0000 0.0000 22.6155 0.0000
# 6 0.0000 0.0000 0.0000 0.0000 0.0000 16.4637
#
#
#
# Elastic Compliance Matrix: (Units=1/GPa)
#
#
# Indices 1 2 3 4 5 6 
#
# 1 0.015277 -0.003841 0.000564 0.000000 0.000000 0.000000
# 2 -0.003841 0.024580 0.000197 0.000000 0.000000 0.000000
# 3 0.000564 0.000197 0.013007 0.000000 0.000000 0.000000
# 4 0.000000 0.000000 0.000000 0.027325 0.000000 0.000000
# 5 0.000000 0.000000 0.000000 0.000000 0.044217 0.000000
# 6 0.000000 0.000000 0.000000 0.000000 0.000000 0.060740
#
#
# Mechanical properties :
#
#
# Convention : Reuss Voigt Hill
#
# Bulk Modulus (GPa) = 21.41126 22.28743 21.84934
# Shear Modulus (GPa) = 24.16946 27.21495 25.69220
#
# Velocity S-wave (km/s) = 3.07410 3.26203 3.16946
# Velocity P-wave (km/s) = 4.57950 4.78561 4.68369
#
# Compressibility (1/GPa) = 0.04670441
#
# Stress axis : x y z
#
# Youngs Moduli (GPa) = 65.45952 40.68351 76.88135
#
# Poissons Ratio (x) = 0.15625 -0.04336
# Poissons Ratio (y) = 0.25141 -0.01515
# Poissons Ratio (z) = -0.03692 -0.00802
#
# Static dielectric constant tensor:
#      x y z
#    x 2.199040 0.000000 0.000000 
#    y 0.000000 2.078390 0.000000 
#    z 0.000000 0.000000 2.086230 
# 
# From -- ./inp_files/4826.got.cif
#   From: 2010.05.17/outbox.cif.g08.bks.cpg/sg19_3_cif.got.tgz:4826.got - 2010.06.03 22:46:19.
