data_PCOD9313054
_publ_section_title
;
Structure prediction by ZEFSAII (Michael W. Deem and Ramdas Pophale) SiO2 
 PCOD9313054
Probable space group: P 21 21 2
;
_chemical_formula_sum "Si O2"
_cell_formula_units_Z 32
_cell_length_a 8.231634
_cell_length_b 29.824221
_cell_length_c 6.681291
_cell_angle_alpha 90.000000
_cell_angle_beta 90.000000
_cell_angle_gamma 90.000000
_cell_volume 1640.270782
_symmetry_space_group_name_H-M "P 21 21 2"
_symmetry_group_IT_number 18
_symmetry_cell_setting 'orthorhombic'
loop_
_space_group_symop_operation_xyz
x,y,z
-x,-y,z
1/2+x,1/2-y,-z
1/2-x,1/2+y,-z
loop_
_atom_site_type_symbol
_atom_site_label
_atom_site_fract_x
_atom_site_fract_y
_atom_site_fract_z
Si Si1 0.792480 0.597694 0.062160
Si Si2 0.518821 0.872429 0.587711
Si Si3 0.606169 0.368654 0.501257
Si Si4 0.106161 0.455273 0.675383
Si Si5 0.087807 0.954514 0.602741
Si Si6 0.429452 0.326099 0.852890
Si Si7 0.681031 0.214191 0.461952
Si Si8 0.540969 0.711007 0.266379
O O1 0.680123 0.569513 0.214126
O O2 0.684962 0.635639 0.952029
O O3 0.936660 0.619164 0.195940
O O4 0.863602 0.564944 0.894112
O O5 0.710935 0.865201 0.576158
O O6 0.477819 0.916117 0.455284
O O7 0.430650 0.829079 0.495697
O O8 0.540332 0.418936 0.484991
O O9 0.494317 0.338097 0.357632
O O10 0.571772 0.349349 0.723401
O O11 0.277667 0.464226 0.566432
O O12 0.000000 0.500000 0.678878
O O13 0.000000 0.000000 0.664777
O O14 0.484380 0.293733 0.031059
O O15 0.318875 0.298781 0.697876
O O16 0.579223 0.255017 0.375734
O O17 0.776975 0.224175 0.667613
#
# Coordination Sequence:
#
# PCOD9313054 Si02
#       8
#     4   4   4   4   4   4   4   4
#     4  11  21  44  67  88 131 175 211 267 333 387
#     4  11  23  41  65  91 130 170 213 268 329 395
#     4  11  23  41  65  94 127 171 213 269 332 394
#     4  11  23  41  64  92 126 170 217 269 323 390
#     4  11  23  41  65  92 130 167 215 274 331 389
#     4  11  21  44  66  89 130 174 211 268 331 384
#     4  11  23  40  65  93 127 169 214 268 330 382
#     4  11  23  42  65  93 130 167 216 269 321 397
#
# _framework density 19.508973999999998
#
# number of rings (size 3 to 8) (size 9 to 14) (size 15 to 20)
#    0.000    1.000    5.000    3.000    0.000    7.500 
#    4.500    0.000    0.000    0.000    0.000    0.000 
#    0.000    0.000    0.000    0.000    0.000    0.000 
#
# Total GULP energy -178847.427359 kJ/mol
# GULP energy per Si atom -5588.982105 kJ/mol
# Density = 1.946457 g / cm^3
# Si number density = 19.508974 Si / 1000 Ang^3
#
#
#
# Elastic Constant Matrix: (Units=GPa)
#
#
# Indices 1 2 3 4 5 6 
#
# 1 62.1640 0.9449 1.9463 0.0000 0.0000 0.0000
# 2 0.9449 68.0473 -2.2487 0.0000 0.0000 0.0000
# 3 1.9463 -2.2487 78.9077 0.0000 0.0000 0.0000
# 4 0.0000 0.0000 0.0000 17.7959 0.0000 0.0000
# 5 0.0000 0.0000 0.0000 0.0000 20.0212 0.0000
# 6 0.0000 0.0000 0.0000 0.0000 0.0000 38.6661
#
#
#
# Elastic Compliance Matrix: (Units=1/GPa)
#
#
# Indices 1 2 3 4 5 6 
#
# 1 0.016103 -0.000237 -0.000404 0.000000 0.000000 0.000000
# 2 -0.000237 0.014713 0.000425 0.000000 0.000000 0.000000
# 3 -0.000404 0.000425 0.012695 0.000000 0.000000 0.000000
# 4 0.000000 0.000000 0.000000 0.056193 0.000000 0.000000
# 5 0.000000 0.000000 0.000000 0.000000 0.049947 0.000000
# 6 0.000000 0.000000 0.000000 0.000000 0.000000 0.025862
#
#
# Mechanical properties :
#
#
# Convention : Reuss Voigt Hill
#
# Bulk Modulus (GPa) = 23.21298 23.37822 23.29560
# Shear Modulus (GPa) = 26.27369 29.19506 27.73437
#
# Velocity S-wave (km/s) = 3.67379 3.87265 3.77453
# Velocity P-wave (km/s) = 5.46993 5.65738 5.56444
#
# Compressibility (1/GPa) = 0.04307935
#
# Stress axis : x y z
#
# Youngs Moduli (GPa) = 62.10124 67.96714 78.77044
#
# Poissons Ratio (x) = 0.01610 0.03182
# Poissons Ratio (y) = 0.01471 -0.03349
# Poissons Ratio (z) = 0.02508 -0.02889
#
# Static dielectric constant tensor:
#      x y z
#    x 1.692120 0.000000 0.000000 
#    y 0.000000 1.664660 0.000000 
#    z 0.000000 0.000000 1.685240 
# 
# From -- ./inp_files/781.got.cif
#   From: 2010.05.17/outbox.cif.g08.bks.cpg/sg18_1_cif.got.tgz:781.got - 2010.06.03 22:40:56.
