data_PCOD9313253
_publ_section_title
;
Structure prediction by ZEFSAII (Michael W. Deem and Ramdas Pophale) SiO2 
 PCOD9313253
Probable space group: P 21 21 2
;
_chemical_formula_sum "Si O2"
_cell_formula_units_Z 20
_cell_length_a 15.302442
_cell_length_b 10.544144
_cell_length_c 4.886387
_cell_angle_alpha 90.000000
_cell_angle_beta 90.000000
_cell_angle_gamma 90.000000
_cell_volume 788.424172
_symmetry_space_group_name_H-M "P 21 21 2"
_symmetry_group_IT_number 18
_symmetry_cell_setting 'orthorhombic'
loop_
_space_group_symop_operation_xyz
x,y,z
-x,-y,z
1/2+x,1/2-y,-z
1/2-x,1/2+y,-z
loop_
_atom_site_type_symbol
_atom_site_label
_atom_site_fract_x
_atom_site_fract_y
_atom_site_fract_z
Si Si1 0.248792 0.897993 0.445930
Si Si2 0.336067 0.658231 0.615495
Si Si3 0.095736 0.546845 0.749815
Si Si4 0.397286 0.220570 0.787369
Si Si5 0.047383 0.133472 0.884004
O O1 0.278638 0.784983 0.646583
O O2 0.169392 0.832118 0.285533
O O3 0.215291 0.038926 0.517941
O O4 0.339588 0.930531 0.298615
O O5 0.372694 0.618251 0.907449
O O6 0.416744 0.679634 0.406831
O O7 0.084754 0.636449 0.482758
O O8 0.000000 0.500000 0.834588
O O9 0.140934 0.624858 0.990599
O O10 0.479984 0.277425 0.951386
O O11 0.000000 0.000000 0.835634
#
# Coordination Sequence:
#
# PCOD9313253 Si02
#       5
#     4   4   4   4   4
#     4  12  28  51  80 116 158 202 260 325 388 462
#     4  12  29  48  78 111 154 200 257 317 388 457
#     4  12  28  52  79 113 158 208 259 323 393 468
#     4  12  27  47  78 115 155 201 266 316 386 470
#     4  12  26  47  76 110 153 203 253 316 386 459
#
# _framework density 25.367056999999999
#
# number of rings (size 3 to 8) (size 9 to 14) (size 15 to 20)
#    0.000    0.000    4.000    4.800    5.600    4.800 
#    0.000    0.000    0.000    0.000    0.000    0.000 
#    0.000    0.000    0.000    0.000    0.000    0.000 
#
# Total GULP energy -112012.421782 kJ/mol
# GULP energy per Si atom -5600.621089 kJ/mol
# Density = 2.530932 g / cm^3
# Si number density = 25.367057 Si / 1000 Ang^3
#
#
#
# Elastic Constant Matrix: (Units=GPa)
#
#
# Indices 1 2 3 4 5 6 
#
# 1 62.1259 -7.0590 -23.3040 0.0000 0.0000 0.0000
# 2 -7.0590 102.7167 -20.2565 0.0000 0.0000 0.0000
# 3 -23.3040 -20.2565 81.6008 0.0000 0.0000 0.0000
# 4 0.0000 0.0000 0.0000 28.4854 0.0000 0.0000
# 5 0.0000 0.0000 0.0000 0.0000 -224.2731 0.0000
# 6 0.0000 0.0000 0.0000 0.0000 0.0000 57.5167
#
#
#
# Elastic Compliance Matrix: (Units=1/GPa)
#
#
# Indices 1 2 3 4 5 6 
#
# 1 0.018594 0.002445 0.005917 0.000000 0.000000 0.000000
# 2 0.002445 0.010558 0.003319 0.000000 0.000000 0.000000
# 3 0.005917 0.003319 0.014768 0.000000 0.000000 0.000000
# 4 0.000000 0.000000 0.000000 0.035106 0.000000 0.000000
# 5 0.000000 0.000000 0.000000 0.000000 -0.004459 0.000000
# 6 0.000000 0.000000 0.000000 0.000000 0.000000 0.017386
#
#
# Mechanical properties :
#
#
# Convention : Reuss Voigt Hill
#
# Bulk Modulus (GPa) = 14.86290 16.13381 15.49836
# Shear Modulus (GPa) = 54.93352 -7.85000 23.54176
#
# Velocity S-wave (km/s) = 4.65859 -1.76105 3.04969
# Velocity P-wave (km/s) = 5.89987 1.49630 4.30392
#
# Compressibility (1/GPa) = 0.06728160
#
# Stress axis : x y z
#
# Youngs Moduli (GPa) = 53.78189 94.71423 67.71170
#
# Poissons Ratio (x) = -0.23155 -0.40065
# Poissons Ratio (y) = -0.13148 -0.22474
# Poissons Ratio (z) = -0.31822 -0.31437
#
# Static dielectric constant tensor:
#      x y z
#    x 2.060940 0.000000 0.000000 
#    y 0.000000 2.413050 0.000000 
#    z 0.000000 0.000000 1.968230 
# 
# From -- ./inp_files/1439.got.cif
#   From: 2010.05.17/outbox.cif.g08.bks.cpg/sg18_1_cif.got.tgz:1439.got - 2010.06.03 22:40:56.
