data_PCOD9313490
_publ_section_title
;
Structure prediction by ZEFSAII (Michael W. Deem and Ramdas Pophale) SiO2 
 PCOD9313490
Probable space group: P 21 21 21
;
_chemical_formula_sum "Si O2"
_cell_formula_units_Z 28
_cell_length_a 5.260204
_cell_length_b 13.818759
_cell_length_c 13.774855
_cell_angle_alpha 90.000000
_cell_angle_beta 90.000000
_cell_angle_gamma 90.000000
_cell_volume 1001.287204
_symmetry_space_group_name_H-M "P 21 21 21"
_symmetry_group_IT_number 19
_symmetry_cell_setting 'orthorhombic'
loop_
_space_group_symop_operation_xyz
x,y,z
1/2-x,-y,1/2+z
1/2+x,1/2-y,-z
-x,1/2+y,1/2-z
loop_
_atom_site_type_symbol
_atom_site_label
_atom_site_fract_x
_atom_site_fract_y
_atom_site_fract_z
Si Si1 0.575856 0.297229 0.456752
Si Si2 0.850746 0.863872 0.401811
Si Si3 0.244073 0.454042 0.416415
Si Si4 0.619109 0.645091 0.783596
Si Si5 0.308075 0.554196 0.213989
Si Si6 0.873168 0.608697 0.483174
Si Si7 0.194267 0.089604 0.240270
O O1 0.336524 0.232881 0.490279
O O2 0.471979 0.407040 0.474969
O O3 0.654112 0.306920 0.342398
O O4 0.602188 0.828062 0.464056
O O5 0.000341 0.811110 0.313577
O O6 0.097151 0.890019 0.467166
O O7 0.729769 0.955298 0.343849
O O8 0.320494 0.527644 0.330038
O O9 0.110465 0.368090 0.358254
O O10 0.026602 0.507020 0.477322
O O11 0.691117 0.530611 0.762551
O O12 0.561691 0.611302 0.197416
O O13 0.058239 0.616871 0.203259
O O14 0.818177 0.627067 0.369446
#
# Coordination Sequence:
#
# PCOD9313490 Si02
#       7
#     4   4   4   4   4   4   4
#     4  12  22  30  48  66  82 124 178 210 234 256
#     4  10  19  27  44  67  84 114 158 198 243 288
#     4   9  19  32  45  59  94 118 153 213 231 269
#     4   9  19  32  45  59  94 118 153 213 231 269
#     4   9  16  27  43  54  82 120 141 185 236 260
#     4  10  19  27  44  67  84 114 158 198 243 288
#     4   9  16  27  43  54  82 120 141 185 236 260
#
# _framework density 27.964001
#
# number of rings (size 3 to 8) (size 9 to 14) (size 15 to 20)
#    0.000    2.857    2.857    3.429    4.000    0.000 
#    0.000    0.000    0.000    0.000    0.000    0.000 
#    0.000    0.000    0.000    0.000    0.000  148.571 
#
# Total GULP energy -156324.261329 kJ/mol
# GULP energy per Si atom -5583.009333 kJ/mol
# Density = 2.790035 g / cm^3
# Si number density = 27.964001 Si / 1000 Ang^3
#
#
#
# Elastic Constant Matrix: (Units=GPa)
#
#
# Indices 1 2 3 4 5 6 
#
# 1 245.6452 38.3813 45.5998 0.0000 0.0000 0.0000
# 2 38.3813 96.8441 46.8528 0.0000 0.0000 0.0000
# 3 45.5998 46.8528 103.7878 0.0000 0.0000 0.0000
# 4 0.0000 0.0000 0.0000 25.0792 0.0000 0.0000
# 5 0.0000 0.0000 0.0000 0.0000 45.2520 0.0000
# 6 0.0000 0.0000 0.0000 0.0000 0.0000 10.5687
#
#
#
# Elastic Compliance Matrix: (Units=1/GPa)
#
#
# Indices 1 2 3 4 5 6 
#
# 1 0.004516 -0.001062 -0.001505 0.000000 0.000000 0.000000
# 2 -0.001062 0.013461 -0.005610 0.000000 0.000000 0.000000
# 3 -0.001505 -0.005610 0.012829 0.000000 0.000000 0.000000
# 4 0.000000 0.000000 0.000000 0.039874 0.000000 0.000000
# 5 0.000000 0.000000 0.000000 0.000000 0.022098 0.000000
# 6 0.000000 0.000000 0.000000 0.000000 0.000000 0.094619
#
#
# Mechanical properties :
#
#
# Convention : Reuss Voigt Hill
#
# Bulk Modulus (GPa) = 69.19347 78.66054 73.92701
# Shear Modulus (GPa) = 23.97300 37.20954 30.59127
#
# Velocity S-wave (km/s) = 2.93111 3.65173 3.31108
# Velocity P-wave (km/s) = 6.02102 6.78015 6.41183
#
# Compressibility (1/GPa) = 0.01445223
#
# Stress axis : x y z
#
# Youngs Moduli (GPa) = 221.42666 74.28959 77.94968
#
# Poissons Ratio (x) = 0.07888 0.11730
# Poissons Ratio (y) = 0.23511 0.43731
# Poissons Ratio (z) = 0.33322 0.41677
#
# Static dielectric constant tensor:
#      x y z
#    x 2.330200 0.000000 0.000000 
#    y 0.000000 2.289020 0.000000 
#    z 0.000000 0.000000 2.197170 
# 
# From -- ./inp_files/5779.got.cif
#   From: 2010.05.17/outbox.cif.g08.bks.cpg/sg19_3_cif.got.tgz:5779.got - 2010.06.03 22:46:19.
