data_PCOD9313464
_publ_section_title
;
Structure prediction by ZEFSAII (Michael W. Deem and Ramdas Pophale) SiO2 
 PCOD9313464
Probable space group: P 21 21 21
;
_chemical_formula_sum "Si O2"
_cell_formula_units_Z 32
_cell_length_a 12.707212
_cell_length_b 9.806962
_cell_length_c 11.616702
_cell_angle_alpha 90.000000
_cell_angle_beta 90.000000
_cell_angle_gamma 90.000000
_cell_volume 1447.663473
_symmetry_space_group_name_H-M "P 21 21 21"
_symmetry_group_IT_number 19
_symmetry_cell_setting 'orthorhombic'
loop_
_space_group_symop_operation_xyz
x,y,z
1/2-x,-y,1/2+z
1/2+x,1/2-y,-z
-x,1/2+y,1/2-z
loop_
_atom_site_type_symbol
_atom_site_label
_atom_site_fract_x
_atom_site_fract_y
_atom_site_fract_z
Si Si1 0.155472 0.373711 0.940970
Si Si2 0.894219 0.570759 0.508492
Si Si3 0.949043 0.411431 0.061297
Si Si4 0.407787 0.390644 0.298135
Si Si5 0.734183 0.705026 0.055265
Si Si6 0.123363 0.624731 0.540183
Si Si7 0.359843 0.887799 0.135744
Si Si8 0.170171 0.052815 0.246402
O O1 0.113267 0.450835 0.827827
O O2 0.146933 0.209557 0.931643
O O3 0.271707 0.420305 0.976021
O O4 0.073411 0.413879 0.041380
O O5 0.825327 0.439191 0.536542
O O6 0.879806 0.598340 0.372967
O O7 0.015898 0.538785 0.534562
O O8 0.907293 0.451853 0.185470
O O9 0.909494 0.264567 0.021689
O O10 0.898949 0.514358 0.968249
O O11 0.351108 0.312822 0.402842
O O12 0.358974 0.351086 0.175724
O O13 0.531703 0.355985 0.299646
O O14 0.807720 0.675855 0.165654
O O15 0.797583 0.728606 0.936347
O O16 0.277529 0.972562 0.212833
#
# Coordination Sequence:
#
# PCOD9313464 Si02
#       8
#     4   4   4   4   4   4   4   4
#     4  10  22  41  58  87 127 159 195 248 310 369
#     4  10  22  38  61  90 115 156 213 244 289 375
#     4   9  20  38  61  89 118 157 209 250 297 369
#     4  11  23  38  60  89 124 160 197 255 315 358
#     4  10  20  37  61  87 117 156 205 254 298 358
#     4  11  22  39  63  89 122 160 204 250 306 373
#     4   9  19  36  58  86 119 156 202 249 301 364
#     4  10  18  37  64  85 114 160 203 252 296 350
#
# _framework density 22.104585
#
# number of rings (size 3 to 8) (size 9 to 14) (size 15 to 20)
#    0.000    2.000    0.000    4.500    0.000    5.000 
#    0.000   21.250    0.000    0.000    0.000    0.000 
#    0.000    0.000    0.000    0.000    0.000    0.000 
#
# Total GULP energy -178755.781835 kJ/mol
# GULP energy per Si atom -5586.118182 kJ/mol
# Density = 2.205427 g / cm^3
# Si number density = 22.104585 Si / 1000 Ang^3
#
#
#
# Elastic Constant Matrix: (Units=GPa)
#
#
# Indices 1 2 3 4 5 6 
#
# 1 109.5665 -1.9736 5.4052 0.0000 0.0000 0.0000
# 2 -1.9736 52.4660 10.4021 0.0000 0.0000 0.0000
# 3 5.4052 10.4021 65.2867 0.0000 0.0000 0.0000
# 4 0.0000 0.0000 0.0000 13.9119 0.0000 0.0000
# 5 0.0000 0.0000 0.0000 0.0000 32.1218 0.0000
# 6 0.0000 0.0000 0.0000 0.0000 0.0000 23.5443
#
#
#
# Elastic Compliance Matrix: (Units=1/GPa)
#
#
# Indices 1 2 3 4 5 6 
#
# 1 0.009178 0.000512 -0.000841 0.000000 0.000000 0.000000
# 2 0.000512 0.019710 -0.003183 0.000000 0.000000 0.000000
# 3 -0.000841 -0.003183 0.015894 0.000000 0.000000 0.000000
# 4 0.000000 0.000000 0.000000 0.071881 0.000000 0.000000
# 5 0.000000 0.000000 0.000000 0.000000 0.031132 0.000000
# 6 0.000000 0.000000 0.000000 0.000000 0.000000 0.042473
#
#
# Mechanical properties :
#
#
# Convention : Reuss Voigt Hill
#
# Bulk Modulus (GPa) = 26.48489 28.33182 27.40836
# Shear Modulus (GPa) = 23.82342 28.14795 25.98568
#
# Velocity S-wave (km/s) = 3.28649 3.57234 3.43239
# Velocity P-wave (km/s) = 5.13896 5.46448 5.30422
#
# Compressibility (1/GPa) = 0.03775737
#
# Stress axis : x y z
#
# Youngs Moduli (GPa) = 108.96078 50.73500 62.91744
#
# Poissons Ratio (x) = -0.02598 0.05294
# Poissons Ratio (y) = -0.05579 0.20025
# Poissons Ratio (z) = 0.09168 0.16148
#
# Static dielectric constant tensor:
#      x y z
#    x 1.861550 0.000000 0.000000 
#    y 0.000000 1.842870 0.000000 
#    z 0.000000 0.000000 1.808810 
# 
# From -- ./inp_files/5031.got.cif
#   From: 2010.05.17/outbox.cif.g08.bks.cpg/sg19_3_cif.got.tgz:5031.got - 2010.06.03 22:46:19.
