data_PCOD9313228
_publ_section_title
;
Structure prediction by ZEFSAII (Michael W. Deem and Ramdas Pophale) SiO2 
 PCOD9313228
Probable space group: P 21 21 2
;
_chemical_formula_sum "Si O2"
_cell_formula_units_Z 14
_cell_length_a 8.047134
_cell_length_b 7.155455
_cell_length_c 10.170823
_cell_angle_alpha 90.000000
_cell_angle_beta 90.000000
_cell_angle_gamma 90.000000
_cell_volume 585.645195
_symmetry_space_group_name_H-M "P 21 21 2"
_symmetry_group_IT_number 18
_symmetry_cell_setting 'orthorhombic'
loop_
_space_group_symop_operation_xyz
x,y,z
-x,-y,z
1/2+x,1/2-y,-z
1/2-x,1/2+y,-z
loop_
_atom_site_type_symbol
_atom_site_label
_atom_site_fract_x
_atom_site_fract_y
_atom_site_fract_z
Si Si1 0.311645 0.060717 0.136878
Si Si2 0.774509 0.214451 0.338337
Si Si3 0.500000 0.000000 0.511771
Si Si4 0.317245 0.483625 0.139722
O O1 0.279894 0.272381 0.177172
O O2 0.500000 0.000000 0.170824
O O3 0.190898 0.922995 0.215714
O O4 0.298443 0.047316 0.979526
O O5 0.654095 0.091922 0.431349
O O6 0.681762 0.385293 0.265843
O O7 0.924489 0.322834 0.408607
O O8 0.500000 0.500000 0.079701
#
# Coordination Sequence:
#
# PCOD9313228 Si02
#       4
#     4   4   2   4
#     4  12  24  46  76 113 154 196 255 329 399 458
#     4  12  29  53  74 115 154 211 268 318 389 475
#     4  12  32  52  82 108 166 220 258 318 386 480
#     4  12  24  45  76 113 155 194 256 332 396 457
#
# _framework density 23.905259999999998
#
# number of rings (size 3 to 8) (size 9 to 14) (size 15 to 20)
#    0.000    0.000    7.143    0.000   10.000    2.286 
#    0.000    0.000    0.000    0.000    0.000    0.000 
#    0.000    0.000    0.000    0.000    0.000    0.000 
#
# Total GULP energy -78292.113026 kJ/mol
# GULP energy per Si atom -5592.293788 kJ/mol
# Density = 2.385085 g / cm^3
# Si number density = 23.905260 Si / 1000 Ang^3
#
#
#
# Elastic Constant Matrix: (Units=GPa)
#
#
# Indices 1 2 3 4 5 6 
#
# 1 57.9528 -3.6379 18.8661 0.0000 0.0000 0.0000
# 2 -3.6379 166.1061 19.6707 0.0000 0.0000 0.0000
# 3 18.8661 19.6707 66.8623 0.0000 0.0000 0.0000
# 4 0.0000 0.0000 0.0000 18.1688 0.0000 0.0000
# 5 0.0000 0.0000 0.0000 0.0000 61.8257 0.0000
# 6 0.0000 0.0000 0.0000 0.0000 0.0000 41.5369
#
#
#
# Elastic Compliance Matrix: (Units=1/GPa)
#
#
# Indices 1 2 3 4 5 6 
#
# 1 0.019193 0.001100 -0.005739 0.000000 0.000000 0.000000
# 2 0.001100 0.006301 -0.002164 0.000000 0.000000 0.000000
# 3 -0.005739 -0.002164 0.017212 0.000000 0.000000 0.000000
# 4 0.000000 0.000000 0.000000 0.055039 0.000000 0.000000
# 5 0.000000 0.000000 0.000000 0.000000 0.016175 0.000000
# 6 0.000000 0.000000 0.000000 0.000000 0.000000 0.024075
#
#
# Mechanical properties :
#
#
# Convention : Reuss Voigt Hill
#
# Bulk Modulus (GPa) = 34.36513 40.07989 37.22251
# Shear Modulus (GPa) = 30.99806 41.37443 36.18625
#
# Velocity S-wave (km/s) = 3.60488 4.16476 3.89490
# Velocity P-wave (km/s) = 5.63327 6.31898 5.98595
#
# Compressibility (1/GPa) = 0.02909926
#
# Stress axis : x y z
#
# Youngs Moduli (GPa) = 52.10284 158.71494 58.09854
#
# Poissons Ratio (x) = -0.17458 0.33344
# Poissons Ratio (y) = -0.05731 0.12572
# Poissons Ratio (z) = 0.29903 0.34346
#
# Static dielectric constant tensor:
#      x y z
#    x 1.976440 0.000000 0.000000 
#    y 0.000000 1.865920 0.000000 
#    z 0.000000 0.000000 1.921720 
# 
# From -- ./inp_files/2785.got.cif
#   From: 2010.05.17/outbox.cif.g08.bks.cpg/sg18_2_cif.got.tgz:2785.got - 2010.06.03 22:40:56.
