data_PCOD9313094
_publ_section_title
;
Structure prediction by ZEFSAII (Michael W. Deem and Ramdas Pophale) SiO2 
 PCOD9313094
Probable space group: P 21 21 2
;
_chemical_formula_sum "Si O2"
_cell_formula_units_Z 18
_cell_length_a 5.066555
_cell_length_b 12.576827
_cell_length_c 11.854819
_cell_angle_alpha 90.000000
_cell_angle_beta 90.000000
_cell_angle_gamma 90.000000
_cell_volume 755.403123
_symmetry_space_group_name_H-M "P 21 21 2"
_symmetry_group_IT_number 18
_symmetry_cell_setting 'orthorhombic'
loop_
_space_group_symop_operation_xyz
x,y,z
-x,-y,z
1/2+x,1/2-y,-z
1/2-x,1/2+y,-z
loop_
_atom_site_type_symbol
_atom_site_label
_atom_site_fract_x
_atom_site_fract_y
_atom_site_fract_z
Si Si1 0.857993 0.098389 0.266590
Si Si2 0.396629 0.383771 0.258307
Si Si3 0.894851 0.317346 0.365804
Si Si4 0.500000 0.000000 0.453666
Si Si5 0.631903 0.247348 0.072989
O O1 0.986889 0.196565 0.337838
O O2 0.691351 0.158263 0.168577
O O3 0.722638 0.034032 0.367004
O O4 0.000000 0.000000 0.204391
O O5 0.500000 0.500000 0.282174
O O6 0.579512 0.316072 0.345515
O O7 0.494292 0.344231 0.138465
O O8 0.086226 0.374801 0.274975
O O9 0.944394 0.394349 0.471939
O O10 0.408392 0.218341 0.982165
#
# Coordination Sequence:
#
# PCOD9313094 Si02
#       5
#     4   4   4   2   4
#     4  11  30  47  77 114 160 200 265 323 381 479
#     4  11  22  47  74 108 141 191 258 311 369 466
#     4  11  26  47  75 111 157 199 250 305 389 457
#     4  12  28  46  80 110 160 210 252 318 390 470
#     4  11  26  50  75 105 150 198 256 326 391 451
#
# _framework density 23.828334999999999
#
# number of rings (size 3 to 8) (size 9 to 14) (size 15 to 20)
#    0.000    0.889    2.222    2.667   15.556    0.889 
#    0.000    2.222    0.000    0.000    0.000    0.000 
#    0.000    0.000    0.000    0.000    0.000    0.000 
#
# Total GULP energy -100266.028733 kJ/mol
# GULP energy per Si atom -5570.334930 kJ/mol
# Density = 2.377410 g / cm^3
# Si number density = 23.828335 Si / 1000 Ang^3
#
#
#
# Elastic Constant Matrix: (Units=GPa)
#
#
# Indices 1 2 3 4 5 6 
#
# 1 93.0930 24.6879 43.0511 0.0000 0.0000 0.0000
# 2 24.6879 140.0067 26.9196 0.0000 0.0000 0.0000
# 3 43.0511 26.9196 103.8603 0.0000 0.0000 0.0000
# 4 0.0000 0.0000 0.0000 90.8576 0.0000 0.0000
# 5 0.0000 0.0000 0.0000 0.0000 35.7259 0.0000
# 6 0.0000 0.0000 0.0000 0.0000 0.0000 22.9065
#
#
#
# Elastic Compliance Matrix: (Units=1/GPa)
#
#
# Indices 1 2 3 4 5 6 
#
# 1 0.013537 -0.001377 -0.005254 0.000000 0.000000 0.000000
# 2 -0.001377 0.007657 -0.001414 0.000000 0.000000 0.000000
# 3 -0.005254 -0.001414 0.012173 0.000000 0.000000 0.000000
# 4 0.000000 0.000000 0.000000 0.011006 0.000000 0.000000
# 5 0.000000 0.000000 0.000000 0.000000 0.027991 0.000000
# 6 0.000000 0.000000 0.000000 0.000000 0.000000 0.043656
#
#
# Mechanical properties :
#
#
# Convention : Reuss Voigt Hill
#
# Bulk Modulus (GPa) = 57.88138 58.47525 58.17832
# Shear Modulus (GPa) = 36.26633 46.05142 41.15888
#
# Velocity S-wave (km/s) = 3.90549 4.40094 4.16060
# Velocity P-wave (km/s) = 6.68438 7.10055 6.89561
#
# Compressibility (1/GPa) = 0.01727671
#
# Stress axis : x y z
#
# Youngs Moduli (GPa) = 73.87189 130.59675 82.15038
#
# Poissons Ratio (x) = 0.17980 0.43165
# Poissons Ratio (y) = 0.10170 0.11616
# Poissons Ratio (z) = 0.38815 0.18466
#
# Static dielectric constant tensor:
#      x y z
#    x 1.513460 0.000000 0.000000 
#    y 0.000000 1.948120 0.000000 
#    z 0.000000 0.000000 1.983070 
# 
# From -- ./inp_files/4977.got.cif
#   From: 2010.05.17/outbox.cif.g08.bks.cpg/sg18_3_cif.got.tgz:4977.got - 2010.06.03 22:40:56.
