data_PCOD9313682
_publ_section_title
;
Structure prediction by ZEFSAII (Michael W. Deem and Ramdas Pophale) SiO2 
 PCOD9313682
Probable space group: P 21 21 21
;
_chemical_formula_sum "Si O2"
_cell_formula_units_Z 28
_cell_length_a 9.564855
_cell_length_b 8.715620
_cell_length_c 12.096079
_cell_angle_alpha 90.000000
_cell_angle_beta 90.000000
_cell_angle_gamma 90.000000
_cell_volume 1008.373194
_symmetry_space_group_name_H-M "P 21 21 21"
_symmetry_group_IT_number 19
_symmetry_cell_setting 'orthorhombic'
loop_
_space_group_symop_operation_xyz
x,y,z
1/2-x,-y,1/2+z
1/2+x,1/2-y,-z
-x,1/2+y,1/2-z
loop_
_atom_site_type_symbol
_atom_site_label
_atom_site_fract_x
_atom_site_fract_y
_atom_site_fract_z
Si Si1 0.239300 0.763919 0.247372
Si Si2 0.877135 0.764850 0.358008
Si Si3 0.937104 0.808516 0.946788
Si Si4 0.613918 0.845791 0.493966
Si Si5 0.033907 0.592457 0.095299
Si Si6 0.555653 0.092620 0.131323
Si Si7 0.818023 0.414214 0.688860
O O1 0.365033 0.767553 0.158205
O O2 0.289718 0.624385 0.324533
O O3 0.238583 0.921515 0.317029
O O4 0.114554 0.719476 0.166890
O O5 0.762160 0.770804 0.457822
O O6 0.017176 0.675868 0.396623
O O7 0.788261 0.690858 0.259636
O O8 0.933530 0.936860 0.338262
O O9 0.907559 0.698656 0.051012
O O10 0.100424 0.845535 0.917061
O O11 0.873788 0.976286 0.965610
O O12 0.511470 0.752571 0.410320
O O13 0.061704 0.523995 0.970614
O O14 0.452245 0.051227 0.231066
#
# Coordination Sequence:
#
# PCOD9313682 Si02
#       7
#     4   4   4   4   4   4   4
#     4  11  20  35  60  89 122 163 207 267 323 367
#     4  10  22  37  62  89 124 164 211 260 323 375
#     4  11  21  35  60  92 125 157 216 265 317 370
#     4  10  19  39  58  90 125 165 208 265 315 380
#     4  11  22  34  58  91 124 162 202 269 318 386
#     4   9  20  34  56  92 118 152 208 268 312 359
#     4  10  20  36  60  87 118 159 214 270 304 369
#
# _framework density 27.767496000000001
#
# number of rings (size 3 to 8) (size 9 to 14) (size 15 to 20)
#    0.000    1.714    4.286    0.857    2.000    0.000 
#    0.000    0.000    0.000    5.143    0.000    0.000 
#    0.000    0.000    0.000    0.000    0.000    0.000 
#
# Total GULP energy -156288.202315 kJ/mol
# GULP energy per Si atom -5581.721511 kJ/mol
# Density = 2.770430 g / cm^3
# Si number density = 27.767496 Si / 1000 Ang^3
#
#
#
# Elastic Constant Matrix: (Units=GPa)
#
#
# Indices 1 2 3 4 5 6 
#
# 1 162.7089 -1.0145 16.6289 0.0000 0.0000 0.0000
# 2 -1.0145 117.8621 20.2111 0.0000 0.0000 0.0000
# 3 16.6289 20.2111 113.7662 0.0000 0.0000 0.0000
# 4 0.0000 0.0000 0.0000 31.2111 0.0000 0.0000
# 5 0.0000 0.0000 0.0000 0.0000 38.9246 0.0000
# 6 0.0000 0.0000 0.0000 0.0000 0.0000 22.7976
#
#
#
# Elastic Compliance Matrix: (Units=1/GPa)
#
#
# Indices 1 2 3 4 5 6 
#
# 1 0.006245 0.000217 -0.000951 0.000000 0.000000 0.000000
# 2 0.000217 0.008759 -0.001588 0.000000 0.000000 0.000000
# 3 -0.000951 -0.001588 0.009211 0.000000 0.000000 0.000000
# 4 0.000000 0.000000 0.000000 0.032040 0.000000 0.000000
# 5 0.000000 0.000000 0.000000 0.000000 0.025691 0.000000
# 6 0.000000 0.000000 0.000000 0.000000 0.000000 0.043864
#
#
# Mechanical properties :
#
#
# Convention : Reuss Voigt Hill
#
# Bulk Modulus (GPa) = 51.09865 51.77646 51.43755
# Shear Modulus (GPa) = 36.50258 42.48744 39.49501
#
# Velocity S-wave (km/s) = 3.62965 3.91591 3.77549
# Velocity P-wave (km/s) = 6.00067 6.25562 6.12947
#
# Compressibility (1/GPa) = 0.01956999
#
# Stress axis : x y z
#
# Youngs Moduli (GPa) = 160.14045 114.17329 108.56507
#
# Poissons Ratio (x) = -0.02476 0.10327
# Poissons Ratio (y) = -0.03473 0.17237
# Poissons Ratio (z) = 0.15234 0.18127
#
# Static dielectric constant tensor:
#      x y z
#    x 2.299700 0.000000 0.000000 
#    y 0.000000 2.132760 0.000000 
#    z 0.000000 0.000000 2.306500 
# 
# From -- ./inp_files/3508.got.cif
#   From: 2010.05.17/outbox.cif.g08.bks.cpg/sg19_2_cif.got.tgz:3508.got - 2010.06.03 22:46:19.
