data_PCOD9313805
_publ_section_title
;
Structure prediction by ZEFSAII (Michael W. Deem and Ramdas Pophale) SiO2 
 PCOD9313805
Probable space group: P 21 21 21
;
_chemical_formula_sum "Si O2"
_cell_formula_units_Z 20
_cell_length_a 8.491955
_cell_length_b 8.811975
_cell_length_c 12.047636
_cell_angle_alpha 90.000000
_cell_angle_beta 90.000000
_cell_angle_gamma 90.000000
_cell_volume 901.535386
_symmetry_space_group_name_H-M "P 21 21 21"
_symmetry_group_IT_number 19
_symmetry_cell_setting 'orthorhombic'
loop_
_space_group_symop_operation_xyz
x,y,z
1/2-x,-y,1/2+z
1/2+x,1/2-y,-z
-x,1/2+y,1/2-z
loop_
_atom_site_type_symbol
_atom_site_label
_atom_site_fract_x
_atom_site_fract_y
_atom_site_fract_z
Si Si1 0.999998 0.999999 0.805370
Si Si2 0.710346 0.065266 0.100998
Si Si3 0.085389 0.761140 0.524390
Si Si4 0.585391 0.761140 0.024389
Si Si5 0.289658 0.934735 0.100995
O O1 0.863227 0.940584 0.723351
O O2 0.067359 0.864977 0.879684
O O3 0.932639 0.135024 0.879682
O O4 0.136765 0.059413 0.723348
O O5 0.579140 0.150114 0.025193
O O6 0.710447 0.893013 0.056682
O O7 0.863883 0.165765 0.082836
O O8 0.210446 0.893013 0.556678
O O9 0.420863 0.849886 0.025189
O O10 0.636123 0.665767 0.917164
#
# Coordination Sequence:
#
# PCOD9313805 Si02
#       5
#     4   4   4   4   4
#     4  10  20  38  62  84 114 150 188 236 286 334
#     4  10  20  35  59  87 113 151 190 231 284 337
#     4  10  20  35  60  86 114 150 190 232 283 338
#     4  10  20  35  60  86 114 150 190 232 283 338
#     4  10  20  35  59  87 113 151 190 231 284 337
#
# _framework density 22.184373999999998
#
# number of rings (size 3 to 8) (size 9 to 14) (size 15 to 20)
#    0.000    2.400    0.000    7.200    0.000    0.000 
#    0.000    0.000    0.000  117.600    0.000    0.000 
#    0.000    0.000    0.000    0.000    0.000    0.000 
#
# Total GULP energy -111613.924038 kJ/mol
# GULP energy per Si atom -5580.696202 kJ/mol
# Density = 2.213388 g / cm^3
# Si number density = 22.184374 Si / 1000 Ang^3
#
#
#
# Elastic Constant Matrix: (Units=GPa)
#
#
# Indices 1 2 3 4 5 6 
#
# 1 31.9993 43.8939 22.8180 0.0000 0.0000 0.0000
# 2 43.8939 186.0452 54.3408 0.0000 0.0000 0.0000
# 3 22.8180 54.3408 78.7375 0.0000 0.0000 0.0000
# 4 0.0000 0.0000 0.0000 40.2320 0.0000 0.0000
# 5 0.0000 0.0000 0.0000 0.0000 22.8032 0.0000
# 6 0.0000 0.0000 0.0000 0.0000 0.0000 54.3292
#
#
#
# Elastic Compliance Matrix: (Units=1/GPa)
#
#
# Indices 1 2 3 4 5 6 
#
# 1 0.049867 -0.009449 -0.007930 0.000000 0.000000 0.000000
# 2 -0.009449 0.008522 -0.003144 0.000000 0.000000 0.000000
# 3 -0.007930 -0.003144 0.017168 0.000000 0.000000 0.000000
# 4 0.000000 0.000000 0.000000 0.024856 0.000000 0.000000
# 5 0.000000 0.000000 0.000000 0.000000 0.043853 0.000000
# 6 0.000000 0.000000 0.000000 0.000000 0.000000 0.018406
#
#
# Mechanical properties :
#
#
# Convention : Reuss Voigt Hill
#
# Bulk Modulus (GPa) = 28.97530 59.87638 44.42584
# Shear Modulus (GPa) = 23.23184 35.18815 29.21000
#
# Velocity S-wave (km/s) = 3.23958 3.98699 3.63256
# Velocity P-wave (km/s) = 5.20410 6.94577 6.13704
#
# Compressibility (1/GPa) = 0.03451216
#
# Stress axis : x y z
#
# Youngs Moduli (GPa) = 20.05352 117.33650 58.24758
#
# Poissons Ratio (x) = 1.10869 0.46191
# Poissons Ratio (y) = 0.18948 0.18311
# Poissons Ratio (z) = 0.15903 0.36886
#
# Static dielectric constant tensor:
#      x y z
#    x 1.948110 0.000000 0.000000 
#    y 0.000000 1.839170 0.000000 
#    z 0.000000 0.000000 1.782040 
# 
# From -- ./inp_files/5805.got.cif
#   From: 2010.05.17/outbox.cif.g08.bks.cpg/sg19_3_cif.got.tgz:5805.got - 2010.06.03 22:46:19.
