data_PCOD9313188
_publ_section_title
;
Structure prediction by ZEFSAII (Michael W. Deem and Ramdas Pophale) SiO2 
 PCOD9313188
Probable space group: P 21 21 2
;
_chemical_formula_sum "Si O2"
_cell_formula_units_Z 16
_cell_length_a 8.283045
_cell_length_b 7.527132
_cell_length_c 9.546326
_cell_angle_alpha 90.000000
_cell_angle_beta 90.000000
_cell_angle_gamma 90.000000
_cell_volume 595.190258
_symmetry_space_group_name_H-M "P 21 21 2"
_symmetry_group_IT_number 18
_symmetry_cell_setting 'orthorhombic'
loop_
_space_group_symop_operation_xyz
x,y,z
-x,-y,z
1/2+x,1/2-y,-z
1/2-x,1/2+y,-z
loop_
_atom_site_type_symbol
_atom_site_label
_atom_site_fract_x
_atom_site_fract_y
_atom_site_fract_z
Si Si1 0.225203 0.423911 0.845210
Si Si2 0.813493 0.349981 0.582453
Si Si3 0.500000 0.000000 0.676082
Si Si4 0.000000 0.000000 0.540439
Si Si5 0.062212 0.257390 0.091783
O O1 0.166187 0.488475 0.693715
O O2 0.382633 0.297181 0.859713
O O3 0.309689 0.599655 0.906518
O O4 0.084855 0.340950 0.939395
O O5 0.886963 0.395488 0.430988
O O6 0.622789 0.380509 0.552413
O O7 0.895275 0.157682 0.616162
O O8 0.609318 0.108444 0.785573
#
# Coordination Sequence:
#
# PCOD9313188 Si02
#       5
#     4   4   2   2   4
#     4  11  25  49  77 111 158 214 271 334 410 489
#     4  12  26  49  82 121 167 220 277 341 415 495
#     4  12  26  48  78 118 166 214 274 344 410 490
#     4  12  26  50  86 126 170 218 280 348 414 494
#     4  11  25  48  77 112 159 211 271 339 407 487
#
# _framework density 26.882159999999999
#
# number of rings (size 3 to 8) (size 9 to 14) (size 15 to 20)
#    0.000    0.500    0.000    9.000    0.000    3.000 
#    0.000   30.000    0.000    3.000    0.000    0.000 
#    0.000    0.000    0.000    0.000    0.000    0.000 
#
# Total GULP energy -89375.364470 kJ/mol
# GULP energy per Si atom -5585.960279 kJ/mol
# Density = 2.682098 g / cm^3
# Si number density = 26.882160 Si / 1000 Ang^3
#
#
#
# Elastic Constant Matrix: (Units=GPa)
#
#
# Indices 1 2 3 4 5 6 
#
# 1 151.2105 47.1002 32.4815 0.0000 0.0000 0.0000
# 2 47.1002 144.5926 63.4251 0.0000 0.0000 0.0000
# 3 32.4815 63.4251 167.4330 0.0000 0.0000 0.0000
# 4 0.0000 0.0000 0.0000 56.9754 0.0000 0.0000
# 5 0.0000 0.0000 0.0000 0.0000 51.4702 0.0000
# 6 0.0000 0.0000 0.0000 0.0000 0.0000 60.0933
#
#
#
# Elastic Compliance Matrix: (Units=1/GPa)
#
#
# Indices 1 2 3 4 5 6 
#
# 1 0.007415 -0.002140 -0.000628 0.000000 0.000000 0.000000
# 2 -0.002140 0.008912 -0.002961 0.000000 0.000000 0.000000
# 3 -0.000628 -0.002961 0.007216 0.000000 0.000000 0.000000
# 4 0.000000 0.000000 0.000000 0.017551 0.000000 0.000000
# 5 0.000000 0.000000 0.000000 0.000000 0.019429 0.000000
# 6 0.000000 0.000000 0.000000 0.000000 0.000000 0.016641
#
#
# Mechanical properties :
#
#
# Convention : Reuss Voigt Hill
#
# Bulk Modulus (GPa) = 82.74402 83.24996 82.99699
# Shear Modulus (GPa) = 53.96732 55.05640 54.51186
#
# Velocity S-wave (km/s) = 4.48543 4.53046 4.50800
# Velocity P-wave (km/s) = 7.59424 7.64215 7.61824
#
# Compressibility (1/GPa) = 0.01208547
#
# Stress axis : x y z
#
# Youngs Moduli (GPa) = 134.86693 112.21137 138.58325
#
# Poissons Ratio (x) = 0.24012 0.08700
# Poissons Ratio (y) = 0.28860 0.41031
# Poissons Ratio (z) = 0.08467 0.33223
#
# Static dielectric constant tensor:
#      x y z
#    x 2.196720 0.000000 0.000000 
#    y 0.000000 2.319400 0.000000 
#    z 0.000000 0.000000 2.030120 
# 
# From -- ./inp_files/2797.got.cif
#   From: 2010.05.17/outbox.cif.g08.bks.cpg/sg18_2_cif.got.tgz:2797.got - 2010.06.03 22:40:56.
