data_PCOD9313001
_publ_section_title
;
Structure prediction by ZEFSAII (Michael W. Deem and Ramdas Pophale) SiO2 
 PCOD9313001
Probable space group: P 21 21 2
;
_chemical_formula_sum "Si O2"
_cell_formula_units_Z 26
_cell_length_a 5.345236
_cell_length_b 22.023644
_cell_length_c 8.867188
_cell_angle_alpha 90.000000
_cell_angle_beta 90.000000
_cell_angle_gamma 90.000000
_cell_volume 1043.859335
_symmetry_space_group_name_H-M "P 21 21 2"
_symmetry_group_IT_number 18
_symmetry_cell_setting 'orthorhombic'
loop_
_space_group_symop_operation_xyz
x,y,z
-x,-y,z
1/2+x,1/2-y,-z
1/2-x,1/2+y,-z
loop_
_atom_site_type_symbol
_atom_site_label
_atom_site_fract_x
_atom_site_fract_y
_atom_site_fract_z
Si Si1 0.742585 0.962731 0.027252
Si Si2 0.500000 0.000000 0.315941
Si Si3 0.758355 0.085415 0.542645
Si Si4 0.361191 0.671416 0.433583
Si Si5 0.278540 0.787692 0.024588
Si Si6 0.970820 0.374712 0.189446
Si Si7 0.030834 0.306321 0.644290
O O1 0.659982 0.957091 0.202969
O O2 0.500000 0.000000 0.968700
O O3 0.724656 0.902288 0.929345
O O4 0.000000 0.000000 0.015789
O O5 0.308253 0.964371 0.421429
O O6 0.033822 0.103271 0.593507
O O7 0.593002 0.079152 0.691241
O O8 0.699914 0.150246 0.460510
O O9 0.154234 0.674372 0.299642
O O10 0.243889 0.670151 0.600511
O O11 0.487587 0.736251 0.406038
O O12 0.363378 0.810326 0.188951
O O13 0.000657 0.760155 0.018474
O O14 0.312646 0.842123 0.906038
#
# Coordination Sequence:
#
# PCOD9313001 Si02
#       7
#     4   2   4   4   4   4   4
#     4  10  26  49  76 100 142 186 240 302 361 430
#     4  10  26  46  72 110 138 196 246 302 368 440
#     4  11  25  44  72 102 144 187 245 303 361 438
#     4  11  23  41  71 100 145 187 244 298 373 432
#     4  12  27  42  68 102 143 185 234 289 355 434
#     4  11  26  44  68 108 136 195 238 305 363 432
#     4  11  23  42  65 102 142 192 236 300 360 441
#
# _framework density 24.907568999999999
#
# number of rings (size 3 to 8) (size 9 to 14) (size 15 to 20)
#    0.462    0.615    3.077    1.846    7.538    3.692 
#    0.000    0.000    0.000    0.000    0.000    0.000 
#    0.000    0.000    0.000    0.000    0.000    0.000 
#
# Total GULP energy -145130.903287 kJ/mol
# GULP energy per Si atom -5581.957819 kJ/mol
# Density = 2.485088 g / cm^3
# Si number density = 24.907569 Si / 1000 Ang^3
#
#
#
# Elastic Constant Matrix: (Units=GPa)
#
#
# Indices 1 2 3 4 5 6 
#
# 1 64.5106 0.6710 -10.4816 0.0000 0.0000 0.0000
# 2 0.6710 46.6411 35.4475 0.0000 0.0000 0.0000
# 3 -10.4816 35.4475 131.8013 0.0000 0.0000 0.0000
# 4 0.0000 0.0000 0.0000 46.6239 0.0000 0.0000
# 5 0.0000 0.0000 0.0000 0.0000 6.6747 0.0000
# 6 0.0000 0.0000 0.0000 0.0000 0.0000 26.5877
#
#
#
# Elastic Compliance Matrix: (Units=1/GPa)
#
#
# Indices 1 2 3 4 5 6 
#
# 1 0.015786 -0.001485 0.001655 0.000000 0.000000 0.000000
# 2 -0.001485 0.027088 -0.007403 0.000000 0.000000 0.000000
# 3 0.001655 -0.007403 0.009710 0.000000 0.000000 0.000000
# 4 0.000000 0.000000 0.000000 0.021448 0.000000 0.000000
# 5 0.000000 0.000000 0.000000 0.000000 0.149820 0.000000
# 6 0.000000 0.000000 0.000000 0.000000 0.000000 0.037611
#
#
# Mechanical properties :
#
#
# Convention : Reuss Voigt Hill
#
# Bulk Modulus (GPa) = 26.23499 32.69188 29.46343
# Shear Modulus (GPa) = 17.32284 30.46498 23.89391
#
# Velocity S-wave (km/s) = 2.64007 3.50111 3.10062
# Velocity P-wave (km/s) = 4.45523 5.43116 4.96722
#
# Compressibility (1/GPa) = 0.03811704
#
# Stress axis : x y z
#
# Youngs Moduli (GPa) = 63.34877 36.91636 102.98800
#
# Poissons Ratio (x) = 0.05481 -0.17041
# Poissons Ratio (y) = 0.09405 0.76246
# Poissons Ratio (z) = -0.10482 0.27330
#
# Static dielectric constant tensor:
#      x y z
#    x 2.897090 0.000000 0.000000 
#    y 0.000000 2.057010 0.000000 
#    z 0.000000 0.000000 1.902930 
# 
# From -- ./inp_files/2622.got.cif
#   From: 2010.05.17/outbox.cif.g08.bks.cpg/sg18_2_cif.got.tgz:2622.got - 2010.06.03 22:40:56.
