data_PCOD9313909
_publ_section_title
;
Structure prediction by ZEFSAII (Michael W. Deem and Ramdas Pophale) SiO2 
 PCOD9313909
Probable space group: P 21 21 21
;
_chemical_formula_sum "Si O2"
_cell_formula_units_Z 32
_cell_length_a 16.484561
_cell_length_b 13.604011
_cell_length_c 5.757133
_cell_angle_alpha 90.000000
_cell_angle_beta 90.000000
_cell_angle_gamma 90.000000
_cell_volume 1291.072477
_symmetry_space_group_name_H-M "P 21 21 21"
_symmetry_group_IT_number 19
_symmetry_cell_setting 'orthorhombic'
loop_
_space_group_symop_operation_xyz
x,y,z
1/2-x,-y,1/2+z
1/2+x,1/2-y,-z
-x,1/2+y,1/2-z
loop_
_atom_site_type_symbol
_atom_site_label
_atom_site_fract_x
_atom_site_fract_y
_atom_site_fract_z
Si Si1 0.208322 0.516734 0.569730
Si Si2 0.555446 0.475026 0.979035
Si Si3 0.791798 0.618027 0.043825
Si Si4 0.437383 0.603923 0.268991
Si Si5 0.464317 0.795572 0.037095
Si Si6 0.973135 0.357821 0.162577
Si Si7 0.766532 0.605222 0.547472
Si Si8 0.920682 0.171547 0.921041
O O1 0.241234 0.490187 0.312595
O O2 0.135200 0.443388 0.632119
O O3 0.166569 0.623747 0.554767
O O4 0.572579 0.551838 0.774887
O O5 0.517177 0.547895 0.172725
O O6 0.637294 0.422895 0.055195
O O7 0.485424 0.394283 0.930117
O O8 0.887424 0.643373 0.044934
O O9 0.755955 0.653528 0.292252
O O10 0.776943 0.500885 0.036791
O O11 0.752744 0.655339 0.799485
O O12 0.447593 0.594419 0.542875
O O13 0.431941 0.720508 0.234522
O O14 0.495898 0.717962 0.852366
O O15 0.541063 0.845016 0.163265
O O16 0.923909 0.285962 0.990800
#
# Coordination Sequence:
#
# PCOD9313909 Si02
#       8
#     4   4   4   4   4   4   4   4
#     4  11  27  46  71  97 139 189 240 290 359 425
#     4  10  20  37  66  93 131 174 220 284 332 403
#     4  10  21  37  58  90 125 164 204 257 318 401
#     4   9  23  41  62  94 127 170 230 285 335 402
#     4  10  20  38  64  92 129 170 228 274 339 405
#     4  10  22  38  69 100 130 169 239 284 339 406
#     4  10  21  36  58  90 125 161 209 251 326 387
#     4  10  22  41  68  98 132 185 236 289 348 411
#
# _framework density 24.785596000000002
#
# number of rings (size 3 to 8) (size 9 to 14) (size 15 to 20)
#    0.000    2.000    1.250    0.750   10.500    1.000 
#    2.250    0.000    0.000    0.000    0.000    0.000 
#    0.000    0.000    0.000    0.000    0.000    0.000 
#
# Total GULP energy -178577.539186 kJ/mol
# GULP energy per Si atom -5580.548100 kJ/mol
# Density = 2.472918 g / cm^3
# Si number density = 24.785596 Si / 1000 Ang^3
#
#
#
# Elastic Constant Matrix: (Units=GPa)
#
#
# Indices 1 2 3 4 5 6 
#
# 1 42.0073 3.7127 26.8927 0.0000 0.0000 0.0000
# 2 3.7127 84.8623 22.5561 0.0000 0.0000 0.0000
# 3 26.8927 22.5561 146.4920 0.0000 0.0000 0.0000
# 4 0.0000 0.0000 0.0000 41.7121 0.0000 0.0000
# 5 0.0000 0.0000 0.0000 0.0000 25.0247 0.0000
# 6 0.0000 0.0000 0.0000 0.0000 0.0000 18.3596
#
#
#
# Elastic Compliance Matrix: (Units=1/GPa)
#
#
# Indices 1 2 3 4 5 6 
#
# 1 0.026977 0.000142 -0.004974 0.000000 0.000000 0.000000
# 2 0.000142 0.012287 -0.001918 0.000000 0.000000 0.000000
# 3 -0.004974 -0.001918 0.008035 0.000000 0.000000 0.000000
# 4 0.000000 0.000000 0.000000 0.023974 0.000000 0.000000
# 5 0.000000 0.000000 0.000000 0.000000 0.039961 0.000000
# 6 0.000000 0.000000 0.000000 0.000000 0.000000 0.054467
#
#
# Mechanical properties :
#
#
# Convention : Reuss Voigt Hill
#
# Bulk Modulus (GPa) = 29.58688 42.18715 35.88702
# Shear Modulus (GPa) = 26.25109 31.69929 28.97519
#
# Velocity S-wave (km/s) = 3.25795 3.58011 3.42282
# Velocity P-wave (km/s) = 5.11032 5.84357 5.48920
#
# Compressibility (1/GPa) = 0.03379876
#
# Stress axis : x y z
#
# Youngs Moduli (GPa) = 37.06816 81.38428 124.45849
#
# Poissons Ratio (x) = -0.01155 0.61909
# Poissons Ratio (y) = -0.00526 0.23871
# Poissons Ratio (z) = 0.18439 0.15610
#
# Static dielectric constant tensor:
#      x y z
#    x 1.997440 0.000000 0.000000 
#    y 0.000000 1.942380 0.000000 
#    z 0.000000 0.000000 2.133080 
# 
# From -- ./inp_files/1802.got.cif
#   From: 2010.05.17/outbox.cif.g08.bks.cpg/sg19_1_cif.got.tgz:1802.got - 2010.06.03 22:46:19.
