data_PCOD9313134
_publ_section_title
;
Structure prediction by ZEFSAII (Michael W. Deem and Ramdas Pophale) SiO2 
 PCOD9313134
Probable space group: P 21 21 2
;
_chemical_formula_sum "Si O2"
_cell_formula_units_Z 30
_cell_length_a 20.253343
_cell_length_b 5.139566
_cell_length_c 11.720169
_cell_angle_alpha 90.000000
_cell_angle_beta 90.000000
_cell_angle_gamma 90.000000
_cell_volume 1219.992159
_symmetry_space_group_name_H-M "P 21 21 2"
_symmetry_group_IT_number 18
_symmetry_cell_setting 'orthorhombic'
loop_
_space_group_symop_operation_xyz
x,y,z
-x,-y,z
1/2+x,1/2-y,-z
1/2-x,1/2+y,-z
loop_
_atom_site_type_symbol
_atom_site_label
_atom_site_fract_x
_atom_site_fract_y
_atom_site_fract_z
Si Si1 0.255056 0.607273 0.194472
Si Si2 0.790366 0.739321 0.455804
Si Si3 0.353018 0.518640 0.760882
Si Si4 0.435937 0.182877 0.253614
Si Si5 0.322418 0.799761 0.973063
Si Si6 0.124942 0.172912 0.655570
Si Si7 0.058189 0.681043 0.995332
Si Si8 0.500000 0.500000 0.798859
O O1 0.235401 0.370192 0.113826
O O2 0.308411 0.552049 0.289677
O O3 0.190871 0.756651 0.243201
O O4 0.292439 0.774129 0.096729
O O5 0.758526 0.471970 0.503006
O O6 0.812391 0.790143 0.324527
O O7 0.858357 0.771063 0.525573
O O8 0.355550 0.570476 0.899470
O O9 0.431180 0.536025 0.730782
O O10 0.426946 0.439370 0.330221
O O11 0.500000 0.000000 0.276554
O O12 0.384097 0.951282 0.281217
O O13 0.427329 0.317621 0.126596
O O14 0.377681 0.018744 0.974909
O O15 0.023352 0.784919 0.109000
O O16 0.000000 0.500000 0.947947
#
# Coordination Sequence:
#
# PCOD9313134 Si02
#       8
#     4   4   4   4   4   4   4   2
#     4  12  25  39  69 106 145 184 241 315 375 448
#     4  12  27  51  81 108 144 195 250 315 382 447
#     4  12  27  46  70 105 147 194 250 308 377 462
#     4  11  27  46  73 106 146 196 250 305 372 449
#     4  12  24  40  66 106 144 186 243 305 379 446
#     4  12  26  47  75 106 143 193 252 313 376 439
#     4  11  24  41  66 100 147 198 239 290 374 466
#     4  12  26  44  68 104 148 204 244 298 382 478
#
# _framework density 24.590319999999998
#
# number of rings (size 3 to 8) (size 9 to 14) (size 15 to 20)
#    0.000    0.267    6.667    2.000    9.333    0.000 
#    2.400    0.000    0.000    0.000    0.000    0.000 
#    0.000    0.000    0.000    0.000    0.000    0.000 
#
# Total GULP energy -167174.168902 kJ/mol
# GULP energy per Si atom -5572.472297 kJ/mol
# Density = 2.453435 g / cm^3
# Si number density = 24.590320 Si / 1000 Ang^3
#
#
#
# Elastic Constant Matrix: (Units=GPa)
#
#
# Indices 1 2 3 4 5 6 
#
# 1 117.5482 22.0709 14.4982 0.0000 0.0000 0.0000
# 2 22.0709 80.5059 1.0205 0.0000 0.0000 0.0000
# 3 14.4982 1.0205 83.5844 0.0000 0.0000 0.0000
# 4 0.0000 0.0000 0.0000 20.0919 0.0000 0.0000
# 5 0.0000 0.0000 0.0000 0.0000 29.9972 0.0000
# 6 0.0000 0.0000 0.0000 0.0000 0.0000 32.8750
#
#
#
# Elastic Compliance Matrix: (Units=1/GPa)
#
#
# Indices 1 2 3 4 5 6 
#
# 1 0.009168 -0.002494 -0.001560 0.000000 0.000000 0.000000
# 2 -0.002494 0.013102 0.000273 0.000000 0.000000 0.000000
# 3 -0.001560 0.000273 0.012231 0.000000 0.000000 0.000000
# 4 0.000000 0.000000 0.000000 0.049771 0.000000 0.000000
# 5 0.000000 0.000000 0.000000 0.000000 0.033336 0.000000
# 6 0.000000 0.000000 0.000000 0.000000 0.000000 0.030418
#
#
# Mechanical properties :
#
#
# Convention : Reuss Voigt Hill
#
# Bulk Modulus (GPa) = 37.12094 39.64642 38.38368
# Shear Modulus (GPa) = 30.38267 32.86277 31.62272
#
# Velocity S-wave (km/s) = 3.51886 3.65966 3.58995
# Velocity P-wave (km/s) = 5.62480 5.83226 5.72947
#
# Compressibility (1/GPa) = 0.02693897
#
# Stress axis : x y z
#
# Youngs Moduli (GPa) = 109.07836 76.32646 81.75828
#
# Poissons Ratio (x) = 0.19033 0.12752
# Poissons Ratio (y) = 0.27200 -0.02228
# Poissons Ratio (z) = 0.17014 -0.02080
#
# Static dielectric constant tensor:
#      x y z
#    x 2.147930 0.000000 0.000000 
#    y 0.000000 2.044010 0.000000 
#    z 0.000000 0.000000 1.975920 
# 
# From -- ./inp_files/6276.got.cif
#   From: 2010.05.17/outbox.cif.g08.bks.cpg/sg18_4_cif.got.tgz:6276.got - 2010.06.03 22:40:56.
