data_PCOD9313576
_publ_section_title
;
Structure prediction by ZEFSAII (Michael W. Deem and Ramdas Pophale) SiO2 
 PCOD9313576
Probable space group: P 21 21 21
;
_chemical_formula_sum "Si O2"
_cell_formula_units_Z 24
_cell_length_a 8.485111
_cell_length_b 12.445998
_cell_length_c 9.858077
_cell_angle_alpha 90.000000
_cell_angle_beta 90.000000
_cell_angle_gamma 90.000000
_cell_volume 1041.068871
_symmetry_space_group_name_H-M "P 21 21 21"
_symmetry_group_IT_number 19
_symmetry_cell_setting 'orthorhombic'
loop_
_space_group_symop_operation_xyz
x,y,z
1/2-x,-y,1/2+z
1/2+x,1/2-y,-z
-x,1/2+y,1/2-z
loop_
_atom_site_type_symbol
_atom_site_label
_atom_site_fract_x
_atom_site_fract_y
_atom_site_fract_z
Si Si1 0.645788 0.299610 0.188547
Si Si2 0.155878 0.261448 0.303729
Si Si3 0.842597 0.253911 0.449857
Si Si4 0.477571 0.203203 0.946463
Si Si5 0.613389 0.952446 0.288048
Si Si6 0.654923 0.996265 0.001982
O O1 0.709235 0.258316 0.332800
O O2 0.796850 0.294491 0.092362
O O3 0.566397 0.415381 0.213115
O O4 0.513391 0.241136 0.098008
O O5 0.264877 0.198969 0.412834
O O6 0.274282 0.352883 0.253212
O O7 0.004259 0.303024 0.391102
O O8 0.071090 0.223645 0.165161
O O9 0.886186 0.128465 0.478221
O O10 0.538225 0.080798 0.932116
O O11 0.675554 0.989884 0.432365
O O12 0.650424 0.027643 0.160134
#
# Coordination Sequence:
#
# PCOD9313576 Si02
#       6
#     4   4   4   4   4   4
#     4  11  22  39  60  83 116 158 200 238 292 362
#     4   9  19  34  57  83 112 149 189 229 285 355
#     4  10  19  35  59  85 116 151 189 238 290 346
#     4  10  21  38  59  84 114 154 195 239 290 350
#     4  10  21  39  58  83 116 153 196 243 296 354
#     4  10  20  37  59  86 118 149 191 245 299 343
#
# _framework density 23.053229999999999
#
# number of rings (size 3 to 8) (size 9 to 14) (size 15 to 20)
#    0.000    2.000    0.000    5.000    0.000    1.333 
#    0.000   18.333    0.000    0.000    0.000    0.000 
#    0.000    0.000    0.000    0.000    0.000    0.000 
#
# Total GULP energy -133707.942913 kJ/mol
# GULP energy per Si atom -5571.164288 kJ/mol
# Density = 2.300076 g / cm^3
# Si number density = 23.053230 Si / 1000 Ang^3
#
#
#
# Elastic Constant Matrix: (Units=GPa)
#
#
# Indices 1 2 3 4 5 6 
#
# 1 61.2952 6.7718 33.0907 0.0000 0.0000 0.0000
# 2 6.7718 29.6496 19.8764 0.0000 0.0000 0.0000
# 3 33.0907 19.8764 112.8941 0.0000 0.0000 0.0000
# 4 0.0000 0.0000 0.0000 25.0420 0.0000 0.0000
# 5 0.0000 0.0000 0.0000 0.0000 46.8108 0.0000
# 6 0.0000 0.0000 0.0000 0.0000 0.0000 20.6098
#
#
#
# Elastic Compliance Matrix: (Units=1/GPa)
#
#
# Indices 1 2 3 4 5 6 
#
# 1 0.019394 -0.000701 -0.005561 0.000000 0.000000 0.000000
# 2 -0.000701 0.038266 -0.006532 0.000000 0.000000 0.000000
# 3 -0.005561 -0.006532 0.011638 0.000000 0.000000 0.000000
# 4 0.000000 0.000000 0.000000 0.039933 0.000000 0.000000
# 5 0.000000 0.000000 0.000000 0.000000 0.021363 0.000000
# 6 0.000000 0.000000 0.000000 0.000000 0.000000 0.048521
#
#
# Mechanical properties :
#
#
# Convention : Reuss Voigt Hill
#
# Bulk Modulus (GPa) = 22.87821 35.92409 29.40115
# Shear Modulus (GPa) = 22.80263 28.09917 25.45090
#
# Velocity S-wave (km/s) = 3.14845 3.49504 3.32626
# Velocity P-wave (km/s) = 4.81276 5.64836 5.24722
#
# Compressibility (1/GPa) = 0.04370971
#
# Stress axis : x y z
#
# Youngs Moduli (GPa) = 51.56168 26.13277 85.92621
#
# Poissons Ratio (x) = 0.01833 0.47785
# Poissons Ratio (y) = 0.03617 0.56124
# Poissons Ratio (z) = 0.28675 0.17069
#
# Static dielectric constant tensor:
#      x y z
#    x 1.859950 0.000000 0.000000 
#    y 0.000000 1.920750 0.000000 
#    z 0.000000 0.000000 1.951150 
# 
# From -- ./inp_files/2806.got.cif
#   From: 2010.05.17/outbox.cif.g08.bks.cpg/sg19_2_cif.got.tgz:2806.got - 2010.06.03 22:46:19.
