data_PCOD9313839
_publ_section_title
;
Structure prediction by ZEFSAII (Michael W. Deem and Ramdas Pophale) SiO2 
 PCOD9313839
Probable space group: P 21 21 21
;
_chemical_formula_sum "Si O2"
_cell_formula_units_Z 28
_cell_length_a 13.346345
_cell_length_b 5.584658
_cell_length_c 14.251414
_cell_angle_alpha 90.000000
_cell_angle_beta 90.000000
_cell_angle_gamma 90.000000
_cell_volume 1062.225899
_symmetry_space_group_name_H-M "P 21 21 21"
_symmetry_group_IT_number 19
_symmetry_cell_setting 'orthorhombic'
loop_
_space_group_symop_operation_xyz
x,y,z
1/2-x,-y,1/2+z
1/2+x,1/2-y,-z
-x,1/2+y,1/2-z
loop_
_atom_site_type_symbol
_atom_site_label
_atom_site_fract_x
_atom_site_fract_y
_atom_site_fract_z
Si Si1 0.199702 0.085113 0.093748
Si Si2 0.091197 0.300647 0.248625
Si Si3 0.777756 0.090726 0.491694
Si Si4 0.412434 0.057317 0.882000
Si Si5 0.744065 0.128241 0.187725
Si Si6 0.412967 0.626399 0.147252
Si Si7 0.938351 0.378999 0.902865
O O1 0.175157 0.340363 0.045405
O O2 0.174681 0.844180 0.037814
O O3 0.146208 0.087540 0.193374
O O4 0.318317 0.097689 0.114503
O O5 0.168937 0.515762 0.247191
O O6 0.990890 0.334810 0.191550
O O7 0.078167 0.221803 0.355904
O O8 0.668289 0.105822 0.439650
O O9 0.776552 0.055436 0.603010
O O10 0.299534 0.152280 0.865513
O O11 0.445836 0.123912 0.985255
O O12 0.651568 0.156687 0.257606
O O13 0.469818 0.372361 0.141924
O O14 0.477938 0.865345 0.132470
#
# Coordination Sequence:
#
# PCOD9313839 Si02
#       7
#     4   4   4   4   4   4   4
#     4  10  20  38  55  78 120 155 204 246 286 365
#     4  12  24  36  57  90 132 166 197 247 323 397
#     4  10  20  36  58  81 115 153 206 254 292 353
#     4  12  24  36  57  90 132 166 197 247 323 397
#     4  12  22  38  60  88 124 162 202 264 312 372
#     4  10  20  36  58  81 115 153 206 254 292 353
#     4  10  20  38  55  78 120 155 204 246 286 365
#
# _framework density 26.359742000000001
#
# number of rings (size 3 to 8) (size 9 to 14) (size 15 to 20)
#    0.000    1.143    7.143    3.429    0.000    0.000 
#    0.000    0.000    0.000    0.000    0.000    4.000 
#    0.000    0.000    0.000    0.000    0.000    0.000 
#
# Total GULP energy -156646.591367 kJ/mol
# GULP energy per Si atom -5594.521120 kJ/mol
# Density = 2.629975 g / cm^3
# Si number density = 26.359742 Si / 1000 Ang^3
#
#
#
# Elastic Constant Matrix: (Units=GPa)
#
#
# Indices 1 2 3 4 5 6 
#
# 1 59.8840 18.2395 30.6987 0.0000 0.0000 0.0000
# 2 18.2395 198.8980 35.3983 0.0000 0.0000 0.0000
# 3 30.6987 35.3983 127.1330 0.0000 0.0000 0.0000
# 4 0.0000 0.0000 0.0000 44.5972 0.0000 0.0000
# 5 0.0000 0.0000 0.0000 0.0000 22.0990 0.0000
# 6 0.0000 0.0000 0.0000 0.0000 0.0000 8.7445
#
#
#
# Elastic Compliance Matrix: (Units=1/GPa)
#
#
# Indices 1 2 3 4 5 6 
#
# 1 0.019240 -0.000986 -0.004371 0.000000 0.000000 0.000000
# 2 -0.000986 0.005340 -0.001249 0.000000 0.000000 0.000000
# 3 -0.004371 -0.001249 0.009269 0.000000 0.000000 0.000000
# 4 0.000000 0.000000 0.000000 0.022423 0.000000 0.000000
# 5 0.000000 0.000000 0.000000 0.000000 0.045251 0.000000
# 6 0.000000 0.000000 0.000000 0.000000 0.000000 0.114357
#
#
# Mechanical properties :
#
#
# Convention : Reuss Voigt Hill
#
# Bulk Modulus (GPa) = 48.45723 61.62090 55.03906
# Shear Modulus (GPa) = 21.18892 35.19338 28.19115
#
# Velocity S-wave (km/s) = 2.83828 3.65789 3.27383
# Velocity P-wave (km/s) = 5.40037 6.42401 5.93430
#
# Compressibility (1/GPa) = 0.02063676
#
# Stress axis : x y z
#
# Youngs Moduli (GPa) = 51.97430 187.25167 107.88646
#
# Poissons Ratio (x) = 0.18471 0.47160
# Poissons Ratio (y) = 0.05127 0.13472
# Poissons Ratio (z) = 0.22719 0.23383
#
# Static dielectric constant tensor:
#      x y z
#    x 2.032180 0.000000 0.000000 
#    y 0.000000 2.256080 0.000000 
#    z 0.000000 0.000000 2.151380 
# 
# From -- ./inp_files/5685.got.cif
#   From: 2010.05.17/outbox.cif.g08.bks.cpg/sg19_3_cif.got.tgz:5685.got - 2010.06.03 22:46:19.
