data_PCOD9313634
_publ_section_title
;
Structure prediction by ZEFSAII (Michael W. Deem and Ramdas Pophale) SiO2 
 PCOD9313634
Probable space group: P 21 21 21
;
_chemical_formula_sum "Si O2"
_cell_formula_units_Z 32
_cell_length_a 9.701339
_cell_length_b 8.400065
_cell_length_c 16.154492
_cell_angle_alpha 90.000000
_cell_angle_beta 90.000000
_cell_angle_gamma 90.000000
_cell_volume 1316.459894
_symmetry_space_group_name_H-M "P 21 21 21"
_symmetry_group_IT_number 19
_symmetry_cell_setting 'orthorhombic'
loop_
_space_group_symop_operation_xyz
x,y,z
1/2-x,-y,1/2+z
1/2+x,1/2-y,-z
-x,1/2+y,1/2-z
loop_
_atom_site_type_symbol
_atom_site_label
_atom_site_fract_x
_atom_site_fract_y
_atom_site_fract_z
Si Si1 0.340279 0.541983 0.703194
Si Si2 0.151061 0.330805 0.439100
Si Si3 0.223168 0.123284 0.862203
Si Si4 0.124177 0.092178 0.586251
Si Si5 0.389380 0.960284 0.528947
Si Si6 0.875553 0.976366 0.665819
Si Si7 0.017369 0.385378 0.053992
Si Si8 0.620210 0.379721 0.724947
O O1 0.199890 0.491290 0.745240
O O2 0.373361 0.514427 0.607529
O O3 0.472349 0.457153 0.745783
O O4 0.351187 0.730974 0.717021
O O5 0.154354 0.247210 0.529521
O O6 0.027993 0.454051 0.448040
O O7 0.279761 0.427392 0.400693
O O8 0.114963 0.200871 0.367624
O O9 0.137470 0.285544 0.849856
O O10 0.379387 0.161552 0.894528
O O11 0.262101 0.013199 0.784115
O O12 0.156493 0.011721 0.933687
O O13 0.020277 0.072374 0.662822
O O14 0.039749 0.977984 0.523569
O O15 0.273724 0.015568 0.593084
O O16 0.405777 0.773053 0.530136
#
# Coordination Sequence:
#
# PCOD9313634 Si02
#       8
#     4   4   4   4   4   4   4   4
#     4  10  20  34  56  87 115 152 191 251 285 343
#     4  11  21  35  59  90 113 151 189 242 293 345
#     4  10  19  37  54  90 113 149 191 243 285 351
#     4  11  22  38  58  88 121 148 193 242 289 355
#     4  11  21  35  59  84 118 151 190 238 293 351
#     4  11  22  36  63  84 117 156 194 241 297 335
#     4  10  19  37  58  81 116 153 191 233 290 342
#     4  10  20  34  57  86 121 144 195 246 292 336
#
# _framework density 24.307613
#
# number of rings (size 3 to 8) (size 9 to 14) (size 15 to 20)
#    0.000    1.500    6.250    2.250    3.500    0.000 
#    0.000    0.000    2.750    0.000    0.000    0.000 
#    0.000    0.000    0.000    0.000    0.000    0.000 
#
# Total GULP energy -178707.171794 kJ/mol
# GULP energy per Si atom -5584.599119 kJ/mol
# Density = 2.425229 g / cm^3
# Si number density = 24.307613 Si / 1000 Ang^3
#
#
#
# Elastic Constant Matrix: (Units=GPa)
#
#
# Indices 1 2 3 4 5 6 
#
# 1 61.2799 5.7080 -7.6076 0.0000 0.0000 0.0000
# 2 5.7080 74.9692 -2.7434 0.0000 0.0000 0.0000
# 3 -7.6076 -2.7434 32.1928 0.0000 0.0000 0.0000
# 4 0.0000 0.0000 0.0000 14.7271 0.0000 0.0000
# 5 0.0000 0.0000 0.0000 0.0000 38.5902 0.0000
# 6 0.0000 0.0000 0.0000 0.0000 0.0000 14.8447
#
#
#
# Elastic Compliance Matrix: (Units=1/GPa)
#
#
# Indices 1 2 3 4 5 6 
#
# 1 0.016909 -0.001145 0.003898 0.000000 0.000000 0.000000
# 2 -0.001145 0.013458 0.000876 0.000000 0.000000 0.000000
# 3 0.003898 0.000876 0.032059 0.000000 0.000000 0.000000
# 4 0.000000 0.000000 0.000000 0.067902 0.000000 0.000000
# 5 0.000000 0.000000 0.000000 0.000000 0.025913 0.000000
# 6 0.000000 0.000000 0.000000 0.000000 0.000000 0.067364
#
#
# Mechanical properties :
#
#
# Convention : Reuss Voigt Hill
#
# Bulk Modulus (GPa) = 14.35014 17.68398 16.01706
# Shear Modulus (GPa) = 20.87037 25.17140 23.02089
#
# Velocity S-wave (km/s) = 2.93336 3.22147 3.08078
# Velocity P-wave (km/s) = 4.17003 4.59652 4.38846
#
# Compressibility (1/GPa) = 0.06968572
#
# Stress axis : x y z
#
# Youngs Moduli (GPa) = 59.13952 74.30504 31.19274
#
# Poissons Ratio (x) = 0.08506 -0.12160
# Poissons Ratio (y) = 0.06770 -0.02733
# Poissons Ratio (z) = -0.23055 -0.06512
#
# Static dielectric constant tensor:
#      x y z
#    x 1.937430 0.000000 0.000000 
#    y 0.000000 -0.658850 0.000000 
#    z 0.000000 0.000000 2.140120 
# 
# From -- ./inp_files/6738.got.cif
#   From: 2010.05.17/outbox.cif.g08.bks.cpg/sg19_4_cif.got.tgz:6738.got - 2010.06.03 22:46:19.
