data_PCOD9313411
_publ_section_title
;
Structure prediction by ZEFSAII (Michael W. Deem and Ramdas Pophale) SiO2 
 PCOD9313411
Probable space group: P 21 21 21
;
_chemical_formula_sum "Si O2"
_cell_formula_units_Z 28
_cell_length_a 17.639264
_cell_length_b 5.485719
_cell_length_c 13.000769
_cell_angle_alpha 90.000000
_cell_angle_beta 90.000000
_cell_angle_gamma 90.000000
_cell_volume 1258.007005
_symmetry_space_group_name_H-M "P 21 21 21"
_symmetry_group_IT_number 19
_symmetry_cell_setting 'orthorhombic'
loop_
_space_group_symop_operation_xyz
x,y,z
1/2-x,-y,1/2+z
1/2+x,1/2-y,-z
-x,1/2+y,1/2-z
loop_
_atom_site_type_symbol
_atom_site_label
_atom_site_fract_x
_atom_site_fract_y
_atom_site_fract_z
Si Si1 0.581127 0.615429 0.285532
Si Si2 0.540717 0.408309 0.554944
Si Si3 0.660408 0.911227 0.782372
Si Si4 0.428941 0.435050 0.389319
Si Si5 0.073364 0.090663 0.200070
Si Si6 0.336379 0.610595 0.225422
Si Si7 0.415973 0.408175 0.928535
O O1 0.497915 0.573655 0.330933
O O2 0.572798 0.667658 0.162334
O O3 0.629553 0.372956 0.301166
O O4 0.620284 0.870842 0.317481
O O5 0.457567 0.422033 0.505089
O O6 0.546833 0.405182 0.679350
O O7 0.585389 0.647644 0.518753
O O8 0.580507 0.163840 0.514935
O O9 0.619791 0.658826 0.815487
O O10 0.749048 0.902973 0.803676
O O11 0.647357 0.915541 0.658806
O O12 0.622539 0.166215 0.816986
O O13 0.353331 0.566514 0.348898
O O14 0.998293 0.094906 0.130544
#
# Coordination Sequence:
#
# PCOD9313411 Si02
#       7
#     4   4   4   4   4   4   4
#     4  10  20  35  54  79 105 137 179 228 256 306
#     4  10  20  30  57  80 101 134 178 223 274 300
#     4  10  18  32  56  78 107 142 181 212 274 325
#     4  10  21  35  57  81 106 139 184 226 254 320
#     4  10  19  36  56  79 108 139 183 226 257 319
#     4  10  20  33  54  80 106 144 180 212 272 321
#     4  10  20  35  56  83 105 139 185 227 255 321
#
# _framework density 22.257427
#
# number of rings (size 3 to 8) (size 9 to 14) (size 15 to 20)
#    0.857    1.143    1.429    5.143    2.000    0.000 
#    0.000    0.000    0.000   27.429    0.000    0.000 
#    0.000    0.000    0.000    0.000    0.000    0.000 
#
# Total GULP energy -156132.014704 kJ/mol
# GULP energy per Si atom -5576.143382 kJ/mol
# Density = 2.220677 g / cm^3
# Si number density = 22.257427 Si / 1000 Ang^3
#
#
#
# Elastic Constant Matrix: (Units=GPa)
#
#
# Indices 1 2 3 4 5 6 
#
# 1 103.3102 57.5124 10.6284 0.0000 0.0000 0.0000
# 2 57.5124 229.5995 34.1557 0.0000 0.0000 0.0000
# 3 10.6284 34.1557 55.6579 0.0000 0.0000 0.0000
# 4 0.0000 0.0000 0.0000 24.4454 0.0000 0.0000
# 5 0.0000 0.0000 0.0000 0.0000 15.0883 0.0000
# 6 0.0000 0.0000 0.0000 0.0000 0.0000 29.1884
#
#
#
# Elastic Compliance Matrix: (Units=1/GPa)
#
#
# Indices 1 2 3 4 5 6 
#
# 1 0.011259 -0.002752 -0.000461 0.000000 0.000000 0.000000
# 2 -0.002752 0.005465 -0.002829 0.000000 0.000000 0.000000
# 3 -0.000461 -0.002829 0.019791 0.000000 0.000000 0.000000
# 4 0.000000 0.000000 0.000000 0.040908 0.000000 0.000000
# 5 0.000000 0.000000 0.000000 0.000000 0.066277 0.000000
# 6 0.000000 0.000000 0.000000 0.000000 0.000000 0.034260
#
#
# Mechanical properties :
#
#
# Convention : Reuss Voigt Hill
#
# Bulk Modulus (GPa) = 40.92992 65.90674 53.41833
# Shear Modulus (GPa) = 25.22875 32.82916 29.02895
#
# Velocity S-wave (km/s) = 3.37040 3.84471 3.61534
# Velocity P-wave (km/s) = 5.79443 7.02741 6.44049
#
# Compressibility (1/GPa) = 0.02443200
#
# Stress axis : x y z
#
# Youngs Moduli (GPa) = 88.81896 182.96797 50.52854
#
# Poissons Ratio (x) = 0.50345 0.02331
# Poissons Ratio (y) = 0.24439 0.14292
# Poissons Ratio (z) = 0.04098 0.51753
#
# Static dielectric constant tensor:
#      x y z
#    x 1.768760 0.000000 0.000000 
#    y 0.000000 1.901500 0.000000 
#    z 0.000000 0.000000 1.927530 
# 
# From -- ./inp_files/6290.got.cif
#   From: 2010.05.17/outbox.cif.g08.bks.cpg/sg19_4_cif.got.tgz:6290.got - 2010.06.03 22:46:19.
