data_PCOD9313752
_publ_section_title
;
Structure prediction by ZEFSAII (Michael W. Deem and Ramdas Pophale) SiO2 
 PCOD9313752
Probable space group: P 21 21 21
;
_chemical_formula_sum "Si O2"
_cell_formula_units_Z 32
_cell_length_a 7.937948
_cell_length_b 18.091436
_cell_length_c 7.811805
_cell_angle_alpha 90.000000
_cell_angle_beta 90.000000
_cell_angle_gamma 90.000000
_cell_volume 1121.844553
_symmetry_space_group_name_H-M "P 21 21 21"
_symmetry_group_IT_number 19
_symmetry_cell_setting 'orthorhombic'
loop_
_space_group_symop_operation_xyz
x,y,z
1/2-x,-y,1/2+z
1/2+x,1/2-y,-z
-x,1/2+y,1/2-z
loop_
_atom_site_type_symbol
_atom_site_label
_atom_site_fract_x
_atom_site_fract_y
_atom_site_fract_z
Si Si1 0.294979 0.462779 0.313913
Si Si2 0.463266 0.573938 0.093180
Si Si3 0.199329 0.051225 0.969695
Si Si4 0.430370 0.853782 0.141721
Si Si5 0.068166 0.790725 0.089574
Si Si6 0.545467 0.330518 0.819312
Si Si7 0.092095 0.756920 0.622398
Si Si8 0.553691 0.117433 0.926583
O O1 0.137652 0.461000 0.435823
O O2 0.439927 0.417581 0.414527
O O3 0.364791 0.541802 0.255833
O O4 0.222162 0.421437 0.143131
O O5 0.642094 0.531621 0.075516
O O6 0.476587 0.660043 0.055551
O O7 0.100423 0.085435 0.135166
O O8 0.398978 0.062375 0.970460
O O9 0.139897 0.103307 0.812744
O O10 0.263392 0.814013 0.069062
O O11 0.550428 0.789158 0.210695
O O12 0.006441 0.833633 0.261888
O O13 0.027947 0.705171 0.142949
O O14 0.726194 0.292249 0.855447
O O15 0.420121 0.299917 0.964252
O O16 0.960388 0.821207 0.575010
#
# Coordination Sequence:
#
# PCOD9313752 Si02
#       8
#     4   4   4   4   4   4   4   4
#     4  10  20  33  49  72  99 130 167 206 244 289
#     4  10  20  33  49  72  99 131 167 204 246 294
#     4   8  16  28  44  68  98 129 159 196 245 295
#     4   9  16  26  43  68  98 127 157 198 248 297
#     4   9  17  28  43  66  97 129 161 199 245 293
#     4   9  15  24  40  65  95 126 157 194 241 293
#     4   9  13  21  40  66  97 124 148 189 249 299
#     4   8  15  27  44  69  99 126 154 196 248 300
#
# _framework density 28.524449000000001
#
# number of rings (size 3 to 8) (size 9 to 14) (size 15 to 20)
#    0.000    3.000    0.000    4.500    0.000    3.000 
#    0.000    0.000    0.000    0.000    0.000   14.000 
#    0.000    0.000    0.000    0.000    0.000    0.000 
#
# Total GULP energy -179003.672672 kJ/mol
# GULP energy per Si atom -5593.864771 kJ/mol
# Density = 2.845953 g / cm^3
# Si number density = 28.524449 Si / 1000 Ang^3
#
#
#
# Elastic Constant Matrix: (Units=GPa)
#
#
# Indices 1 2 3 4 5 6 
#
# 1 113.5491 28.3866 10.3270 0.0000 0.0000 0.0000
# 2 28.3866 117.9858 12.0913 0.0000 0.0000 0.0000
# 3 10.3270 12.0913 73.3144 0.0000 0.0000 0.0000
# 4 0.0000 0.0000 0.0000 47.2315 0.0000 0.0000
# 5 0.0000 0.0000 0.0000 0.0000 39.6804 0.0000
# 6 0.0000 0.0000 0.0000 0.0000 0.0000 35.6506
#
#
#
# Elastic Compliance Matrix: (Units=1/GPa)
#
#
# Indices 1 2 3 4 5 6 
#
# 1 0.009438 -0.002171 -0.000971 0.000000 0.000000 0.000000
# 2 -0.002171 0.009121 -0.001198 0.000000 0.000000 0.000000
# 3 -0.000971 -0.001198 0.013974 0.000000 0.000000 0.000000
# 4 0.000000 0.000000 0.000000 0.021172 0.000000 0.000000
# 5 0.000000 0.000000 0.000000 0.000000 0.025201 0.000000
# 6 0.000000 0.000000 0.000000 0.000000 0.000000 0.028050
#
#
# Mechanical properties :
#
#
# Convention : Reuss Voigt Hill
#
# Bulk Modulus (GPa) = 41.92658 45.16212 43.54435
# Shear Modulus (GPa) = 40.45673 41.44881 40.95277
#
# Velocity S-wave (km/s) = 3.77014 3.81609 3.79318
# Velocity P-wave (km/s) = 5.80365 5.94002 5.87223
#
# Compressibility (1/GPa) = 0.02385122
#
# Stress axis : x y z
#
# Youngs Moduli (GPa) = 105.95608 109.63984 71.55969
#
# Poissons Ratio (x) = 0.23804 0.06951
# Poissons Ratio (y) = 0.23005 0.08576
# Poissons Ratio (z) = 0.10292 0.13139
#
# Static dielectric constant tensor:
#      x y z
#    x 2.111410 0.000000 0.000000 
#    y 0.000000 2.258300 0.000000 
#    z 0.000000 0.000000 2.407580 
# 
# From -- ./inp_files/4814.got.cif
#   From: 2010.05.17/outbox.cif.g08.bks.cpg/sg19_3_cif.got.tgz:4814.got - 2010.06.03 22:46:19.
