data_PCOD9313981
_publ_section_title
;
Structure prediction by ZEFSAII (Michael W. Deem and Ramdas Pophale) SiO2 
 PCOD9313981
Probable space group: P 21 21 21
;
_chemical_formula_sum "Si O2"
_cell_formula_units_Z 20
_cell_length_a 10.724934
_cell_length_b 12.357135
_cell_length_c 6.862544
_cell_angle_alpha 90.000000
_cell_angle_beta 90.000000
_cell_angle_gamma 90.000000
_cell_volume 909.489232
_symmetry_space_group_name_H-M "P 21 21 21"
_symmetry_group_IT_number 19
_symmetry_cell_setting 'orthorhombic'
loop_
_space_group_symop_operation_xyz
x,y,z
1/2-x,-y,1/2+z
1/2+x,1/2-y,-z
-x,1/2+y,1/2-z
loop_
_atom_site_type_symbol
_atom_site_label
_atom_site_fract_x
_atom_site_fract_y
_atom_site_fract_z
Si Si1 0.979105 0.935666 0.996174
Si Si2 0.348588 0.787957 0.921822
Si Si3 0.789816 0.358884 0.246226
Si Si4 0.436674 0.331784 0.877436
Si Si5 0.377662 0.151946 0.155290
O O1 0.094789 0.915857 0.145239
O O2 0.177262 0.730297 0.273304
O O3 0.890135 0.833379 0.029812
O O4 0.916379 0.049837 0.040016
O O5 0.452240 0.834103 0.776768
O O6 0.218109 0.793629 0.806092
O O7 0.329336 0.858537 0.116743
O O8 0.794737 0.396842 0.022443
O O9 0.537556 0.573031 0.219139
O O10 0.460623 0.244270 0.049877
#
# Coordination Sequence:
#
# PCOD9313981 Si02
#       5
#     4   4   4   4   4
#     4  10  20  40  59  88 122 164 202 254 306 364
#     4  10  20  39  63  83 128 163 196 267 306 360
#     4   8  20  40  57  89 122 153 208 247 309 372
#     4   9  21  40  60  92 120 163 206 253 308 369
#     4   9  21  41  55  92 124 155 212 247 303 377
#
# _framework density 21.990366999999999
#
# number of rings (size 3 to 8) (size 9 to 14) (size 15 to 20)
#    1.200    1.600    0.000    0.000    2.800    1.600 
#   18.000    0.000    0.000    0.000    0.000    0.000 
#    0.000    0.000    0.000    0.000    0.000    0.000 
#
# Total GULP energy -111504.605286 kJ/mol
# GULP energy per Si atom -5575.230264 kJ/mol
# Density = 2.194032 g / cm^3
# Si number density = 21.990367 Si / 1000 Ang^3
#
#
#
# Elastic Constant Matrix: (Units=GPa)
#
#
# Indices 1 2 3 4 5 6 
#
# 1 41.5221 14.7144 22.4814 0.0000 0.0000 0.0000
# 2 14.7144 100.2966 26.7733 0.0000 0.0000 0.0000
# 3 22.4814 26.7733 124.9477 0.0000 0.0000 0.0000
# 4 0.0000 0.0000 0.0000 16.7009 0.0000 0.0000
# 5 0.0000 0.0000 0.0000 0.0000 43.7100 0.0000
# 6 0.0000 0.0000 0.0000 0.0000 0.0000 8.5650
#
#
#
# Elastic Compliance Matrix: (Units=1/GPa)
#
#
# Indices 1 2 3 4 5 6 
#
# 1 0.027441 -0.002872 -0.004322 0.000000 0.000000 0.000000
# 2 -0.002872 0.010876 -0.001814 0.000000 0.000000 0.000000
# 3 -0.004322 -0.001814 0.009170 0.000000 0.000000 0.000000
# 4 0.000000 0.000000 0.000000 0.059877 0.000000 0.000000
# 5 0.000000 0.000000 0.000000 0.000000 0.022878 0.000000
# 6 0.000000 0.000000 0.000000 0.000000 0.000000 0.116754
#
#
# Mechanical properties :
#
#
# Convention : Reuss Voigt Hill
#
# Bulk Modulus (GPa) = 33.93129 43.85606 38.89367
# Shear Modulus (GPa) = 18.19266 27.31498 22.75382
#
# Velocity S-wave (km/s) = 2.87940 3.52822 3.22019
# Velocity P-wave (km/s) = 5.14958 6.04850 5.61705
#
# Compressibility (1/GPa) = 0.02947132
#
# Stress axis : x y z
#
# Youngs Moduli (GPa) = 36.44118 91.94605 109.05578
#
# Poissons Ratio (x) = 0.26408 0.47134
# Poissons Ratio (y) = 0.10467 0.19779
# Poissons Ratio (z) = 0.15750 0.16676
#
# Static dielectric constant tensor:
#      x y z
#    x 1.815250 0.000000 0.000000 
#    y 0.000000 1.782570 0.000000 
#    z 0.000000 0.000000 1.862340 
# 
# From -- ./inp_files/3323.got.cif
#   From: 2010.05.17/outbox.cif.g08.bks.cpg/sg19_2_cif.got.tgz:3323.got - 2010.06.03 22:46:19.
