data_PCOD9313662
_publ_section_title
;
Structure prediction by ZEFSAII (Michael W. Deem and Ramdas Pophale) SiO2 
 PCOD9313662
Probable space group: P 21 21 21
;
_chemical_formula_sum "Si O2"
_cell_formula_units_Z 32
_cell_length_a 9.260061
_cell_length_b 7.978523
_cell_length_c 16.079793
_cell_angle_alpha 90.000000
_cell_angle_beta 90.000000
_cell_angle_gamma 90.000000
_cell_volume 1188.000990
_symmetry_space_group_name_H-M "P 21 21 21"
_symmetry_group_IT_number 19
_symmetry_cell_setting 'orthorhombic'
loop_
_space_group_symop_operation_xyz
x,y,z
1/2-x,-y,1/2+z
1/2+x,1/2-y,-z
-x,1/2+y,1/2-z
loop_
_atom_site_type_symbol
_atom_site_label
_atom_site_fract_x
_atom_site_fract_y
_atom_site_fract_z
Si Si1 0.674667 0.187010 0.678984
Si Si2 0.675329 0.333505 0.400453
Si Si3 0.480071 0.038472 0.551292
Si Si4 0.325994 0.341684 0.052550
Si Si5 0.985985 0.970081 0.486733
Si Si6 0.359976 0.151567 0.212834
Si Si7 0.309658 0.654369 0.258220
Si Si8 0.465879 0.206545 0.833251
O O1 0.600487 0.157379 0.592052
O O2 0.769293 0.026054 0.704553
O O3 0.781507 0.337077 0.699200
O O4 0.546556 0.200304 0.745899
O O5 0.535331 0.371493 0.458122
O O6 0.660686 0.473097 0.328416
O O7 0.702913 0.172080 0.342221
O O8 0.823394 0.378680 0.448370
O O9 0.545875 0.972152 0.465673
O O10 0.483645 0.872817 0.613498
O O11 0.396613 0.170358 0.015903
O O12 0.297075 0.286869 0.146740
O O13 0.180220 0.405281 0.006008
O O14 0.007693 0.959910 0.387479
O O15 0.526484 0.191356 0.220673
O O16 0.199120 0.769375 0.308645
#
# Coordination Sequence:
#
# PCOD9313662 Si02
#       8
#     4   4   4   4   4   4   4   4
#     4  11  21  40  61  82 122 160 192 239 302 358
#     4  11  22  38  58  89 117 148 198 247 291 348
#     4  10  21  35  59  90 115 151 199 247 293 346
#     4  10  20  33  57  88 114 148 195 246 296 334
#     4  10  20  33  58  85 116 150 194 249 291 342
#     4  11  22  38  61  87 120 151 195 249 293 349
#     4  11  25  35  60  88 122 153 195 240 299 354
#     4  10  19  38  58  83 112 157 196 237 289 349
#
# _framework density 26.936005999999999
#
# number of rings (size 3 to 8) (size 9 to 14) (size 15 to 20)
#    0.000    1.500    3.750    3.000   14.000    0.000 
#    0.000    0.000    2.750    0.000    0.000    0.000 
#    0.000    0.000    0.000    0.000    0.000    0.000 
#
# Total GULP energy -179144.674618 kJ/mol
# GULP energy per Si atom -5598.271082 kJ/mol
# Density = 2.687470 g / cm^3
# Si number density = 26.936006 Si / 1000 Ang^3
#
#
#
# Elastic Constant Matrix: (Units=GPa)
#
#
# Indices 1 2 3 4 5 6 
#
# 1 162.1641 16.1667 5.1227 0.0000 0.0000 0.0000
# 2 16.1667 72.3053 23.2986 0.0000 0.0000 0.0000
# 3 5.1227 23.2986 40.1206 0.0000 0.0000 0.0000
# 4 0.0000 0.0000 0.0000 44.2516 0.0000 0.0000
# 5 0.0000 0.0000 0.0000 0.0000 50.0308 0.0000
# 6 0.0000 0.0000 0.0000 0.0000 0.0000 31.4849
#
#
#
# Elastic Compliance Matrix: (Units=1/GPa)
#
#
# Indices 1 2 3 4 5 6 
#
# 1 0.006307 -0.001416 0.000017 0.000000 0.000000 0.000000
# 2 -0.001416 0.017332 -0.009884 0.000000 0.000000 0.000000
# 3 0.000017 -0.009884 0.030662 0.000000 0.000000 0.000000
# 4 0.000000 0.000000 0.000000 0.022598 0.000000 0.000000
# 5 0.000000 0.000000 0.000000 0.000000 0.019988 0.000000
# 6 0.000000 0.000000 0.000000 0.000000 0.000000 0.031761
#
#
# Mechanical properties :
#
#
# Convention : Reuss Voigt Hill
#
# Bulk Modulus (GPa) = 31.51033 40.41843 35.96438
# Shear Modulus (GPa) = 30.90378 40.48692 35.69535
#
# Velocity S-wave (km/s) = 3.39086 3.88116 3.64427
# Velocity P-wave (km/s) = 5.20137 5.92642 5.57569
#
# Compressibility (1/GPa) = 0.03173562
#
# Stress axis : x y z
#
# Youngs Moduli (GPa) = 158.54914 57.69799 32.61316
#
# Poissons Ratio (x) = 0.08168 -0.00055
# Poissons Ratio (y) = 0.22445 0.32235
# Poissons Ratio (z) = -0.00266 0.57028
#
# Static dielectric constant tensor:
#      x y z
#    x 2.071090 0.000000 0.000000 
#    y 0.000000 2.250840 0.000000 
#    z 0.000000 0.000000 2.138250 
# 
# From -- ./inp_files/6662.got.cif
#   From: 2010.05.17/outbox.cif.g08.bks.cpg/sg19_4_cif.got.tgz:6662.got - 2010.06.03 22:46:19.
