data_PCOD9313851
_publ_section_title
;
Structure prediction by ZEFSAII (Michael W. Deem and Ramdas Pophale) SiO2 
 PCOD9313851
Probable space group: P 21 21 21
;
_chemical_formula_sum "Si O2"
_cell_formula_units_Z 32
_cell_length_a 25.372073
_cell_length_b 12.451830
_cell_length_c 5.229015
_cell_angle_alpha 90.000000
_cell_angle_beta 90.000000
_cell_angle_gamma 90.000000
_cell_volume 1651.996119
_symmetry_space_group_name_H-M "P 21 21 21"
_symmetry_group_IT_number 19
_symmetry_cell_setting 'orthorhombic'
loop_
_space_group_symop_operation_xyz
x,y,z
1/2-x,-y,1/2+z
1/2+x,1/2-y,-z
-x,1/2+y,1/2-z
loop_
_atom_site_type_symbol
_atom_site_label
_atom_site_fract_x
_atom_site_fract_y
_atom_site_fract_z
Si Si1 0.061247 0.747651 0.068065
Si Si2 0.853244 0.146072 0.766292
Si Si3 0.244379 0.425317 0.135801
Si Si4 0.369347 0.585699 0.494749
Si Si5 0.965541 0.804334 0.702275
Si Si6 0.070863 0.543562 0.362611
Si Si7 0.446118 0.070538 0.930021
Si Si8 0.037458 0.054288 0.922304
O O1 0.046394 0.627378 0.158702
O O2 0.079523 0.824435 0.299463
O O3 0.109854 0.732512 0.872848
O O4 0.008754 0.795523 0.932648
O O5 0.858237 0.034421 0.608375
O O6 0.791253 0.158889 0.808685
O O7 0.881413 0.113074 0.026916
O O8 0.260702 0.499384 0.889994
O O9 0.188307 0.372446 0.066987
O O10 0.406168 0.649609 0.298005
O O11 0.404028 0.562201 0.745768
O O12 0.997216 0.877268 0.498339
O O13 0.959516 0.681213 0.612591
O O14 0.025531 0.527089 0.571981
O O15 0.444426 0.986111 0.699119
O O16 0.433370 0.009433 0.193950
#
# Coordination Sequence:
#
# PCOD9313851 Si02
#       8
#     4   4   4   4   4   4   4   4
#     4  11  22  36  57  85 118 165 212 249 292 368
#     4  10  20  36  60  85 123 162 208 247 299 367
#     4  10  20  38  59  89 124 161 202 248 305 371
#     4  10  22  36  57  88 127 166 197 248 315 366
#     4  12  23  37  58  84 126 164 204 242 310 371
#     4  11  19  35  56  83 120 162 209 238 303 366
#     4  12  24  38  55  78 120 157 208 241 297 351
#     4  12  24  36  54  82 118 163 198 249 289 368
#
# _framework density 19.370508000000001
#
# number of rings (size 3 to 8) (size 9 to 14) (size 15 to 20)
#    0.000    1.000    6.250    1.500    0.000    0.000 
#    0.000    0.000    0.000    0.000    0.000    0.000 
#    7.500    0.000    0.000    0.000    0.000    0.000 
#
# Total GULP energy -178289.488945 kJ/mol
# GULP energy per Si atom -5571.546530 kJ/mol
# Density = 1.932642 g / cm^3
# Si number density = 19.370508 Si / 1000 Ang^3
#
#
#
# Elastic Constant Matrix: (Units=GPa)
#
#
# Indices 1 2 3 4 5 6 
#
# 1 105.4892 20.9529 24.7295 0.0000 0.0000 0.0000
# 2 20.9529 27.7985 19.7663 0.0000 0.0000 0.0000
# 3 24.7295 19.7663 109.7189 0.0000 0.0000 0.0000
# 4 0.0000 0.0000 0.0000 26.8970 0.0000 0.0000
# 5 0.0000 0.0000 0.0000 0.0000 17.8183 0.0000
# 6 0.0000 0.0000 0.0000 0.0000 0.0000 14.5822
#
#
#
# Elastic Compliance Matrix: (Units=1/GPa)
#
#
# Indices 1 2 3 4 5 6 
#
# 1 0.011276 -0.007675 -0.001159 0.000000 0.000000 0.000000
# 2 -0.007675 0.046483 -0.006644 0.000000 0.000000 0.000000
# 3 -0.001159 -0.006644 0.010572 0.000000 0.000000 0.000000
# 4 0.000000 0.000000 0.000000 0.037179 0.000000 0.000000
# 5 0.000000 0.000000 0.000000 0.000000 0.056122 0.000000
# 6 0.000000 0.000000 0.000000 0.000000 0.000000 0.068577
#
#
# Mechanical properties :
#
#
# Convention : Reuss Voigt Hill
#
# Bulk Modulus (GPa) = 26.75607 41.54490 34.15049
# Shear Modulus (GPa) = 18.27337 23.69671 20.98504
#
# Velocity S-wave (km/s) = 3.07475 3.50142 3.29500
# Velocity P-wave (km/s) = 5.14278 6.15148 5.66961
#
# Compressibility (1/GPa) = 0.03737470
#
# Stress axis : x y z
#
# Youngs Moduli (GPa) = 88.68583 21.51346 94.58644
#
# Poissons Ratio (x) = 0.16512 0.10960
# Poissons Ratio (y) = 0.68067 0.62845
# Poissons Ratio (z) = 0.10276 0.14294
#
# Static dielectric constant tensor:
#      x y z
#    x 1.703150 0.000000 0.000000 
#    y 0.000000 1.726690 0.000000 
#    z 0.000000 0.000000 1.831730 
# 
# From -- ./inp_files/2166.got.cif
#   From: 2010.05.17/outbox.cif.g08.bks.cpg/sg19_2_cif.got.tgz:2166.got - 2010.06.03 22:46:19.
