data_PCOD9313821
_publ_section_title
;
Structure prediction by ZEFSAII (Michael W. Deem and Ramdas Pophale) SiO2 
 PCOD9313821
Probable space group: P 21 21 21
;
_chemical_formula_sum "Si O2"
_cell_formula_units_Z 32
_cell_length_a 5.779540
_cell_length_b 14.444538
_cell_length_c 18.695118
_cell_angle_alpha 90.000000
_cell_angle_beta 90.000000
_cell_angle_gamma 90.000000
_cell_volume 1560.720519
_symmetry_space_group_name_H-M "P 21 21 21"
_symmetry_group_IT_number 19
_symmetry_cell_setting 'orthorhombic'
loop_
_space_group_symop_operation_xyz
x,y,z
1/2-x,-y,1/2+z
1/2+x,1/2-y,-z
-x,1/2+y,1/2-z
loop_
_atom_site_type_symbol
_atom_site_label
_atom_site_fract_x
_atom_site_fract_y
_atom_site_fract_z
Si Si1 0.339204 0.816947 0.728889
Si Si2 0.112973 0.702525 0.410012
Si Si3 0.655142 0.129842 0.963807
Si Si4 0.885155 0.718477 0.965880
Si Si5 0.998563 0.173218 0.833256
Si Si6 0.364870 0.946190 0.947106
Si Si7 0.927214 0.468986 0.685938
Si Si8 0.692798 0.830486 0.841554
O O1 0.440279 0.833680 0.650226
O O2 0.142317 0.739943 0.719491
O O3 0.245964 0.909920 0.765338
O O4 0.541177 0.781548 0.781187
O O5 0.218317 0.624451 0.460387
O O6 0.302675 0.764968 0.369223
O O7 0.982836 0.773530 0.462688
O O8 0.826605 0.138748 0.896575
O O9 0.483907 0.044903 0.953667
O O10 0.850928 0.760786 0.887081
O O11 0.650346 0.755061 0.009232
O O12 0.851637 0.608728 0.978605
O O13 0.080780 0.077480 0.798274
O O14 0.137496 0.957513 0.898522
O O15 0.523868 0.879305 0.898513
O O16 0.167201 0.414765 0.694185
#
# Coordination Sequence:
#
# PCOD9313821 Si02
#       8
#     4   4   4   4   4   4   4   4
#     4  10  25  39  66  97 130 179 220 273 339 404
#     4  11  22  40  64  96 133 162 215 279 339 395
#     4  11  21  37  67  99 121 165 216 274 335 398
#     4  10  20  36  65 100 137 170 223 284 337 395
#     4  11  22  40  69  95 126 171 221 272 333 402
#     4  10  20  35  64 102 121 165 223 271 332 401
#     4  11  20  40  70  93 126 174 224 266 328 418
#     4  10  20  39  65  94 132 174 218 267 335 411
#
# _framework density 20.503350999999999
#
# number of rings (size 3 to 8) (size 9 to 14) (size 15 to 20)
#    0.000    1.500    5.000    0.750    0.000    0.000 
#    0.000    0.000   16.500    1.500    0.000    0.000 
#    0.000    0.000    0.000    0.000    0.000    0.000 
#
# Total GULP energy -178499.218550 kJ/mol
# GULP energy per Si atom -5578.100580 kJ/mol
# Density = 2.045668 g / cm^3
# Si number density = 20.503351 Si / 1000 Ang^3
#
#
#
# Elastic Constant Matrix: (Units=GPa)
#
#
# Indices 1 2 3 4 5 6 
#
# 1 49.2814 10.5466 -2.6528 0.0000 0.0000 0.0000
# 2 10.5466 77.4028 31.0869 0.0000 0.0000 0.0000
# 3 -2.6528 31.0869 55.0274 0.0000 0.0000 0.0000
# 4 0.0000 0.0000 0.0000 24.8754 0.0000 0.0000
# 5 0.0000 0.0000 0.0000 0.0000 25.2818 0.0000
# 6 0.0000 0.0000 0.0000 0.0000 0.0000 24.4556
#
#
#
# Elastic Compliance Matrix: (Units=1/GPa)
#
#
# Indices 1 2 3 4 5 6 
#
# 1 0.021400 -0.004308 0.003465 0.000000 0.000000 0.000000
# 2 -0.004308 0.017578 -0.010138 0.000000 0.000000 0.000000
# 3 0.003465 -0.010138 0.024067 0.000000 0.000000 0.000000
# 4 0.000000 0.000000 0.000000 0.040200 0.000000 0.000000
# 5 0.000000 0.000000 0.000000 0.000000 0.039554 0.000000
# 6 0.000000 0.000000 0.000000 0.000000 0.000000 0.040890
#
#
# Mechanical properties :
#
#
# Convention : Reuss Voigt Hill
#
# Bulk Modulus (GPa) = 24.34026 28.85257 26.59641
# Shear Modulus (GPa) = 22.79503 24.43795 23.61649
#
# Velocity S-wave (km/s) = 3.33794 3.45614 3.39755
# Velocity P-wave (km/s) = 5.17232 5.47989 5.32833
#
# Compressibility (1/GPa) = 0.04108419
#
# Stress axis : x y z
#
# Youngs Moduli (GPa) = 46.72898 56.88902 41.55030
#
# Poissons Ratio (x) = 0.24505 -0.14398
# Poissons Ratio (y) = 0.20129 0.42124
# Poissons Ratio (z) = -0.16192 0.57675
#
# Static dielectric constant tensor:
#      x y z
#    x 1.797670 0.000000 0.000000 
#    y 0.000000 1.714530 0.000000 
#    z 0.000000 0.000000 1.729110 
# 
# From -- ./inp_files/1208.got.cif
#   From: 2010.05.17/outbox.cif.g08.bks.cpg/sg19_1_cif.got.tgz:1208.got - 2010.06.03 22:46:19.
