data_PCOD9313486
_publ_section_title
;
Structure prediction by ZEFSAII (Michael W. Deem and Ramdas Pophale) SiO2 
 PCOD9313486
Probable space group: P 21 21 21
;
_chemical_formula_sum "Si O2"
_cell_formula_units_Z 32
_cell_length_a 5.835823
_cell_length_b 17.130538
_cell_length_c 12.894637
_cell_angle_alpha 90.000000
_cell_angle_beta 90.000000
_cell_angle_gamma 90.000000
_cell_volume 1289.087018
_symmetry_space_group_name_H-M "P 21 21 21"
_symmetry_group_IT_number 19
_symmetry_cell_setting 'orthorhombic'
loop_
_space_group_symop_operation_xyz
x,y,z
1/2-x,-y,1/2+z
1/2+x,1/2-y,-z
-x,1/2+y,1/2-z
loop_
_atom_site_type_symbol
_atom_site_label
_atom_site_fract_x
_atom_site_fract_y
_atom_site_fract_z
Si Si1 0.592343 0.516902 0.121535
Si Si2 0.603046 0.451304 0.821102
Si Si3 0.042980 0.243627 0.445898
Si Si4 0.922696 0.383587 0.313938
Si Si5 0.227563 0.377382 0.117303
Si Si6 0.398252 0.785079 0.309020
Si Si7 0.177374 0.884485 0.490321
Si Si8 0.257987 0.366845 0.685738
O O1 0.706619 0.532655 0.233331
O O2 0.413574 0.445011 0.116268
O O3 0.788040 0.473962 0.053208
O O4 0.432615 0.593829 0.111670
O O5 0.576590 0.535868 0.874410
O O6 0.369751 0.427243 0.765318
O O7 0.690626 0.387356 0.901941
O O8 0.795724 0.261946 0.503354
O O9 0.061181 0.316570 0.369755
O O10 0.970318 0.166757 0.381777
O O11 0.677484 0.347673 0.280546
O O12 0.048110 0.399207 0.205769
O O13 0.343597 0.297816 0.155195
O O14 0.094730 0.371567 0.009291
O O15 0.265419 0.816322 0.412104
O O16 0.340992 0.703941 0.254960
#
# Coordination Sequence:
#
# PCOD9313486 Si02
#       8
#     4   4   4   4   4   4   4   4
#     4  11  22  41  69 103 144 189 240 311 367 446
#     4  12  24  43  69 110 145 189 248 308 385 445
#     4  11  29  48  75 115 153 203 257 319 390 460
#     4  10  21  41  71  99 141 193 237 300 378 443
#     4  10  18  43  68  95 134 188 241 293 370 446
#     4   9  21  44  68  94 135 188 238 297 372 445
#     4  10  23  41  68 101 138 191 243 304 374 454
#     4  11  26  45  72 105 148 193 246 318 376 457
#
# _framework density 24.823772000000002
#
# number of rings (size 3 to 8) (size 9 to 14) (size 15 to 20)
#    0.000    1.500    5.000    0.000    7.000    5.000 
#    2.250    0.000    0.000    0.000    0.000    0.000 
#    0.000    0.000    0.000    0.000    0.000    0.000 
#
# Total GULP energy -178530.622959 kJ/mol
# GULP energy per Si atom -5579.081967 kJ/mol
# Density = 2.476727 g / cm^3
# Si number density = 24.823772 Si / 1000 Ang^3
#
#
#
# Elastic Constant Matrix: (Units=GPa)
#
#
# Indices 1 2 3 4 5 6 
#
# 1 87.2105 15.6436 4.0919 0.0000 0.0000 0.0000
# 2 15.6436 103.5283 -6.1234 0.0000 0.0000 0.0000
# 3 4.0919 -6.1234 27.5865 0.0000 0.0000 0.0000
# 4 0.0000 0.0000 0.0000 20.9714 0.0000 0.0000
# 5 0.0000 0.0000 0.0000 0.0000 31.3718 0.0000
# 6 0.0000 0.0000 0.0000 0.0000 0.0000 30.4506
#
#
#
# Elastic Compliance Matrix: (Units=1/GPa)
#
#
# Indices 1 2 3 4 5 6 
#
# 1 0.011916 -0.001930 -0.002196 0.000000 0.000000 0.000000
# 2 -0.001930 0.010100 0.002528 0.000000 0.000000 0.000000
# 3 -0.002196 0.002528 0.037137 0.000000 0.000000 0.000000
# 4 0.000000 0.000000 0.000000 0.047684 0.000000 0.000000
# 5 0.000000 0.000000 0.000000 0.000000 0.031876 0.000000
# 6 0.000000 0.000000 0.000000 0.000000 0.000000 0.032840
#
#
# Mechanical properties :
#
#
# Convention : Reuss Voigt Hill
#
# Bulk Modulus (GPa) = 17.87094 27.28328 22.57711
# Shear Modulus (GPa) = 25.85301 30.20630 28.02965
#
# Velocity S-wave (km/s) = 3.23067 3.49209 3.36392
# Velocity P-wave (km/s) = 4.59685 5.22248 4.91962
#
# Compressibility (1/GPa) = 0.05595675
#
# Stress axis : x y z
#
# Youngs Moduli (GPa) = 83.92205 99.00564 26.92761
#
# Poissons Ratio (x) = 0.19112 0.05913
# Poissons Ratio (y) = 0.16200 -0.06808
# Poissons Ratio (z) = 0.18429 -0.25032
#
# Static dielectric constant tensor:
#      x y z
#    x 2.070730 0.000000 0.000000 
#    y 0.000000 2.009210 0.000000 
#    z 0.000000 0.000000 2.080750 
# 
# From -- ./inp_files/5747.got.cif
#   From: 2010.05.17/outbox.cif.g08.bks.cpg/sg19_3_cif.got.tgz:5747.got - 2010.06.03 22:46:19.
