data_PCOD9313372
_publ_section_title
;
Structure prediction by ZEFSAII (Michael W. Deem and Ramdas Pophale) SiO2 
 PCOD9313372
Probable space group: P 21 21 21
;
_chemical_formula_sum "Si O2"
_cell_formula_units_Z 16
_cell_length_a 4.882845
_cell_length_b 23.738637
_cell_length_c 5.009179
_cell_angle_alpha 90.000000
_cell_angle_beta 90.000000
_cell_angle_gamma 90.000000
_cell_volume 580.624382
_symmetry_space_group_name_H-M "P 21 21 21"
_symmetry_group_IT_number 19
_symmetry_cell_setting 'orthorhombic'
loop_
_space_group_symop_operation_xyz
x,y,z
1/2-x,-y,1/2+z
1/2+x,1/2-y,-z
-x,1/2+y,1/2-z
loop_
_atom_site_type_symbol
_atom_site_label
_atom_site_fract_x
_atom_site_fract_y
_atom_site_fract_z
Si Si1 0.273029 0.372486 0.582473
Si Si2 0.341216 0.464466 0.218925
Si Si3 0.482456 0.284425 0.928009
Si Si4 0.249932 0.897871 0.560871
O O1 0.027908 0.384579 0.786562
O O2 0.204206 0.404526 0.309562
O O3 0.366491 0.308595 0.646182
O O4 0.539360 0.405313 0.689866
O O5 0.297883 0.506128 0.465213
O O6 0.650298 0.447815 0.132432
O O7 0.635848 0.338410 0.059382
O O8 0.718556 0.238061 0.916594
#
# Coordination Sequence:
#
# PCOD9313372 Si02
#       4
#     4   4   4   4
#     4  10  23  45  72 112 154 195 262 313 384 467
#     4  12  25  54  76 116 154 214 261 330 392 462
#     4  10  17  40  74 110 150 202 251 312 394 464
#     4  10  23  45  72 112 154 195 262 313 384 467
#
# _framework density 27.556542
#
# number of rings (size 3 to 8) (size 9 to 14) (size 15 to 20)
#    1.500    0.000    5.000    0.000    0.000    2.000 
#    9.000    2.500    0.000    0.000    0.000    0.000 
#    0.000    0.000    0.000    0.000    0.000    0.000 
#
# Total GULP energy -89274.502907 kJ/mol
# GULP energy per Si atom -5579.656432 kJ/mol
# Density = 2.749382 g / cm^3
# Si number density = 27.556542 Si / 1000 Ang^3
#
#
#
# Elastic Constant Matrix: (Units=GPa)
#
#
# Indices 1 2 3 4 5 6 
#
# 1 134.3318 16.1047 29.3389 0.0000 0.0000 0.0000
# 2 16.1047 70.4740 11.6954 0.0000 0.0000 0.0000
# 3 29.3389 11.6954 122.9444 0.0000 0.0000 0.0000
# 4 0.0000 0.0000 0.0000 27.8392 0.0000 0.0000
# 5 0.0000 0.0000 0.0000 0.0000 15.7608 0.0000
# 6 0.0000 0.0000 0.0000 0.0000 0.0000 53.9462
#
#
#
# Elastic Compliance Matrix: (Units=1/GPa)
#
#
# Indices 1 2 3 4 5 6 
#
# 1 0.008014 -0.001538 -0.001766 0.000000 0.000000 0.000000
# 2 -0.001538 0.014713 -0.001032 0.000000 0.000000 0.000000
# 3 -0.001766 -0.001032 0.008653 0.000000 0.000000 0.000000
# 4 0.000000 0.000000 0.000000 0.035921 0.000000 0.000000
# 5 0.000000 0.000000 0.000000 0.000000 0.063449 0.000000
# 6 0.000000 0.000000 0.000000 0.000000 0.000000 0.018537
#
#
# Mechanical properties :
#
#
# Convention : Reuss Voigt Hill
#
# Bulk Modulus (GPa) = 44.04044 49.11423 46.57733
# Shear Modulus (GPa) = 30.20611 37.54998 33.87804
#
# Velocity S-wave (km/s) = 3.31441 3.69542 3.51009
# Velocity P-wave (km/s) = 5.53747 6.00582 5.77640
#
# Compressibility (1/GPa) = 0.02270640
#
# Stress axis : x y z
#
# Youngs Moduli (GPa) = 124.77495 67.96930 115.56085
#
# Poissons Ratio (x) = 0.10456 0.20410
# Poissons Ratio (y) = 0.19195 0.11931
# Poissons Ratio (z) = 0.22038 0.07018
#
# Static dielectric constant tensor:
#      x y z
#    x 2.192760 0.000000 0.000000 
#    y 0.000000 2.296720 0.000000 
#    z 0.000000 0.000000 2.235760 
# 
# From -- ./inp_files/150.got.cif
#   From: 2010.05.17/outbox.cif.g08.bks.cpg/sg19_1_cif.got.tgz:150.got - 2010.06.03 22:46:19.
