data_PCOD9313714
_publ_section_title
;
Structure prediction by ZEFSAII (Michael W. Deem and Ramdas Pophale) SiO2 
 PCOD9313714
Probable space group: P 21 21 21
;
_chemical_formula_sum "Si O2"
_cell_formula_units_Z 28
_cell_length_a 12.804943
_cell_length_b 5.752563
_cell_length_c 15.873952
_cell_angle_alpha 90.000000
_cell_angle_beta 90.000000
_cell_angle_gamma 90.000000
_cell_volume 1169.295009
_symmetry_space_group_name_H-M "P 21 21 21"
_symmetry_group_IT_number 19
_symmetry_cell_setting 'orthorhombic'
loop_
_space_group_symop_operation_xyz
x,y,z
1/2-x,-y,1/2+z
1/2+x,1/2-y,-z
-x,1/2+y,1/2-z
loop_
_atom_site_type_symbol
_atom_site_label
_atom_site_fract_x
_atom_site_fract_y
_atom_site_fract_z
Si Si1 0.346734 0.276931 0.744489
Si Si2 0.150405 0.133230 0.479549
Si Si3 0.036002 0.319874 0.630978
Si Si4 0.636472 0.456255 0.221414
Si Si5 0.421174 0.374385 0.913629
Si Si6 0.353486 0.005086 0.567928
Si Si7 0.278525 0.342727 0.154181
O O1 0.434418 0.320987 0.813485
O O2 0.303433 0.516145 0.708836
O O3 0.245216 0.173594 0.793531
O O4 0.366609 0.126965 0.660329
O O5 0.064045 0.147862 0.555525
O O6 0.134650 0.370414 0.424154
O O7 0.127385 0.873005 0.444128
O O8 0.269345 0.150884 0.514670
O O9 0.128118 0.505083 0.619209
O O10 0.924372 0.438443 0.642663
O O11 0.061007 0.207315 0.722725
O O12 0.668936 0.656794 0.285454
O O13 0.531581 0.429502 0.958384
O O14 0.287031 0.773552 0.581638
#
# Coordination Sequence:
#
# PCOD9313714 Si02
#       7
#     4   4   4   4   4   4   4
#     4  10  25  46  77 108 143 195 267 319 356 449
#     4  12  28  51  72 111 164 196 246 308 404 454
#     4  11  20  38  68 105 148 197 238 301 375 461
#     4  10  20  36  70 107 138 185 256 306 363 424
#     4  12  32  49  78 114 150 201 257 313 382 459
#     4  11  26  50  81 103 151 207 249 315 382 446
#     4  10  19  40  72 104 140 187 253 310 360 423
#
# _framework density 23.946051000000001
#
# number of rings (size 3 to 8) (size 9 to 14) (size 15 to 20)
#    0.000    1.143    5.714    0.857    8.000    1.143 
#    2.571    0.000    0.000    0.000    0.000    0.000 
#    0.000    0.000    0.000    0.000    0.000    0.000 
#
# Total GULP energy -156253.538471 kJ/mol
# GULP energy per Si atom -5580.483517 kJ/mol
# Density = 2.389155 g / cm^3
# Si number density = 23.946051 Si / 1000 Ang^3
#
#
#
# Elastic Constant Matrix: (Units=GPa)
#
#
# Indices 1 2 3 4 5 6 
#
# 1 316.3454 64.1638 26.5413 0.0000 0.0000 0.0000
# 2 64.1638 125.8239 27.9367 0.0000 0.0000 0.0000
# 3 26.5413 27.9367 64.9924 0.0000 0.0000 0.0000
# 4 0.0000 0.0000 0.0000 6.7677 0.0000 0.0000
# 5 0.0000 0.0000 0.0000 0.0000 35.5505 0.0000
# 6 0.0000 0.0000 0.0000 0.0000 0.0000 -44.2419
#
#
#
# Elastic Compliance Matrix: (Units=1/GPa)
#
#
# Indices 1 2 3 4 5 6 
#
# 1 0.003558 -0.001649 -0.000744 0.000000 0.000000 0.000000
# 2 -0.001649 0.009551 -0.003432 0.000000 0.000000 0.000000
# 3 -0.000744 -0.003432 0.017165 0.000000 0.000000 0.000000
# 4 0.000000 0.000000 0.000000 0.147761 0.000000 0.000000
# 5 0.000000 0.000000 0.000000 0.000000 0.028129 0.000000
# 6 0.000000 0.000000 0.000000 0.000000 0.000000 -0.022603
#
#
# Mechanical properties :
#
#
# Convention : Reuss Voigt Hill
#
# Bulk Modulus (GPa) = 53.69460 82.71616 68.20538
# Shear Modulus (GPa) = 24.82381 25.51659 25.17020
#
# Velocity S-wave (km/s) = 3.22321 3.26787 3.24562
# Velocity P-wave (km/s) = 6.02693 6.98973 6.52611
#
# Compressibility (1/GPa) = 0.01862385
#
# Stress axis : x y z
#
# Youngs Moduli (GPa) = 281.05383 104.70564 58.25664
#
# Poissons Ratio (x) = 0.17268 0.04335
# Poissons Ratio (y) = 0.46351 0.19992
# Poissons Ratio (z) = 0.20914 0.35933
#
# Static dielectric constant tensor:
#      x y z
#    x 1.926770 0.000000 0.000000 
#    y 0.000000 1.955130 0.000000 
#    z 0.000000 0.000000 1.997030 
# 
# From -- ./inp_files/7125.got.cif
#   From: 2010.05.17/outbox.cif.g08.bks.cpg/sg19_4_cif.got.tgz:7125.got - 2010.06.03 22:46:19.
