data_PCOD9313995
_publ_section_title
;
Structure prediction by ZEFSAII (Michael W. Deem and Ramdas Pophale) SiO2 
 PCOD9313995
Probable space group: P 21 21 21
;
_chemical_formula_sum "Si O2"
_cell_formula_units_Z 28
_cell_length_a 7.773576
_cell_length_b 19.270250
_cell_length_c 7.284377
_cell_angle_alpha 90.000000
_cell_angle_beta 90.000000
_cell_angle_gamma 90.000000
_cell_volume 1091.190590
_symmetry_space_group_name_H-M "P 21 21 21"
_symmetry_group_IT_number 19
_symmetry_cell_setting 'orthorhombic'
loop_
_space_group_symop_operation_xyz
x,y,z
1/2-x,-y,1/2+z
1/2+x,1/2-y,-z
-x,1/2+y,1/2-z
loop_
_atom_site_type_symbol
_atom_site_label
_atom_site_fract_x
_atom_site_fract_y
_atom_site_fract_z
Si Si1 0.872299 0.063447 0.873512
Si Si2 0.782869 0.565215 0.058967
Si Si3 0.730231 0.884322 0.730065
Si Si4 0.079694 0.397070 0.376198
Si Si5 0.397218 0.242045 0.668885
Si Si6 0.528609 0.319600 0.343450
Si Si7 0.561973 0.555324 0.370884
O O1 0.683826 0.063791 0.781747
O O2 0.941493 0.139043 0.818817
O O3 0.981168 0.005297 0.764502
O O4 0.636894 0.939125 0.593321
O O5 0.726424 0.582715 0.262944
O O6 0.607613 0.575207 0.939172
O O7 0.862823 0.488819 0.037918
O O8 0.919420 0.620009 0.987343
O O9 0.617272 0.815017 0.727340
O O10 0.793595 0.896904 0.942395
O O11 0.918764 0.885082 0.630124
O O12 0.037660 0.318337 0.308482
O O13 0.418530 0.263136 0.453403
O O14 0.210613 0.211434 0.709613
#
# Coordination Sequence:
#
# PCOD9313995 Si02
#       7
#     4   4   4   4   4   4   4
#     4  11  24  41  66  97 131 169 222 273 324 391
#     4   9  22  39  62  89 131 169 212 270 328 384
#     4  11  24  38  67  99 123 175 219 262 331 391
#     4  10  22  44  65  91 132 176 213 274 329 380
#     4  11  20  41  69  92 131 174 218 265 329 387
#     4  10  20  39  65  92 129 172 215 269 324 383
#     4  10  24  42  62  98 129 171 219 269 331 396
#
# _framework density 25.660043999999999
#
# number of rings (size 3 to 8) (size 9 to 14) (size 15 to 20)
#    0.000    1.714    2.857    0.000    6.000    2.286 
#    0.000    0.000    0.000    0.000    0.000    0.000 
#    0.000    0.000    0.000    0.000    0.000    0.000 
#
# Total GULP energy -156258.246238 kJ/mol
# GULP energy per Si atom -5580.651651 kJ/mol
# Density = 2.560164 g / cm^3
# Si number density = 25.660044 Si / 1000 Ang^3
#
#
#
# Elastic Constant Matrix: (Units=GPa)
#
#
# Indices 1 2 3 4 5 6 
#
# 1 119.0531 21.8476 26.9233 0.0000 0.0000 0.0000
# 2 21.8476 76.6738 39.2328 0.0000 0.0000 0.0000
# 3 26.9233 39.2328 83.7977 0.0000 0.0000 0.0000
# 4 0.0000 0.0000 0.0000 23.5377 0.0000 0.0000
# 5 0.0000 0.0000 0.0000 0.0000 26.6091 0.0000
# 6 0.0000 0.0000 0.0000 0.0000 0.0000 51.5990
#
#
#
# Elastic Compliance Matrix: (Units=1/GPa)
#
#
# Indices 1 2 3 4 5 6 
#
# 1 0.009180 -0.001455 -0.002268 0.000000 0.000000 0.000000
# 2 -0.001455 0.017382 -0.007670 0.000000 0.000000 0.000000
# 3 -0.002268 -0.007670 0.016253 0.000000 0.000000 0.000000
# 4 0.000000 0.000000 0.000000 0.042485 0.000000 0.000000
# 5 0.000000 0.000000 0.000000 0.000000 0.037581 0.000000
# 6 0.000000 0.000000 0.000000 0.000000 0.000000 0.019380
#
#
# Mechanical properties :
#
#
# Convention : Reuss Voigt Hill
#
# Bulk Modulus (GPa) = 49.93108 50.61467 50.27288
# Shear Modulus (GPa) = 29.11655 33.11722 31.11688
#
# Velocity S-wave (km/s) = 3.37219 3.59641 3.48610
# Velocity P-wave (km/s) = 5.88754 6.08387 5.98651
#
# Compressibility (1/GPa) = 0.02002761
#
# Stress axis : x y z
#
# Youngs Moduli (GPa) = 108.93776 57.53188 61.52593
#
# Poissons Ratio (x) = 0.08372 0.13954
# Poissons Ratio (y) = 0.15852 0.47192
# Poissons Ratio (z) = 0.24707 0.44129
#
# Static dielectric constant tensor:
#      x y z
#    x 2.034810 0.000000 0.000000 
#    y 0.000000 2.088210 0.000000 
#    z 0.000000 0.000000 2.092920 
# 
# From -- ./inp_files/4766.got.cif
#   From: 2010.05.17/outbox.cif.g08.bks.cpg/sg19_3_cif.got.tgz:4766.got - 2010.06.03 22:46:19.
