data_PCOD9313499
_publ_section_title
;
Structure prediction by ZEFSAII (Michael W. Deem and Ramdas Pophale) SiO2 
 PCOD9313499
Probable space group: P 21 21 21
;
_chemical_formula_sum "Si O2"
_cell_formula_units_Z 32
_cell_length_a 10.636282
_cell_length_b 5.489214
_cell_length_c 19.890738
_cell_angle_alpha 90.000000
_cell_angle_beta 90.000000
_cell_angle_gamma 90.000000
_cell_volume 1161.317318
_symmetry_space_group_name_H-M "P 21 21 21"
_symmetry_group_IT_number 19
_symmetry_cell_setting 'orthorhombic'
loop_
_space_group_symop_operation_xyz
x,y,z
1/2-x,-y,1/2+z
1/2+x,1/2-y,-z
-x,1/2+y,1/2-z
loop_
_atom_site_type_symbol
_atom_site_label
_atom_site_fract_x
_atom_site_fract_y
_atom_site_fract_z
Si Si1 0.091749 0.345282 0.021900
Si Si2 0.208832 0.549349 0.359922
Si Si3 0.090346 0.544210 0.208407
Si Si4 0.479774 0.139606 0.551387
Si Si5 0.666030 0.454568 0.781321
Si Si6 0.407543 0.680467 0.100054
Si Si7 0.323635 0.199334 0.054273
Si Si8 0.345425 0.059445 0.332686
O O1 0.059271 0.582114 0.065817
O O2 0.235119 0.349416 0.995735
O O3 0.125621 0.071707 0.049646
O O4 0.964783 0.311736 0.980261
O O5 0.158297 0.547472 0.282202
O O6 0.286687 0.298959 0.368060
O O7 0.084657 0.487551 0.403039
O O8 0.291010 0.802199 0.362275
O O9 0.127220 0.285492 0.179994
O O10 0.940908 0.545420 0.221211
O O11 0.135639 0.799402 0.180463
O O12 0.521826 0.172498 0.473031
O O13 0.798210 0.443840 0.744192
O O14 0.325761 0.435565 0.102626
O O15 0.509250 0.620089 0.157236
O O16 0.341797 0.944064 0.096814
#
# Coordination Sequence:
#
# PCOD9313499 Si02
#       8
#     4   4   4   4   4   4   4   4
#     4  10  21  36  52  70  94 129 172 217 263 304
#     4  10  19  31  48  71 100 134 169 206 253 308
#     4   8  14  25  42  65  94 127 159 195 245 303
#     4  10  21  32  46  68  96 130 171 210 246 293
#     4   8  14  25  42  65  94 127 159 195 245 303
#     4  10  21  32  46  68  96 130 171 210 246 293
#     4  10  21  36  52  70  94 129 172 217 263 304
#     4  10  19  31  48  71 100 134 169 206 253 308
#
# _framework density 27.554914
#
# number of rings (size 3 to 8) (size 9 to 14) (size 15 to 20)
#    0.000    2.500    0.000    2.250    0.000   12.000 
#    0.000    0.000    0.000    0.000    0.000    0.000 
#    0.000    4.000    0.000    0.250    0.000    0.000 
#
# Total GULP energy -178160.838005 kJ/mol
# GULP energy per Si atom -5567.526188 kJ/mol
# Density = 2.749220 g / cm^3
# Si number density = 27.554914 Si / 1000 Ang^3
#
#
#
# Elastic Constant Matrix: (Units=GPa)
#
#
# Indices 1 2 3 4 5 6 
#
# 1 138.8168 5.2782 -6.7135 0.0000 0.0000 0.0000
# 2 5.2782 273.2586 8.4519 0.0000 0.0000 0.0000
# 3 -6.7135 8.4519 45.0338 0.0000 0.0000 0.0000
# 4 0.0000 0.0000 0.0000 45.9076 0.0000 0.0000
# 5 0.0000 0.0000 0.0000 0.0000 26.3467 0.0000
# 6 0.0000 0.0000 0.0000 0.0000 0.0000 -171.7643
#
#
#
# Elastic Compliance Matrix: (Units=1/GPa)
#
#
# Indices 1 2 3 4 5 6 
#
# 1 0.007264 -0.000175 0.001116 0.000000 0.000000 0.000000
# 2 -0.000175 0.003685 -0.000718 0.000000 0.000000 0.000000
# 3 0.001116 -0.000718 0.022507 0.000000 0.000000 0.000000
# 4 0.000000 0.000000 0.000000 0.021783 0.000000 0.000000
# 5 0.000000 0.000000 0.000000 0.000000 0.037955 0.000000
# 6 0.000000 0.000000 0.000000 0.000000 0.000000 -0.005822
#
#
# Mechanical properties :
#
#
# Convention : Reuss Voigt Hill
#
# Bulk Modulus (GPa) = 29.49636 52.34917 40.92276
# Shear Modulus (GPa) = 50.90267 10.10418 30.50343
#
# Velocity S-wave (km/s) = 4.30271 1.91700 3.33078
# Velocity P-wave (km/s) = 5.95081 4.89277 5.44754
#
# Compressibility (1/GPa) = 0.03390249
#
# Stress axis : x y z
#
# Youngs Moduli (GPa) = 137.65865 271.36212 44.43150
#
# Poissons Ratio (x) = 0.04744 -0.04957
# Poissons Ratio (y) = 0.02407 0.03189
# Poissons Ratio (z) = -0.15359 0.19475
#
# Static dielectric constant tensor:
#      x y z
#    x 1.883490 0.000000 0.000000 
#    y 0.000000 2.287490 0.000000 
#    z 0.000000 0.000000 2.390300 
# 
# From -- ./inp_files/7597.got.cif
#   From: 2010.05.17/outbox.cif.g08.bks.cpg/sg19_4_cif.got.tgz:7597.got - 2010.06.03 22:46:19.
