data_PCOD9313168
_publ_section_title
;
Structure prediction by ZEFSAII (Michael W. Deem and Ramdas Pophale) SiO2 
 PCOD9313168
Probable space group: P 21 21 2
;
_chemical_formula_sum "Si O2"
_cell_formula_units_Z 32
_cell_length_a 18.214103
_cell_length_b 5.398394
_cell_length_c 14.659311
_cell_angle_alpha 90.000000
_cell_angle_beta 90.000000
_cell_angle_gamma 90.000000
_cell_volume 1441.404671
_symmetry_space_group_name_H-M "P 21 21 2"
_symmetry_group_IT_number 18
_symmetry_cell_setting 'orthorhombic'
loop_
_space_group_symop_operation_xyz
x,y,z
-x,-y,z
1/2+x,1/2-y,-z
1/2-x,1/2+y,-z
loop_
_atom_site_type_symbol
_atom_site_label
_atom_site_fract_x
_atom_site_fract_y
_atom_site_fract_z
Si Si1 0.715460 0.276160 0.136832
Si Si2 0.574578 0.666354 0.634398
Si Si3 0.547220 0.751074 0.110922
Si Si4 0.453858 0.245138 0.429711
Si Si5 0.663138 0.908712 0.992684
Si Si6 0.915857 0.533617 0.192803
Si Si7 0.309156 0.557200 0.735196
Si Si8 0.152453 0.825345 0.730361
O O1 0.755281 0.408704 0.051147
O O2 0.669691 0.423773 0.212463
O O3 0.782447 0.153351 0.194034
O O4 0.668695 0.077384 0.082224
O O5 0.500000 0.500000 0.648530
O O6 0.565715 0.789782 0.536249
O O7 0.586825 0.857854 0.717288
O O8 0.652333 0.522062 0.641054
O O9 0.500000 0.500000 0.117582
O O10 0.588627 0.792686 0.207042
O O11 0.500000 0.000000 0.088569
O O12 0.611293 0.696114 0.035691
O O13 0.500000 0.500000 0.423482
O O14 0.382616 0.304732 0.369006
O O15 0.500000 0.000000 0.400930
O O16 0.620260 0.988309 0.904179
O O17 0.875578 0.786015 0.221693
O O18 0.000000 0.500000 0.170593
O O19 0.233421 0.706250 0.726324
#
# Coordination Sequence:
#
# PCOD9313168 Si02
#       8
#     4   4   4   4   4   4   4   4
#     4  12  25  46  70 107 155 209 264 327 401 471
#     4  11  24  48  77 109 153 194 254 327 397 486
#     4  12  27  46  72 106 148 202 262 329 384 456
#     4  11  28  52  86 121 154 205 261 324 407 478
#     4  12  24  43  69 104 150 202 259 320 390 471
#     4  12  24  43  72 104 146 198 255 320 392 471
#     4  12  24  46  74 104 149 205 257 322 402 463
#     4  12  26  50  76 106 155 201 264 326 395 476
#
# _framework density 22.200562999999999
#
# number of rings (size 3 to 8) (size 9 to 14) (size 15 to 20)
#    0.000    0.250    5.000    3.750    3.500    2.500 
#    4.500    0.000    0.000    0.000    0.000    0.000 
#    0.000    0.000    0.000    0.000    0.000    0.000 
#
# Total GULP energy -178238.282921 kJ/mol
# GULP energy per Si atom -5569.946341 kJ/mol
# Density = 2.215003 g / cm^3
# Si number density = 22.200563 Si / 1000 Ang^3
#
#
#
# Elastic Constant Matrix: (Units=GPa)
#
#
# Indices 1 2 3 4 5 6 
#
# 1 118.9589 48.1065 25.9176 0.0000 0.0000 0.0000
# 2 48.1065 76.8231 44.6087 0.0000 0.0000 0.0000
# 3 25.9176 44.6087 77.1947 0.0000 0.0000 0.0000
# 4 0.0000 0.0000 0.0000 20.3031 0.0000 0.0000
# 5 0.0000 0.0000 0.0000 0.0000 50.6719 0.0000
# 6 0.0000 0.0000 0.0000 0.0000 0.0000 44.4248
#
#
#
# Elastic Compliance Matrix: (Units=1/GPa)
#
#
# Indices 1 2 3 4 5 6 
#
# 1 0.011267 -0.007312 0.000443 0.000000 0.000000 0.000000
# 2 -0.007312 0.024337 -0.011608 0.000000 0.000000 0.000000
# 3 0.000443 -0.011608 0.019514 0.000000 0.000000 0.000000
# 4 0.000000 0.000000 0.000000 0.049254 0.000000 0.000000
# 5 0.000000 0.000000 0.000000 0.000000 0.019735 0.000000
# 6 0.000000 0.000000 0.000000 0.000000 0.000000 0.022510
#
#
# Mechanical properties :
#
#
# Convention : Reuss Voigt Hill
#
# Bulk Modulus (GPa) = 55.06201 56.69358 55.87779
# Shear Modulus (GPa) = 26.36782 33.36954 29.86868
#
# Velocity S-wave (km/s) = 3.45005 3.88118 3.67195
# Velocity P-wave (km/s) = 6.38173 6.75849 6.57281
#
# Compressibility (1/GPa) = 0.01816134
#
# Stress axis : x y z
#
# Youngs Moduli (GPa) = 88.75548 41.09047 51.24613
#
# Poissons Ratio (x) = 0.30047 -0.02270
# Poissons Ratio (y) = 0.64902 0.59488
# Poissons Ratio (z) = -0.03931 0.47699
#
# Static dielectric constant tensor:
#      x y z
#    x 1.890530 0.000000 0.000000 
#    y 0.000000 2.007780 0.000000 
#    z 0.000000 0.000000 1.867040 
# 
# From -- ./inp_files/7021.got.cif
#   From: 2010.05.17/outbox.cif.g08.bks.cpg/sg18_4_cif.got.tgz:7021.got - 2010.06.03 22:40:56.
