data_PCOD9313473
_publ_section_title
;
Structure prediction by ZEFSAII (Michael W. Deem and Ramdas Pophale) SiO2 
 PCOD9313473
Probable space group: P 21 21 21
;
_chemical_formula_sum "Si O2"
_cell_formula_units_Z 32
_cell_length_a 7.951170
_cell_length_b 14.182778
_cell_length_c 13.516779
_cell_angle_alpha 90.000000
_cell_angle_beta 90.000000
_cell_angle_gamma 90.000000
_cell_volume 1524.282828
_symmetry_space_group_name_H-M "P 21 21 21"
_symmetry_group_IT_number 19
_symmetry_cell_setting 'orthorhombic'
loop_
_space_group_symop_operation_xyz
x,y,z
1/2-x,-y,1/2+z
1/2+x,1/2-y,-z
-x,1/2+y,1/2-z
loop_
_atom_site_type_symbol
_atom_site_label
_atom_site_fract_x
_atom_site_fract_y
_atom_site_fract_z
Si Si1 0.019409 0.209099 0.510069
Si Si2 0.569817 0.771275 0.380606
Si Si3 0.553634 0.660089 0.183481
Si Si4 0.892915 0.909913 0.074678
Si Si5 0.687057 0.667212 0.577569
Si Si6 0.293811 0.416641 0.606111
Si Si7 0.123964 0.395048 0.194733
Si Si8 0.735083 0.543769 0.021910
O O1 0.100332 0.303865 0.468080
O O2 0.139539 0.120218 0.524731
O O3 0.946012 0.245800 0.614096
O O4 0.898371 0.175276 0.421991
O O5 0.585503 0.691397 0.294989
O O6 0.625480 0.732771 0.487555
O O7 0.374120 0.804007 0.385252
O O8 0.704486 0.851672 0.350266
O O9 0.370850 0.611779 0.168121
O O10 0.680731 0.588958 0.128187
O O11 0.858900 0.903033 0.188427
O O12 0.758265 0.957420 0.002165
O O13 0.070109 0.956069 0.046710
O O14 0.539303 0.664001 0.659952
O O15 0.700717 0.560898 0.535890
O O16 0.396108 0.497713 0.658480
#
# Coordination Sequence:
#
# PCOD9313473 Si02
#       8
#     4   4   4   4   4   4   4   4
#     4  10  18  38  66  98 132 167 219 291 340 397
#     4  12  26  49  68  96 141 189 232 280 347 420
#     4  10  22  41  70  97 128 175 227 286 350 405
#     4  10  22  40  67  99 134 175 223 285 350 405
#     4  12  27  46  69  95 144 187 229 280 346 422
#     4  10  21  41  64  99 135 169 225 295 339 397
#     4  12  25  46  69 102 134 188 229 279 345 421
#     4  10  21  43  65 102 134 168 228 292 337 405
#
# _framework density 20.993479000000001
#
# number of rings (size 3 to 8) (size 9 to 14) (size 15 to 20)
#    0.000    1.500    2.500    6.000    3.500    2.000 
#    6.750    0.000    0.000    0.000    0.000    0.000 
#    0.000    0.000    0.000    0.000    0.000    0.000 
#
# Total GULP energy -178626.697773 kJ/mol
# GULP energy per Si atom -5582.084305 kJ/mol
# Density = 2.094570 g / cm^3
# Si number density = 20.993479 Si / 1000 Ang^3
#
#
#
# Elastic Constant Matrix: (Units=GPa)
#
#
# Indices 1 2 3 4 5 6 
#
# 1 72.3044 -2.5703 -1.9172 0.0000 0.0000 0.0000
# 2 -2.5703 31.8979 7.1270 0.0000 0.0000 0.0000
# 3 -1.9172 7.1270 85.1976 0.0000 0.0000 0.0000
# 4 0.0000 0.0000 0.0000 18.0665 0.0000 0.0000
# 5 0.0000 0.0000 0.0000 0.0000 7.4146 0.0000
# 6 0.0000 0.0000 0.0000 0.0000 0.0000 30.8527
#
#
#
# Elastic Compliance Matrix: (Units=1/GPa)
#
#
# Indices 1 2 3 4 5 6 
#
# 1 0.013874 0.001068 0.000223 0.000000 0.000000 0.000000
# 2 0.001068 0.032029 -0.002655 0.000000 0.000000 0.000000
# 3 0.000223 -0.002655 0.011965 0.000000 0.000000 0.000000
# 4 0.000000 0.000000 0.000000 0.055351 0.000000 0.000000
# 5 0.000000 0.000000 0.000000 0.000000 0.134869 0.000000
# 6 0.000000 0.000000 0.000000 0.000000 0.000000 0.032412
#
#
# Mechanical properties :
#
#
# Convention : Reuss Voigt Hill
#
# Bulk Modulus (GPa) = 18.13574 21.63098 19.88336
# Shear Modulus (GPa) = 16.57778 23.71745 20.14762
#
# Velocity S-wave (km/s) = 2.81314 3.36483 3.10128
# Velocity P-wave (km/s) = 4.38283 5.04203 4.72395
#
# Compressibility (1/GPa) = 0.05513973
#
# Stress axis : x y z
#
# Youngs Moduli (GPa) = 72.07568 31.22129 83.58014
#
# Poissons Ratio (x) = -0.03335 -0.01863
# Poissons Ratio (y) = -0.07699 0.22193
# Poissons Ratio (z) = -0.01606 0.08290
#
# Static dielectric constant tensor:
#      x y z
#    x 1.879780 0.000000 0.000000 
#    y 0.000000 1.731290 0.000000 
#    z 0.000000 0.000000 1.749050 
# 
# From -- ./inp_files/4722.got.cif
#   From: 2010.05.17/outbox.cif.g08.bks.cpg/sg19_3_cif.got.tgz:4722.got - 2010.06.03 22:46:19.
