data_PCOD9313109
_publ_section_title
;
Structure prediction by ZEFSAII (Michael W. Deem and Ramdas Pophale) SiO2 
 PCOD9313109
Probable space group: P 21 21 2
;
_chemical_formula_sum "Si O2"
_cell_formula_units_Z 32
_cell_length_a 10.981642
_cell_length_b 11.400674
_cell_length_c 11.064971
_cell_angle_alpha 90.000000
_cell_angle_beta 90.000000
_cell_angle_gamma 90.000000
_cell_volume 1385.313572
_symmetry_space_group_name_H-M "P 21 21 2"
_symmetry_group_IT_number 18
_symmetry_cell_setting 'orthorhombic'
loop_
_space_group_symop_operation_xyz
x,y,z
-x,-y,z
1/2+x,1/2-y,-z
1/2-x,1/2+y,-z
loop_
_atom_site_type_symbol
_atom_site_label
_atom_site_fract_x
_atom_site_fract_y
_atom_site_fract_z
Si Si1 0.054518 0.684318 0.975326
Si Si2 0.673104 0.921229 0.806428
Si Si3 0.322534 0.019980 0.532712
Si Si4 0.376051 0.452049 0.052840
Si Si5 0.526283 0.188102 0.448606
Si Si6 0.592174 0.399779 0.601099
Si Si7 0.260770 0.556454 0.822781
Si Si8 0.346093 0.804525 0.204885
O O1 0.103919 0.817110 0.980785
O O2 0.143749 0.617120 0.882167
O O3 0.920172 0.684783 0.919846
O O4 0.066738 0.617714 0.102467
O O5 0.642991 0.957468 0.671227
O O6 0.754477 0.803073 0.799385
O O7 0.759177 0.020641 0.865314
O O8 0.408102 0.107122 0.455606
O O9 0.184673 0.050958 0.500672
O O10 0.360424 0.889752 0.496141
O O11 0.500000 0.500000 0.112483
O O12 0.352537 0.527979 0.932120
O O13 0.518122 0.295676 0.539691
O O14 0.558426 0.220518 0.312075
O O15 0.500000 0.500000 0.641025
O O16 0.673735 0.370723 0.717933
O O17 0.218782 0.429292 0.772543
#
# Coordination Sequence:
#
# PCOD9313109 Si02
#       8
#     4   4   4   4   4   4   4   4
#     4  11  25  43  72 100 136 186 232 289 361 426
#     4  11  25  44  68 101 142 180 225 304 342 427
#     4  11  26  49  69 106 146 183 243 297 357 422
#     4  11  23  43  65 102 137 177 230 281 358 417
#     4  11  27  47  74 103 142 197 235 303 357 423
#     4  12  27  44  76 106 140 191 243 293 360 427
#     4  11  25  44  68 101 140 183 235 292 343 436
#     4  12  22  46  73  97 144 184 231 289 354 428
#
# _framework density 23.099463
#
# number of rings (size 3 to 8) (size 9 to 14) (size 15 to 20)
#    0.000    0.750    5.000    1.500    7.000    2.500 
#    9.000    0.000    0.000    0.000    0.000    0.000 
#    0.000    0.000    0.000    0.000    0.000    0.000 
#
# Total GULP energy -179243.824067 kJ/mol
# GULP energy per Si atom -5601.369502 kJ/mol
# Density = 2.304689 g / cm^3
# Si number density = 23.099463 Si / 1000 Ang^3
#
#
#
# Elastic Constant Matrix: (Units=GPa)
#
#
# Indices 1 2 3 4 5 6 
#
# 1 33.2425 -6.5340 3.4378 0.0000 0.0000 0.0000
# 2 -6.5340 59.7641 -14.1344 0.0000 0.0000 0.0000
# 3 3.4378 -14.1344 102.4096 0.0000 0.0000 0.0000
# 4 0.0000 0.0000 0.0000 21.2393 0.0000 0.0000
# 5 0.0000 0.0000 0.0000 0.0000 24.6212 0.0000
# 6 0.0000 0.0000 0.0000 0.0000 0.0000 27.2017
#
#
#
# Elastic Compliance Matrix: (Units=1/GPa)
#
#
# Indices 1 2 3 4 5 6 
#
# 1 0.030777 0.003226 -0.000588 0.000000 0.000000 0.000000
# 2 0.003226 0.017635 0.002326 0.000000 0.000000 0.000000
# 3 -0.000588 0.002326 0.010105 0.000000 0.000000 0.000000
# 4 0.000000 0.000000 0.000000 0.047083 0.000000 0.000000
# 5 0.000000 0.000000 0.000000 0.000000 0.040615 0.000000
# 6 0.000000 0.000000 0.000000 0.000000 0.000000 0.036762
#
#
# Mechanical properties :
#
#
# Convention : Reuss Voigt Hill
#
# Bulk Modulus (GPa) = 14.61037 17.88388 16.24712
# Shear Modulus (GPa) = 25.52771 28.78889 27.15830
#
# Velocity S-wave (km/s) = 3.32794 3.53413 3.43258
# Velocity P-wave (km/s) = 4.59409 4.94089 4.77064
#
# Compressibility (1/GPa) = 0.06844453
#
# Stress axis : x y z
#
# Youngs Moduli (GPa) = 32.49195 56.70492 98.95666
#
# Poissons Ratio (x) = -0.18292 0.05818
# Poissons Ratio (y) = -0.10481 -0.23014
# Poissons Ratio (z) = 0.01910 -0.13188
#
# Static dielectric constant tensor:
#      x y z
#    x 1.869200 0.000000 0.000000 
#    y 0.000000 1.838440 0.000000 
#    z 0.000000 0.000000 1.874930 
# 
# From -- ./inp_files/5970.got.cif
#   From: 2010.05.17/outbox.cif.g08.bks.cpg/sg18_3_cif.got.tgz:5970.got - 2010.06.03 22:40:56.
