data_PCOD9313711
_publ_section_title
;
Structure prediction by ZEFSAII (Michael W. Deem and Ramdas Pophale) SiO2 
 PCOD9313711
Probable space group: P 21 21 21
;
_chemical_formula_sum "Si O2"
_cell_formula_units_Z 28
_cell_length_a 16.909961
_cell_length_b 10.592501
_cell_length_c 8.653668
_cell_angle_alpha 90.000000
_cell_angle_beta 90.000000
_cell_angle_gamma 90.000000
_cell_volume 1550.034444
_symmetry_space_group_name_H-M "P 21 21 21"
_symmetry_group_IT_number 19
_symmetry_cell_setting 'orthorhombic'
loop_
_space_group_symop_operation_xyz
x,y,z
1/2-x,-y,1/2+z
1/2+x,1/2-y,-z
-x,1/2+y,1/2-z
loop_
_atom_site_type_symbol
_atom_site_label
_atom_site_fract_x
_atom_site_fract_y
_atom_site_fract_z
Si Si1 0.865372 0.460999 0.417796
Si Si2 0.377495 0.638739 0.250002
Si Si3 0.134629 0.960999 0.417798
Si Si4 0.779890 0.713206 0.999099
Si Si5 0.279891 0.786794 0.499103
Si Si6 0.816560 0.145899 0.749998
Si Si7 0.065373 0.877912 0.750001
O O1 0.907949 0.444485 0.249998
O O2 0.792946 0.361286 0.419828
O O3 0.827116 0.599967 0.419163
O O4 0.908127 0.442849 0.585862
O O5 0.341240 0.714704 0.107291
O O6 0.341241 0.714703 0.392713
O O7 0.345469 0.496223 0.250001
O O8 0.471751 0.636587 0.250000
O O9 0.207055 0.861286 0.419829
O O10 0.091874 0.942849 0.585865
O O11 0.172884 0.099968 0.419165
O O12 0.737760 0.815583 0.106227
O O13 0.237760 0.684418 0.606231
O O14 0.890126 0.243231 0.749998
#
# Coordination Sequence:
#
# PCOD9313711 Si02
#       7
#     4   4   4   4   4   4   4
#     4  10  19  40  67  92 119 160 218 260 291 367
#     4  12  23  38  63  89 138 162 195 265 328 357
#     4  10  19  40  67  92 119 160 218 260 291 367
#     4  10  20  37  65  92 116 162 219 251 300 368
#     4  10  20  37  65  92 116 162 219 251 300 368
#     4  10  22  40  58  93 126 164 211 257 302 378
#     4  10  25  38  63  96 126 164 206 254 324 369
#
# _framework density 18.064114
#
# number of rings (size 3 to 8) (size 9 to 14) (size 15 to 20)
#    0.000    1.714    2.857    1.714    8.000    0.000 
#    2.571    0.000    0.000    0.000    0.000    0.000 
#    0.000    0.000    0.000    0.000    0.000    0.000 
#
# Total GULP energy -155916.715951 kJ/mol
# GULP energy per Si atom -5568.454141 kJ/mol
# Density = 1.802300 g / cm^3
# Si number density = 18.064114 Si / 1000 Ang^3
#
#
#
# Elastic Constant Matrix: (Units=GPa)
#
#
# Indices 1 2 3 4 5 6 
#
# 1 128.3563 37.7710 73.0132 0.0000 0.0000 0.0000
# 2 37.7710 65.2043 44.8598 0.0000 0.0000 0.0000
# 3 73.0132 44.8598 160.2622 0.0000 0.0000 0.0000
# 4 0.0000 0.0000 0.0000 26.9154 0.0000 0.0000
# 5 0.0000 0.0000 0.0000 0.0000 19.3468 0.0000
# 6 0.0000 0.0000 0.0000 0.0000 0.0000 -28.6837
#
#
#
# Elastic Compliance Matrix: (Units=1/GPa)
#
#
# Indices 1 2 3 4 5 6 
#
# 1 0.011187 -0.003683 -0.004066 0.000000 0.000000 0.000000
# 2 -0.003683 0.020207 -0.003978 0.000000 0.000000 0.000000
# 3 -0.004066 -0.003978 0.009206 0.000000 0.000000 0.000000
# 4 0.000000 0.000000 0.000000 0.037153 0.000000 0.000000
# 5 0.000000 0.000000 0.000000 0.000000 0.051688 0.000000
# 6 0.000000 0.000000 0.000000 0.000000 0.000000 -0.034863
#
#
# Mechanical properties :
#
#
# Convention : Reuss Voigt Hill
#
# Bulk Modulus (GPa) = 58.32451 73.90121 66.11286
# Shear Modulus (GPa) = 40.40446 16.72760 28.56603
#
# Velocity S-wave (km/s) = 4.73453 3.04635 3.98096
# Velocity P-wave (km/s) = 7.88957 7.30568 7.60323
#
# Compressibility (1/GPa) = 0.01714545
#
# Stress axis : x y z
#
# Youngs Moduli (GPa) = 89.38564 49.48785 108.62878
#
# Poissons Ratio (x) = 0.18228 0.44167
# Poissons Ratio (y) = 0.32924 0.43214
# Poissons Ratio (z) = 0.36343 0.19687
#
# Static dielectric constant tensor:
#      x y z
#    x 1.576370 0.000000 0.000000 
#    y 0.000000 1.580080 0.000000 
#    z 0.000000 0.000000 1.718120 
# 
# From -- ./inp_files/2980.got.cif
#   From: 2010.05.17/outbox.cif.g08.bks.cpg/sg19_2_cif.got.tgz:2980.got - 2010.06.03 22:46:19.
