data_PCOD9313053
_publ_section_title
;
Structure prediction by ZEFSAII (Michael W. Deem and Ramdas Pophale) SiO2 
 PCOD9313053
Probable space group: P 21 21 2
;
_chemical_formula_sum "Si O2"
_cell_formula_units_Z 20
_cell_length_a 13.335099
_cell_length_b 6.822141
_cell_length_c 9.176261
_cell_angle_alpha 90.000000
_cell_angle_beta 90.000000
_cell_angle_gamma 90.000000
_cell_volume 834.800486
_symmetry_space_group_name_H-M "P 21 21 2"
_symmetry_group_IT_number 18
_symmetry_cell_setting 'orthorhombic'
loop_
_space_group_symop_operation_xyz
x,y,z
-x,-y,z
1/2+x,1/2-y,-z
1/2-x,1/2+y,-z
loop_
_atom_site_type_symbol
_atom_site_label
_atom_site_fract_x
_atom_site_fract_y
_atom_site_fract_z
Si Si1 0.901300 0.137843 0.402110
Si Si2 0.800050 0.384127 0.651165
Si Si3 0.186466 0.910098 0.890991
Si Si4 0.972272 0.230262 0.094966
Si Si5 0.859793 0.646358 0.896548
O O1 0.866780 0.292770 0.523438
O O2 0.923582 0.259661 0.252499
O O3 0.802844 0.998348 0.385702
O O4 0.000000 0.000000 0.433358
O O5 0.769091 0.200849 0.753869
O O6 0.869133 0.528977 0.747708
O O7 0.148676 0.125167 0.853353
O O8 0.100206 0.771484 0.955899
O O9 0.257601 0.929177 0.030376
O O10 0.000000 0.000000 0.107080
O O11 0.066796 0.349798 0.036505
#
# Coordination Sequence:
#
# PCOD9313053 Si02
#       5
#     4   4   4   4   4
#     4  11  26  53  80 116 169 218 272 344 413 497
#     4  12  27  48  81 116 163 220 269 336 419 490
#     4  11  21  43  74 107 153 197 267 335 393 483
#     4   9  20  43  77 106 149 199 258 334 401 467
#     4  11  22  43  78 114 154 210 271 334 409 481
#
# _framework density 23.957822
#
# number of rings (size 3 to 8) (size 9 to 14) (size 15 to 20)
#    0.000    1.200    4.000    2.400    2.800    3.200 
#    3.600    0.000   17.600    0.000    0.000    0.000 
#    0.000    0.000    0.000    0.000    0.000    0.000 
#
# Total GULP energy -111746.852422 kJ/mol
# GULP energy per Si atom -5587.342621 kJ/mol
# Density = 2.390329 g / cm^3
# Si number density = 23.957822 Si / 1000 Ang^3
#
#
#
# Elastic Constant Matrix: (Units=GPa)
#
#
# Indices 1 2 3 4 5 6 
#
# 1 101.6650 39.7811 69.5902 0.0000 0.0000 0.0000
# 2 39.7811 112.4643 95.7500 0.0000 0.0000 0.0000
# 3 69.5902 95.7500 171.7763 0.0000 0.0000 0.0000
# 4 0.0000 0.0000 0.0000 25.8418 0.0000 0.0000
# 5 0.0000 0.0000 0.0000 0.0000 39.3206 0.0000
# 6 0.0000 0.0000 0.0000 0.0000 0.0000 35.7168
#
#
#
# Elastic Compliance Matrix: (Units=1/GPa)
#
#
# Indices 1 2 3 4 5 6 
#
# 1 0.013614 -0.000228 -0.005388 0.000000 0.000000 0.000000
# 2 -0.000228 0.016927 -0.009343 0.000000 0.000000 0.000000
# 3 -0.005388 -0.009343 0.013212 0.000000 0.000000 0.000000
# 4 0.000000 0.000000 0.000000 0.038697 0.000000 0.000000
# 5 0.000000 0.000000 0.000000 0.000000 0.025432 0.000000
# 6 0.000000 0.000000 0.000000 0.000000 0.000000 0.027998
#
#
# Mechanical properties :
#
#
# Convention : Reuss Voigt Hill
#
# Bulk Modulus (GPa) = 72.28260 88.46089 80.37174
# Shear Modulus (GPa) = 29.34134 32.22814 30.78474
#
# Velocity S-wave (km/s) = 3.50338 3.67168 3.58852
# Velocity P-wave (km/s) = 6.82650 7.41476 7.12671
#
# Compressibility (1/GPa) = 0.01383459
#
# Stress axis : x y z
#
# Youngs Moduli (GPa) = 73.45589 59.07887 75.68910
#
# Poissons Ratio (x) = 0.01348 0.40781
# Poissons Ratio (y) = 0.01677 0.70713
# Poissons Ratio (z) = 0.39578 0.55195
#
# Static dielectric constant tensor:
#      x y z
#    x 2.547220 0.000000 0.000000 
#    y 0.000000 1.982490 0.000000 
#    z 0.000000 0.000000 1.920370 
# 
# From -- ./inp_files/4085.got.cif
#   From: 2010.05.17/outbox.cif.g08.bks.cpg/sg18_3_cif.got.tgz:4085.got - 2010.06.03 22:40:56.
