data_PCOD9313879
_publ_section_title
;
Structure prediction by ZEFSAII (Michael W. Deem and Ramdas Pophale) SiO2 
 PCOD9313879
Probable space group: P 21 21 21
;
_chemical_formula_sum "Si O2"
_cell_formula_units_Z 20
_cell_length_a 15.914651
_cell_length_b 9.873968
_cell_length_c 4.930363
_cell_angle_alpha 90.000000
_cell_angle_beta 90.000000
_cell_angle_gamma 90.000000
_cell_volume 774.760963
_symmetry_space_group_name_H-M "P 21 21 21"
_symmetry_group_IT_number 19
_symmetry_cell_setting 'orthorhombic'
loop_
_space_group_symop_operation_xyz
x,y,z
1/2-x,-y,1/2+z
1/2+x,1/2-y,-z
-x,1/2+y,1/2-z
loop_
_atom_site_type_symbol
_atom_site_label
_atom_site_fract_x
_atom_site_fract_y
_atom_site_fract_z
Si Si1 0.472479 0.268981 0.626133
Si Si2 0.606276 0.005389 0.112358
Si Si3 0.279465 0.926437 0.669572
Si Si4 0.153489 0.323545 0.413630
Si Si5 0.042193 0.024155 0.975256
O O1 0.400837 0.347133 0.458176
O O2 0.569110 0.264027 0.510020
O O3 0.451103 0.113083 0.649903
O O4 0.484306 0.360367 0.891610
O O5 0.665273 0.068794 0.345245
O O6 0.509550 0.024915 0.214828
O O7 0.627432 0.089464 0.846885
O O8 0.275656 0.780918 0.818080
O O9 0.217096 0.972222 0.429273
O O10 0.364537 0.921146 0.490679
#
# Coordination Sequence:
#
# PCOD9313879 Si02
#       5
#     4   4   4   4   4
#     4  10  20  37  60  99 127 157 201 271 336 376
#     4  11  20  36  60  97 126 161 193 280 332 378
#     4  11  25  43  64  91 128 181 222 261 301 398
#     4  10  23  36  61  92 130 163 213 258 327 371
#     4  10  24  36  67  97 131 160 217 264 338 377
#
# _framework density 25.814416999999999
#
# number of rings (size 3 to 8) (size 9 to 14) (size 15 to 20)
#    0.000    1.600    4.000    1.200   16.800    0.000 
#    0.000    0.000    0.000    4.800    0.000    0.000 
#    0.000    0.000    0.000    0.000    0.000    0.000 
#
# Total GULP energy -111539.375230 kJ/mol
# GULP energy per Si atom -5576.968762 kJ/mol
# Density = 2.575566 g / cm^3
# Si number density = 25.814417 Si / 1000 Ang^3
#
#
#
# Elastic Constant Matrix: (Units=GPa)
#
#
# Indices 1 2 3 4 5 6 
#
# 1 54.5361 6.3908 10.9882 0.0000 0.0000 0.0000
# 2 6.3908 63.2626 16.0734 0.0000 0.0000 0.0000
# 3 10.9882 16.0734 120.3064 0.0000 0.0000 0.0000
# 4 0.0000 0.0000 0.0000 19.1700 0.0000 0.0000
# 5 0.0000 0.0000 0.0000 0.0000 31.7901 0.0000
# 6 0.0000 0.0000 0.0000 0.0000 0.0000 32.4022
#
#
#
# Elastic Compliance Matrix: (Units=1/GPa)
#
#
# Indices 1 2 3 4 5 6 
#
# 1 0.018820 -0.001516 -0.001516 0.000000 0.000000 0.000000
# 2 -0.001516 0.016485 -0.002064 0.000000 0.000000 0.000000
# 3 -0.001516 -0.002064 0.008726 0.000000 0.000000 0.000000
# 4 0.000000 0.000000 0.000000 0.052165 0.000000 0.000000
# 5 0.000000 0.000000 0.000000 0.000000 0.031456 0.000000
# 6 0.000000 0.000000 0.000000 0.000000 0.000000 0.030862
#
#
# Mechanical properties :
#
#
# Convention : Reuss Voigt Hill
#
# Bulk Modulus (GPa) = 29.55239 33.89000 31.72120
# Shear Modulus (GPa) = 27.77996 30.31597 29.04797
#
# Velocity S-wave (km/s) = 3.28402 3.43064 3.35813
# Velocity P-wave (km/s) = 5.08454 5.37115 5.22981
#
# Compressibility (1/GPa) = 0.03383821
#
# Stress axis : x y z
#
# Youngs Moduli (GPa) = 53.13599 60.66247 114.59527
#
# Poissons Ratio (x) = 0.09196 0.17377
# Poissons Ratio (y) = 0.08055 0.23652
# Poissons Ratio (z) = 0.08057 0.12520
#
# Static dielectric constant tensor:
#      x y z
#    x 2.100870 0.000000 0.000000 
#    y 0.000000 2.112250 0.000000 
#    z 0.000000 0.000000 2.092690 
# 
# From -- ./inp_files/1910.got.cif
#   From: 2010.05.17/outbox.cif.g08.bks.cpg/sg19_1_cif.got.tgz:1910.got - 2010.06.03 22:46:19.
