data_PCOD9313915
_publ_section_title
;
Structure prediction by ZEFSAII (Michael W. Deem and Ramdas Pophale) SiO2 
 PCOD9313915
Probable space group: P 21 21 21
;
_chemical_formula_sum "Si O2"
_cell_formula_units_Z 24
_cell_length_a 9.971540
_cell_length_b 10.863585
_cell_length_c 8.795431
_cell_angle_alpha 90.000000
_cell_angle_beta 90.000000
_cell_angle_gamma 90.000000
_cell_volume 952.779772
_symmetry_space_group_name_H-M "P 21 21 21"
_symmetry_group_IT_number 19
_symmetry_cell_setting 'orthorhombic'
loop_
_space_group_symop_operation_xyz
x,y,z
1/2-x,-y,1/2+z
1/2+x,1/2-y,-z
-x,1/2+y,1/2-z
loop_
_atom_site_type_symbol
_atom_site_label
_atom_site_fract_x
_atom_site_fract_y
_atom_site_fract_z
Si Si1 0.791061 0.276111 0.849035
Si Si2 0.497840 0.757644 0.588250
Si Si3 0.824629 0.454694 0.314443
Si Si4 0.592849 0.946569 0.806784
Si Si5 0.400709 0.975482 0.374763
Si Si6 0.135666 0.545203 0.834998
O O1 0.654029 0.209483 0.904836
O O2 0.737426 0.406672 0.791068
O O3 0.855666 0.185355 0.727701
O O4 0.891295 0.305641 0.985640
O O5 0.549192 0.810026 0.749298
O O6 0.478802 0.884644 0.490459
O O7 0.836268 0.435903 0.494987
O O8 0.706006 0.391870 0.219659
O O9 0.970298 0.460777 0.237582
O O10 0.725917 0.981219 0.713841
O O11 0.614134 0.948948 0.986089
O O12 0.513784 0.019424 0.257024
#
# Coordination Sequence:
#
# PCOD9313915 Si02
#       6
#     4   4   4   4   4   4
#     4   9  20  36  56  81 112 140 181 226 278 321
#     4   9  20  39  55  81 110 146 183 225 274 328
#     4  10  20  38  57  83 112 146 182 226 273 327
#     4  10  21  36  57  79 111 144 187 225 270 331
#     4   9  19  34  57  80 108 142 182 215 269 328
#     4  11  20  37  58  82 109 146 185 229 270 325
#
# _framework density 25.189450000000001
#
# number of rings (size 3 to 8) (size 9 to 14) (size 15 to 20)
#    0.000    2.667    0.000    4.000    0.000    5.333 
#    0.000   23.333    0.000    0.000    0.000    0.000 
#    0.000    0.000    0.000    0.000    0.000    0.000 
#
# Total GULP energy -134071.410279 kJ/mol
# GULP energy per Si atom -5586.308762 kJ/mol
# Density = 2.513212 g / cm^3
# Si number density = 25.189450 Si / 1000 Ang^3
#
#
#
# Elastic Constant Matrix: (Units=GPa)
#
#
# Indices 1 2 3 4 5 6 
#
# 1 157.3603 -14.5375 92.4524 0.0000 0.0000 0.0000
# 2 -14.5375 43.5507 12.4352 0.0000 0.0000 0.0000
# 3 92.4524 12.4352 234.1839 0.0000 0.0000 0.0000
# 4 0.0000 0.0000 0.0000 32.3900 0.0000 0.0000
# 5 0.0000 0.0000 0.0000 0.0000 54.4890 0.0000
# 6 0.0000 0.0000 0.0000 0.0000 0.0000 34.3433
#
#
#
# Elastic Compliance Matrix: (Units=1/GPa)
#
#
# Indices 1 2 3 4 5 6 
#
# 1 0.008925 0.004047 -0.003738 0.000000 0.000000 0.000000
# 2 0.004047 0.025150 -0.002933 0.000000 0.000000 0.000000
# 3 -0.003738 -0.002933 0.005902 0.000000 0.000000 0.000000
# 4 0.000000 0.000000 0.000000 0.030874 0.000000 0.000000
# 5 0.000000 0.000000 0.000000 0.000000 0.018352 0.000000
# 6 0.000000 0.000000 0.000000 0.000000 0.000000 0.029118
#
#
# Mechanical properties :
#
#
# Convention : Reuss Voigt Hill
#
# Bulk Modulus (GPa) = 28.79571 68.42169 48.60870
# Shear Modulus (GPa) = 36.99705 47.22744 42.11224
#
# Velocity S-wave (km/s) = 3.83659 4.33470 4.09323
# Velocity P-wave (km/s) = 5.57515 7.23012 6.45589
#
# Compressibility (1/GPa) = 0.03472740
#
# Stress axis : x y z
#
# Youngs Moduli (GPa) = 112.04407 39.76134 169.44135
#
# Poissons Ratio (x) = -0.16090 0.63343
# Poissons Ratio (y) = -0.45341 0.49698
# Poissons Ratio (z) = 0.41886 0.11662
#
# Static dielectric constant tensor:
#      x y z
#    x 2.171160 0.000000 0.000000 
#    y 0.000000 2.284060 0.000000 
#    z 0.000000 0.000000 2.119900 
# 
# From -- ./inp_files/2835.got.cif
#   From: 2010.05.17/outbox.cif.g08.bks.cpg/sg19_2_cif.got.tgz:2835.got - 2010.06.03 22:46:19.
