data_PCOD9313072
_publ_section_title
;
Structure prediction by ZEFSAII (Michael W. Deem and Ramdas Pophale) SiO2 
 PCOD9313072
Probable space group: P 21 21 2
;
_chemical_formula_sum "Si O2"
_cell_formula_units_Z 24
_cell_length_a 8.585063
_cell_length_b 10.320278
_cell_length_c 14.003089
_cell_angle_alpha 90.000000
_cell_angle_beta 90.000000
_cell_angle_gamma 90.000000
_cell_volume 1240.677001
_symmetry_space_group_name_H-M "P 21 21 2"
_symmetry_group_IT_number 18
_symmetry_cell_setting 'orthorhombic'
loop_
_space_group_symop_operation_xyz
x,y,z
-x,-y,z
1/2+x,1/2-y,-z
1/2-x,1/2+y,-z
loop_
_atom_site_type_symbol
_atom_site_label
_atom_site_fract_x
_atom_site_fract_y
_atom_site_fract_z
Si Si1 0.687273 0.270403 0.717434
Si Si2 0.687274 0.500001 0.357217
Si Si3 0.813181 0.352155 0.923781
Si Si4 0.186816 0.352152 0.923781
Si Si5 0.187273 0.770400 0.282566
Si Si6 0.810762 0.000001 0.422628
O O1 0.750925 0.128959 0.693111
O O2 0.747943 0.318582 0.819396
O O3 0.500000 0.267904 0.719128
O O4 0.738542 0.372886 0.636112
O O5 0.500000 0.500000 0.355431
O O6 0.749078 0.371045 0.306889
O O7 0.741227 0.500002 0.467939
O O8 0.768048 0.500002 0.948707
O O9 0.999999 0.345240 0.921495
O O10 0.749997 0.250002 1.000000
O O11 0.252055 0.318578 0.819396
O O12 0.238541 0.872883 0.363888
O O13 0.000000 0.000000 0.423495
#
# Coordination Sequence:
#
# PCOD9313072 Si02
#       6
#     4   4   4   4   4   4
#     4  11  22  41  65  92 126 166 209 258 313 369
#     4  11  23  39  60  93 130 167 211 258 306 367
#     4  11  25  44  67  95 125 162 207 255 311 372
#     4  11  25  44  67  95 125 162 207 255 311 372
#     4  11  22  41  65  92 126 166 209 258 313 369
#     4   9  20  39  64  91 124 165 211 258 310 365
#
# _framework density 19.344277000000002
#
# number of rings (size 3 to 8) (size 9 to 14) (size 15 to 20)
#    0.000    1.333    1.667    3.500    2.333    2.000 
#    0.000    5.000    0.000    0.000    0.000    0.000 
#    0.000    0.000    0.000    0.000    0.000    0.000 
#
# Total GULP energy -134230.672312 kJ/mol
# GULP energy per Si atom -5592.944680 kJ/mol
# Density = 1.930025 g / cm^3
# Si number density = 19.344277 Si / 1000 Ang^3
#
#
#
# Elastic Constant Matrix: (Units=GPa)
#
#
# Indices 1 2 3 4 5 6 
#
# 1 63.8300 55.2725 36.3151 0.0000 0.0000 0.0000
# 2 55.2725 201.1779 67.9256 0.0000 0.0000 0.0000
# 3 36.3151 67.9256 99.2820 0.0000 0.0000 0.0000
# 4 0.0000 0.0000 0.0000 47.0787 0.0000 0.0000
# 5 0.0000 0.0000 0.0000 0.0000 31.6857 0.0000
# 6 0.0000 0.0000 0.0000 0.0000 0.0000 17.4754
#
#
#
# Elastic Compliance Matrix: (Units=1/GPa)
#
#
# Indices 1 2 3 4 5 6 
#
# 1 0.022440 -0.004413 -0.005189 0.000000 0.000000 0.000000
# 2 -0.004413 0.007332 -0.003402 0.000000 0.000000 0.000000
# 3 -0.005189 -0.003402 0.014298 0.000000 0.000000 0.000000
# 4 0.000000 0.000000 0.000000 0.021241 0.000000 0.000000
# 5 0.000000 0.000000 0.000000 0.000000 0.031560 0.000000
# 6 0.000000 0.000000 0.000000 0.000000 0.000000 0.057223
#
#
# Mechanical properties :
#
#
# Convention : Reuss Voigt Hill
#
# Bulk Modulus (GPa) = 55.36503 75.92405 65.64454
# Shear Modulus (GPa) = 26.86396 32.89975 29.88185
#
# Velocity S-wave (km/s) = 3.73061 4.12849 3.93458
# Velocity P-wave (km/s) = 6.87311 7.87781 7.39255
#
# Compressibility (1/GPa) = 0.01806194
#
# Stress axis : x y z
#
# Youngs Moduli (GPa) = 44.56255 136.38982 69.94135
#
# Poissons Ratio (x) = 0.60195 0.36290
# Poissons Ratio (y) = 0.19668 0.23794
# Poissons Ratio (z) = 0.23122 0.46399
#
# Static dielectric constant tensor:
#      x y z
#    x 1.652600 0.000000 0.000000 
#    y 0.000000 1.646370 0.000000 
#    z 0.000000 0.000000 1.639440 
# 
# From -- ./inp_files/6643.got.cif
#   From: 2010.05.17/outbox.cif.g08.bks.cpg/sg18_4_cif.got.tgz:6643.got - 2010.06.03 22:40:56.
