data_PCOD9313402
_publ_section_title
;
Structure prediction by ZEFSAII (Michael W. Deem and Ramdas Pophale) SiO2 
 PCOD9313402
Probable space group: P 21 21 21
;
_chemical_formula_sum "Si O2"
_cell_formula_units_Z 32
_cell_length_a 19.132382
_cell_length_b 8.079838
_cell_length_c 7.431168
_cell_angle_alpha 90.000000
_cell_angle_beta 90.000000
_cell_angle_gamma 90.000000
_cell_volume 1148.758602
_symmetry_space_group_name_H-M "P 21 21 21"
_symmetry_group_IT_number 19
_symmetry_cell_setting 'orthorhombic'
loop_
_space_group_symop_operation_xyz
x,y,z
1/2-x,-y,1/2+z
1/2+x,1/2-y,-z
-x,1/2+y,1/2-z
loop_
_atom_site_type_symbol
_atom_site_label
_atom_site_fract_x
_atom_site_fract_y
_atom_site_fract_z
Si Si1 0.089928 0.059697 0.327861
Si Si2 0.363748 0.921786 0.282963
Si Si3 0.465315 0.277289 0.853162
Si Si4 0.911991 0.257603 0.547952
Si Si5 0.264489 0.936036 0.625372
Si Si6 0.379194 0.585705 0.858244
Si Si7 0.394086 0.587261 0.413675
Si Si8 0.775846 0.124309 0.650685
O O1 0.167084 0.019645 0.249709
O O2 0.094714 0.236894 0.428606
O O3 0.037677 0.122928 0.168242
O O4 0.051890 0.905905 0.427774
O O5 0.303538 0.916752 0.438044
O O6 0.410420 0.760202 0.322376
O O7 0.410105 0.084032 0.326694
O O8 0.307130 0.956518 0.123780
O O9 0.446031 0.232094 0.645530
O O10 0.415311 0.419940 0.923583
O O11 0.828373 0.220040 0.516370
O O12 0.935653 0.081655 0.629935
O O13 0.237310 0.756356 0.692358
O O14 0.387757 0.590587 0.635210
O O15 0.299548 0.575993 0.910550
O O16 0.319249 0.542037 0.325267
#
# Coordination Sequence:
#
# PCOD9313402 Si02
#       8
#     4   4   4   4   4   4   4   4
#     4  11  20  31  46  71 103 138 168 216 257 308
#     4  11  18  34  51  73 109 139 167 216 264 312
#     4  11  19  29  47  67 101 139 168 208 264 308
#     4   8  18  30  44  70  95 126 176 201 251 310
#     4  10  21  34  50  77 113 132 177 214 260 318
#     4  10  18  32  45  69 106 125 169 211 252 309
#     4   9  17  28  48  66  97 136 159 203 256 303
#     4   8  17  30  45  69 100 129 162 213 248 308
#
# _framework density 27.856157
#
# number of rings (size 3 to 8) (size 9 to 14) (size 15 to 20)
#    0.750    1.500    5.000    0.000    1.750    0.000 
#    0.000    0.000    0.000    0.000    0.000    0.000 
#   41.250    0.000    0.000    0.000    0.000    0.000 
#
# Total GULP energy -178440.025960 kJ/mol
# GULP energy per Si atom -5576.250811 kJ/mol
# Density = 2.779276 g / cm^3
# Si number density = 27.856157 Si / 1000 Ang^3
#
#
#
# Elastic Constant Matrix: (Units=GPa)
#
#
# Indices 1 2 3 4 5 6 
#
# 1 47.7192 45.5522 6.4079 0.0000 0.0000 0.0000
# 2 45.5522 259.1693 4.9988 0.0000 0.0000 0.0000
# 3 6.4079 4.9988 113.8271 0.0000 0.0000 0.0000
# 4 0.0000 0.0000 0.0000 -1.4019 0.0000 0.0000
# 5 0.0000 0.0000 0.0000 0.0000 20.9229 0.0000
# 6 0.0000 0.0000 0.0000 0.0000 0.0000 48.7318
#
#
#
# Elastic Compliance Matrix: (Units=1/GPa)
#
#
# Indices 1 2 3 4 5 6 
#
# 1 0.025352 -0.004432 -0.001233 0.000000 0.000000 0.000000
# 2 -0.004432 0.004637 0.000046 0.000000 0.000000 0.000000
# 3 -0.001233 0.000046 0.008853 0.000000 0.000000 0.000000
# 4 0.000000 0.000000 0.000000 -0.713326 0.000000 0.000000
# 5 0.000000 0.000000 0.000000 0.000000 0.047794 0.000000
# 6 0.000000 0.000000 0.000000 0.000000 0.000000 0.020520
#
#
# Mechanical properties :
#
#
# Convention : Reuss Voigt Hill
#
# Bulk Modulus (GPa) = 36.22685 59.40372 47.81529
# Shear Modulus (GPa) = -8.53634 37.90101 14.68233
#
# Velocity S-wave (km/s) = -1.75245 3.69263 2.29831
# Velocity P-wave (km/s) = 2.98972 6.28905 4.92395
#
# Compressibility (1/GPa) = 0.02760383
#
# Stress axis : x y z
#
# Youngs Moduli (GPa) = 39.44400 215.67462 112.96079
#
# Poissons Ratio (x) = 0.95592 0.13923
# Poissons Ratio (y) = 0.17482 -0.00518
# Poissons Ratio (z) = 0.04862 -0.00990
#
# Static dielectric constant tensor:
#      x y z
#    x 2.193260 0.000000 0.000000 
#    y 0.000000 2.294310 0.000000 
#    z 0.000000 0.000000 2.334720 
# 
# From -- ./inp_files/3780.got.cif
#   From: 2010.05.17/outbox.cif.g08.bks.cpg/sg19_2_cif.got.tgz:3780.got - 2010.06.03 22:46:19.
