data_PCOD9313902
_publ_section_title
;
Structure prediction by ZEFSAII (Michael W. Deem and Ramdas Pophale) SiO2 
 PCOD9313902
Probable space group: P 21 21 21
;
_chemical_formula_sum "Si O2"
_cell_formula_units_Z 32
_cell_length_a 19.070790
_cell_length_b 9.316166
_cell_length_c 8.281351
_cell_angle_alpha 90.000000
_cell_angle_beta 90.000000
_cell_angle_gamma 90.000000
_cell_volume 1471.319851
_symmetry_space_group_name_H-M "P 21 21 21"
_symmetry_group_IT_number 19
_symmetry_cell_setting 'orthorhombic'
loop_
_space_group_symop_operation_xyz
x,y,z
1/2-x,-y,1/2+z
1/2+x,1/2-y,-z
-x,1/2+y,1/2-z
loop_
_atom_site_type_symbol
_atom_site_label
_atom_site_fract_x
_atom_site_fract_y
_atom_site_fract_z
Si Si1 0.844057 0.679325 0.842576
Si Si2 0.698308 0.621849 0.434444
Si Si3 0.851064 0.560923 0.474537
Si Si4 0.998587 0.111991 0.977795
Si Si5 0.657845 0.880226 0.602747
Si Si6 0.762608 0.066841 0.411026
Si Si7 0.493159 0.696840 0.180243
Si Si8 0.141450 0.752716 0.895241
O O1 0.825052 0.542300 0.949796
O O2 0.847074 0.622030 0.658490
O O3 0.786634 0.801459 0.860013
O O4 0.919025 0.747521 0.882490
O O5 0.781178 0.622386 0.394289
O O6 0.677571 0.712235 0.591727
O O7 0.657535 0.691084 0.284000
O O8 0.844301 0.388945 0.488998
O O9 0.929576 0.600997 0.419132
O O10 0.002131 0.254411 0.867075
O O11 0.924391 0.103503 0.068024
O O12 0.001297 0.971952 0.858656
O O13 0.683567 0.956798 0.765104
O O14 0.709114 0.945065 0.465309
O O15 0.810731 0.119528 0.559072
O O16 0.558843 0.775183 0.096479
#
# Coordination Sequence:
#
# PCOD9313902 Si02
#       8
#     4   4   4   4   4   4   4   4
#     4  10  20  37  64  92 124 166 209 254 307 378
#     4  11  20  39  64  98 118 160 215 262 316 379
#     4   9  19  36  64  91 122 157 206 258 305 375
#     4  10  21  38  62  94 128 169 209 261 312 378
#     4  12  25  40  63  93 131 166 215 262 321 378
#     4  12  24  42  63  89 128 168 210 265 321 378
#     4  10  20  38  64  92 126 165 217 252 308 380
#     4  10  21  38  64  91 123 163 207 264 316 372
#
# _framework density 21.749179000000002
#
# number of rings (size 3 to 8) (size 9 to 14) (size 15 to 20)
#    0.000    1.500    5.000    1.500    0.000    0.000 
#    0.000    1.250    5.500    0.000    0.000    0.000 
#    0.000    0.000    0.000    0.000    0.000    0.000 
#
# Total GULP energy -178697.953443 kJ/mol
# GULP energy per Si atom -5584.311045 kJ/mol
# Density = 2.169968 g / cm^3
# Si number density = 21.749179 Si / 1000 Ang^3
#
#
#
# Elastic Constant Matrix: (Units=GPa)
#
#
# Indices 1 2 3 4 5 6 
#
# 1 144.2984 1.6459 -0.8518 0.0000 0.0000 0.0000
# 2 1.6459 39.9875 -4.6752 0.0000 0.0000 0.0000
# 3 -0.8518 -4.6752 14.2781 0.0000 0.0000 0.0000
# 4 0.0000 0.0000 0.0000 14.9180 0.0000 0.0000
# 5 0.0000 0.0000 0.0000 0.0000 26.3307 0.0000
# 6 0.0000 0.0000 0.0000 0.0000 0.0000 31.5438
#
#
#
# Elastic Compliance Matrix: (Units=1/GPa)
#
#
# Indices 1 2 3 4 5 6 
#
# 1 0.006935 -0.000246 0.000333 0.000000 0.000000 0.000000
# 2 -0.000246 0.026012 0.008503 0.000000 0.000000 0.000000
# 3 0.000333 0.008503 0.072841 0.000000 0.000000 0.000000
# 4 0.000000 0.000000 0.000000 0.067033 0.000000 0.000000
# 5 0.000000 0.000000 0.000000 0.000000 0.037979 0.000000
# 6 0.000000 0.000000 0.000000 0.000000 0.000000 0.031702
#
#
# Mechanical properties :
#
#
# Convention : Reuss Voigt Hill
#
# Bulk Modulus (GPa) = 8.13227 21.20018 14.66622
# Shear Modulus (GPa) = 18.77493 28.05483 23.41488
#
# Velocity S-wave (km/s) = 2.94130 3.59545 3.28470
# Velocity P-wave (km/s) = 3.90924 5.19664 4.59822
#
# Compressibility (1/GPa) = 0.12296684
#
# Stress axis : x y z
#
# Youngs Moduli (GPa) = 144.19899 38.44367 13.72846
#
# Poissons Ratio (x) = 0.00948 -0.00457
# Poissons Ratio (y) = 0.03555 -0.11673
# Poissons Ratio (z) = -0.04802 -0.32688
#
# Static dielectric constant tensor:
#      x y z
#    x 1.797440 0.000000 0.000000 
#    y 0.000000 1.811910 0.000000 
#    z 0.000000 0.000000 1.826330 
# 
# From -- ./inp_files/4259.got.cif
#   From: 2010.05.17/outbox.cif.g08.bks.cpg/sg19_3_cif.got.tgz:4259.got - 2010.06.03 22:46:19.
