data_PCOD9313701
_publ_section_title
;
Structure prediction by ZEFSAII (Michael W. Deem and Ramdas Pophale) SiO2 
 PCOD9313701
Probable space group: P 21 21 21
;
_chemical_formula_sum "Si O2"
_cell_formula_units_Z 32
_cell_length_a 6.005749
_cell_length_b 16.526136
_cell_length_c 15.865032
_cell_angle_alpha 90.000000
_cell_angle_beta 90.000000
_cell_angle_gamma 90.000000
_cell_volume 1574.633376
_symmetry_space_group_name_H-M "P 21 21 21"
_symmetry_group_IT_number 19
_symmetry_cell_setting 'orthorhombic'
loop_
_space_group_symop_operation_xyz
x,y,z
1/2-x,-y,1/2+z
1/2+x,1/2-y,-z
-x,1/2+y,1/2-z
loop_
_atom_site_type_symbol
_atom_site_label
_atom_site_fract_x
_atom_site_fract_y
_atom_site_fract_z
Si Si1 0.321162 0.971169 0.190072
Si Si2 0.924960 0.624806 0.322805
Si Si3 0.921650 0.255927 0.044336
Si Si4 0.715404 0.041719 0.298489
Si Si5 0.980849 0.669534 0.926310
Si Si6 0.000512 0.394950 0.171726
Si Si7 0.790304 0.178318 0.411985
Si Si8 0.827823 0.755788 0.204534
O O1 0.353646 0.899008 0.124878
O O2 0.185295 0.937075 0.270263
O O3 0.205962 0.047162 0.144130
O O4 0.542676 0.004892 0.233144
O O5 0.046665 0.682192 0.389401
O O6 0.762686 0.682462 0.267168
O O7 0.099799 0.585327 0.258748
O O8 0.916312 0.341966 0.093499
O O9 0.171202 0.254282 0.997664
O O10 0.642748 0.112563 0.362524
O O11 0.826259 0.966557 0.348121
O O12 0.151657 0.709204 0.860219
O O13 0.835626 0.746424 0.953062
O O14 0.087615 0.634709 0.010872
O O15 0.109746 0.329171 0.234124
O O16 0.962939 0.221034 0.347869
#
# Coordination Sequence:
#
# PCOD9313701 Si02
#       8
#     4   4   4   4   4   4   4   4
#     4  11  22  39  69  96 126 178 229 281 332 412
#     4   9  23  42  65  93 130 171 235 276 339 407
#     4  11  27  46  72 102 142 185 229 290 351 415
#     4  10  22  41  63  95 129 173 225 279 333 406
#     4  12  22  36  64  91 131 168 215 269 338 395
#     4  10  22  42  66  96 127 172 230 273 339 403
#     4  11  23  38  58  92 128 164 208 267 334 392
#     4  10  19  40  63  87 121 167 213 269 320 406
#
# _framework density 20.322189999999999
#
# number of rings (size 3 to 8) (size 9 to 14) (size 15 to 20)
#    0.000    1.500    3.750    0.750    3.500    1.000 
#    0.000    0.000    0.000    0.000    0.000    0.000 
#    0.000    0.000    0.000    0.000    0.000    0.000 
#
# Total GULP energy -178284.149839 kJ/mol
# GULP energy per Si atom -5571.379682 kJ/mol
# Density = 2.027594 g / cm^3
# Si number density = 20.322190 Si / 1000 Ang^3
#
#
#
# Elastic Constant Matrix: (Units=GPa)
#
#
# Indices 1 2 3 4 5 6 
#
# 1 22.7955 22.5818 -3.8690 0.0000 0.0000 0.0000
# 2 22.5818 104.4619 21.7754 0.0000 0.0000 0.0000
# 3 -3.8690 21.7754 44.5354 0.0000 0.0000 0.0000
# 4 0.0000 0.0000 0.0000 -2.9473 0.0000 0.0000
# 5 0.0000 0.0000 0.0000 0.0000 -13.1555 0.0000
# 6 0.0000 0.0000 0.0000 0.0000 0.0000 26.0790
#
#
#
# Elastic Compliance Matrix: (Units=1/GPa)
#
#
# Indices 1 2 3 4 5 6 
#
# 1 0.062209 -0.016228 0.013339 0.000000 0.000000 0.000000
# 2 -0.016228 0.014893 -0.008692 0.000000 0.000000 0.000000
# 3 0.013339 -0.008692 0.027863 0.000000 0.000000 0.000000
# 4 0.000000 0.000000 0.000000 -0.339298 0.000000 0.000000
# 5 0.000000 0.000000 0.000000 0.000000 -0.076014 0.000000
# 6 0.000000 0.000000 0.000000 0.000000 0.000000 0.038345
#
#
# Mechanical properties :
#
#
# Convention : Reuss Voigt Hill
#
# Bulk Modulus (GPa) = 12.22462 28.08549 20.15505
# Shear Modulus (GPa) = -22.56578 10.74890 -5.90844
#
# Velocity S-wave (km/s) = -3.33588 2.30233 -1.70695
# Velocity P-wave (km/s) = 2.96800 4.57359 2.46056
#
# Compressibility (1/GPa) = 0.08180215
#
# Stress axis : x y z
#
# Youngs Moduli (GPa) = 16.07497 67.14658 35.89040
#
# Poissons Ratio (x) = 1.08968 -0.47875
# Poissons Ratio (y) = 0.26087 0.31194
# Poissons Ratio (z) = -0.21443 0.58361
#
# Static dielectric constant tensor:
#      x y z
#    x 1.977260 0.000000 0.000000 
#    y 0.000000 1.749140 0.000000 
#    z 0.000000 0.000000 1.697120 
# 
# From -- ./inp_files/1560.got.cif
#   From: 2010.05.17/outbox.cif.g08.bks.cpg/sg19_1_cif.got.tgz:1560.got - 2010.06.03 22:46:19.
