data_PCOD9313339
_publ_section_title
;
Structure prediction by ZEFSAII (Michael W. Deem and Ramdas Pophale) SiO2 
 PCOD9313339
Probable space group: P 21 21 21
;
_chemical_formula_sum "Si O2"
_cell_formula_units_Z 28
_cell_length_a 5.615420
_cell_length_b 27.691794
_cell_length_c 6.901450
_cell_angle_alpha 90.000000
_cell_angle_beta 90.000000
_cell_angle_gamma 90.000000
_cell_volume 1073.182748
_symmetry_space_group_name_H-M "P 21 21 21"
_symmetry_group_IT_number 19
_symmetry_cell_setting 'orthorhombic'
loop_
_space_group_symop_operation_xyz
x,y,z
1/2-x,-y,1/2+z
1/2+x,1/2-y,-z
-x,1/2+y,1/2-z
loop_
_atom_site_type_symbol
_atom_site_label
_atom_site_fract_x
_atom_site_fract_y
_atom_site_fract_z
Si Si1 0.708888 0.325255 0.806484
Si Si2 0.225265 0.556903 0.181126
Si Si3 0.705440 0.219832 0.246960
Si Si4 0.307711 0.832239 0.160421
Si Si5 0.088991 0.016488 0.654204
Si Si6 0.381117 0.926270 0.509575
Si Si7 0.311825 0.646204 0.907172
O O1 0.455558 0.298437 0.845830
O O2 0.696525 0.335400 0.575113
O O3 0.723238 0.376438 0.913021
O O4 0.953330 0.296526 0.844679
O O5 0.391529 0.511414 0.219145
O O6 0.326648 0.601591 0.057895
O O7 0.016411 0.538164 0.041394
O O8 0.143253 0.574525 0.393040
O O9 0.699473 0.276824 0.274568
O O10 0.699905 0.194637 0.460867
O O11 0.566421 0.853767 0.212568
O O12 0.050219 0.852821 0.215699
O O13 0.166202 0.060605 0.787655
O O14 0.271457 0.974563 0.606030
#
# Coordination Sequence:
#
# PCOD9313339 Si02
#       7
#     4   4   4   4   4   4   4
#     4  10  19  31  53  83 127 162 201 277 319 386
#     4  12  24  42  63  95 133 170 228 280 343 396
#     4  10  17  30  53  89 125 160 213 266 323 392
#     4  10  17  30  53  89 125 160 213 266 323 392
#     4  12  26  42  68  94 128 182 226 284 340 410
#     4  12  24  42  63  95 133 170 228 280 343 396
#     4  10  19  31  53  83 127 162 201 277 319 386
#
# _framework density 26.090617000000002
#
# number of rings (size 3 to 8) (size 9 to 14) (size 15 to 20)
#    0.000    1.143    5.714    6.000    0.000    0.000 
#    0.000    0.000    0.000    0.000    0.000    6.000 
#    0.000    0.000    0.000    0.000    0.000    0.000 
#
# Total GULP energy -156754.666972 kJ/mol
# GULP energy per Si atom -5598.380963 kJ/mol
# Density = 2.603123 g / cm^3
# Si number density = 26.090617 Si / 1000 Ang^3
#
#
#
# Elastic Constant Matrix: (Units=GPa)
#
#
# Indices 1 2 3 4 5 6 
#
# 1 181.2031 63.0241 25.5800 0.0000 0.0000 0.0000
# 2 63.0241 110.9687 7.9620 0.0000 0.0000 0.0000
# 3 25.5800 7.9620 75.0035 0.0000 0.0000 0.0000
# 4 0.0000 0.0000 0.0000 22.5769 0.0000 0.0000
# 5 0.0000 0.0000 0.0000 0.0000 15.5612 0.0000
# 6 0.0000 0.0000 0.0000 0.0000 0.0000 39.9671
#
#
#
# Elastic Compliance Matrix: (Units=1/GPa)
#
#
# Indices 1 2 3 4 5 6 
#
# 1 0.007171 -0.003927 -0.002029 0.000000 0.000000 0.000000
# 2 -0.003927 0.011231 0.000147 0.000000 0.000000 0.000000
# 3 -0.002029 0.000147 0.014009 0.000000 0.000000 0.000000
# 4 0.000000 0.000000 0.000000 0.044293 0.000000 0.000000
# 5 0.000000 0.000000 0.000000 0.000000 0.064262 0.000000
# 6 0.000000 0.000000 0.000000 0.000000 0.000000 0.025021
#
#
# Mechanical properties :
#
#
# Convention : Reuss Voigt Hill
#
# Bulk Modulus (GPa) = 48.09149 62.25639 55.17394
# Shear Modulus (GPa) = 27.09493 33.66165 30.37829
#
# Velocity S-wave (km/s) = 3.22606 3.59581 3.41594
# Velocity P-wave (km/s) = 5.68763 6.41507 6.06227
#
# Compressibility (1/GPa) = 0.02079370
#
# Stress axis : x y z
#
# Youngs Moduli (GPa) = 139.45119 89.03607 71.38262
#
# Poissons Ratio (x) = 0.34966 0.14482
# Poissons Ratio (y) = 0.54765 -0.01050
# Poissons Ratio (z) = 0.28291 -0.01310
#
# Static dielectric constant tensor:
#      x y z
#    x 2.124380 0.000000 0.000000 
#    y 0.000000 2.001870 0.000000 
#    z 0.000000 0.000000 2.048010 
# 
# From -- ./inp_files/2475.got.cif
#   From: 2010.05.17/outbox.cif.g08.bks.cpg/sg19_2_cif.got.tgz:2475.got - 2010.06.03 22:46:19.
