data_PCOD9313084
_publ_section_title
;
Structure prediction by ZEFSAII (Michael W. Deem and Ramdas Pophale) SiO2 
 PCOD9313084
Probable space group: P 21 21 2
;
_chemical_formula_sum "Si O2"
_cell_formula_units_Z 26
_cell_length_a 7.186808
_cell_length_b 15.898055
_cell_length_c 9.760452
_cell_angle_alpha 90.000000
_cell_angle_beta 90.000000
_cell_angle_gamma 90.000000
_cell_volume 1115.192828
_symmetry_space_group_name_H-M "P 21 21 2"
_symmetry_group_IT_number 18
_symmetry_cell_setting 'orthorhombic'
loop_
_space_group_symop_operation_xyz
x,y,z
-x,-y,z
1/2+x,1/2-y,-z
1/2-x,1/2+y,-z
loop_
_atom_site_type_symbol
_atom_site_label
_atom_site_fract_x
_atom_site_fract_y
_atom_site_fract_z
Si Si1 0.000000 0.500000 0.584796
Si Si2 0.924999 0.698712 0.802145
Si Si3 0.717485 0.417693 0.757897
Si Si4 0.647026 0.340155 0.014152
Si Si5 0.639242 0.143233 0.611382
Si Si6 0.918433 0.182541 0.400989
Si Si7 0.924917 0.666761 0.092637
O O1 0.178499 0.505305 0.684750
O O2 0.029443 0.422656 0.482270
O O3 0.965997 0.793259 0.863168
O O4 0.656838 0.655506 0.451168
O O5 0.765286 0.698839 0.690651
O O6 0.109008 0.649547 0.757954
O O7 0.551235 0.387202 0.663124
O O8 0.643481 0.420885 0.914846
O O9 0.853695 0.342465 0.076376
O O10 0.651228 0.149656 0.060477
O O11 0.532228 0.231280 0.596462
O O12 0.640453 0.120788 0.772136
O O13 0.115293 0.233404 0.099951
#
# Coordination Sequence:
#
# PCOD9313084 Si02
#       7
#     2   4   4   4   4   4   4
#     4  12  28  44  60  98 160 192 222 282 372 448
#     4   9  19  39  71 100 129 166 231 307 342 393
#     4  11  22  43  64 104 136 187 234 281 360 424
#     4   9  16  35  67  95 128 157 230 295 337 385
#     4  12  24  40  64 105 137 185 232 284 346 423
#     4  12  23  42  74  98 133 179 246 291 338 419
#     4   9  18  33  63 101 129 164 223 291 336 396
#
# _framework density 23.314356
#
# number of rings (size 3 to 8) (size 9 to 14) (size 15 to 20)
#    0.923    0.615    4.615    0.923    0.000    0.615 
#    0.000    3.077    0.000    0.000    8.000    0.000 
#    0.000    0.000    0.000    0.000    0.000    0.000 
#
# Total GULP energy -144913.715467 kJ/mol
# GULP energy per Si atom -5573.604441 kJ/mol
# Density = 2.326129 g / cm^3
# Si number density = 23.314356 Si / 1000 Ang^3
#
#
#
# Elastic Constant Matrix: (Units=GPa)
#
#
# Indices 1 2 3 4 5 6 
#
# 1 86.3797 16.7951 39.9621 0.0000 0.0000 0.0000
# 2 16.7951 27.7061 20.5262 0.0000 0.0000 0.0000
# 3 39.9621 20.5262 143.1161 0.0000 0.0000 0.0000
# 4 0.0000 0.0000 0.0000 6.1840 0.0000 0.0000
# 5 0.0000 0.0000 0.0000 0.0000 46.9305 0.0000
# 6 0.0000 0.0000 0.0000 0.0000 0.0000 18.6742
#
#
#
# Elastic Compliance Matrix: (Units=1/GPa)
#
#
# Indices 1 2 3 4 5 6 
#
# 1 0.014229 -0.006358 -0.003061 0.000000 0.000000 0.000000
# 2 -0.006358 0.043225 -0.004424 0.000000 0.000000 0.000000
# 3 -0.003061 -0.004424 0.008477 0.000000 0.000000 0.000000
# 4 0.000000 0.000000 0.000000 0.161708 0.000000 0.000000
# 5 0.000000 0.000000 0.000000 0.000000 0.021308 0.000000
# 6 0.000000 0.000000 0.000000 0.000000 0.000000 0.053550
#
#
# Mechanical properties :
#
#
# Convention : Reuss Voigt Hill
#
# Bulk Modulus (GPa) = 26.14769 45.75208 35.94988
# Shear Modulus (GPa) = 14.58021 26.35230 20.46626
#
# Velocity S-wave (km/s) = 2.50346 3.36565 2.96605
# Velocity P-wave (km/s) = 4.42674 5.89661 5.21374
#
# Compressibility (1/GPa) = 0.03824430
#
# Stress axis : x y z
#
# Youngs Moduli (GPa) = 70.27792 23.13494 117.97043
#
# Poissons Ratio (x) = 0.14708 0.36115
# Poissons Ratio (y) = 0.44679 0.52193
# Poissons Ratio (z) = 0.21515 0.10235
#
# Static dielectric constant tensor:
#      x y z
#    x 1.881050 0.000000 0.000000 
#    y 0.000000 1.957750 0.000000 
#    z 0.000000 0.000000 1.925180 
# 
# From -- ./inp_files/5707.got.cif
#   From: 2010.05.17/outbox.cif.g08.bks.cpg/sg18_3_cif.got.tgz:5707.got - 2010.06.03 22:40:56.
