data_PCOD9313119
_publ_section_title
;
Structure prediction by ZEFSAII (Michael W. Deem and Ramdas Pophale) SiO2 
 PCOD9313119
Probable space group: P 21 21 2
;
_chemical_formula_sum "Si O2"
_cell_formula_units_Z 20
_cell_length_a 9.303595
_cell_length_b 9.183641
_cell_length_c 9.871761
_cell_angle_alpha 90.000000
_cell_angle_beta 90.000000
_cell_angle_gamma 90.000000
_cell_volume 843.451912
_symmetry_space_group_name_H-M "P 21 21 2"
_symmetry_group_IT_number 18
_symmetry_cell_setting 'orthorhombic'
loop_
_space_group_symop_operation_xyz
x,y,z
-x,-y,z
1/2+x,1/2-y,-z
1/2-x,1/2+y,-z
loop_
_atom_site_type_symbol
_atom_site_label
_atom_site_fract_x
_atom_site_fract_y
_atom_site_fract_z
Si Si1 0.843863 0.562588 0.537402
Si Si2 0.826946 0.993275 0.184447
Si Si3 0.312899 0.237799 0.008343
Si Si4 0.109793 0.125444 0.550729
Si Si5 0.928157 0.844211 0.849764
O O1 0.752249 0.546221 0.678091
O O2 0.857215 0.724648 0.475334
O O3 0.758208 0.459583 0.434496
O O4 0.000000 0.500000 0.562833
O O5 0.771881 0.833719 0.136202
O O6 0.000000 0.000000 0.199078
O O7 0.788704 0.104185 0.061624
O O8 0.478584 0.237314 0.055077
O O9 0.238691 0.148487 0.886852
O O10 0.052000 0.187249 0.692636
O O11 0.000000 0.000000 0.504071
O O12 0.000000 0.000000 0.869126
#
# Coordination Sequence:
#
# PCOD9313119 Si02
#       5
#     4   4   4   4   4
#     4  12  26  47  76 107 143 206 258 312 386 445
#     4  12  26  44  69 106 150 193 248 312 378 446
#     4  12  21  44  69 103 149 190 245 301 383 441
#     4  11  25  48  74 106 153 193 254 317 372 449
#     4  11  23  44  69 105 150 187 242 309 372 446
#
# _framework density 23.712081000000001
#
# number of rings (size 3 to 8) (size 9 to 14) (size 15 to 20)
#    0.000    0.400    6.000    3.000    0.000    1.600 
#    0.000    4.000    0.000    0.000    0.000    0.000 
#    0.000    0.000    0.000    0.000    0.000    0.000 
#
# Total GULP energy -111379.997319 kJ/mol
# GULP energy per Si atom -5568.999866 kJ/mol
# Density = 2.365811 g / cm^3
# Si number density = 23.712081 Si / 1000 Ang^3
#
#
#
# Elastic Constant Matrix: (Units=GPa)
#
#
# Indices 1 2 3 4 5 6 
#
# 1 154.6462 58.6252 24.3248 0.0000 0.0000 0.0000
# 2 58.6252 116.8737 11.1667 0.0000 0.0000 0.0000
# 3 24.3248 11.1667 61.1007 0.0000 0.0000 0.0000
# 4 0.0000 0.0000 0.0000 5.4752 0.0000 0.0000
# 5 0.0000 0.0000 0.0000 0.0000 8.0974 0.0000
# 6 0.0000 0.0000 0.0000 0.0000 0.0000 43.8180
#
#
#
# Elastic Compliance Matrix: (Units=1/GPa)
#
#
# Indices 1 2 3 4 5 6 
#
# 1 0.008375 -0.003952 -0.002612 0.000000 0.000000 0.000000
# 2 -0.003952 0.010573 -0.000359 0.000000 0.000000 0.000000
# 3 -0.002612 -0.000359 0.017472 0.000000 0.000000 0.000000
# 4 0.000000 0.000000 0.000000 0.182642 0.000000 0.000000
# 5 0.000000 0.000000 0.000000 0.000000 0.123496 0.000000
# 6 0.000000 0.000000 0.000000 0.000000 0.000000 0.022822
#
#
# Mechanical properties :
#
#
# Convention : Reuss Voigt Hill
#
# Bulk Modulus (GPa) = 44.29795 57.87268 51.08531
# Shear Modulus (GPa) = 12.92825 27.37840 20.15332
#
# Velocity S-wave (km/s) = 2.33752 3.40165 2.91850
# Velocity P-wave (km/s) = 5.09976 6.31567 5.74000
#
# Compressibility (1/GPa) = 0.02257441
#
# Stress axis : x y z
#
# Youngs Moduli (GPa) = 119.39963 94.58325 57.23463
#
# Poissons Ratio (x) = 0.37375 0.14950
# Poissons Ratio (y) = 0.47181 0.02055
# Poissons Ratio (z) = 0.31188 0.03397
#
# Static dielectric constant tensor:
#      x y z
#    x 1.896890 0.000000 0.000000 
#    y 0.000000 1.988100 0.000000 
#    z 0.000000 0.000000 1.963360 
# 
# From -- ./inp_files/5423.got.cif
#   From: 2010.05.17/outbox.cif.g08.bks.cpg/sg18_3_cif.got.tgz:5423.got - 2010.06.03 22:40:56.
