data_PCOD9313257
_publ_section_title
;
Structure prediction by ZEFSAII (Michael W. Deem and Ramdas Pophale) SiO2 
 PCOD9313257
Probable space group: P 21 21 2
;
_chemical_formula_sum "Si O2"
_cell_formula_units_Z 16
_cell_length_a 8.221208
_cell_length_b 10.951833
_cell_length_c 7.261428
_cell_angle_alpha 90.000000
_cell_angle_beta 90.000000
_cell_angle_gamma 90.000000
_cell_volume 653.799350
_symmetry_space_group_name_H-M "P 21 21 2"
_symmetry_group_IT_number 18
_symmetry_cell_setting 'orthorhombic'
loop_
_space_group_symop_operation_xyz
x,y,z
-x,-y,z
1/2+x,1/2-y,-z
1/2-x,1/2+y,-z
loop_
_atom_site_type_symbol
_atom_site_label
_atom_site_fract_x
_atom_site_fract_y
_atom_site_fract_z
Si Si1 0.500000 0.500000 0.716741
Si Si2 0.858587 0.247127 0.099314
Si Si3 0.127276 0.165958 0.567922
Si Si4 0.760491 0.152325 0.712920
Si Si5 0.000000 0.500000 0.145649
O O1 0.440192 0.382658 0.835722
O O2 0.640776 0.446827 0.579558
O O3 0.740744 0.289373 0.264921
O O4 0.963229 0.369656 0.053920
O O5 0.772550 0.218855 0.908248
O O6 0.144530 0.278114 0.427443
O O7 0.945095 0.149933 0.644106
O O8 0.666729 0.026690 0.745495
#
# Coordination Sequence:
#
# PCOD9313257 Si02
#       5
#     2   4   4   4   2
#     4  12  26  50  78 122 168 218 274 350 412 500
#     4  12  29  51  83 122 165 222 276 344 422 494
#     4  12  26  51  78 117 163 213 274 342 413 491
#     4  12  27  52  79 118 163 214 273 342 410 497
#     4  12  26  52  82 116 160 218 274 334 416 496
#
# _framework density 24.472339000000002
#
# number of rings (size 3 to 8) (size 9 to 14) (size 15 to 20)
#    0.000    0.000    5.000    3.000    3.500    1.000 
#    0.000    0.000    0.000    0.000    0.000    0.000 
#    0.000    0.000    0.000    0.000    0.000    0.000 
#
# Total GULP energy -89214.392505 kJ/mol
# GULP energy per Si atom -5575.899532 kJ/mol
# Density = 2.441664 g / cm^3
# Si number density = 24.472339 Si / 1000 Ang^3
#
#
#
# Elastic Constant Matrix: (Units=GPa)
#
#
# Indices 1 2 3 4 5 6 
#
# 1 105.5481 62.5503 26.0607 0.0000 0.0000 0.0000
# 2 62.5503 189.8112 55.3448 0.0000 0.0000 0.0000
# 3 26.0607 55.3448 125.3467 0.0000 0.0000 0.0000
# 4 0.0000 0.0000 0.0000 10.2772 0.0000 0.0000
# 5 0.0000 0.0000 0.0000 0.0000 18.0337 0.0000
# 6 0.0000 0.0000 0.0000 0.0000 0.0000 39.6505
#
#
#
# Elastic Compliance Matrix: (Units=1/GPa)
#
#
# Indices 1 2 3 4 5 6 
#
# 1 0.011852 -0.003658 -0.000849 0.000000 0.000000 0.000000
# 2 -0.003658 0.007176 -0.002408 0.000000 0.000000 0.000000
# 3 -0.000849 -0.002408 0.009218 0.000000 0.000000 0.000000
# 4 0.000000 0.000000 0.000000 0.097303 0.000000 0.000000
# 5 0.000000 0.000000 0.000000 0.000000 0.055452 0.000000
# 6 0.000000 0.000000 0.000000 0.000000 0.000000 0.025220
#
#
# Mechanical properties :
#
#
# Convention : Reuss Voigt Hill
#
# Bulk Modulus (GPa) = 69.36973 78.73529 74.05251
# Shear Modulus (GPa) = 22.23649 32.04228 27.13939
#
# Velocity S-wave (km/s) = 3.01763 3.62239 3.33375
# Velocity P-wave (km/s) = 6.36782 7.05256 6.71892
#
# Compressibility (1/GPa) = 0.01441551
#
# Stress axis : x y z
#
# Youngs Moduli (GPa) = 84.37499 139.35386 108.48890
#
# Poissons Ratio (x) = 0.50977 0.09210
# Poissons Ratio (y) = 0.30865 0.26123
# Poissons Ratio (z) = 0.07163 0.33555
#
# Static dielectric constant tensor:
#      x y z
#    x 2.072200 0.000000 0.000000 
#    y 0.000000 2.102690 0.000000 
#    z 0.000000 0.000000 1.950380 
# 
# From -- ./inp_files/2844.got.cif
#   From: 2010.05.17/outbox.cif.g08.bks.cpg/sg18_2_cif.got.tgz:2844.got - 2010.06.03 22:40:56.
