data_PCOD9313291
_publ_section_title
;
Structure prediction by ZEFSAII (Michael W. Deem and Ramdas Pophale) SiO2 
 PCOD9313291
Probable space group: P 21 21 2
;
_chemical_formula_sum "Si O2"
_cell_formula_units_Z 32
_cell_length_a 15.000000
_cell_length_b 9.000000
_cell_length_c 12.000000
_cell_angle_alpha 90.000000
_cell_angle_beta 90.000000
_cell_angle_gamma 90.000000
_cell_volume 1620.000000
_symmetry_space_group_name_H-M "P 21 21 2"
_symmetry_group_IT_number 18
_symmetry_cell_setting 'orthorhombic'
loop_
_space_group_symop_operation_xyz
x,y,z
-x,-y,z
1/2+x,1/2-y,-z
1/2-x,1/2+y,-z
loop_
_atom_site_type_symbol
_atom_site_label
_atom_site_fract_x
_atom_site_fract_y
_atom_site_fract_z
Si Si1 0.640297 0.204910 0.743088
Si Si2 0.744013 0.936740 0.374903
Si Si3 0.825586 0.243350 0.414159
Si Si4 0.072791 0.374870 0.695819
Si Si5 0.071606 0.134863 0.887812
Si Si6 0.717686 0.893682 0.823892
Si Si7 0.977232 0.672043 0.462153
Si Si8 0.480707 0.174117 0.913701
O O1 0.705143 0.345199 0.722825
O O2 0.606889 0.176471 0.617920
O O3 0.545847 0.214029 0.809064
O O4 0.691645 0.064863 0.796071
O O5 0.804944 0.068992 0.422086
O O6 0.661251 0.029163 0.325408
O O7 0.710891 0.831808 0.476883
O O8 0.784724 0.310934 0.298183
O O9 0.932805 0.258217 0.414676
O O10 0.071488 0.259687 0.794143
O O11 0.049967 0.280138 0.585007
O O12 0.000000 0.500000 0.717893
O O13 0.182847 0.104315 0.885397
O O14 0.000000 0.000000 0.863594
O O15 0.023651 0.216001 0.993900
O O16 0.627518 0.824743 0.887024
O O17 0.000000 0.500000 0.475278
O O18 0.500000 0.000000 0.941026
#
# Coordination Sequence:
#
# PCOD9313291 Si02
#       8
#     4   4   4   4   4   4   4   4
#     4  11  23  43  73 107 134 189 238 298 355 437
#     4  12  25  39  67 105 147 187 242 294 362 439
#     4  12  22  41  67 102 142 193 234 289 357 438
#     4  11  23  44  65  96 143 196 222 287 368 431
#     4  12  29  47  70 108 143 185 248 309 354 429
#     4  11  23  46  75  99 145 186 237 293 365 429
#     4  11  19  41  69  98 142 181 234 293 353 436
#     4  10  24  51  76 101 136 190 243 296 366 433
#
# _framework density 19.753086
#
# number of rings (size 3 to 8) (size 9 to 14) (size 15 to 20)
#    0.000    0.750    6.250    2.250    1.750    4.500 
#    4.500    0.000    0.000    0.000    0.000    0.000 
#    0.000    0.000    0.000    0.000    0.000    0.000 
#
# Total GULP energy -178243.110320 kJ/mol
# GULP energy per Si atom -5570.097198 kJ/mol
# Density = 1.970813 g / cm^3
# Si number density = 19.753086 Si / 1000 Ang^3
#
#
#
# Elastic Constant Matrix: (Units=GPa)
#
#
# Indices 1 2 3 4 5 6 
#
# 1 166.3516 54.9927 44.0437 0.0000 0.0000 0.0000
# 2 54.9927 93.4710 42.9473 0.0000 0.0000 0.0000
# 3 44.0437 42.9473 76.3340 0.0000 0.0000 0.0000
# 4 0.0000 0.0000 0.0000 5.0433 0.0000 0.0000
# 5 0.0000 0.0000 0.0000 0.0000 31.9643 0.0000
# 6 0.0000 0.0000 0.0000 0.0000 0.0000 25.9040
#
#
#
# Elastic Compliance Matrix: (Units=1/GPa)
#
#
# Indices 1 2 3 4 5 6 
#
# 1 0.007827 -0.003412 -0.002596 0.000000 0.000000 0.000000
# 2 -0.003412 0.015916 -0.006986 0.000000 0.000000 0.000000
# 3 -0.002596 -0.006986 0.018529 0.000000 0.000000 0.000000
# 4 0.000000 0.000000 0.000000 0.198281 0.000000 0.000000
# 5 0.000000 0.000000 0.000000 0.000000 0.031285 0.000000
# 6 0.000000 0.000000 0.000000 0.000000 0.000000 0.038604
#
#
# Mechanical properties :
#
#
# Convention : Reuss Voigt Hill
#
# Bulk Modulus (GPa) = 61.41379 68.90266 65.15823
# Shear Modulus (GPa) = 14.62599 25.52720 20.07659
#
# Velocity S-wave (km/s) = 2.72406 3.59878 3.19153
# Velocity P-wave (km/s) = 6.40720 7.22675 6.82928
#
# Compressibility (1/GPa) = 0.01628299
#
# Stress axis : x y z
#
# Youngs Moduli (GPa) = 127.76865 62.83124 53.96992
#
# Poissons Ratio (x) = 0.21437 0.14012
# Poissons Ratio (y) = 0.43592 0.37703
# Poissons Ratio (z) = 0.33173 0.43894
#
# Static dielectric constant tensor:
#      x y z
#    x 1.823840 0.000000 0.000000 
#    y 0.000000 1.690030 0.000000 
#    z 0.000000 0.000000 1.743600 
# 
# From -- ./inp_files/6153.got.cif
#   From: 2010.05.17/outbox.ucp.g08.bks.cvg/sg18_4_cif.got.tgz:6153.got - 2010.06.11 13:13:23.
