data_PCOD9313245
_publ_section_title
;
Structure prediction by ZEFSAII (Michael W. Deem and Ramdas Pophale) SiO2 
 PCOD9313245
Probable space group: P 21 21 2
;
_chemical_formula_sum "Si O2"
_cell_formula_units_Z 14
_cell_length_a 4.885952
_cell_length_b 9.197424
_cell_length_c 12.713771
_cell_angle_alpha 90.000000
_cell_angle_beta 90.000000
_cell_angle_gamma 90.000000
_cell_volume 571.333630
_symmetry_space_group_name_H-M "P 21 21 2"
_symmetry_group_IT_number 18
_symmetry_cell_setting 'orthorhombic'
loop_
_space_group_symop_operation_xyz
x,y,z
-x,-y,z
1/2+x,1/2-y,-z
1/2-x,1/2+y,-z
loop_
_atom_site_type_symbol
_atom_site_label
_atom_site_fract_x
_atom_site_fract_y
_atom_site_fract_z
Si Si1 0.150194 0.783151 0.431054
Si Si2 0.000000 0.500000 0.070229
Si Si3 0.000000 0.000000 0.073518
Si Si4 0.000000 0.500000 0.691869
Si Si5 0.393819 0.741407 0.782405
O O1 0.407895 0.705102 0.484860
O O2 0.272244 0.930971 0.383885
O O3 0.025740 0.708420 0.327159
O O4 0.246158 0.553720 0.995969
O O5 0.140810 0.378548 0.142998
O O6 0.915747 0.132182 0.149527
O O7 0.858196 0.365241 0.752785
#
# Coordination Sequence:
#
# PCOD9313245 Si02
#       5
#     4   2   2   2   4
#     4  12  27  48  79 113 155 213 276 329 409 501
#     4  12  31  47  78 126 158 206 287 343 402 480
#     4  12  26  50  82 112 160 220 268 338 420 488
#     4  12  25  53  80 118 162 228 263 339 432 492
#     4  12  27  52  83 115 169 212 276 342 414 499
#
# _framework density 24.504072000000001
#
# number of rings (size 3 to 8) (size 9 to 14) (size 15 to 20)
#    0.000    0.000    5.714    2.571    4.000    1.143 
#    5.143    0.000    0.000    0.000    0.000    0.000 
#    0.000    0.000    0.000    0.000    0.000    0.000 
#
# Total GULP energy -78334.507331 kJ/mol
# GULP energy per Si atom -5595.321952 kJ/mol
# Density = 2.444830 g / cm^3
# Si number density = 24.504072 Si / 1000 Ang^3
#
#
#
# Elastic Constant Matrix: (Units=GPa)
#
#
# Indices 1 2 3 4 5 6 
#
# 1 170.2518 31.8280 77.8559 0.0000 0.0000 0.0000
# 2 31.8280 93.3788 53.2528 0.0000 0.0000 0.0000
# 3 77.8559 53.2528 161.2326 0.0000 0.0000 0.0000
# 4 0.0000 0.0000 0.0000 38.3406 0.0000 0.0000
# 5 0.0000 0.0000 0.0000 0.0000 29.8204 0.0000
# 6 0.0000 0.0000 0.0000 0.0000 0.0000 35.2268
#
#
#
# Elastic Compliance Matrix: (Units=1/GPa)
#
#
# Indices 1 2 3 4 5 6 
#
# 1 0.007566 -0.000610 -0.003452 0.000000 0.000000 0.000000
# 2 -0.000610 0.013244 -0.004079 0.000000 0.000000 0.000000
# 3 -0.003452 -0.004079 0.009217 0.000000 0.000000 0.000000
# 4 0.000000 0.000000 0.000000 0.026082 0.000000 0.000000
# 5 0.000000 0.000000 0.000000 0.000000 0.033534 0.000000
# 6 0.000000 0.000000 0.000000 0.000000 0.000000 0.028388
#
#
# Mechanical properties :
#
#
# Convention : Reuss Voigt Hill
#
# Bulk Modulus (GPa) = 72.76533 83.41517 78.09025
# Shear Modulus (GPa) = 35.99849 38.13931 37.06890
#
# Velocity S-wave (km/s) = 3.83702 3.94946 3.89365
# Velocity P-wave (km/s) = 7.02780 7.41033 7.22160
#
# Compressibility (1/GPa) = 0.01374281
#
# Stress axis : x y z
#
# Youngs Moduli (GPa) = 132.16370 75.50837 108.50057
#
# Poissons Ratio (x) = 0.04608 0.37455
# Poissons Ratio (y) = 0.08066 0.44262
# Poissons Ratio (z) = 0.45624 0.30803
#
# Static dielectric constant tensor:
#      x y z
#    x 2.023230 0.000000 0.000000 
#    y 0.000000 1.961470 0.000000 
#    z 0.000000 0.000000 1.958910 
# 
# From -- ./inp_files/4928.got.cif
#   From: 2010.05.17/outbox.cif.g08.bks.cpg/sg18_3_cif.got.tgz:4928.got - 2010.06.03 22:40:56.
