data_PCOD9313327
_publ_section_title
;
Structure prediction by ZEFSAII (Michael W. Deem and Ramdas Pophale) SiO2 
 PCOD9313327
Probable space group: P 21 21 21
;
_chemical_formula_sum "Si O2"
_cell_formula_units_Z 28
_cell_length_a 13.878187
_cell_length_b 7.667616
_cell_length_c 10.818864
_cell_angle_alpha 90.000000
_cell_angle_beta 90.000000
_cell_angle_gamma 90.000000
_cell_volume 1151.263541
_symmetry_space_group_name_H-M "P 21 21 21"
_symmetry_group_IT_number 19
_symmetry_cell_setting 'orthorhombic'
loop_
_space_group_symop_operation_xyz
x,y,z
1/2-x,-y,1/2+z
1/2+x,1/2-y,-z
-x,1/2+y,1/2-z
loop_
_atom_site_type_symbol
_atom_site_label
_atom_site_fract_x
_atom_site_fract_y
_atom_site_fract_z
Si Si1 0.914947 0.410192 0.983569
Si Si2 0.303244 0.679917 0.897436
Si Si3 0.382814 0.565703 0.414672
Si Si4 0.978195 0.087567 0.113986
Si Si5 0.760133 0.775625 0.370737
Si Si6 0.887360 0.359762 0.261213
Si Si7 0.808916 0.826242 0.833627
O O1 0.818954 0.366494 0.908903
O O2 0.010017 0.507951 0.936959
O O3 0.887894 0.446759 0.125536
O O4 0.963332 0.213870 0.998920
O O5 0.197444 0.589057 0.911425
O O6 0.383889 0.532080 0.880361
O O7 0.297216 0.771825 0.765036
O O8 0.331290 0.757318 0.032133
O O9 0.341263 0.687711 0.525648
O O10 0.379329 0.667677 0.283731
O O11 0.073057 0.974722 0.127920
O O12 0.967230 0.209014 0.235522
O O13 0.712898 0.969005 0.358407
O O14 0.787373 0.268010 0.287355
#
# Coordination Sequence:
#
# PCOD9313327 Si02
#       7
#     4   4   4   4   4   4   4
#     4  10  19  31  57  91 111 153 203 239 290 362
#     4  10  19  34  60  84 114 156 201 237 295 358
#     4  10  17  31  59  79 111 152 191 243 288 340
#     4  10  19  35  58  91 115 148 207 250 285 361
#     4  10  16  35  54  85 112 153 202 239 284 364
#     4  10  19  34  59  89 113 152 201 245 291 350
#     4  10  17  34  55  79 114 152 193 239 289 351
#
# _framework density 24.321104999999999
#
# number of rings (size 3 to 8) (size 9 to 14) (size 15 to 20)
#    0.857    1.143    7.143    0.857    2.000    0.000 
#    2.571    0.000    3.143    3.429    0.000    0.000 
#    0.000    0.000    0.000    0.000    0.000    0.000 
#
# Total GULP energy -156201.064052 kJ/mol
# GULP energy per Si atom -5578.609430 kJ/mol
# Density = 2.426575 g / cm^3
# Si number density = 24.321105 Si / 1000 Ang^3
#
#
#
# Elastic Constant Matrix: (Units=GPa)
#
#
# Indices 1 2 3 4 5 6 
#
# 1 89.8683 14.6228 28.9456 0.0000 0.0000 0.0000
# 2 14.6228 35.6477 13.7623 0.0000 0.0000 0.0000
# 3 28.9456 13.7623 165.9813 0.0000 0.0000 0.0000
# 4 0.0000 0.0000 0.0000 26.9848 0.0000 0.0000
# 5 0.0000 0.0000 0.0000 0.0000 31.9571 0.0000
# 6 0.0000 0.0000 0.0000 0.0000 0.0000 24.1892
#
#
#
# Elastic Compliance Matrix: (Units=1/GPa)
#
#
# Indices 1 2 3 4 5 6 
#
# 1 0.012424 -0.004401 -0.001802 0.000000 0.000000 0.000000
# 2 -0.004401 0.030539 -0.001765 0.000000 0.000000 0.000000
# 3 -0.001802 -0.001765 0.006485 0.000000 0.000000 0.000000
# 4 0.000000 0.000000 0.000000 0.037058 0.000000 0.000000
# 5 0.000000 0.000000 0.000000 0.000000 0.031292 0.000000
# 6 0.000000 0.000000 0.000000 0.000000 0.000000 0.041341
#
#
# Mechanical properties :
#
#
# Convention : Reuss Voigt Hill
#
# Bulk Modulus (GPa) = 29.83855 45.12872 37.48364
# Shear Modulus (GPa) = 26.84654 32.23733 29.54194
#
# Velocity S-wave (km/s) = 3.32601 3.64467 3.48898
# Velocity P-wave (km/s) = 5.20048 6.02555 5.62815
#
# Compressibility (1/GPa) = 0.03351370
#
# Stress axis : x y z
#
# Youngs Moduli (GPa) = 80.49097 32.74523 154.19500
#
# Poissons Ratio (x) = 0.14410 0.27781
# Poissons Ratio (y) = 0.35422 0.27210
# Poissons Ratio (z) = 0.14502 0.05778
#
# Static dielectric constant tensor:
#      x y z
#    x 1.944890 0.000000 0.000000 
#    y 0.000000 2.040210 0.000000 
#    z 0.000000 0.000000 1.954320 
# 
# From -- ./inp_files/4982.got.cif
#   From: 2010.05.17/outbox.cif.g08.bks.cpg/sg19_3_cif.got.tgz:4982.got - 2010.06.03 22:46:19.
