data_PCOD9313898
_publ_section_title
;
Structure prediction by ZEFSAII (Michael W. Deem and Ramdas Pophale) SiO2 
 PCOD9313898
Probable space group: P 21 21 21
;
_chemical_formula_sum "Si O2"
_cell_formula_units_Z 32
_cell_length_a 5.318367
_cell_length_b 18.228356
_cell_length_c 15.680624
_cell_angle_alpha 90.000000
_cell_angle_beta 90.000000
_cell_angle_gamma 90.000000
_cell_volume 1520.159458
_symmetry_space_group_name_H-M "P 21 21 21"
_symmetry_group_IT_number 19
_symmetry_cell_setting 'orthorhombic'
loop_
_space_group_symop_operation_xyz
x,y,z
1/2-x,-y,1/2+z
1/2+x,1/2-y,-z
-x,1/2+y,1/2-z
loop_
_atom_site_type_symbol
_atom_site_label
_atom_site_fract_x
_atom_site_fract_y
_atom_site_fract_z
Si Si1 0.313767 0.984009 0.549186
Si Si2 0.015324 0.855174 0.491434
Si Si3 0.273070 0.740392 0.383965
Si Si4 0.674742 0.933760 0.025080
Si Si5 0.403538 0.928696 0.194313
Si Si6 0.423815 0.278298 0.540093
Si Si7 0.955895 0.289440 0.281227
Si Si8 0.339610 0.369089 0.157755
O O1 0.256517 0.901307 0.521159
O O2 0.579680 0.016268 0.522602
O O3 0.252701 0.005347 0.648622
O O4 0.085985 0.026678 0.502203
O O5 0.074587 0.776660 0.448635
O O6 0.866833 0.835169 0.577050
O O7 0.848358 0.892502 0.417417
O O8 0.166658 0.735990 0.289153
O O9 0.477560 0.805955 0.377669
O O10 0.626828 0.916612 0.125662
O O11 0.687024 0.859436 0.972519
O O12 0.231618 0.856230 0.196196
O O13 0.509798 0.932157 0.290691
O O14 0.681106 0.271195 0.485381
O O15 0.509988 0.254527 0.633734
O O16 0.182114 0.327368 0.230817
#
# Coordination Sequence:
#
# PCOD9313898 Si02
#       8
#     4   4   4   4   4   4   4   4
#     4  10  23  38  64  87 132 168 211 259 327 386
#     4  11  22  40  66  92 121 174 222 280 335 386
#     4  10  22  38  63  93 120 159 227 286 326 382
#     4  10  21  39  59  95 128 167 213 250 314 401
#     4   9  18  37  59  91 127 162 213 252 312 394
#     4  12  21  35  65  96 128 169 218 265 320 384
#     4  10  21  36  61  95 128 168 207 279 324 383
#     4  10  20  37  63  91 126 157 221 269 328 382
#
# _framework density 21.050424
#
# number of rings (size 3 to 8) (size 9 to 14) (size 15 to 20)
#    0.750    1.000    2.500    3.000    3.500    0.000 
#    0.000    1.250    2.750    0.000    0.000    0.000 
#    0.000    0.000    0.000    0.000    0.000    0.000 
#
# Total GULP energy -178323.114155 kJ/mol
# GULP energy per Si atom -5572.597317 kJ/mol
# Density = 2.100251 g / cm^3
# Si number density = 21.050424 Si / 1000 Ang^3
#
#
#
# Elastic Constant Matrix: (Units=GPa)
#
#
# Indices 1 2 3 4 5 6 
#
# 1 75.9217 4.9918 21.3730 0.0000 0.0000 0.0000
# 2 4.9918 38.1060 26.9950 0.0000 0.0000 0.0000
# 3 21.3730 26.9950 96.2048 0.0000 0.0000 0.0000
# 4 0.0000 0.0000 0.0000 23.2784 0.0000 0.0000
# 5 0.0000 0.0000 0.0000 0.0000 29.3076 0.0000
# 6 0.0000 0.0000 0.0000 0.0000 0.0000 28.1485
#
#
#
# Elastic Compliance Matrix: (Units=1/GPa)
#
#
# Indices 1 2 3 4 5 6 
#
# 1 0.014057 0.000463 -0.003253 0.000000 0.000000 0.000000
# 2 0.000463 0.032769 -0.009298 0.000000 0.000000 0.000000
# 3 -0.003253 -0.009298 0.013726 0.000000 0.000000 0.000000
# 4 0.000000 0.000000 0.000000 0.042958 0.000000 0.000000
# 5 0.000000 0.000000 0.000000 0.000000 0.034121 0.000000
# 6 0.000000 0.000000 0.000000 0.000000 0.000000 0.035526
#
#
# Mechanical properties :
#
#
# Convention : Reuss Voigt Hill
#
# Bulk Modulus (GPa) = 27.49041 35.21689 31.35365
# Shear Modulus (GPa) = 23.87127 26.60510 25.23819
#
# Velocity S-wave (km/s) = 3.37115 3.55896 3.46633
# Velocity P-wave (km/s) = 5.31418 5.80124 5.56304
#
# Compressibility (1/GPa) = 0.03637633
#
# Stress axis : x y z
#
# Youngs Moduli (GPa) = 71.14036 30.51699 72.85412
#
# Poissons Ratio (x) = -0.01413 0.23698
# Poissons Ratio (y) = -0.03293 0.67738
# Poissons Ratio (z) = 0.23140 0.28374
#
# Static dielectric constant tensor:
#      x y z
#    x 1.832960 0.000000 0.000000 
#    y 0.000000 1.775020 0.000000 
#    z 0.000000 0.000000 1.767470 
# 
# From -- ./inp_files/5754.got.cif
#   From: 2010.05.17/outbox.cif.g08.bks.cpg/sg19_3_cif.got.tgz:5754.got - 2010.06.03 22:46:19.
