data_PCOD9313616
_publ_section_title
;
Structure prediction by ZEFSAII (Michael W. Deem and Ramdas Pophale) SiO2 
 PCOD9313616
Probable space group: P 21 21 21
;
_chemical_formula_sum "Si O2"
_cell_formula_units_Z 32
_cell_length_a 8.326753
_cell_length_b 8.270476
_cell_length_c 20.988848
_cell_angle_alpha 90.000000
_cell_angle_beta 90.000000
_cell_angle_gamma 90.000000
_cell_volume 1445.422432
_symmetry_space_group_name_H-M "P 21 21 21"
_symmetry_group_IT_number 19
_symmetry_cell_setting 'orthorhombic'
loop_
_space_group_symop_operation_xyz
x,y,z
1/2-x,-y,1/2+z
1/2+x,1/2-y,-z
-x,1/2+y,1/2-z
loop_
_atom_site_type_symbol
_atom_site_label
_atom_site_fract_x
_atom_site_fract_y
_atom_site_fract_z
Si Si1 0.501341 0.614729 0.329135
Si Si2 0.561023 0.557894 0.122835
Si Si3 0.311525 0.766592 0.941529
Si Si4 0.207511 0.782061 0.322700
Si Si5 0.085075 0.946275 0.022110
Si Si6 0.377120 0.764562 0.205882
Si Si7 0.193184 0.763896 0.553057
Si Si8 0.502321 0.604625 0.567543
O O1 0.310139 0.624873 0.344302
O O2 0.503611 0.706637 0.260960
O O3 0.576467 0.438603 0.321188
O O4 0.588034 0.714353 0.384221
O O5 0.676415 0.715453 0.112441
O O6 0.668831 0.429971 0.160785
O O7 0.542111 0.498127 0.050198
O O8 0.400310 0.623290 0.154633
O O9 0.427025 0.616182 0.944292
O O10 0.423527 0.925768 0.934688
O O11 0.210028 0.799979 0.006340
O O12 0.210902 0.771922 0.245904
O O13 0.052709 0.817509 0.364536
O O14 0.181434 0.085271 0.056182
O O15 0.314578 0.614568 0.553492
O O16 0.095512 0.797490 0.488405
#
# Coordination Sequence:
#
# PCOD9313616 Si02
#       8
#     4   4   4   4   4   4   4   4
#     4  10  22  35  62  86 110 150 200 241 283 356
#     4   9  18  34  58  79 114 146 189 243 282 345
#     4   8  19  35  53  77 115 149 184 234 294 347
#     4   9  17  39  57  82 110 151 196 236 291 332
#     4   9  20  35  53  85 116 149 186 237 296 349
#     4  10  19  36  62  81 109 151 199 236 280 349
#     4  11  22  35  59  89 119 151 191 240 299 351
#     4  10  21  37  56  85 121 151 183 247 295 349
#
# _framework density 22.138855
#
# number of rings (size 3 to 8) (size 9 to 14) (size 15 to 20)
#    1.500    1.000    2.500    0.750    3.500    2.000 
#    0.000    1.250    5.500    0.000    0.000    0.000 
#    0.000    0.000    0.000    0.000    0.000    0.000 
#
# Total GULP energy -178201.559367 kJ/mol
# GULP energy per Si atom -5568.798730 kJ/mol
# Density = 2.208847 g / cm^3
# Si number density = 22.138855 Si / 1000 Ang^3
#
#
#
# Elastic Constant Matrix: (Units=GPa)
#
#
# Indices 1 2 3 4 5 6 
#
# 1 37.5305 4.7332 -1.0277 0.0000 0.0000 0.0000
# 2 4.7332 33.0581 10.1729 0.0000 0.0000 0.0000
# 3 -1.0277 10.1729 40.1606 0.0000 0.0000 0.0000
# 4 0.0000 0.0000 0.0000 33.0522 0.0000 0.0000
# 5 0.0000 0.0000 0.0000 0.0000 29.6038 0.0000
# 6 0.0000 0.0000 0.0000 0.0000 0.0000 28.6095
#
#
#
# Elastic Compliance Matrix: (Units=1/GPa)
#
#
# Indices 1 2 3 4 5 6 
#
# 1 0.027258 -0.004466 0.001829 0.000000 0.000000 0.000000
# 2 -0.004466 0.033539 -0.008610 0.000000 0.000000 0.000000
# 3 0.001829 -0.008610 0.027128 0.000000 0.000000 0.000000
# 4 0.000000 0.000000 0.000000 0.030255 0.000000 0.000000
# 5 0.000000 0.000000 0.000000 0.000000 0.033779 0.000000
# 6 0.000000 0.000000 0.000000 0.000000 0.000000 0.034953
#
#
# Mechanical properties :
#
#
# Convention : Reuss Voigt Hill
#
# Bulk Modulus (GPa) = 15.28319 15.38954 15.33637
# Shear Modulus (GPa) = 21.62477 24.71114 23.16795
#
# Velocity S-wave (km/s) = 3.12874 3.34457 3.23845
# Velocity P-wave (km/s) = 4.46882 4.67774 4.57447
#
# Compressibility (1/GPa) = 0.06543137
#
# Stress axis : x y z
#
# Youngs Moduli (GPa) = 36.68614 29.81639 36.86265
#
# Poissons Ratio (x) = 0.13315 -0.06741
# Poissons Ratio (y) = 0.16382 0.31738
# Poissons Ratio (z) = -0.06709 0.25671
#
# Static dielectric constant tensor:
#      x y z
#    x 1.853180 0.000000 0.000000 
#    y 0.000000 1.873310 0.000000 
#    z 0.000000 0.000000 1.819600 
# 
# From -- ./inp_files/7363.got.cif
#   From: 2010.05.17/outbox.cif.g08.bks.cpg/sg19_4_cif.got.tgz:7363.got - 2010.06.03 22:46:19.
