data_PCOD9313708
_publ_section_title
;
Structure prediction by ZEFSAII (Michael W. Deem and Ramdas Pophale) SiO2 
 PCOD9313708
Probable space group: P 21 21 21
;
_chemical_formula_sum "Si O2"
_cell_formula_units_Z 24
_cell_length_a 9.560230
_cell_length_b 20.284025
_cell_length_c 5.883346
_cell_angle_alpha 90.000000
_cell_angle_beta 90.000000
_cell_angle_gamma 90.000000
_cell_volume 1140.898129
_symmetry_space_group_name_H-M "P 21 21 21"
_symmetry_group_IT_number 19
_symmetry_cell_setting 'orthorhombic'
loop_
_space_group_symop_operation_xyz
x,y,z
1/2-x,-y,1/2+z
1/2+x,1/2-y,-z
-x,1/2+y,1/2-z
loop_
_atom_site_type_symbol
_atom_site_label
_atom_site_fract_x
_atom_site_fract_y
_atom_site_fract_z
Si Si1 0.304219 0.021524 0.055504
Si Si2 0.252600 0.406109 0.884680
Si Si3 0.625620 0.212958 0.889181
Si Si4 0.837277 0.328483 0.863057
Si Si5 0.026038 0.379915 0.497150
Si Si6 0.931696 0.997260 0.333892
O O1 0.306053 0.100738 0.025910
O O2 0.256819 0.006684 0.315347
O O3 0.462779 0.995448 0.039892
O O4 0.133918 0.402138 0.691110
O O5 0.393269 0.433905 0.778346
O O6 0.241279 0.334640 0.993535
O O7 0.205002 0.460158 0.070601
O O8 0.701379 0.282724 0.871445
O O9 0.595276 0.177985 0.649875
O O10 0.476800 0.204830 0.022312
O O11 0.888938 0.349278 0.611631
O O12 0.004604 0.444184 0.341834
#
# Coordination Sequence:
#
# PCOD9313708 Si02
#       6
#     4   4   4   4   4   4
#     4  12  27  46  72 102 144 192 233 292 361 424
#     4  10  20  36  68 100 126 172 232 288 349 405
#     4  10  24  43  71  97 138 184 234 295 357 426
#     4  11  24  47  69  97 140 182 238 290 358 431
#     4  10  19  40  66  97 132 180 225 288 359 405
#     4  11  20  38  68  97 136 174 230 287 346 421
#
# _framework density 21.036059999999999
#
# number of rings (size 3 to 8) (size 9 to 14) (size 15 to 20)
#    0.000    1.333    6.667    1.000    0.000    4.000 
#    3.000    0.000    0.000    0.000    0.000    0.000 
#    0.000    0.000    0.000    0.000    0.000    0.000 
#
# Total GULP energy -133765.269851 kJ/mol
# GULP energy per Si atom -5573.552910 kJ/mol
# Density = 2.098818 g / cm^3
# Si number density = 21.036060 Si / 1000 Ang^3
#
#
#
# Elastic Constant Matrix: (Units=GPa)
#
#
# Indices 1 2 3 4 5 6 
#
# 1 59.7039 48.8706 26.4770 0.0000 0.0000 0.0000
# 2 48.8706 68.8719 31.9652 0.0000 0.0000 0.0000
# 3 26.4770 31.9652 88.3484 0.0000 0.0000 0.0000
# 4 0.0000 0.0000 0.0000 11.0466 0.0000 0.0000
# 5 0.0000 0.0000 0.0000 0.0000 34.9460 0.0000
# 6 0.0000 0.0000 0.0000 0.0000 0.0000 39.5561
#
#
#
# Elastic Compliance Matrix: (Units=1/GPa)
#
#
# Indices 1 2 3 4 5 6 
#
# 1 0.040274 -0.027613 -0.002079 0.000000 0.000000 0.000000
# 2 -0.027613 0.036382 -0.004888 0.000000 0.000000 0.000000
# 3 -0.002079 -0.004888 0.013710 0.000000 0.000000 0.000000
# 4 0.000000 0.000000 0.000000 0.090526 0.000000 0.000000
# 5 0.000000 0.000000 0.000000 0.000000 0.028616 0.000000
# 6 0.000000 0.000000 0.000000 0.000000 0.000000 0.025281
#
#
# Mechanical properties :
#
#
# Convention : Reuss Voigt Hill
#
# Bulk Modulus (GPa) = 47.15557 47.94997 47.55277
# Shear Modulus (GPa) = 16.07632 24.41717 20.24674
#
# Velocity S-wave (km/s) = 2.76746 3.41064 3.10575
# Velocity P-wave (km/s) = 5.71638 6.19303 5.95947
#
# Compressibility (1/GPa) = 0.02120640
#
# Stress axis : x y z
#
# Youngs Moduli (GPa) = 24.83011 27.48608 72.93706
#
# Poissons Ratio (x) = 0.75897 0.15164
# Poissons Ratio (y) = 0.68563 0.35652
# Poissons Ratio (z) = 0.05162 0.13435
#
# Static dielectric constant tensor:
#      x y z
#    x 1.855970 0.000000 0.000000 
#    y 0.000000 1.744130 0.000000 
#    z 0.000000 0.000000 1.799930 
# 
# From -- ./inp_files/997.got.cif
#   From: 2010.05.17/outbox.cif.g08.bks.cpg/sg19_1_cif.got.tgz:997.got - 2010.06.03 22:46:19.
