data_PCOD9313255
_publ_section_title
;
Structure prediction by ZEFSAII (Michael W. Deem and Ramdas Pophale) SiO2 
 PCOD9313255
Probable space group: P 21 21 2
;
_chemical_formula_sum "Si O2"
_cell_formula_units_Z 18
_cell_length_a 5.375691
_cell_length_b 10.535407
_cell_length_c 11.599308
_cell_angle_alpha 90.000000
_cell_angle_beta 90.000000
_cell_angle_gamma 90.000000
_cell_volume 656.927883
_symmetry_space_group_name_H-M "P 21 21 2"
_symmetry_group_IT_number 18
_symmetry_cell_setting 'orthorhombic'
loop_
_space_group_symop_operation_xyz
x,y,z
-x,-y,z
1/2+x,1/2-y,-z
1/2-x,1/2+y,-z
loop_
_atom_site_type_symbol
_atom_site_label
_atom_site_fract_x
_atom_site_fract_y
_atom_site_fract_z
Si Si1 0.366447 0.188356 0.952539
Si Si2 0.307026 0.826601 0.740559
Si Si3 0.758587 0.664019 0.502647
Si Si4 0.752062 0.468298 0.722261
Si Si5 0.000000 0.000000 0.904249
O O1 0.443330 0.182655 0.816911
O O2 0.129088 0.277636 0.986406
O O3 0.731280 0.444975 0.026142
O O4 0.303407 0.901059 0.620723
O O5 0.246123 0.682006 0.707259
O O6 0.105860 0.890906 0.821691
O O7 0.492976 0.737625 0.492877
O O8 0.753585 0.561651 0.607959
O O9 0.500000 0.500000 0.785220
O O10 0.000000 0.500000 0.787541
#
# Coordination Sequence:
#
# PCOD9313255 Si02
#       5
#     4   4   4   4   2
#     4  12  29  60  90 127 173 232 307 381 463 556
#     4  12  29  51  95 127 186 233 305 368 469 543
#     4  12  26  49  81 122 187 231 297 361 440 532
#     4  12  26  49  77 125 177 229 298 357 436 537
#     4  12  30  56  90 132 178 232 292 394 480 548
#
# _framework density 27.400266999999999
#
# number of rings (size 3 to 8) (size 9 to 14) (size 15 to 20)
#    0.000    0.000    6.667    0.667    7.778    1.778 
#    2.000    4.444    0.000    0.000    0.000    0.000 
#    0.000    0.000    0.000    0.000    0.000    0.000 
#
# Total GULP energy -100642.055698 kJ/mol
# GULP energy per Si atom -5591.225317 kJ/mol
# Density = 2.733790 g / cm^3
# Si number density = 27.400267 Si / 1000 Ang^3
#
#
#
# Elastic Constant Matrix: (Units=GPa)
#
#
# Indices 1 2 3 4 5 6 
#
# 1 274.9053 75.2018 74.6722 0.0000 0.0000 0.0000
# 2 75.2018 148.6621 41.2329 0.0000 0.0000 0.0000
# 3 74.6722 41.2329 157.9831 0.0000 0.0000 0.0000
# 4 0.0000 0.0000 0.0000 41.9455 0.0000 0.0000
# 5 0.0000 0.0000 0.0000 0.0000 15.6487 0.0000
# 6 0.0000 0.0000 0.0000 0.0000 0.0000 69.2903
#
#
#
# Elastic Compliance Matrix: (Units=1/GPa)
#
#
# Indices 1 2 3 4 5 6 
#
# 1 0.004606 -0.001861 -0.001691 0.000000 0.000000 0.000000
# 2 -0.001861 0.008003 -0.001209 0.000000 0.000000 0.000000
# 3 -0.001691 -0.001209 0.007445 0.000000 0.000000 0.000000
# 4 0.000000 0.000000 0.000000 0.023840 0.000000 0.000000
# 5 0.000000 0.000000 0.000000 0.000000 0.063903 0.000000
# 6 0.000000 0.000000 0.000000 0.000000 0.000000 0.014432
#
#
# Mechanical properties :
#
#
# Convention : Reuss Voigt Hill
#
# Bulk Modulus (GPa) = 94.95619 107.08494 101.02056
# Shear Modulus (GPa) = 36.96488 51.40648 44.18568
#
# Velocity S-wave (km/s) = 3.67695 4.33613 4.02008
# Velocity P-wave (km/s) = 7.26341 8.01473 7.64830
#
# Compressibility (1/GPa) = 0.01053117
#
# Stress axis : x y z
#
# Youngs Moduli (GPa) = 217.10241 124.94656 134.32047
#
# Poissons Ratio (x) = 0.23251 0.22719
# Poissons Ratio (y) = 0.40401 0.16243
# Poissons Ratio (z) = 0.36722 0.15110
#
# Static dielectric constant tensor:
#      x y z
#    x 2.231460 0.000000 0.000000 
#    y 0.000000 2.545250 0.000000 
#    z 0.000000 0.000000 2.204640 
# 
# From -- ./inp_files/4994.got.cif
#   From: 2010.05.17/outbox.cif.g08.bks.cpg/sg18_3_cif.got.tgz:4994.got - 2010.06.03 22:40:56.
