data_PCOD9313212
_publ_section_title
;
Structure prediction by ZEFSAII (Michael W. Deem and Ramdas Pophale) SiO2 
 PCOD9313212
Probable space group: P 21 21 2
;
_chemical_formula_sum "Si O2"
_cell_formula_units_Z 18
_cell_length_a 12.886083
_cell_length_b 4.875957
_cell_length_c 13.280948
_cell_angle_alpha 90.000000
_cell_angle_beta 90.000000
_cell_angle_gamma 90.000000
_cell_volume 834.468347
_symmetry_space_group_name_H-M "P 21 21 2"
_symmetry_group_IT_number 18
_symmetry_cell_setting 'orthorhombic'
loop_
_space_group_symop_operation_xyz
x,y,z
-x,-y,z
1/2+x,1/2-y,-z
1/2-x,1/2+y,-z
loop_
_atom_site_type_symbol
_atom_site_label
_atom_site_fract_x
_atom_site_fract_y
_atom_site_fract_z
Si Si1 0.000000 0.500000 0.520925
Si Si2 0.216454 0.274898 0.568107
Si Si3 0.000000 0.000000 0.380021
Si Si4 0.699594 0.283049 0.950252
Si Si5 0.836032 0.118613 0.238803
Si Si6 0.500000 0.000000 0.881513
O O1 0.098480 0.381527 0.578914
O O2 0.032471 0.745535 0.447154
O O3 0.272670 0.505311 0.499516
O O4 0.263586 0.237916 0.679151
O O5 0.094230 0.081727 0.307934
O O6 0.719916 0.437765 0.844948
O O7 0.578850 0.190476 0.945768
O O8 0.731451 0.512607 0.031830
O O9 0.918918 0.318378 0.183830
#
# Coordination Sequence:
#
# PCOD9313212 Si02
#       6
#     2   4   2   4   4   2
#     4  12  23  44  61 104 150 192 231 290 353 408
#     4  12  26  40  69 105 148 189 237 294 351 422
#     4  12  22  38  74 102 132 188 244 284 340 412
#     4  12  27  46  74 111 140 180 242 315 377 430
#     4  12  25  43  76 111 139 188 250 300 355 437
#     4  12  25  48  79 106 142 186 251 308 363 442
#
# _framework density 21.570622
#
# number of rings (size 3 to 8) (size 9 to 14) (size 15 to 20)
#    0.000    0.000    8.889    0.667    3.111    0.000 
#    0.000    1.111    4.889    0.000    0.000    0.000 
#    0.000    0.000    0.000    0.000    0.000    0.000 
#
# Total GULP energy -100576.478084 kJ/mol
# GULP energy per Si atom -5587.582116 kJ/mol
# Density = 2.152153 g / cm^3
# Si number density = 21.570622 Si / 1000 Ang^3
#
#
#
# Elastic Constant Matrix: (Units=GPa)
#
#
# Indices 1 2 3 4 5 6 
#
# 1 126.5534 46.5582 67.7120 0.0000 0.0000 0.0000
# 2 46.5582 143.1894 47.9626 0.0000 0.0000 0.0000
# 3 67.7120 47.9626 99.7375 0.0000 0.0000 0.0000
# 4 0.0000 0.0000 0.0000 23.6335 0.0000 0.0000
# 5 0.0000 0.0000 0.0000 0.0000 45.8823 0.0000
# 6 0.0000 0.0000 0.0000 0.0000 0.0000 50.7961
#
#
#
# Elastic Compliance Matrix: (Units=1/GPa)
#
#
# Indices 1 2 3 4 5 6 
#
# 1 0.012666 -0.001476 -0.007889 0.000000 0.000000 0.000000
# 2 -0.001476 0.008497 -0.003084 0.000000 0.000000 0.000000
# 3 -0.007889 -0.003084 0.016865 0.000000 0.000000 0.000000
# 4 0.000000 0.000000 0.000000 0.042313 0.000000 0.000000
# 5 0.000000 0.000000 0.000000 0.000000 0.021795 0.000000
# 6 0.000000 0.000000 0.000000 0.000000 0.000000 0.019687
#
#
# Mechanical properties :
#
#
# Convention : Reuss Voigt Hill
#
# Bulk Modulus (GPa) = 76.16215 77.10511 76.63363
# Shear Modulus (GPa) = 33.09144 37.87890 35.48517
#
# Velocity S-wave (km/s) = 3.92100 4.19506 4.06035
# Velocity P-wave (km/s) = 7.47556 7.69985 7.58853
#
# Compressibility (1/GPa) = 0.01312988
#
# Stress axis : x y z
#
# Youngs Moduli (GPa) = 78.95279 117.69385 59.29310
#
# Poissons Ratio (x) = 0.17369 0.46777
# Poissons Ratio (y) = 0.11651 0.18286
# Poissons Ratio (z) = 0.62287 0.36297
#
# Static dielectric constant tensor:
#      x y z
#    x 1.855390 0.000000 0.000000 
#    y 0.000000 1.843240 0.000000 
#    z 0.000000 0.000000 1.790220 
# 
# From -- ./inp_files/5992.got.cif
#   From: 2010.05.17/outbox.cif.g08.bks.cpg/sg18_3_cif.got.tgz:5992.got - 2010.06.03 22:40:56.
