data_PCOD9313353
_publ_section_title
;
Structure prediction by ZEFSAII (Michael W. Deem and Ramdas Pophale) SiO2 
 PCOD9313353
Probable space group: P 21 21 21
;
_chemical_formula_sum "Si O2"
_cell_formula_units_Z 32
_cell_length_a 8.084676
_cell_length_b 19.747144
_cell_length_c 9.761816
_cell_angle_alpha 90.000000
_cell_angle_beta 90.000000
_cell_angle_gamma 90.000000
_cell_volume 1558.466712
_symmetry_space_group_name_H-M "P 21 21 21"
_symmetry_group_IT_number 19
_symmetry_cell_setting 'orthorhombic'
loop_
_space_group_symop_operation_xyz
x,y,z
1/2-x,-y,1/2+z
1/2+x,1/2-y,-z
-x,1/2+y,1/2-z
loop_
_atom_site_type_symbol
_atom_site_label
_atom_site_fract_x
_atom_site_fract_y
_atom_site_fract_z
Si Si1 0.275626 0.058764 0.742678
Si Si2 0.421196 0.147257 0.966282
Si Si3 0.815384 0.109975 0.275401
Si Si4 0.776481 0.212047 0.031311
Si Si5 0.984919 0.014930 0.067319
Si Si6 0.340113 0.428759 0.432503
Si Si7 0.469510 0.371944 0.170999
Si Si8 0.962522 0.451435 0.805179
O O1 0.406296 0.090859 0.847926
O O2 0.137693 0.118447 0.741818
O O3 0.362645 0.033313 0.604869
O O4 0.172775 0.990809 0.784461
O O5 0.603157 0.180048 0.980476
O O6 0.291591 0.208046 0.949437
O O7 0.382810 0.107680 0.106249
O O8 0.938706 0.056265 0.205278
O O9 0.865604 0.116968 0.433533
O O10 0.628888 0.078727 0.261729
O O11 0.816825 0.174834 0.175164
O O12 0.909149 0.192523 0.913010
O O13 0.829416 0.967504 0.041214
O O14 0.987234 0.071216 0.948333
O O15 0.335620 0.390630 0.287066
O O16 0.471726 0.489299 0.407419
#
# Coordination Sequence:
#
# PCOD9313353 Si02
#       8
#     4   4   4   4   4   4   4   4
#     4  11  20  31  53  85 117 147 191 246 296 344
#     4  11  21  37  60  84 119 161 203 250 298 366
#     4   9  19  35  57  82 116 152 194 242 296 358
#     4  10  22  40  61  88 117 161 207 243 293 364
#     4  10  18  30  51  82 114 147 188 236 292 349
#     4  10  17  33  57  81 112 148 185 237 296 345
#     4  10  21  35  55  84 118 154 194 239 290 355
#     4   9  20  33  52  86 117 148 190 243 303 351
#
# _framework density 20.533002
#
# number of rings (size 3 to 8) (size 9 to 14) (size 15 to 20)
#    0.000    2.000    0.000    6.000    0.000    2.000 
#    0.000    0.000    0.000   16.500    0.000    0.000 
#    0.000    0.000    0.000    0.000    0.000    0.000 
#
# Total GULP energy -178229.626667 kJ/mol
# GULP energy per Si atom -5569.675833 kJ/mol
# Density = 2.048627 g / cm^3
# Si number density = 20.533002 Si / 1000 Ang^3
#
#
#
# Elastic Constant Matrix: (Units=GPa)
#
#
# Indices 1 2 3 4 5 6 
#
# 1 54.9793 22.1920 16.3965 0.0000 0.0000 0.0000
# 2 22.1920 92.4007 47.6841 0.0000 0.0000 0.0000
# 3 16.3965 47.6841 88.0658 0.0000 0.0000 0.0000
# 4 0.0000 0.0000 0.0000 24.5757 0.0000 0.0000
# 5 0.0000 0.0000 0.0000 0.0000 8.3517 0.0000
# 6 0.0000 0.0000 0.0000 0.0000 0.0000 22.1545
#
#
#
# Elastic Compliance Matrix: (Units=1/GPa)
#
#
# Indices 1 2 3 4 5 6 
#
# 1 0.020299 -0.004059 -0.001582 0.000000 0.000000 0.000000
# 2 -0.004059 0.015831 -0.007816 0.000000 0.000000 0.000000
# 3 -0.001582 -0.007816 0.015882 0.000000 0.000000 0.000000
# 4 0.000000 0.000000 0.000000 0.040691 0.000000 0.000000
# 5 0.000000 0.000000 0.000000 0.000000 0.119736 0.000000
# 6 0.000000 0.000000 0.000000 0.000000 0.000000 0.045138
#
#
# Mechanical properties :
#
#
# Convention : Reuss Voigt Hill
#
# Bulk Modulus (GPa) = 39.84370 45.33234 42.58802
# Shear Modulus (GPa) = 17.07332 20.96127 19.01730
#
# Velocity S-wave (km/s) = 2.88671 3.19855 3.04663
# Velocity P-wave (km/s) = 5.52790 5.98053 5.75866
#
# Compressibility (1/GPa) = 0.02509807
#
# Stress axis : x y z
#
# Youngs Moduli (GPa) = 49.26426 63.16803 62.96573
#
# Poissons Ratio (x) = 0.25640 0.09958
# Poissons Ratio (y) = 0.19996 0.49214
# Poissons Ratio (z) = 0.07791 0.49372
#
# Static dielectric constant tensor:
#      x y z
#    x 1.883990 0.000000 0.000000 
#    y 0.000000 1.717390 0.000000 
#    z 0.000000 0.000000 1.813980 
# 
# From -- ./inp_files/3203.got.cif
#   From: 2010.05.17/outbox.cif.g08.bks.cpg/sg19_2_cif.got.tgz:3203.got - 2010.06.03 22:46:19.
