data_PCOD9313240
_publ_section_title
;
Structure prediction by ZEFSAII (Michael W. Deem and Ramdas Pophale) SiO2 
 PCOD9313240
Probable space group: P 21 21 2
;
_chemical_formula_sum "Si O2"
_cell_formula_units_Z 10
_cell_length_a 9.434393
_cell_length_b 8.594414
_cell_length_c 4.709525
_cell_angle_alpha 90.000000
_cell_angle_beta 90.000000
_cell_angle_gamma 90.000000
_cell_volume 381.862789
_symmetry_space_group_name_H-M "P 21 21 2"
_symmetry_group_IT_number 18
_symmetry_cell_setting 'orthorhombic'
loop_
_space_group_symop_operation_xyz
x,y,z
-x,-y,z
1/2+x,1/2-y,-z
1/2-x,1/2+y,-z
loop_
_atom_site_type_symbol
_atom_site_label
_atom_site_fract_x
_atom_site_fract_y
_atom_site_fract_z
Si Si1 0.729781 0.048125 0.598243
Si Si2 0.174228 0.248069 0.863793
Si Si3 0.000000 0.000000 0.200118
O O1 0.623589 0.132239 0.378774
O O2 0.716461 0.873240 0.715768
O O3 0.871131 0.043077 0.407428
O O4 0.735838 0.155600 0.874256
O O5 0.055179 0.138432 0.000449
#
# Coordination Sequence:
#
# PCOD9313240 Si02
#       3
#     4   4   2
#     4  12  25  46  80 109 146 197 247 300 368 441
#     4  12  25  46  80 109 146 197 247 300 368 441
#     4  12  26  48  84 102 154 196 236 316 374 410
#
# _framework density 26.187418000000001
#
# number of rings (size 3 to 8) (size 9 to 14) (size 15 to 20)
#    0.000    0.000    8.000    1.200    0.000    0.000 
#    0.000    2.000   35.200    0.000    0.000    0.000 
#    0.000    0.000    0.000    0.000    0.000    0.000 
#
# Total GULP energy -56016.085680 kJ/mol
# GULP energy per Si atom -5601.608568 kJ/mol
# Density = 2.612781 g / cm^3
# Si number density = 26.187418 Si / 1000 Ang^3
#
#
#
# Elastic Constant Matrix: (Units=GPa)
#
#
# Indices 1 2 3 4 5 6 
#
# 1 35.6673 27.3331 19.2303 0.0000 0.0000 0.0000
# 2 27.3331 163.7275 79.1631 0.0000 0.0000 0.0000
# 3 19.2303 79.1631 221.7630 0.0000 0.0000 0.0000
# 4 0.0000 0.0000 0.0000 94.8793 0.0000 0.0000
# 5 0.0000 0.0000 0.0000 0.0000 48.9613 0.0000
# 6 0.0000 0.0000 0.0000 0.0000 0.0000 40.8401
#
#
#
# Elastic Compliance Matrix: (Units=1/GPa)
#
#
# Indices 1 2 3 4 5 6 
#
# 1 0.032355 -0.004889 -0.001061 0.000000 0.000000 0.000000
# 2 -0.004889 0.008120 -0.002475 0.000000 0.000000 0.000000
# 3 -0.001061 -0.002475 0.005485 0.000000 0.000000 0.000000
# 4 0.000000 0.000000 0.000000 0.010540 0.000000 0.000000
# 5 0.000000 0.000000 0.000000 0.000000 0.020424 0.000000
# 6 0.000000 0.000000 0.000000 0.000000 0.000000 0.024486
#
#
# Mechanical properties :
#
#
# Convention : Reuss Voigt Hill
#
# Bulk Modulus (GPa) = 34.34997 74.73452 54.54225
# Shear Modulus (GPa) = 39.07406 56.63157 47.85282
#
# Velocity S-wave (km/s) = 3.86695 4.65537 4.27935
# Velocity P-wave (km/s) = 5.75180 7.58267 6.72979
#
# Compressibility (1/GPa) = 0.02911211
#
# Stress axis : x y z
#
# Youngs Moduli (GPa) = 30.90707 123.14614 182.32425
#
# Poissons Ratio (x) = 0.60202 0.19337
# Poissons Ratio (y) = 0.15109 0.45122
# Poissons Ratio (z) = 0.03278 0.30477
#
# Static dielectric constant tensor:
#      x y z
#    x 2.082920 0.000000 0.000000 
#    y 0.000000 2.115210 0.000000 
#    z 0.000000 0.000000 2.002350 
# 
# From -- ./inp_files/350.got.cif
#   From: 2010.05.17/outbox.cif.g08.bks.cpg/sg18_1_cif.got.tgz:350.got - 2010.06.03 22:40:56.
