data_PCOD9313275
_publ_section_title
;
Structure prediction by ZEFSAII (Michael W. Deem and Ramdas Pophale) SiO2 
 PCOD9313275
Probable space group: P 21 21 2
;
_chemical_formula_sum "Si O2"
_cell_formula_units_Z 26
_cell_length_a 18.000000
_cell_length_b 9.000000
_cell_length_c 9.000000
_cell_angle_alpha 90.000000
_cell_angle_beta 90.000000
_cell_angle_gamma 90.000000
_cell_volume 1458.000000
_symmetry_space_group_name_H-M "P 21 21 2"
_symmetry_group_IT_number 18
_symmetry_cell_setting 'orthorhombic'
loop_
_space_group_symop_operation_xyz
x,y,z
-x,-y,z
1/2+x,1/2-y,-z
1/2-x,1/2+y,-z
loop_
_atom_site_type_symbol
_atom_site_label
_atom_site_fract_x
_atom_site_fract_y
_atom_site_fract_z
Si Si1 0.662293 0.600702 0.383326
Si Si2 0.736462 0.214519 0.160553
Si Si3 0.663805 0.502528 0.038721
Si Si4 0.885960 0.546811 0.643986
Si Si5 0.724812 0.871521 0.542897
Si Si6 0.000000 0.000000 0.917026
Si Si7 0.522307 0.754924 0.323762
O O1 0.664211 0.568280 0.207507
O O2 0.714895 0.737470 0.427958
O O3 0.696793 0.457262 0.462672
O O4 0.578320 0.651752 0.419727
O O5 0.699280 0.339521 0.056392
O O6 0.672424 0.119656 0.242935
O O7 0.779578 0.301253 0.292985
O O8 0.789020 0.106223 0.068577
O O9 0.577179 0.498491 0.995624
O O10 0.839862 0.486705 0.502672
O O11 0.926743 0.400350 0.712245
O O12 0.948568 0.670277 0.609458
O O13 0.999360 0.852499 0.811829
#
# Coordination Sequence:
#
# PCOD9313275 Si02
#       7
#     4   4   4   4   4   2   4
#     4   9  19  34  56  87 113 152 195 241 296 343
#     4  11  22  37  58  91 119 156 197 246 300 358
#     4  10  23  35  59  87 121 155 203 244 294 363
#     4  10  19  36  58  86 117 150 199 248 294 344
#     4  10  19  34  58  84 117 152 190 245 296 349
#     4  10  18  38  56  86 124 154 200 244 306 346
#     4   9  19  32  57  88 112 147 196 251 284 344
#
# _framework density 17.832647000000001
#
# number of rings (size 3 to 8) (size 9 to 14) (size 15 to 20)
#    0.000    2.154    3.077    0.000    6.462    0.000 
#    0.000    0.000    0.000   28.615    0.000    0.000 
#    0.000    0.000    0.000    0.000    0.000    0.000 
#
# Total GULP energy -144820.249656 kJ/mol
# GULP energy per Si atom -5570.009602 kJ/mol
# Density = 1.779206 g / cm^3
# Si number density = 17.832647 Si / 1000 Ang^3
#
#
#
# Elastic Constant Matrix: (Units=GPa)
#
#
# Indices 1 2 3 4 5 6 
#
# 1 135.5843 62.2367 45.2523 0.0000 0.0000 0.0000
# 2 62.2367 82.1133 29.0852 0.0000 0.0000 0.0000
# 3 45.2523 29.0852 26.4681 0.0000 0.0000 0.0000
# 4 0.0000 0.0000 0.0000 39.6406 0.0000 0.0000
# 5 0.0000 0.0000 0.0000 0.0000 26.4525 0.0000
# 6 0.0000 0.0000 0.0000 0.0000 0.0000 40.0691
#
#
#
# Elastic Compliance Matrix: (Units=1/GPa)
#
#
# Indices 1 2 3 4 5 6 
#
# 1 0.018150 -0.004527 -0.026056 0.000000 0.000000 0.000000
# 2 -0.004527 0.021069 -0.015411 0.000000 0.000000 0.000000
# 3 -0.026056 -0.015411 0.099264 0.000000 0.000000 0.000000
# 4 0.000000 0.000000 0.000000 0.025227 0.000000 0.000000
# 5 0.000000 0.000000 0.000000 0.000000 0.037804 0.000000
# 6 0.000000 0.000000 0.000000 0.000000 0.000000 0.024957
#
#
# Mechanical properties :
#
#
# Convention : Reuss Voigt Hill
#
# Bulk Modulus (GPa) = 21.50839 57.47931 39.49385
# Shear Modulus (GPa) = 14.97196 28.40521 21.68859
#
# Velocity S-wave (km/s) = 2.90070 3.99542 3.49123
# Velocity P-wave (km/s) = 4.82764 7.32032 6.20053
#
# Compressibility (1/GPa) = 0.04649349
#
# Stress axis : x y z
#
# Youngs Moduli (GPa) = 55.09633 47.46404 10.07410
#
# Poissons Ratio (x) = 0.21489 0.26249
# Poissons Ratio (y) = 0.24944 0.15526
# Poissons Ratio (z) = 1.43559 0.73149
#
# Static dielectric constant tensor:
#      x y z
#    x 1.651800 0.000000 0.000000 
#    y 0.000000 1.646840 0.000000 
#    z 0.000000 0.000000 1.573370 
# 
# From -- ./inp_files/3319.got.cif
#   From: 2010.05.17/outbox.ucp.g08.bks.cvg/sg18_2_cif.got.tgz:3319.got - 2010.06.11 13:13:23.
