data_PCOD9313895
_publ_section_title
;
Structure prediction by ZEFSAII (Michael W. Deem and Ramdas Pophale) SiO2 
 PCOD9313895
Probable space group: P 21 21 21
;
_chemical_formula_sum "Si O2"
_cell_formula_units_Z 32
_cell_length_a 10.304000
_cell_length_b 9.245543
_cell_length_c 14.313435
_cell_angle_alpha 90.000000
_cell_angle_beta 90.000000
_cell_angle_gamma 90.000000
_cell_volume 1363.584773
_symmetry_space_group_name_H-M "P 21 21 21"
_symmetry_group_IT_number 19
_symmetry_cell_setting 'orthorhombic'
loop_
_space_group_symop_operation_xyz
x,y,z
1/2-x,-y,1/2+z
1/2+x,1/2-y,-z
-x,1/2+y,1/2-z
loop_
_atom_site_type_symbol
_atom_site_label
_atom_site_fract_x
_atom_site_fract_y
_atom_site_fract_z
Si Si1 0.538219 0.862724 0.269111
Si Si2 0.300007 0.136977 0.125111
Si Si3 0.490291 0.549199 0.052535
Si Si4 0.208536 0.414230 0.014051
Si Si5 0.154602 0.681905 0.116327
Si Si6 0.896080 0.649839 0.920247
Si Si7 0.555831 0.523330 0.855152
Si Si8 0.261854 0.446408 0.806220
O O1 0.585687 0.714518 0.316406
O O2 0.432178 0.854025 0.189294
O O3 0.488206 0.974475 0.348255
O O4 0.669707 0.919463 0.218965
O O5 0.227580 0.268401 0.071994
O O6 0.186733 0.051926 0.182895
O O7 0.372757 0.019157 0.059417
O O8 0.344696 0.497885 0.028161
O O9 0.494915 0.724038 0.047264
O O10 0.568698 0.488440 0.965680
O O11 0.114727 0.534511 0.062629
O O12 0.201248 0.386776 0.903138
O O13 0.257841 0.777002 0.058460
O O14 0.234901 0.638066 0.208963
O O15 0.054408 0.802314 0.152406
O O16 0.415398 0.472731 0.821891
#
# Coordination Sequence:
#
# PCOD9313895 Si02
#       8
#     4   4   4   4   4   4   4   4
#     4  11  21  38  65  94 124 162 207 271 321 379
#     4  10  21  40  62  93 127 159 214 274 309 381
#     4   9  19  41  57  83 125 164 201 258 317 372
#     4   9  20  40  60  87 124 167 209 261 320 370
#     4  10  21  42  62  86 130 164 207 265 316 381
#     4  10  20  37  63  91 120 162 211 266 317 376
#     4  10  24  39  63  89 126 175 212 256 321 394
#     4  11  22  39  64  89 124 173 211 255 331 381
#
# _framework density 23.467555999999998
#
# number of rings (size 3 to 8) (size 9 to 14) (size 15 to 20)
#    0.000    2.000    3.750    0.750    3.500    1.000 
#    4.500    1.250    0.000    0.000    0.000    0.000 
#    0.000    0.000    0.000    0.000    0.000    0.000 
#
# Total GULP energy -178161.621490 kJ/mol
# GULP energy per Si atom -5567.550672 kJ/mol
# Density = 2.341414 g / cm^3
# Si number density = 23.467556 Si / 1000 Ang^3
#
#
#
# Elastic Constant Matrix: (Units=GPa)
#
#
# Indices 1 2 3 4 5 6 
#
# 1 82.0768 32.8468 3.5569 0.0000 0.0000 0.0000
# 2 32.8468 131.9650 5.3232 0.0000 0.0000 0.0000
# 3 3.5569 5.3232 38.5700 0.0000 0.0000 0.0000
# 4 0.0000 0.0000 0.0000 23.0423 0.0000 0.0000
# 5 0.0000 0.0000 0.0000 0.0000 26.7815 0.0000
# 6 0.0000 0.0000 0.0000 0.0000 0.0000 33.4756
#
#
#
# Elastic Compliance Matrix: (Units=1/GPa)
#
#
# Indices 1 2 3 4 5 6 
#
# 1 0.013555 -0.003342 -0.000789 0.000000 0.000000 0.000000
# 2 -0.003342 0.008444 -0.000857 0.000000 0.000000 0.000000
# 3 -0.000789 -0.000857 0.026118 0.000000 0.000000 0.000000
# 4 0.000000 0.000000 0.000000 0.043398 0.000000 0.000000
# 5 0.000000 0.000000 0.000000 0.000000 0.037339 0.000000
# 6 0.000000 0.000000 0.000000 0.000000 0.000000 0.029873
#
#
# Mechanical properties :
#
#
# Convention : Reuss Voigt Hill
#
# Bulk Modulus (GPa) = 26.21837 37.34062 31.77950
# Shear Modulus (GPa) = 27.56066 30.71886 29.13976
#
# Velocity S-wave (km/s) = 3.43069 3.62193 3.52760
# Velocity P-wave (km/s) = 5.18549 5.78250 5.49211
#
# Compressibility (1/GPa) = 0.03814120
#
# Stress axis : x y z
#
# Youngs Moduli (GPa) = 73.77111 118.42396 38.28782
#
# Poissons Ratio (x) = 0.39580 0.03020
# Poissons Ratio (y) = 0.24656 0.03282
# Poissons Ratio (z) = 0.05819 0.10151
#
# Static dielectric constant tensor:
#      x y z
#    x 1.928640 0.000000 0.000000 
#    y 0.000000 1.964700 0.000000 
#    z 0.000000 0.000000 1.943860 
# 
# From -- ./inp_files/5392.got.cif
#   From: 2010.05.17/outbox.cif.g08.bks.cpg/sg19_3_cif.got.tgz:5392.got - 2010.06.03 22:46:19.
