data_PCOD9313816
_publ_section_title
;
Structure prediction by ZEFSAII (Michael W. Deem and Ramdas Pophale) SiO2 
 PCOD9313816
Probable space group: P 21 21 21
;
_chemical_formula_sum "Si O2"
_cell_formula_units_Z 32
_cell_length_a 18.177233
_cell_length_b 8.105091
_cell_length_c 8.049600
_cell_angle_alpha 90.000000
_cell_angle_beta 90.000000
_cell_angle_gamma 90.000000
_cell_volume 1185.932496
_symmetry_space_group_name_H-M "P 21 21 21"
_symmetry_group_IT_number 19
_symmetry_cell_setting 'orthorhombic'
loop_
_space_group_symop_operation_xyz
x,y,z
1/2-x,-y,1/2+z
1/2+x,1/2-y,-z
-x,1/2+y,1/2-z
loop_
_atom_site_type_symbol
_atom_site_label
_atom_site_fract_x
_atom_site_fract_y
_atom_site_fract_z
Si Si1 0.499731 0.087604 0.288078
Si Si2 0.772500 0.210961 0.162771
Si Si3 0.144851 0.048601 0.426321
Si Si4 0.917179 0.122386 0.585037
Si Si5 0.992740 0.712249 0.226750
Si Si6 0.272520 0.259541 0.449439
Si Si7 0.145655 0.069322 0.831053
Si Si8 0.908365 0.001326 0.085010
O O1 0.536566 0.039554 0.116774
O O2 0.440369 0.955117 0.355969
O O3 0.567528 0.091913 0.417102
O O4 0.451617 0.251017 0.282083
O O5 0.818753 0.379332 0.131704
O O6 0.766385 0.190219 0.359950
O O7 0.690543 0.270153 0.109174
O O8 0.824359 0.064850 0.092699
O O9 0.067224 0.079213 0.339905
O O10 0.195126 0.206678 0.374583
O O11 0.149833 0.050390 0.628462
O O12 0.831016 0.110885 0.621179
O O13 0.942389 0.208552 0.414314
O O14 0.039245 0.659837 0.385415
O O15 0.943302 0.877260 0.222843
O O16 0.316422 0.085937 0.423295
#
# Coordination Sequence:
#
# PCOD9313816 Si02
#       8
#     4   4   4   4   4   4   4   4
#     4  10  22  36  57  84 112 146 189 235 286 338
#     4  10  20  37  61  85 114 149 195 238 284 342
#     4  10  20  35  63  84 111 152 193 234 289 340
#     4  10  20  38  57  81 113 144 185 236 282 339
#     4  11  22  38  58  83 116 149 191 235 290 336
#     4   9  19  36  58  85 114 148 192 234 279 343
#     4   9  19  36  60  85 112 149 194 233 285 343
#     4  11  24  38  58  85 116 151 191 241 287 341
#
# _framework density 26.982984999999999
#
# number of rings (size 3 to 8) (size 9 to 14) (size 15 to 20)
#    0.000    2.000    2.500    0.750    7.000    1.000 
#    0.000    1.250    2.750    0.000    0.000    0.000 
#    0.000    0.000    0.000    0.000    0.000    0.000 
#
# Total GULP energy -178729.289329 kJ/mol
# GULP energy per Si atom -5585.290292 kJ/mol
# Density = 2.692157 g / cm^3
# Si number density = 26.982985 Si / 1000 Ang^3
#
#
#
# Elastic Constant Matrix: (Units=GPa)
#
#
# Indices 1 2 3 4 5 6 
#
# 1 129.2020 -1.4150 16.3699 0.0000 0.0000 0.0000
# 2 -1.4150 79.7560 -4.6485 0.0000 0.0000 0.0000
# 3 16.3699 -4.6485 54.9835 0.0000 0.0000 0.0000
# 4 0.0000 0.0000 0.0000 25.9908 0.0000 0.0000
# 5 0.0000 0.0000 0.0000 0.0000 28.5352 0.0000
# 6 0.0000 0.0000 0.0000 0.0000 0.0000 44.4356
#
#
#
# Elastic Compliance Matrix: (Units=1/GPa)
#
#
# Indices 1 2 3 4 5 6 
#
# 1 0.008043 0.000003 -0.002394 0.000000 0.000000 0.000000
# 2 0.000003 0.012600 0.001064 0.000000 0.000000 0.000000
# 3 -0.002394 0.001064 0.018990 0.000000 0.000000 0.000000
# 4 0.000000 0.000000 0.000000 0.038475 0.000000 0.000000
# 5 0.000000 0.000000 0.000000 0.000000 0.035044 0.000000
# 6 0.000000 0.000000 0.000000 0.000000 0.000000 0.022504
#
#
# Mechanical properties :
#
#
# Convention : Reuss Voigt Hill
#
# Bulk Modulus (GPa) = 27.04176 31.61715 29.32945
# Shear Modulus (GPa) = 33.19212 36.70133 34.94672
#
# Velocity S-wave (km/s) = 3.51110 3.69204 3.60271
# Velocity P-wave (km/s) = 5.14594 5.46972 5.31029
#
# Compressibility (1/GPa) = 0.03697984
#
# Stress axis : x y z
#
# Youngs Moduli (GPa) = 124.32824 79.36296 52.65897
#
# Poissons Ratio (x) = -0.00025 0.12609
# Poissons Ratio (y) = -0.00039 -0.05605
# Poissons Ratio (z) = 0.29769 -0.08447
#
# Static dielectric constant tensor:
#      x y z
#    x 2.109820 0.000000 0.000000 
#    y 0.000000 2.252190 0.000000 
#    z 0.000000 0.000000 2.127860 
# 
# From -- ./inp_files/4311.got.cif
#   From: 2010.05.17/outbox.cif.g08.bks.cpg/sg19_3_cif.got.tgz:4311.got - 2010.06.03 22:46:19.
