data_PCOD9313817
_publ_section_title
;
Structure prediction by ZEFSAII (Michael W. Deem and Ramdas Pophale) SiO2 
 PCOD9313817
Probable space group: P 21 21 21
;
_chemical_formula_sum "Si O2"
_cell_formula_units_Z 24
_cell_length_a 5.056996
_cell_length_b 25.480977
_cell_length_c 6.898917
_cell_angle_alpha 90.000000
_cell_angle_beta 90.000000
_cell_angle_gamma 90.000000
_cell_volume 888.975119
_symmetry_space_group_name_H-M "P 21 21 21"
_symmetry_group_IT_number 19
_symmetry_cell_setting 'orthorhombic'
loop_
_space_group_symop_operation_xyz
x,y,z
1/2-x,-y,1/2+z
1/2+x,1/2-y,-z
-x,1/2+y,1/2-z
loop_
_atom_site_type_symbol
_atom_site_label
_atom_site_fract_x
_atom_site_fract_y
_atom_site_fract_z
Si Si1 0.473285 0.551921 0.397551
Si Si2 0.529871 0.385740 0.841458
Si Si3 0.900807 0.194956 0.884785
Si Si4 0.252394 0.947086 0.983182
Si Si5 0.597635 0.644783 0.819414
Si Si6 0.027914 0.274219 0.603997
O O1 0.185771 0.574730 0.433470
O O2 0.521215 0.540786 0.168979
O O3 0.575665 0.498521 0.489409
O O4 0.686891 0.598438 0.428523
O O5 0.448459 0.327180 0.899667
O O6 0.558317 0.403529 0.619605
O O7 0.624701 0.172830 0.808751
O O8 0.955978 0.254981 0.821422
O O9 0.122825 0.165888 0.754870
O O10 0.116778 0.917860 0.162300
O O11 0.526966 0.666567 0.037629
O O12 0.817013 0.242527 0.468478
#
# Coordination Sequence:
#
# PCOD9313817 Si02
#       6
#     4   4   4   4   4   4
#     4  10  25  39  56  82 116 156 192 246 285 347
#     4  10  24  38  58  83 116 149 197 235 295 343
#     4  10  20  35  63  85 114 149 193 238 288 345
#     4  10  26  38  60  82 122 151 202 238 295 346
#     4  10  21  35  63  85 114 150 193 239 288 343
#     4   8  16  33  54  87 110 141 187 234 281 344
#
# _framework density 26.99738
#
# number of rings (size 3 to 8) (size 9 to 14) (size 15 to 20)
#    1.000    1.333    0.000    1.000    9.333    0.000 
#    0.000    0.000    3.667    0.000    0.000    0.000 
#    0.000    0.000    0.000    0.000    0.000    0.000 
#
# Total GULP energy -134198.554891 kJ/mol
# GULP energy per Si atom -5591.606454 kJ/mol
# Density = 2.693593 g / cm^3
# Si number density = 26.997380 Si / 1000 Ang^3
#
#
#
# Elastic Constant Matrix: (Units=GPa)
#
#
# Indices 1 2 3 4 5 6 
#
# 1 133.3602 18.8898 9.1009 0.0000 0.0000 0.0000
# 2 18.8898 88.0553 31.9480 0.0000 0.0000 0.0000
# 3 9.1009 31.9480 63.9581 0.0000 0.0000 0.0000
# 4 0.0000 0.0000 0.0000 52.8035 0.0000 0.0000
# 5 0.0000 0.0000 0.0000 0.0000 25.3467 0.0000
# 6 0.0000 0.0000 0.0000 0.0000 0.0000 34.8472
#
#
#
# Elastic Compliance Matrix: (Units=1/GPa)
#
#
# Indices 1 2 3 4 5 6 
#
# 1 0.007739 -0.001540 -0.000332 0.000000 0.000000 0.000000
# 2 -0.001540 0.014177 -0.006862 0.000000 0.000000 0.000000
# 3 -0.000332 -0.006862 0.019110 0.000000 0.000000 0.000000
# 4 0.000000 0.000000 0.000000 0.018938 0.000000 0.000000
# 5 0.000000 0.000000 0.000000 0.000000 0.039453 0.000000
# 6 0.000000 0.000000 0.000000 0.000000 0.000000 0.028697
#
#
# Mechanical properties :
#
#
# Convention : Reuss Voigt Hill
#
# Bulk Modulus (GPa) = 42.44880 45.02789 43.73834
# Shear Modulus (GPa) = 32.58712 37.62846 35.10779
#
# Velocity S-wave (km/s) = 3.47803 3.73739 3.61004
# Velocity P-wave (km/s) = 5.64680 5.94466 5.79764
#
# Compressibility (1/GPa) = 0.02355779
#
# Stress axis : x y z
#
# Youngs Moduli (GPa) = 129.21152 70.53897 52.32775
#
# Poissons Ratio (x) = 0.10861 0.01738
# Poissons Ratio (y) = 0.19895 0.35909
# Poissons Ratio (z) = 0.04292 0.48406
#
# Static dielectric constant tensor:
#      x y z
#    x 2.029780 0.000000 0.000000 
#    y 0.000000 2.109420 0.000000 
#    z 0.000000 0.000000 2.220130 
# 
# From -- ./inp_files/2231.got.cif
#   From: 2010.05.17/outbox.cif.g08.bks.cpg/sg19_2_cif.got.tgz:2231.got - 2010.06.03 22:46:19.
