data_PCOD9313378
_publ_section_title
;
Structure prediction by ZEFSAII (Michael W. Deem and Ramdas Pophale) SiO2 
 PCOD9313378
Probable space group: P 21 21 21
;
_chemical_formula_sum "Si O2"
_cell_formula_units_Z 32
_cell_length_a 11.132660
_cell_length_b 12.835195
_cell_length_c 8.390755
_cell_angle_alpha 90.000000
_cell_angle_beta 90.000000
_cell_angle_gamma 90.000000
_cell_volume 1198.953824
_symmetry_space_group_name_H-M "P 21 21 21"
_symmetry_group_IT_number 19
_symmetry_cell_setting 'orthorhombic'
loop_
_space_group_symop_operation_xyz
x,y,z
1/2-x,-y,1/2+z
1/2+x,1/2-y,-z
-x,1/2+y,1/2-z
loop_
_atom_site_type_symbol
_atom_site_label
_atom_site_fract_x
_atom_site_fract_y
_atom_site_fract_z
Si Si1 0.991285 0.970310 0.021783
Si Si2 0.211646 0.640165 0.339603
Si Si3 0.320146 0.313315 0.182505
Si Si4 0.723690 0.886187 0.000192
Si Si5 0.303378 0.171656 0.659309
Si Si6 0.348159 0.875326 0.662872
Si Si7 0.848096 0.516452 0.993250
Si Si8 0.004546 0.378530 0.819118
O O1 0.082365 0.897552 0.121260
O O2 0.858163 0.923464 0.036354
O O3 0.025210 0.086035 0.088816
O O4 0.026346 0.944795 0.839640
O O5 0.190327 0.618369 0.523652
O O6 0.171505 0.759634 0.313338
O O7 0.355820 0.645612 0.319106
O O8 0.175779 0.579533 0.175164
O O9 0.340330 0.392372 0.329654
O O10 0.196901 0.243116 0.181994
O O11 0.425841 0.227025 0.182365
O O12 0.715339 0.761435 0.972468
O O13 0.184601 0.102534 0.641045
O O14 0.254867 0.931119 0.542382
O O15 0.339515 0.928016 0.837363
O O16 0.968531 0.453073 0.964614
#
# Coordination Sequence:
#
# PCOD9313378 Si02
#       8
#     4   4   4   4   4   4   4   4
#     4  10  19  31  51  72 102 128 159 200 248 288
#     4   9  21  31  48  72  98 132 162 191 248 290
#     4  11  19  33  51  71 104 126 160 201 239 292
#     4   9  19  33  46  72 101 130 161 193 242 295
#     4   9  17  33  46  70  99 130 156 195 243 286
#     4  10  19  28  46  74  95 129 154 199 253 291
#     4  10  18  28  47  70 100 124 157 198 254 290
#     4  10  20  33  47  77  99 125 163 203 241 296
#
# _framework density 26.689934999999998
#
# number of rings (size 3 to 8) (size 9 to 14) (size 15 to 20)
#    0.750    1.500    2.500    2.250   10.500    0.000 
#    0.000    0.000    0.000    0.000    0.000   10.500 
#    0.000    0.000    0.000    0.000    0.000    0.000 
#
# Total GULP energy -178729.441006 kJ/mol
# GULP energy per Si atom -5585.295031 kJ/mol
# Density = 2.662919 g / cm^3
# Si number density = 26.689935 Si / 1000 Ang^3
#
#
#
# Elastic Constant Matrix: (Units=GPa)
#
#
# Indices 1 2 3 4 5 6 
#
# 1 54.2493 32.3829 37.8927 0.0000 0.0000 0.0000
# 2 32.3829 82.4701 32.1868 0.0000 0.0000 0.0000
# 3 37.8927 32.1868 168.3884 0.0000 0.0000 0.0000
# 4 0.0000 0.0000 0.0000 45.1796 0.0000 0.0000
# 5 0.0000 0.0000 0.0000 0.0000 23.9675 0.0000
# 6 0.0000 0.0000 0.0000 0.0000 0.0000 28.7600
#
#
#
# Elastic Compliance Matrix: (Units=1/GPa)
#
#
# Indices 1 2 3 4 5 6 
#
# 1 0.026709 -0.008798 -0.004329 0.000000 0.000000 0.000000
# 2 -0.008798 0.016001 -0.001079 0.000000 0.000000 0.000000
# 3 -0.004329 -0.001079 0.007119 0.000000 0.000000 0.000000
# 4 0.000000 0.000000 0.000000 0.022134 0.000000 0.000000
# 5 0.000000 0.000000 0.000000 0.000000 0.041723 0.000000
# 6 0.000000 0.000000 0.000000 0.000000 0.000000 0.034771
#
#
# Mechanical properties :
#
#
# Convention : Reuss Voigt Hill
#
# Bulk Modulus (GPa) = 46.68953 56.67030 51.67991
# Shear Modulus (GPa) = 27.17290 33.09110 30.13200
#
# Velocity S-wave (km/s) = 3.19422 3.52495 3.36365
# Velocity P-wave (km/s) = 5.57991 6.15191 5.87287
#
# Compressibility (1/GPa) = 0.02141808
#
# Stress axis : x y z
#
# Youngs Moduli (GPa) = 37.44094 62.49488 140.47083
#
# Poissons Ratio (x) = 0.54984 0.60804
# Poissons Ratio (y) = 0.32941 0.15153
# Poissons Ratio (z) = 0.16207 0.06742
#
# Static dielectric constant tensor:
#      x y z
#    x 2.145140 0.000000 0.000000 
#    y 0.000000 2.064530 0.000000 
#    z 0.000000 0.000000 2.185030 
# 
# From -- ./inp_files/3758.got.cif
#   From: 2010.05.17/outbox.cif.g08.bks.cpg/sg19_2_cif.got.tgz:3758.got - 2010.06.03 22:46:19.
