data_PCOD9313386
_publ_section_title
;
Structure prediction by ZEFSAII (Michael W. Deem and Ramdas Pophale) SiO2 
 PCOD9313386
Probable space group: P 21 21 21
;
_chemical_formula_sum "Si O2"
_cell_formula_units_Z 32
_cell_length_a 9.247359
_cell_length_b 7.176941
_cell_length_c 19.559353
_cell_angle_alpha 90.000000
_cell_angle_beta 90.000000
_cell_angle_gamma 90.000000
_cell_volume 1298.110249
_symmetry_space_group_name_H-M "P 21 21 21"
_symmetry_group_IT_number 19
_symmetry_cell_setting 'orthorhombic'
loop_
_space_group_symop_operation_xyz
x,y,z
1/2-x,-y,1/2+z
1/2+x,1/2-y,-z
-x,1/2+y,1/2-z
loop_
_atom_site_type_symbol
_atom_site_label
_atom_site_fract_x
_atom_site_fract_y
_atom_site_fract_z
Si Si1 0.240751 0.960136 0.082107
Si Si2 0.086786 0.399539 0.413177
Si Si3 0.321985 0.996547 0.937330
Si Si4 0.002005 0.736520 0.219020
Si Si5 0.041488 0.344976 0.141979
Si Si6 0.783741 0.984997 0.948877
Si Si7 0.839775 0.643524 0.784518
Si Si8 0.458802 0.039589 0.351697
O O1 0.255003 0.734545 0.070202
O O2 0.325475 0.000838 0.151821
O O3 0.069556 0.996423 0.083137
O O4 0.299664 0.054248 0.014639
O O5 0.074035 0.184882 0.440365
O O6 0.195147 0.485256 0.469169
O O7 0.098487 0.362902 0.331334
O O8 0.388738 0.167901 0.895941
O O9 0.180906 0.917423 0.898752
O O10 0.013726 0.536522 0.184435
O O11 0.171375 0.794512 0.223435
O O12 0.932309 0.715872 0.293313
O O13 0.161207 0.390199 0.086073
O O14 0.929013 0.039055 0.907673
O O15 0.899179 0.579242 0.711771
O O16 0.950979 0.797097 0.814104
#
# Coordination Sequence:
#
# PCOD9313386 Si02
#       8
#     4   4   4   4   4   4   4   4
#     4   9  16  31  52  78 111 138 180 239 276 312
#     4   9  17  30  52  80 109 138 184 235 278 311
#     4  10  18  29  53  83 102 142 186 226 282 324
#     4  10  20  37  55  85 113 150 184 230 280 338
#     4  11  20  36  57  82 115 148 184 225 282 339
#     4  10  18  31  52  83 111 138 184 241 274 318
#     4  10  21  36  54  84 118 146 185 232 283 328
#     4  11  20  34  55  83 113 148 183 230 283 330
#
# _framework density 24.651219000000001
#
# number of rings (size 3 to 8) (size 9 to 14) (size 15 to 20)
#    0.000    2.000    7.500    0.000    0.000    2.000 
#    0.000    0.000    0.000    1.500    0.000    0.000 
#    0.000    0.000    0.000    0.000    0.000    0.000 
#
# Total GULP energy -178533.713118 kJ/mol
# GULP energy per Si atom -5579.178535 kJ/mol
# Density = 2.459511 g / cm^3
# Si number density = 24.651219 Si / 1000 Ang^3
#
#
#
# Elastic Constant Matrix: (Units=GPa)
#
#
# Indices 1 2 3 4 5 6 
#
# 1 90.3173 12.7152 40.5872 0.0000 0.0000 0.0000
# 2 12.7152 50.6537 39.8828 0.0000 0.0000 0.0000
# 3 40.5872 39.8828 155.3105 0.0000 0.0000 0.0000
# 4 0.0000 0.0000 0.0000 37.9543 0.0000 0.0000
# 5 0.0000 0.0000 0.0000 0.0000 52.7172 0.0000
# 6 0.0000 0.0000 0.0000 0.0000 0.0000 33.6579
#
#
#
# Elastic Compliance Matrix: (Units=1/GPa)
#
#
# Indices 1 2 3 4 5 6 
#
# 1 0.012566 -0.000713 -0.003101 0.000000 0.000000 0.000000
# 2 -0.000713 0.024786 -0.006178 0.000000 0.000000 0.000000
# 3 -0.003101 -0.006178 0.008836 0.000000 0.000000 0.000000
# 4 0.000000 0.000000 0.000000 0.026347 0.000000 0.000000
# 5 0.000000 0.000000 0.000000 0.000000 0.018969 0.000000
# 6 0.000000 0.000000 0.000000 0.000000 0.000000 0.029711
#
#
# Mechanical properties :
#
#
# Convention : Reuss Voigt Hill
#
# Bulk Modulus (GPa) = 38.16389 53.62798 45.89594
# Shear Modulus (GPa) = 33.34824 38.40563 35.87694
#
# Velocity S-wave (km/s) = 3.68204 3.95138 3.81909
# Velocity P-wave (km/s) = 5.79583 6.52839 6.17299
#
# Compressibility (1/GPa) = 0.02620278
#
# Stress axis : x y z
#
# Youngs Moduli (GPa) = 79.58066 40.34606 113.17809
#
# Poissons Ratio (x) = 0.02876 0.35094
# Poissons Ratio (y) = 0.05673 0.69927
# Poissons Ratio (z) = 0.24676 0.24928
#
# Static dielectric constant tensor:
#      x y z
#    x 1.953680 0.000000 0.000000 
#    y 0.000000 2.139660 0.000000 
#    z 0.000000 0.000000 2.016410 
# 
# From -- ./inp_files/4811.got.cif
#   From: 2010.05.17/outbox.cif.g08.bks.cpg/sg19_3_cif.got.tgz:4811.got - 2010.06.03 22:46:19.
