data_PCOD9313074
_publ_section_title
;
Structure prediction by ZEFSAII (Michael W. Deem and Ramdas Pophale) SiO2 
 PCOD9313074
Probable space group: P 21 21 2
;
_chemical_formula_sum "Si O2"
_cell_formula_units_Z 30
_cell_length_a 8.449327
_cell_length_b 19.119243
_cell_length_c 8.338313
_cell_angle_alpha 90.000000
_cell_angle_beta 90.000000
_cell_angle_gamma 90.000000
_cell_volume 1347.010573
_symmetry_space_group_name_H-M "P 21 21 2"
_symmetry_group_IT_number 18
_symmetry_cell_setting 'orthorhombic'
loop_
_space_group_symop_operation_xyz
x,y,z
-x,-y,z
1/2+x,1/2-y,-z
1/2-x,1/2+y,-z
loop_
_atom_site_type_symbol
_atom_site_label
_atom_site_fract_x
_atom_site_fract_y
_atom_site_fract_z
Si Si1 0.838948 0.958489 0.612853
Si Si2 0.868330 0.239429 0.289318
Si Si3 0.408801 0.568487 0.029323
Si Si4 0.974308 0.629903 0.145627
Si Si5 0.135646 0.650378 0.846700
Si Si6 0.844106 0.189938 0.948514
Si Si7 0.000000 0.500000 0.376962
Si Si8 0.312333 0.687060 0.547192
O O1 0.825309 0.958709 0.807636
O O2 0.861855 0.879358 0.556833
O O3 0.671902 0.986871 0.541464
O O4 0.000000 0.000000 0.572487
O O5 0.812623 0.193535 0.139599
O O6 0.748451 0.250238 0.434832
O O7 0.895059 0.316878 0.215230
O O8 0.036596 0.211052 0.350526
O O9 0.500000 0.500000 0.961907
O O10 0.291455 0.609072 0.910312
O O11 0.530192 0.629328 0.080630
O O12 0.970610 0.565808 0.263056
O O13 0.811192 0.670994 0.147580
O O14 0.006511 0.612069 0.958617
O O15 0.167273 0.659740 0.658797
O O16 0.109838 0.731658 0.898607
#
# Coordination Sequence:
#
# PCOD9313074 Si02
#       8
#     4   4   4   4   4   4   2   4
#     4  11  25  44  71  99 139 194 229 283 355 439
#     4  11  25  42  67  98 136 182 223 288 352 426
#     4  11  22  43  70 102 130 179 240 288 346 416
#     4  11  22  41  69  96 130 175 235 288 341 406
#     4  11  22  41  66  98 134 171 229 294 342 413
#     4  11  22  42  68 100 128 177 233 293 344 412
#     4  12  22  46  70 102 136 182 238 284 348 428
#     4  12  25  44  63 104 142 178 230 286 362 435
#
# _framework density 22.271539000000001
#
# number of rings (size 3 to 8) (size 9 to 14) (size 15 to 20)
#    0.000    0.800    5.333    3.200    3.733    1.600 
#    0.000    0.667    0.000    0.000    0.000    0.000 
#    0.000    0.000    0.000    0.000    0.000    0.000 
#
# Total GULP energy -167419.099609 kJ/mol
# GULP energy per Si atom -5580.636654 kJ/mol
# Density = 2.222085 g / cm^3
# Si number density = 22.271539 Si / 1000 Ang^3
#
#
#
# Elastic Constant Matrix: (Units=GPa)
#
#
# Indices 1 2 3 4 5 6 
#
# 1 70.9048 26.2502 -1.6451 0.0000 0.0000 0.0000
# 2 26.2502 79.7209 -3.9652 0.0000 0.0000 0.0000
# 3 -1.6451 -3.9652 34.2885 0.0000 0.0000 0.0000
# 4 0.0000 0.0000 0.0000 21.4385 0.0000 0.0000
# 5 0.0000 0.0000 0.0000 0.0000 27.1145 0.0000
# 6 0.0000 0.0000 0.0000 0.0000 0.0000 40.4010
#
#
#
# Elastic Compliance Matrix: (Units=1/GPa)
#
#
# Indices 1 2 3 4 5 6 
#
# 1 0.016062 -0.005281 0.000160 0.000000 0.000000 0.000000
# 2 -0.005281 0.014353 0.001406 0.000000 0.000000 0.000000
# 3 0.000160 0.001406 0.029335 0.000000 0.000000 0.000000
# 4 0.000000 0.000000 0.000000 0.046645 0.000000 0.000000
# 5 0.000000 0.000000 0.000000 0.000000 0.036881 0.000000
# 6 0.000000 0.000000 0.000000 0.000000 0.000000 0.024752
#
#
# Mechanical properties :
#
#
# Convention : Reuss Voigt Hill
#
# Bulk Modulus (GPa) = 19.11307 25.13267 22.12287
# Shear Modulus (GPa) = 25.92066 28.74242 27.33154
#
# Velocity S-wave (km/s) = 3.41522 3.59631 3.50694
# Velocity P-wave (km/s) = 4.91448 5.34357 5.13351
#
# Compressibility (1/GPa) = 0.05232021
#
# Stress axis : x y z
#
# Youngs Moduli (GPa) = 62.25780 69.67371 34.08940
#
# Poissons Ratio (x) = 0.36794 -0.00545
# Poissons Ratio (y) = 0.32878 -0.04794
# Poissons Ratio (z) = -0.00996 -0.09799
#
# Static dielectric constant tensor:
#      x y z
#    x 1.888270 0.000000 0.000000 
#    y 0.000000 1.769000 0.000000 
#    z 0.000000 0.000000 1.847180 
# 
# From -- ./inp_files/3503.got.cif
#   From: 2010.05.17/outbox.cif.g08.bks.cpg/sg18_2_cif.got.tgz:3503.got - 2010.06.03 22:40:56.
