data_PCOD9313559
_publ_section_title
;
Structure prediction by ZEFSAII (Michael W. Deem and Ramdas Pophale) SiO2 
 PCOD9313559
Probable space group: P 21 21 21
;
_chemical_formula_sum "Si O2"
_cell_formula_units_Z 28
_cell_length_a 29.386093
_cell_length_b 9.702869
_cell_length_c 4.995029
_cell_angle_alpha 90.000000
_cell_angle_beta 90.000000
_cell_angle_gamma 90.000000
_cell_volume 1424.229676
_symmetry_space_group_name_H-M "P 21 21 21"
_symmetry_group_IT_number 19
_symmetry_cell_setting 'orthorhombic'
loop_
_space_group_symop_operation_xyz
x,y,z
1/2-x,-y,1/2+z
1/2+x,1/2-y,-z
-x,1/2+y,1/2-z
loop_
_atom_site_type_symbol
_atom_site_label
_atom_site_fract_x
_atom_site_fract_y
_atom_site_fract_z
Si Si1 0.230330 0.059426 0.610803
Si Si2 0.306026 0.427244 0.438209
Si Si3 0.484612 0.169513 0.506418
Si Si4 0.633301 0.540596 0.474774
Si Si5 0.251171 0.331208 0.932218
Si Si6 0.120116 0.777473 0.035762
Si Si7 0.971061 0.527840 0.007890
O O1 0.259066 0.056885 0.336517
O O2 0.177922 0.053260 0.520729
O O3 0.243835 0.185574 0.798475
O O4 0.273677 0.350293 0.222344
O O5 0.296645 0.588099 0.398909
O O6 0.355529 0.360936 0.437392
O O7 0.286599 0.403779 0.733657
O O8 0.433938 0.230463 0.553677
O O9 0.514132 0.310962 0.488866
O O10 0.492636 0.059748 0.746323
O O11 0.483193 0.069931 0.246264
O O12 0.639377 0.665793 0.684515
O O13 0.584148 0.475125 0.538831
O O14 0.630350 0.605044 0.181171
#
# Coordination Sequence:
#
# PCOD9313559 Si02
#       7
#     4   4   4   4   4   4   4
#     4  12  22  34  54  80 110 146 191 226 276 334
#     4  10  19  35  53  73 106 144 181 228 269 317
#     4  10  21  38  64  89 118 153 199 237 301 356
#     4  10  21  35  56  82 112 146 183 233 279 332
#     4  10  21  33  51  75 107 143 181 226 275 316
#     4  10  19  35  58  81 104 146 193 219 275 348
#     4  10  21  40  62  90 121 156 194 247 297 357
#
# _framework density 19.659749999999999
#
# number of rings (size 3 to 8) (size 9 to 14) (size 15 to 20)
#    0.000    1.714    0.000    6.000    0.000    0.000 
#    2.571    0.000    6.286    0.000    0.000    0.000 
#    0.000    0.000    0.000    0.000    0.000    0.000 
#
# Total GULP energy -155964.931696 kJ/mol
# GULP energy per Si atom -5570.176132 kJ/mol
# Density = 1.961500 g / cm^3
# Si number density = 19.659750 Si / 1000 Ang^3
#
#
#
# Elastic Constant Matrix: (Units=GPa)
#
#
# Indices 1 2 3 4 5 6 
#
# 1 58.6720 8.7737 5.0280 0.0000 0.0000 0.0000
# 2 8.7737 55.5303 25.3211 0.0000 0.0000 0.0000
# 3 5.0280 25.3211 91.0670 0.0000 0.0000 0.0000
# 4 0.0000 0.0000 0.0000 17.9645 0.0000 0.0000
# 5 0.0000 0.0000 0.0000 0.0000 15.3990 0.0000
# 6 0.0000 0.0000 0.0000 0.0000 0.0000 24.0621
#
#
#
# Elastic Compliance Matrix: (Units=1/GPa)
#
#
# Indices 1 2 3 4 5 6 
#
# 1 0.017460 -0.002656 -0.000226 0.000000 0.000000 0.000000
# 2 -0.002656 0.021027 -0.005700 0.000000 0.000000 0.000000
# 3 -0.000226 -0.005700 0.012578 0.000000 0.000000 0.000000
# 4 0.000000 0.000000 0.000000 0.055665 0.000000 0.000000
# 5 0.000000 0.000000 0.000000 0.000000 0.064939 0.000000
# 6 0.000000 0.000000 0.000000 0.000000 0.000000 0.041559
#
#
# Mechanical properties :
#
#
# Convention : Reuss Voigt Hill
#
# Bulk Modulus (GPa) = 29.49599 31.50164 30.49881
# Shear Modulus (GPa) = 20.68741 22.56156 21.62449
#
# Velocity S-wave (km/s) = 3.24739 3.39130 3.32013
# Velocity P-wave (km/s) = 5.39412 5.60293 5.49952
#
# Compressibility (1/GPa) = 0.03390292
#
# Stress axis : x y z
#
# Youngs Moduli (GPa) = 57.27252 47.55823 79.50250
#
# Poissons Ratio (x) = 0.12631 0.01793
# Poissons Ratio (y) = 0.15211 0.45315
# Poissons Ratio (z) = 0.01292 0.27108
#
# Static dielectric constant tensor:
#      x y z
#    x 1.705530 0.000000 0.000000 
#    y 0.000000 1.835550 0.000000 
#    z 0.000000 0.000000 1.711430 
# 
# From -- ./inp_files/2261.got.cif
#   From: 2010.05.17/outbox.cif.g08.bks.cpg/sg19_2_cif.got.tgz:2261.got - 2010.06.03 22:46:19.
