data_PCOD9313218
_publ_section_title
;
Structure prediction by ZEFSAII (Michael W. Deem and Ramdas Pophale) SiO2 
 PCOD9313218
Probable space group: P 21 21 2
;
_chemical_formula_sum "Si O2"
_cell_formula_units_Z 14
_cell_length_a 7.223536
_cell_length_b 6.048715
_cell_length_c 12.161060
_cell_angle_alpha 90.000000
_cell_angle_beta 90.000000
_cell_angle_gamma 90.000000
_cell_volume 531.354539
_symmetry_space_group_name_H-M "P 21 21 2"
_symmetry_group_IT_number 18
_symmetry_cell_setting 'orthorhombic'
loop_
_space_group_symop_operation_xyz
x,y,z
-x,-y,z
1/2+x,1/2-y,-z
1/2-x,1/2+y,-z
loop_
_atom_site_type_symbol
_atom_site_label
_atom_site_fract_x
_atom_site_fract_y
_atom_site_fract_z
Si Si1 0.500000 0.000000 0.750000
Si Si2 0.724486 0.845172 0.355759
Si Si3 0.724487 0.154828 0.144241
Si Si4 0.500000 0.500000 0.465702
Si Si5 0.500000 0.500000 0.034299
O O1 0.369715 0.845892 0.677350
O O2 0.630284 0.845892 0.822650
O O3 0.540545 0.716396 0.393086
O O4 0.822126 0.970829 0.456388
O O5 0.709201 1.000000 0.250000
O O6 0.540546 0.283604 0.106914
O O7 0.822126 0.029171 0.043612
#
# Coordination Sequence:
#
# PCOD9313218 Si02
#       5
#     2   4   4   2   2
#     4  12  22  54  80 122 170 202 274 360 392 480
#     4  12  27  55  83 122 170 215 280 349 403 505
#     4  12  27  55  83 122 170 215 280 349 403 505
#     4  12  27  55  86 118 166 226 274 334 438 478
#     4  12  27  55  86 118 166 226 274 334 438 478
#
# _framework density 26.347757999999999
#
# number of rings (size 3 to 8) (size 9 to 14) (size 15 to 20)
#    0.000    0.000    5.714    3.429    0.000    1.143 
#   10.286    0.000    0.000    0.000    0.000    0.000 
#    0.000    0.000    0.000    0.000    0.000    0.000 
#
# Total GULP energy -78735.824732 kJ/mol
# GULP energy per Si atom -5623.987481 kJ/mol
# Density = 2.628779 g / cm^3
# Si number density = 26.347758 Si / 1000 Ang^3
#
#
#
# Elastic Constant Matrix: (Units=GPa)
#
#
# Indices 1 2 3 4 5 6 
#
# 1 117.6409 54.1536 67.1385 0.0000 0.0000 0.0000
# 2 54.1536 142.8334 109.0444 0.0000 0.0000 0.0000
# 3 67.1385 109.0444 188.7613 0.0000 0.0000 0.0000
# 4 0.0000 0.0000 0.0000 74.5260 0.0000 0.0000
# 5 0.0000 0.0000 0.0000 0.0000 51.7641 0.0000
# 6 0.0000 0.0000 0.0000 0.0000 0.0000 80.8227
#
#
#
# Elastic Compliance Matrix: (Units=1/GPa)
#
#
# Indices 1 2 3 4 5 6 
#
# 1 0.011013 -0.002120 -0.002692 0.000000 0.000000 0.000000
# 2 -0.002120 0.012933 -0.006717 0.000000 0.000000 0.000000
# 3 -0.002692 -0.006717 0.010136 0.000000 0.000000 0.000000
# 4 0.000000 0.000000 0.000000 0.013418 0.000000 0.000000
# 5 0.000000 0.000000 0.000000 0.000000 0.019318 0.000000
# 6 0.000000 0.000000 0.000000 0.000000 0.000000 0.012373
#
#
# Mechanical properties :
#
#
# Convention : Reuss Voigt Hill
#
# Bulk Modulus (GPa) = 90.72249 101.10097 95.91173
# Shear Modulus (GPa) = 47.20349 56.01582 51.60966
#
# Velocity S-wave (km/s) = 4.23727 4.61588 4.43062
# Velocity P-wave (km/s) = 7.64505 8.17701 7.91550
#
# Compressibility (1/GPa) = 0.01102263
#
# Stress axis : x y z
#
# Youngs Moduli (GPa) = 90.80273 77.32108 98.66047
#
# Poissons Ratio (x) = 0.16391 0.26564
# Poissons Ratio (y) = 0.19249 0.66273
# Poissons Ratio (z) = 0.24448 0.51938
#
# Static dielectric constant tensor:
#      x y z
#    x 2.060430 0.000000 0.000000 
#    y 0.000000 2.096510 0.000000 
#    z 0.000000 0.000000 2.028330 
# 
# From -- ./inp_files/379.got.cif
#   From: 2010.05.17/outbox.cif.g08.bks.cpg/sg18_1_cif.got.tgz:379.got - 2010.06.03 22:40:56.
