data_PCOD9313034
_publ_section_title
;
Structure prediction by ZEFSAII (Michael W. Deem and Ramdas Pophale) SiO2 
 PCOD9313034
Probable space group: P 21 21 2
;
_chemical_formula_sum "Si O2"
_cell_formula_units_Z 16
_cell_length_a 16.257662
_cell_length_b 4.941579
_cell_length_c 10.730354
_cell_angle_alpha 90.000000
_cell_angle_beta 90.000000
_cell_angle_gamma 90.000000
_cell_volume 862.060772
_symmetry_space_group_name_H-M "P 21 21 2"
_symmetry_group_IT_number 18
_symmetry_cell_setting 'orthorhombic'
loop_
_space_group_symop_operation_xyz
x,y,z
-x,-y,z
1/2+x,1/2-y,-z
1/2-x,1/2+y,-z
loop_
_atom_site_type_symbol
_atom_site_label
_atom_site_fract_x
_atom_site_fract_y
_atom_site_fract_z
Si Si1 0.233522 0.642240 0.839939
Si Si2 0.945367 0.265879 0.310580
Si Si3 0.229530 0.918202 0.421285
Si Si4 0.338097 0.145013 0.911098
O O1 0.224196 0.543859 0.699159
O O2 0.306138 0.450046 0.892490
O O3 0.269301 0.944416 0.851827
O O4 0.160961 0.598966 0.940496
O O5 0.916404 0.380184 0.176162
O O6 0.000000 0.500000 0.372931
O O7 0.860735 0.185882 0.379926
O O8 0.000000 0.000000 0.296614
O O9 0.224453 0.163025 0.519196
#
# Coordination Sequence:
#
# PCOD9313034 Si02
#       4
#     4   4   4   4
#     4   9  17  31  52  78 104 132 172 224 266 310
#     4  11  21  35  55  82 111 141 182 236 289 329
#     4  11  21  35  55  82 112 149 193 226 262 328
#     4   9  17  31  52  78 104 130 168 220 279 321
#
# _framework density 18.560179000000002
#
# number of rings (size 3 to 8) (size 9 to 14) (size 15 to 20)
#    0.000    2.000    0.000    7.500    0.000    0.000 
#    0.000    0.000    0.000    6.000    0.000   10.500 
#    0.000    0.000    0.000    0.000    0.000    0.000 
#
# Total GULP energy -89110.397262 kJ/mol
# GULP energy per Si atom -5569.399829 kJ/mol
# Density = 1.851794 g / cm^3
# Si number density = 18.560179 Si / 1000 Ang^3
#
#
#
# Elastic Constant Matrix: (Units=GPa)
#
#
# Indices 1 2 3 4 5 6 
#
# 1 56.9703 21.7792 46.2256 0.0000 0.0000 0.0000
# 2 21.7792 78.6669 29.6334 0.0000 0.0000 0.0000
# 3 46.2256 29.6334 111.7706 0.0000 0.0000 0.0000
# 4 0.0000 0.0000 0.0000 25.4903 0.0000 0.0000
# 5 0.0000 0.0000 0.0000 0.0000 9.1886 0.0000
# 6 0.0000 0.0000 0.0000 0.0000 0.0000 31.9120
#
#
#
# Elastic Compliance Matrix: (Units=1/GPa)
#
#
# Indices 1 2 3 4 5 6 
#
# 1 0.027344 -0.003678 -0.010334 0.000000 0.000000 0.000000
# 2 -0.003678 0.014617 -0.002354 0.000000 0.000000 0.000000
# 3 -0.010334 -0.002354 0.013845 0.000000 0.000000 0.000000
# 4 0.000000 0.000000 0.000000 0.039231 0.000000 0.000000
# 5 0.000000 0.000000 0.000000 0.000000 0.108831 0.000000
# 6 0.000000 0.000000 0.000000 0.000000 0.000000 0.031336
#
#
# Mechanical properties :
#
#
# Convention : Reuss Voigt Hill
#
# Bulk Modulus (GPa) = 43.33847 49.18713 46.26280
# Shear Modulus (GPa) = 18.14058 23.30281 20.72169
#
# Velocity S-wave (km/s) = 3.12972 3.54719 3.34497
# Velocity P-wave (km/s) = 6.03830 6.58298 6.31652
#
# Compressibility (1/GPa) = 0.02307419
#
# Stress axis : x y z
#
# Youngs Moduli (GPa) = 36.57174 68.41421 72.22917
#
# Poissons Ratio (x) = 0.25159 0.74639
# Poissons Ratio (y) = 0.13449 0.17006
# Poissons Ratio (z) = 0.37792 0.16107
#
# Static dielectric constant tensor:
#      x y z
#    x 1.661400 0.000000 0.000000 
#    y 0.000000 1.651740 0.000000 
#    z 0.000000 0.000000 1.712900 
# 
# From -- ./inp_files/2418.got.cif
#   From: 2010.05.17/outbox.cif.g08.bks.cpg/sg18_2_cif.got.tgz:2418.got - 2010.06.03 22:40:56.
