data_PCOD9313173
_publ_section_title
;
Structure prediction by ZEFSAII (Michael W. Deem and Ramdas Pophale) SiO2 
 PCOD9313173
Probable space group: P 21 21 2
;
_chemical_formula_sum "Si O2"
_cell_formula_units_Z 14
_cell_length_a 5.226713
_cell_length_b 12.864610
_cell_length_c 8.337287
_cell_angle_alpha 90.000000
_cell_angle_beta 90.000000
_cell_angle_gamma 90.000000
_cell_volume 560.596046
_symmetry_space_group_name_H-M "P 21 21 2"
_symmetry_group_IT_number 18
_symmetry_cell_setting 'orthorhombic'
loop_
_space_group_symop_operation_xyz
x,y,z
-x,-y,z
1/2+x,1/2-y,-z
1/2-x,1/2+y,-z
loop_
_atom_site_type_symbol
_atom_site_label
_atom_site_fract_x
_atom_site_fract_y
_atom_site_fract_z
Si Si1 0.898732 0.116936 0.394995
Si Si2 0.500000 0.000000 0.962559
Si Si3 0.380407 0.165728 0.208123
Si Si4 0.379183 0.385684 0.225899
O O1 0.617608 0.131654 0.321652
O O2 0.898838 0.135157 0.585266
O O3 0.116364 0.182336 0.304409
O O4 0.000000 0.000000 0.374860
O O5 0.395611 0.911757 0.844926
O O6 0.663096 0.928179 0.084095
O O7 0.464662 0.278913 0.141851
O O8 0.500000 0.500000 0.195583
#
# Coordination Sequence:
#
# PCOD9313173 Si02
#       4
#     4   2   4   4
#     4  11  24  50  79 113 145 200 257 313 368 456
#     4  12  30  46  76 112 154 200 250 314 388 454
#     4  12  27  51  79 108 155 198 256 308 387 443
#     4  11  30  46  78 109 155 197 258 312 380 444
#
# _framework density 24.973417999999999
#
# number of rings (size 3 to 8) (size 9 to 14) (size 15 to 20)
#    0.000    0.571    2.857    1.714   20.000    0.000 
#    0.000    0.000    0.000    0.000    0.000    0.000 
#    0.000    0.000    0.000    0.000    0.000    0.000 
#
# Total GULP energy -78180.410662 kJ/mol
# GULP energy per Si atom -5584.315047 kJ/mol
# Density = 2.491658 g / cm^3
# Si number density = 24.973418 Si / 1000 Ang^3
#
#
#
# Elastic Constant Matrix: (Units=GPa)
#
#
# Indices 1 2 3 4 5 6 
#
# 1 73.2126 -19.3316 53.6894 0.0000 0.0000 0.0000
# 2 -19.3316 148.8664 43.8321 0.0000 0.0000 0.0000
# 3 53.6894 43.8321 85.1915 0.0000 0.0000 0.0000
# 4 0.0000 0.0000 0.0000 23.9892 0.0000 0.0000
# 5 0.0000 0.0000 0.0000 0.0000 30.3995 0.0000
# 6 0.0000 0.0000 0.0000 0.0000 0.0000 48.5934
#
#
#
# Elastic Compliance Matrix: (Units=1/GPa)
#
#
# Indices 1 2 3 4 5 6 
#
# 1 0.045618 0.016958 -0.037474 0.000000 0.000000 0.000000
# 2 0.016958 0.014221 -0.018004 0.000000 0.000000 0.000000
# 3 -0.037474 -0.018004 0.044618 0.000000 0.000000 0.000000
# 4 0.000000 0.000000 0.000000 0.041685 0.000000 0.000000
# 5 0.000000 0.000000 0.000000 0.000000 0.032895 0.000000
# 6 0.000000 0.000000 0.000000 0.000000 0.000000 0.020579
#
#
# Mechanical properties :
#
#
# Convention : Reuss Voigt Hill
#
# Bulk Modulus (GPa) = 36.47476 51.51671 43.99573
# Shear Modulus (GPa) = 17.49506 35.86847 26.68177
#
# Velocity S-wave (km/s) = 2.64966 3.79392 3.27220
# Velocity P-wave (km/s) = 4.89878 6.31389 5.65081
#
# Compressibility (1/GPa) = 0.02741622
#
# Stress axis : x y z
#
# Youngs Moduli (GPa) = 21.92137 70.32081 22.41232
#
# Poissons Ratio (x) = -1.19248 0.83988
# Poissons Ratio (y) = -0.37174 0.40351
# Poissons Ratio (z) = 0.82148 1.26604
#
# Static dielectric constant tensor:
#      x y z
#    x 2.207430 0.000000 0.000000 
#    y 0.000000 2.021560 0.000000 
#    z 0.000000 0.000000 1.928140 
# 
# From -- ./inp_files/2368.got.cif
#   From: 2010.05.17/outbox.cif.g08.bks.cpg/sg18_2_cif.got.tgz:2368.got - 2010.06.03 22:40:56.
