data_PCOD9313482
_publ_section_title
;
Structure prediction by ZEFSAII (Michael W. Deem and Ramdas Pophale) SiO2 
 PCOD9313482
Probable space group: P 21 21 21
;
_chemical_formula_sum "Si O2"
_cell_formula_units_Z 28
_cell_length_a 9.004333
_cell_length_b 9.981073
_cell_length_c 12.851970
_cell_angle_alpha 90.000000
_cell_angle_beta 90.000000
_cell_angle_gamma 90.000000
_cell_volume 1155.043879
_symmetry_space_group_name_H-M "P 21 21 21"
_symmetry_group_IT_number 19
_symmetry_cell_setting 'orthorhombic'
loop_
_space_group_symop_operation_xyz
x,y,z
1/2-x,-y,1/2+z
1/2+x,1/2-y,-z
-x,1/2+y,1/2-z
loop_
_atom_site_type_symbol
_atom_site_label
_atom_site_fract_x
_atom_site_fract_y
_atom_site_fract_z
Si Si1 0.134125 0.294329 0.074342
Si Si2 0.432946 0.935550 0.420688
Si Si3 0.854951 0.354415 0.197286
Si Si4 0.918407 0.321782 0.425603
Si Si5 0.294019 0.584146 0.365679
Si Si6 0.090119 0.774562 0.701403
Si Si7 0.738408 0.216782 0.604419
O O1 0.262665 0.214984 0.132935
O O2 0.018792 0.365362 0.150102
O O3 0.051139 0.186545 0.002801
O O4 0.203988 0.393547 0.990137
O O5 0.264608 0.930731 0.374870
O O6 0.529090 0.875582 0.325417
O O7 0.464351 0.063895 0.491011
O O8 0.853128 0.384659 0.319748
O O9 0.808090 0.197656 0.185964
O O10 0.800779 0.232912 0.488282
O O11 0.066885 0.241105 0.394561
O O12 0.459741 0.622333 0.326348
O O13 0.242161 0.434130 0.351667
O O14 0.146996 0.789302 0.818264
#
# Coordination Sequence:
#
# PCOD9313482 Si02
#       7
#     4   4   4   4   4   4   4
#     4  10  18  42  69 101 129 185 248 285 343 435
#     4  10  23  43  71  98 144 190 236 295 361 440
#     4  10  22  45  71 103 145 187 244 300 356 432
#     4  12  28  47  68 113 147 185 248 307 372 424
#     4  10  23  44  70  98 139 195 237 286 363 435
#     4  10  22  42  71  98 134 192 239 283 363 427
#     4  12  28  45  70 103 150 188 234 312 360 441
#
# _framework density 24.241505
#
# number of rings (size 3 to 8) (size 9 to 14) (size 15 to 20)
#    0.000    1.714    1.429    5.143    6.000    4.571 
#    5.143    0.000    0.000    0.000    0.000    0.000 
#    0.000    0.000    0.000    0.000    0.000    0.000 
#
# Total GULP energy -156542.995809 kJ/mol
# GULP energy per Si atom -5590.821279 kJ/mol
# Density = 2.418633 g / cm^3
# Si number density = 24.241505 Si / 1000 Ang^3
#
#
#
# Elastic Constant Matrix: (Units=GPa)
#
#
# Indices 1 2 3 4 5 6 
#
# 1 99.4985 -11.2811 38.1111 0.0000 0.0000 0.0000
# 2 -11.2811 55.4895 1.5696 0.0000 0.0000 0.0000
# 3 38.1111 1.5696 133.7599 0.0000 0.0000 0.0000
# 4 0.0000 0.0000 0.0000 22.1316 0.0000 0.0000
# 5 0.0000 0.0000 0.0000 0.0000 45.8436 0.0000
# 6 0.0000 0.0000 0.0000 0.0000 0.0000 13.8159
#
#
#
# Elastic Compliance Matrix: (Units=1/GPa)
#
#
# Indices 1 2 3 4 5 6 
#
# 1 0.011606 0.002454 -0.003336 0.000000 0.000000 0.000000
# 2 0.002454 0.018546 -0.000917 0.000000 0.000000 0.000000
# 3 -0.003336 -0.000917 0.008437 0.000000 0.000000 0.000000
# 4 0.000000 0.000000 0.000000 0.045184 0.000000 0.000000
# 5 0.000000 0.000000 0.000000 0.000000 0.021813 0.000000
# 6 0.000000 0.000000 0.000000 0.000000 0.000000 0.072380
#
#
# Mechanical properties :
#
#
# Convention : Reuss Voigt Hill
#
# Bulk Modulus (GPa) = 28.57739 38.39411 33.48575
# Shear Modulus (GPa) = 25.87602 33.71477 29.79540
#
# Velocity S-wave (km/s) = 3.27069 3.73337 3.50967
# Velocity P-wave (km/s) = 5.10661 5.86998 5.50155
#
# Compressibility (1/GPa) = 0.03499269
#
# Stress axis : x y z
#
# Youngs Moduli (GPa) = 86.16011 53.91925 118.52207
#
# Poissons Ratio (x) = -0.13231 0.39535
# Poissons Ratio (y) = -0.21143 0.10866
# Poissons Ratio (z) = 0.28740 0.04943
#
# Static dielectric constant tensor:
#      x y z
#    x 1.940990 0.000000 0.000000 
#    y 0.000000 1.960340 0.000000 
#    z 0.000000 0.000000 1.964410 
# 
# From -- ./inp_files/4598.got.cif
#   From: 2010.05.17/outbox.cif.g08.bks.cpg/sg19_3_cif.got.tgz:4598.got - 2010.06.03 22:46:19.
