data_PCOD9313165
_publ_section_title
;
Structure prediction by ZEFSAII (Michael W. Deem and Ramdas Pophale) SiO2 
 PCOD9313165
Probable space group: P 21 21 2
;
_chemical_formula_sum "Si O2"
_cell_formula_units_Z 20
_cell_length_a 8.200355
_cell_length_b 5.330637
_cell_length_c 17.871086
_cell_angle_alpha 90.000000
_cell_angle_beta 90.000000
_cell_angle_gamma 90.000000
_cell_volume 781.200851
_symmetry_space_group_name_H-M "P 21 21 2"
_symmetry_group_IT_number 18
_symmetry_cell_setting 'orthorhombic'
loop_
_space_group_symop_operation_xyz
x,y,z
-x,-y,z
1/2+x,1/2-y,-z
1/2-x,1/2+y,-z
loop_
_atom_site_type_symbol
_atom_site_label
_atom_site_fract_x
_atom_site_fract_y
_atom_site_fract_z
Si Si1 0.500000 0.500000 0.138266
Si Si2 0.896904 0.245632 0.463288
Si Si3 0.319555 0.444703 0.375237
Si Si4 0.641656 0.234999 0.003872
Si Si5 0.000000 0.000000 0.127387
Si Si6 0.670703 0.158803 0.777160
O O1 0.333220 0.452970 0.183814
O O2 0.543912 0.276152 0.080450
O O3 0.753882 0.292866 0.404683
O O4 0.000000 0.500000 0.458391
O O5 0.664317 0.713874 0.451644
O O6 0.000000 0.000000 0.446822
O O7 0.500000 0.500000 0.346256
O O8 0.209726 0.331234 0.310538
O O9 0.525822 0.274199 0.931582
O O10 0.758308 0.480091 0.998212
O O11 0.856517 0.931294 0.185016
O O12 0.500000 0.000000 0.786339
#
# Coordination Sequence:
#
# PCOD9313165 Si02
#       6
#     2   4   4   4   2   4
#     4  11  24  48  84 109 166 210 278 319 418 484
#     4  11  25  50  81 118 160 210 281 344 408 495
#     4  11  24  48  82 113 160 216 275 334 418 488
#     4  11  24  47  83 119 157 212 269 334 395 487
#     4  11  26  46  76 113 168 204 272 329 408 474
#     4  12  26  53  74 117 163 218 264 347 402 492
#
# _framework density 25.601614000000001
#
# number of rings (size 3 to 8) (size 9 to 14) (size 15 to 20)
#    0.000    0.800    3.000    4.200    0.000    2.400 
#   27.000    0.000    0.000    0.000    0.000    0.000 
#    0.000    0.000    0.000    0.000    0.000    0.000 
#
# Total GULP energy -111898.443866 kJ/mol
# GULP energy per Si atom -5594.922193 kJ/mol
# Density = 2.554334 g / cm^3
# Si number density = 25.601614 Si / 1000 Ang^3
#
#
#
# Elastic Constant Matrix: (Units=GPa)
#
#
# Indices 1 2 3 4 5 6 
#
# 1 184.7210 82.8711 71.9542 0.0000 0.0000 0.0000
# 2 82.8711 164.8518 42.7667 0.0000 0.0000 0.0000
# 3 71.9542 42.7667 169.0897 0.0000 0.0000 0.0000
# 4 0.0000 0.0000 0.0000 88.3413 0.0000 0.0000
# 5 0.0000 0.0000 0.0000 0.0000 40.8817 0.0000
# 6 0.0000 0.0000 0.0000 0.0000 0.0000 59.4812
#
#
#
# Elastic Compliance Matrix: (Units=1/GPa)
#
#
# Indices 1 2 3 4 5 6 
#
# 1 0.007877 -0.003307 -0.002516 0.000000 0.000000 0.000000
# 2 -0.003307 0.007881 -0.000586 0.000000 0.000000 0.000000
# 3 -0.002516 -0.000586 0.007133 0.000000 0.000000 0.000000
# 4 0.000000 0.000000 0.000000 0.011320 0.000000 0.000000
# 5 0.000000 0.000000 0.000000 0.000000 0.024461 0.000000
# 6 0.000000 0.000000 0.000000 0.000000 0.000000 0.016812
#
#
# Mechanical properties :
#
#
# Convention : Reuss Voigt Hill
#
# Bulk Modulus (GPa) = 99.27383 101.53850 100.40616
# Shear Modulus (GPa) = 54.55059 59.14554 56.84806
#
# Velocity S-wave (km/s) = 4.62101 4.81170 4.71732
# Velocity P-wave (km/s) = 8.20562 8.40339 8.30509
#
# Compressibility (1/GPa) = 0.01007315
#
# Stress axis : x y z
#
# Youngs Moduli (GPa) = 126.94884 126.89401 140.20025
#
# Poissons Ratio (x) = 0.41967 0.35268
# Poissons Ratio (y) = 0.41985 0.08213
# Poissons Ratio (z) = 0.31935 0.07434
#
# Static dielectric constant tensor:
#      x y z
#    x 2.051730 0.000000 0.000000 
#    y 0.000000 2.051100 0.000000 
#    z 0.000000 0.000000 1.982270 
# 
# From -- ./inp_files/7291.got.cif
#   From: 2010.05.17/outbox.cif.g08.bks.cpg/sg18_4_cif.got.tgz:7291.got - 2010.06.03 22:40:56.
