data_PCOD9313319
_publ_section_title
;
Structure prediction by ZEFSAII (Michael W. Deem and Ramdas Pophale) SiO2 
 PCOD9313319
Probable space group: P 21 21 21
;
_chemical_formula_sum "Si O2"
_cell_formula_units_Z 32
_cell_length_a 8.090095
_cell_length_b 12.944449
_cell_length_c 13.881696
_cell_angle_alpha 90.000000
_cell_angle_beta 90.000000
_cell_angle_gamma 90.000000
_cell_volume 1453.716499
_symmetry_space_group_name_H-M "P 21 21 21"
_symmetry_group_IT_number 19
_symmetry_cell_setting 'orthorhombic'
loop_
_space_group_symop_operation_xyz
x,y,z
1/2-x,-y,1/2+z
1/2+x,1/2-y,-z
-x,1/2+y,1/2-z
loop_
_atom_site_type_symbol
_atom_site_label
_atom_site_fract_x
_atom_site_fract_y
_atom_site_fract_z
Si Si1 0.459573 0.026746 0.978114
Si Si2 0.159177 0.366128 0.873461
Si Si3 0.093375 0.710561 0.702947
Si Si4 0.303580 0.504861 0.114039
Si Si5 0.801003 0.368967 0.449340
Si Si6 0.465386 0.461353 0.912278
Si Si7 0.973773 0.785611 0.885039
Si Si8 0.772323 0.701040 0.473929
O O1 0.605139 0.002391 0.902268
O O2 0.534161 0.045510 0.087248
O O3 0.358373 0.133544 0.965118
O O4 0.320028 0.939049 0.984136
O O5 0.328186 0.419228 0.838561
O O6 0.081676 0.267466 0.819901
O O7 0.203341 0.309276 0.974767
O O8 0.123174 0.593303 0.671383
O O9 0.108684 0.734162 0.814722
O O10 0.210115 0.776072 0.633118
O O11 0.393823 0.607202 0.153566
O O12 0.365882 0.505974 0.003166
O O13 0.903571 0.450704 0.384003
O O14 0.678890 0.291655 0.396761
O O15 0.931181 0.307860 0.515374
O O16 0.565968 0.366623 0.958968
#
# Coordination Sequence:
#
# PCOD9313319 Si02
#       8
#     4   4   4   4   4   4   4   4
#     4   9  18  32  65  88 121 166 206 240 302 383
#     4  10  17  32  60  99 128 155 191 242 317 377
#     4  11  22  35  62  94 125 158 200 263 312 361
#     4  10  19  37  59  90 124 163 202 252 315 361
#     4  10  22  42  65  84 115 174 220 251 305 364
#     4   9  17  32  61  93 121 163 199 237 298 388
#     4  11  25  43  64  84 122 164 222 261 303 370
#     4  10  16  31  58  98 124 157 190 240 310 380
#
# _framework density 22.012544999999999
#
# number of rings (size 3 to 8) (size 9 to 14) (size 15 to 20)
#    0.000    2.000    3.750    1.500    0.000    3.000 
#    0.000    2.500    2.750    0.000    0.000    0.000 
#    0.000    0.000    0.000    0.000    0.000    0.000 
#
# Total GULP energy -178296.174241 kJ/mol
# GULP energy per Si atom -5571.755445 kJ/mol
# Density = 2.196244 g / cm^3
# Si number density = 22.012545 Si / 1000 Ang^3
#
#
#
# Elastic Constant Matrix: (Units=GPa)
#
#
# Indices 1 2 3 4 5 6 
#
# 1 76.9934 15.8621 -10.6863 0.0000 0.0000 0.0000
# 2 15.8621 65.2992 -7.2950 0.0000 0.0000 0.0000
# 3 -10.6863 -7.2950 8.5246 0.0000 0.0000 0.0000
# 4 0.0000 0.0000 0.0000 21.0324 0.0000 0.0000
# 5 0.0000 0.0000 0.0000 0.0000 3.2847 0.0000
# 6 0.0000 0.0000 0.0000 0.0000 0.0000 34.8937
#
#
#
# Elastic Compliance Matrix: (Units=1/GPa)
#
#
# Indices 1 2 3 4 5 6 
#
# 1 0.015915 -0.001810 0.018402 0.000000 0.000000 0.000000
# 2 -0.001810 0.017139 0.012397 0.000000 0.000000 0.000000
# 3 0.018402 0.012397 0.150986 0.000000 0.000000 0.000000
# 4 0.000000 0.000000 0.000000 0.047546 0.000000 0.000000
# 5 0.000000 0.000000 0.000000 0.000000 0.304444 0.000000
# 6 0.000000 0.000000 0.000000 0.000000 0.000000 0.028658
#
#
# Mechanical properties :
#
#
# Convention : Reuss Voigt Hill
#
# Bulk Modulus (GPa) = 4.13192 16.28653 10.20923
# Shear Modulus (GPa) = 8.51234 22.03792 15.27513
#
# Velocity S-wave (km/s) = 1.96861 3.16753 2.63711
# Velocity P-wave (km/s) = 2.65488 4.55988 3.73101
#
# Compressibility (1/GPa) = 0.24201820
#
# Stress axis : x y z
#
# Youngs Moduli (GPa) = 62.83316 58.34696 6.62314
#
# Poissons Ratio (x) = 0.10562 -0.12188
# Poissons Ratio (y) = 0.11374 -0.08211
# Poissons Ratio (z) = -1.15625 -0.72336
#
# Static dielectric constant tensor:
#      x y z
#    x 1.882030 0.000000 0.000000 
#    y 0.000000 1.832790 0.000000 
#    z 0.000000 0.000000 1.874190 
# 
# From -- ./inp_files/5914.got.cif
#   From: 2010.05.17/outbox.cif.g08.bks.cpg/sg19_3_cif.got.tgz:5914.got - 2010.06.03 22:46:19.
