data_PCOD9313484
_publ_section_title
;
Structure prediction by ZEFSAII (Michael W. Deem and Ramdas Pophale) SiO2 
 PCOD9313484
Probable space group: P 21 21 21
;
_chemical_formula_sum "Si O2"
_cell_formula_units_Z 24
_cell_length_a 8.657856
_cell_length_b 19.338816
_cell_length_c 5.120263
_cell_angle_alpha 90.000000
_cell_angle_beta 90.000000
_cell_angle_gamma 90.000000
_cell_volume 857.299378
_symmetry_space_group_name_H-M "P 21 21 21"
_symmetry_group_IT_number 19
_symmetry_cell_setting 'orthorhombic'
loop_
_space_group_symop_operation_xyz
x,y,z
1/2-x,-y,1/2+z
1/2+x,1/2-y,-z
-x,1/2+y,1/2-z
loop_
_atom_site_type_symbol
_atom_site_label
_atom_site_fract_x
_atom_site_fract_y
_atom_site_fract_z
Si Si1 0.362670 0.121247 0.669060
Si Si2 0.050807 0.252589 0.225553
Si Si3 0.669488 0.387980 0.862444
Si Si4 0.438381 0.472404 0.530630
Si Si5 0.367823 0.578068 0.167516
Si Si6 0.156757 0.672414 0.913655
O O1 0.421906 0.189457 0.826672
O O2 0.521160 0.085739 0.578647
O O3 0.277790 0.132997 0.388658
O O4 0.247374 0.086565 0.871785
O O5 0.073328 0.181837 0.069374
O O6 0.980737 0.221950 0.497753
O O7 0.216393 0.289889 0.240000
O O8 0.561062 0.445948 0.738720
O O9 0.410772 0.403380 0.347391
O O10 0.472627 0.543620 0.386892
O O11 0.270649 0.476557 0.660867
O O12 0.269178 0.649243 0.163780
#
# Coordination Sequence:
#
# PCOD9313484 Si02
#       6
#     4   4   4   4   4   4
#     4  11  25  46  74 115 159 206 260 324 403 472
#     4  10  18  42  72 114 164 200 252 332 398 472
#     4  11  25  46  74 115 159 206 260 324 403 472
#     4   9  21  43  72 111 159 210 267 319 387 465
#     4   9  21  43  72 111 159 210 267 319 387 465
#     4   8  18  36  72 108 162 202 262 318 402 464
#
# _framework density 27.994889000000001
#
# number of rings (size 3 to 8) (size 9 to 14) (size 15 to 20)
#    1.000    1.333    1.667    0.000    0.000    4.000 
#    0.000    3.333    0.000    0.000    0.000    0.000 
#    0.000    0.000    0.000    0.000    0.000    0.000 
#
# Total GULP energy -133980.063193 kJ/mol
# GULP energy per Si atom -5582.502633 kJ/mol
# Density = 2.793117 g / cm^3
# Si number density = 27.994889 Si / 1000 Ang^3
#
#
#
# Elastic Constant Matrix: (Units=GPa)
#
#
# Indices 1 2 3 4 5 6 
#
# 1 122.0014 35.9594 56.0486 0.0000 0.0000 0.0000
# 2 35.9594 79.0643 29.6322 0.0000 0.0000 0.0000
# 3 56.0486 29.6322 122.7747 0.0000 0.0000 0.0000
# 4 0.0000 0.0000 0.0000 42.1268 0.0000 0.0000
# 5 0.0000 0.0000 0.0000 0.0000 27.3887 0.0000
# 6 0.0000 0.0000 0.0000 0.0000 0.0000 41.1072
#
#
#
# Elastic Compliance Matrix: (Units=1/GPa)
#
#
# Indices 1 2 3 4 5 6 
#
# 1 0.011184 -0.003489 -0.004263 0.000000 0.000000 0.000000
# 2 -0.003489 0.014994 -0.002026 0.000000 0.000000 0.000000
# 3 -0.004263 -0.002026 0.010580 0.000000 0.000000 0.000000
# 4 0.000000 0.000000 0.000000 0.023738 0.000000 0.000000
# 5 0.000000 0.000000 0.000000 0.000000 0.036511 0.000000
# 6 0.000000 0.000000 0.000000 0.000000 0.000000 0.024327
#
#
# Mechanical properties :
#
#
# Convention : Reuss Voigt Hill
#
# Bulk Modulus (GPa) = 58.13509 63.01343 60.57426
# Shear Modulus (GPa) = 34.10078 35.60456 34.85267
#
# Velocity S-wave (km/s) = 3.49393 3.57013 3.53223
# Velocity P-wave (km/s) = 6.09000 6.28906 6.19033
#
# Compressibility (1/GPa) = 0.01720132
#
# Stress axis : x y z
#
# Youngs Moduli (GPa) = 89.41710 66.69339 94.51431
#
# Poissons Ratio (x) = 0.23266 0.40296
# Poissons Ratio (y) = 0.31193 0.19151
# Poissons Ratio (z) = 0.38123 0.13514
#
# Static dielectric constant tensor:
#      x y z
#    x 2.192000 0.000000 0.000000 
#    y 0.000000 2.167600 0.000000 
#    z 0.000000 0.000000 2.334880 
# 
# From -- ./inp_files/3207.got.cif
#   From: 2010.05.17/outbox.cif.g08.bks.cpg/sg19_2_cif.got.tgz:3207.got - 2010.06.03 22:46:19.
