data_PCOD9313893
_publ_section_title
;
Structure prediction by ZEFSAII (Michael W. Deem and Ramdas Pophale) SiO2 
 PCOD9313893
Probable space group: P 21 21 21
;
_chemical_formula_sum "Si O2"
_cell_formula_units_Z 20
_cell_length_a 12.722648
_cell_length_b 4.919278
_cell_length_c 12.973182
_cell_angle_alpha 90.000000
_cell_angle_beta 90.000000
_cell_angle_gamma 90.000000
_cell_volume 811.942713
_symmetry_space_group_name_H-M "P 21 21 21"
_symmetry_group_IT_number 19
_symmetry_cell_setting 'orthorhombic'
loop_
_space_group_symop_operation_xyz
x,y,z
1/2-x,-y,1/2+z
1/2+x,1/2-y,-z
-x,1/2+y,1/2-z
loop_
_atom_site_type_symbol
_atom_site_label
_atom_site_fract_x
_atom_site_fract_y
_atom_site_fract_z
Si Si1 0.346613 0.601209 0.418753
Si Si2 0.435005 0.571336 0.219491
Si Si3 0.925109 0.269159 0.978143
Si Si4 0.017980 0.014550 0.178968
Si Si5 0.783951 0.399401 0.467681
O O1 0.339635 0.526235 0.299154
O O2 0.466207 0.569527 0.458197
O O3 0.325327 0.917109 0.437003
O O4 0.281682 0.408663 0.493868
O O5 0.472291 0.875700 0.238477
O O6 0.418965 0.470909 0.105393
O O7 0.829143 0.467849 0.953511
O O8 0.940488 0.139992 0.091500
O O9 0.026443 0.243359 0.267615
O O10 0.129856 0.948200 0.122549
#
# Coordination Sequence:
#
# PCOD9313893 Si02
#       5
#     4   4   4   4   4
#     4  10  22  42  62  92 127 156 205 272 317 365
#     4  10  20  37  63  88 119 158 200 260 320 358
#     4  10  24  42  66  92 126 167 215 263 311 385
#     4  11  24  44  63  91 135 174 209 262 319 379
#     4  11  24  41  66  95 125 171 215 253 319 385
#
# _framework density 24.632279
#
# number of rings (size 3 to 8) (size 9 to 14) (size 15 to 20)
#    0.000    1.600    0.000    6.000    0.000   12.800 
#    0.000    0.000    0.000    0.000    0.000    0.000 
#    0.000    0.000    0.000    0.000    0.000    0.000 
#
# Total GULP energy -111871.999385 kJ/mol
# GULP energy per Si atom -5593.599969 kJ/mol
# Density = 2.457622 g / cm^3
# Si number density = 24.632279 Si / 1000 Ang^3
#
#
#
# Elastic Constant Matrix: (Units=GPa)
#
#
# Indices 1 2 3 4 5 6 
#
# 1 80.4499 -0.1314 16.8590 0.0000 0.0000 0.0000
# 2 -0.1314 65.4460 23.5772 0.0000 0.0000 0.0000
# 3 16.8590 23.5772 119.3071 0.0000 0.0000 0.0000
# 4 0.0000 0.0000 0.0000 19.4003 0.0000 0.0000
# 5 0.0000 0.0000 0.0000 0.0000 13.2653 0.0000
# 6 0.0000 0.0000 0.0000 0.0000 0.0000 30.0221
#
#
#
# Elastic Compliance Matrix: (Units=1/GPa)
#
#
# Indices 1 2 3 4 5 6 
#
# 1 0.012842 0.000732 -0.001959 0.000000 0.000000 0.000000
# 2 0.000732 0.016493 -0.003363 0.000000 0.000000 0.000000
# 3 -0.001959 -0.003363 0.009323 0.000000 0.000000 0.000000
# 4 0.000000 0.000000 0.000000 0.051546 0.000000 0.000000
# 5 0.000000 0.000000 0.000000 0.000000 0.075384 0.000000
# 6 0.000000 0.000000 0.000000 0.000000 0.000000 0.033309
#
#
# Mechanical properties :
#
#
# Convention : Reuss Voigt Hill
#
# Bulk Modulus (GPa) = 33.92463 38.42363 36.17413
# Shear Modulus (GPa) = 22.94603 27.53076 25.23840
#
# Velocity S-wave (km/s) = 3.05543 3.34678 3.20442
# Velocity P-wave (km/s) = 5.12346 5.52878 5.32997
#
# Compressibility (1/GPa) = 0.02947711
#
# Stress axis : x y z
#
# Youngs Moduli (GPa) = 77.87032 60.63312 107.26043
#
# Poissons Ratio (x) = -0.04436 0.21015
# Poissons Ratio (y) = -0.05697 0.36068
# Poissons Ratio (z) = 0.15257 0.20389
#
# Static dielectric constant tensor:
#      x y z
#    x 2.034650 0.000000 0.000000 
#    y 0.000000 1.910150 0.000000 
#    z 0.000000 0.000000 1.979190 
# 
# From -- ./inp_files/823.got.cif
#   From: 2010.05.17/outbox.cif.g08.bks.cpg/sg19_1_cif.got.tgz:823.got - 2010.06.03 22:46:19.
