data_PCOD9313013
_publ_section_title
;
Structure prediction by ZEFSAII (Michael W. Deem and Ramdas Pophale) SiO2 
 PCOD9313013
Probable space group: P 21 21 2
;
_chemical_formula_sum "Si O2"
_cell_formula_units_Z 32
_cell_length_a 5.470480
_cell_length_b 26.736884
_cell_length_c 9.191798
_cell_angle_alpha 90.000000
_cell_angle_beta 90.000000
_cell_angle_gamma 90.000000
_cell_volume 1344.425367
_symmetry_space_group_name_H-M "P 21 21 2"
_symmetry_group_IT_number 18
_symmetry_cell_setting 'orthorhombic'
loop_
_space_group_symop_operation_xyz
x,y,z
-x,-y,z
1/2+x,1/2-y,-z
1/2-x,1/2+y,-z
loop_
_atom_site_type_symbol
_atom_site_label
_atom_site_fract_x
_atom_site_fract_y
_atom_site_fract_z
Si Si1 0.567737 0.822972 0.132817
Si Si2 0.995068 0.559083 0.668736
Si Si3 0.268167 0.875588 0.575876
Si Si4 0.275834 0.374251 0.093980
Si Si5 0.051245 0.720620 0.345220
Si Si6 0.881396 0.787327 0.901284
Si Si7 0.360886 0.676841 0.587964
Si Si8 0.003137 0.058398 0.143185
O O1 0.423096 0.770749 0.122026
O O2 0.640451 0.835073 0.298647
O O3 0.434040 0.862514 0.027051
O O4 0.820352 0.805841 0.060427
O O5 0.950658 0.590942 0.521365
O O6 0.742695 0.567012 0.760611
O O7 0.000000 0.500000 0.631443
O O8 0.244493 0.567071 0.765674
O O9 0.267038 0.895999 0.742976
O O10 0.354175 0.817783 0.591250
O O11 0.016334 0.868159 0.483083
O O12 0.390403 0.320672 0.138010
O O13 0.467774 0.407714 0.000772
O O14 0.011247 0.779317 0.332899
O O15 0.146226 0.699321 0.193270
O O16 0.271968 0.709961 0.453269
O O17 0.000000 0.000000 0.102071
#
# Coordination Sequence:
#
# PCOD9313013 Si02
#       8
#     4   4   4   4   4   4   4   4
#     4  12  26  42  68 103 150 211 261 305 369 444
#     4  10  26  53  83 114 148 192 254 322 392 471
#     4  12  27  46  72 110 151 197 247 319 379 454
#     4  12  27  46  72 110 151 197 247 319 379 454
#     4  12  24  43  64  99 154 200 253 305 370 438
#     4  12  24  43  64  99 154 200 253 305 370 438
#     4  12  26  42  68 103 150 211 261 305 369 444
#     4  10  26  53  83 114 148 192 254 322 392 471
#
# _framework density 23.801991999999998
#
# number of rings (size 3 to 8) (size 9 to 14) (size 15 to 20)
#    0.000    0.500    5.000    2.250    7.000    0.000 
#    0.000    5.000    0.000    0.000    0.000    0.000 
#    0.000    0.000    0.000    0.000    0.000    0.000 
#
# Total GULP energy -178499.131085 kJ/mol
# GULP energy per Si atom -5578.097846 kJ/mol
# Density = 2.374782 g / cm^3
# Si number density = 23.801992 Si / 1000 Ang^3
#
#
#
# Elastic Constant Matrix: (Units=GPa)
#
#
# Indices 1 2 3 4 5 6 
#
# 1 118.3284 42.3500 72.9823 0.0000 0.0000 0.0000
# 2 42.3500 101.7539 85.7272 0.0000 0.0000 0.0000
# 3 72.9823 85.7272 181.3947 0.0000 0.0000 0.0000
# 4 0.0000 0.0000 0.0000 21.3546 0.0000 0.0000
# 5 0.0000 0.0000 0.0000 0.0000 45.6725 0.0000
# 6 0.0000 0.0000 0.0000 0.0000 0.0000 35.7795
#
#
#
# Elastic Compliance Matrix: (Units=1/GPa)
#
#
# Indices 1 2 3 4 5 6 
#
# 1 0.011369 -0.001459 -0.003885 0.000000 0.000000 0.000000
# 2 -0.001459 0.016517 -0.007219 0.000000 0.000000 0.000000
# 3 -0.003885 -0.007219 0.010487 0.000000 0.000000 0.000000
# 4 0.000000 0.000000 0.000000 0.046828 0.000000 0.000000
# 5 0.000000 0.000000 0.000000 0.000000 0.021895 0.000000
# 6 0.000000 0.000000 0.000000 0.000000 0.000000 0.027949
#
#
# Mechanical properties :
#
#
# Convention : Reuss Voigt Hill
#
# Bulk Modulus (GPa) = 75.48145 89.28843 82.38494
# Shear Modulus (GPa) = 30.37908 33.92247 32.15077
#
# Velocity S-wave (km/s) = 3.57644 3.77927 3.67926
# Velocity P-wave (km/s) = 6.98825 7.52584 7.26202
#
# Compressibility (1/GPa) = 0.01324829
#
# Stress axis : x y z
#
# Youngs Moduli (GPa) = 87.95627 60.54494 95.35201
#
# Poissons Ratio (x) = 0.08833 0.37042
# Poissons Ratio (y) = 0.12832 0.68833
# Poissons Ratio (z) = 0.34169 0.43706
#
# Static dielectric constant tensor:
#      x y z
#    x 2.237140 0.000000 0.000000 
#    y 0.000000 1.982560 0.000000 
#    z 0.000000 0.000000 1.978570 
# 
# From -- ./inp_files/2696.got.cif
#   From: 2010.05.17/outbox.cif.g08.bks.cpg/sg18_2_cif.got.tgz:2696.got - 2010.06.03 22:40:56.
