data_PCOD9313881
_publ_section_title
;
Structure prediction by ZEFSAII (Michael W. Deem and Ramdas Pophale) SiO2 
 PCOD9313881
Probable space group: P 21 21 21
;
_chemical_formula_sum "Si O2"
_cell_formula_units_Z 28
_cell_length_a 9.750423
_cell_length_b 15.857181
_cell_length_c 7.386724
_cell_angle_alpha 90.000000
_cell_angle_beta 90.000000
_cell_angle_gamma 90.000000
_cell_volume 1142.092587
_symmetry_space_group_name_H-M "P 21 21 21"
_symmetry_group_IT_number 19
_symmetry_cell_setting 'orthorhombic'
loop_
_space_group_symop_operation_xyz
x,y,z
1/2-x,-y,1/2+z
1/2+x,1/2-y,-z
-x,1/2+y,1/2-z
loop_
_atom_site_type_symbol
_atom_site_label
_atom_site_fract_x
_atom_site_fract_y
_atom_site_fract_z
Si Si1 0.548204 0.837291 0.135529
Si Si2 0.509219 0.684608 0.613951
Si Si3 0.188388 0.049318 0.088352
Si Si4 0.243069 0.131157 0.694419
Si Si5 0.227380 0.783180 0.700686
Si Si6 0.091566 0.530456 0.558955
Si Si7 0.100833 0.484222 0.944723
O O1 0.388542 0.813759 0.139970
O O2 0.658392 0.763803 0.129913
O O3 0.214336 0.097669 0.899855
O O4 0.562125 0.919179 0.007703
O O5 0.610156 0.675582 0.785927
O O6 0.371026 0.738532 0.644873
O O7 0.607500 0.718322 0.453061
O O8 0.464604 0.590115 0.558834
O O9 0.027909 0.029807 0.085879
O O10 0.259697 0.959396 0.096464
O O11 0.238328 0.118546 0.230835
O O12 0.087772 0.617384 0.672262
O O13 0.066547 0.468908 0.731271
O O14 0.236279 0.518379 0.467508
#
# Coordination Sequence:
#
# PCOD9313881 Si02
#       7
#     4   4   4   4   4   4   4
#     4   9  19  37  56  87 115 146 202 250 286 350
#     4  11  21  35  62  89 119 162 197 252 299 352
#     4  10  22  37  61  91 117 159 195 257 295 363
#     4  10  21  38  61  88 118 158 203 246 294 363
#     4  11  21  35  58  91 121 153 203 252 297 346
#     4   9  20  35  57  90 118 144 209 242 287 359
#     4  10  20  37  61  90 116 162 197 249 292 363
#
# _framework density 24.516400000000001
#
# number of rings (size 3 to 8) (size 9 to 14) (size 15 to 20)
#    0.857    1.143    1.429    4.286    4.000    0.000 
#    0.000    0.000    0.000   10.286    0.000    0.000 
#    0.000    0.000    0.000    0.000    0.000    0.000 
#
# Total GULP energy -156284.706255 kJ/mol
# GULP energy per Si atom -5581.596652 kJ/mol
# Density = 2.446060 g / cm^3
# Si number density = 24.516400 Si / 1000 Ang^3
#
#
#
# Elastic Constant Matrix: (Units=GPa)
#
#
# Indices 1 2 3 4 5 6 
#
# 1 199.8254 38.5303 44.2242 0.0000 0.0000 0.0000
# 2 38.5303 27.5245 92.7687 0.0000 0.0000 0.0000
# 3 44.2242 92.7687 26.0250 0.0000 0.0000 0.0000
# 4 0.0000 0.0000 0.0000 19.5122 0.0000 0.0000
# 5 0.0000 0.0000 0.0000 0.0000 9.8194 0.0000
# 6 0.0000 0.0000 0.0000 0.0000 0.0000 33.7421
#
#
#
# Elastic Compliance Matrix: (Units=1/GPa)
#
#
# Indices 1 2 3 4 5 6 
#
# 1 0.005832 -0.002291 -0.001742 0.000000 0.000000 0.000000
# 2 -0.002291 -0.002398 0.012443 0.000000 0.000000 0.000000
# 3 -0.001742 0.012443 -0.002968 0.000000 0.000000 0.000000
# 4 0.000000 0.000000 0.000000 0.051250 0.000000 0.000000
# 5 0.000000 0.000000 0.000000 0.000000 0.101839 0.000000
# 6 0.000000 0.000000 0.000000 0.000000 0.000000 0.029637
#
#
# Mechanical properties :
#
#
# Convention : Reuss Voigt Hill
#
# Bulk Modulus (GPa) = 57.85845 67.15793 62.50819
# Shear Modulus (GPa) = 29.04721 17.80487 23.42604
#
# Velocity S-wave (km/s) = 3.44584 2.69781 3.09451
# Velocity P-wave (km/s) = 6.28354 6.09564 6.19030
#
# Compressibility (1/GPa) = 0.01728356
#
# Stress axis : x y z
#
# Youngs Moduli (GPa) = 171.47422 -416.95370 -336.91330
#
# Poissons Ratio (x) = -0.95537 -0.58701
# Poissons Ratio (y) = 0.39290 4.19213
# Poissons Ratio (z) = 0.29876 5.18806
#
# Static dielectric constant tensor:
#      x y z
#    x 1.972060 0.000000 0.000000 
#    y 0.000000 2.022260 0.000000 
#    z 0.000000 0.000000 2.028650 
# 
# From -- ./inp_files/2981.got.cif
#   From: 2010.05.17/outbox.cif.g08.bks.cpg/sg19_2_cif.got.tgz:2981.got - 2010.06.03 22:46:19.
