data_PCOD9313221
_publ_section_title
;
Structure prediction by ZEFSAII (Michael W. Deem and Ramdas Pophale) SiO2 
 PCOD9313221
Probable space group: P 21 21 2
;
_chemical_formula_sum "Si O2"
_cell_formula_units_Z 16
_cell_length_a 13.252430
_cell_length_b 10.826975
_cell_length_c 4.912502
_cell_angle_alpha 90.000000
_cell_angle_beta 90.000000
_cell_angle_gamma 90.000000
_cell_volume 704.864102
_symmetry_space_group_name_H-M "P 21 21 2"
_symmetry_group_IT_number 18
_symmetry_cell_setting 'orthorhombic'
loop_
_space_group_symop_operation_xyz
x,y,z
-x,-y,z
1/2+x,1/2-y,-z
1/2-x,1/2+y,-z
loop_
_atom_site_type_symbol
_atom_site_label
_atom_site_fract_x
_atom_site_fract_y
_atom_site_fract_z
Si Si1 0.667048 0.336386 0.214228
Si Si2 0.998615 0.647537 0.941448
Si Si3 0.879611 0.263129 0.440965
Si Si4 0.889803 0.985138 0.285344
O O1 0.608621 0.211309 0.129025
O O2 0.775541 0.325573 0.352644
O O3 0.600495 0.400790 0.448180
O O4 0.675755 0.420619 0.945940
O O5 0.082768 0.706879 0.742340
O O6 0.000000 0.500000 0.911232
O O7 0.032423 0.686561 0.243016
O O8 0.858827 0.119320 0.386269
O O9 0.000000 0.000000 0.154275
#
# Coordination Sequence:
#
# PCOD9313221 Si02
#       4
#     4   4   4   4
#     4  12  26  43  72 101 134 181 225 279 337 399
#     4  12  26  48  66 102 143 178 221 279 342 402
#     4  12  27  44  72 101 136 182 225 278 338 400
#     4  12  23  48  70  98 135 178 232 282 328 394
#
# _framework density 22.699411000000001
#
# number of rings (size 3 to 8) (size 9 to 14) (size 15 to 20)
#    0.000    0.000    5.000    4.500    7.000    0.000 
#    0.000    0.000    0.000    0.000    0.000    0.000 
#    0.000    0.000    0.000    0.000    0.000    0.000 
#
# Total GULP energy -89596.049505 kJ/mol
# GULP energy per Si atom -5599.753094 kJ/mol
# Density = 2.264775 g / cm^3
# Si number density = 22.699411 Si / 1000 Ang^3
#
#
#
# Elastic Constant Matrix: (Units=GPa)
#
#
# Indices 1 2 3 4 5 6 
#
# 1 33.3217 -10.8542 -11.4522 0.0000 0.0000 0.0000
# 2 -10.8542 125.9243 12.4207 0.0000 0.0000 0.0000
# 3 -11.4522 12.4207 71.8963 0.0000 0.0000 0.0000
# 4 0.0000 0.0000 0.0000 11.9918 0.0000 0.0000
# 5 0.0000 0.0000 0.0000 0.0000 16.8435 0.0000
# 6 0.0000 0.0000 0.0000 0.0000 0.0000 18.2306
#
#
#
# Elastic Compliance Matrix: (Units=1/GPa)
#
#
# Indices 1 2 3 4 5 6 
#
# 1 0.032403 0.002324 0.004760 0.000000 0.000000 0.000000
# 2 0.002324 0.008246 -0.001054 0.000000 0.000000 0.000000
# 3 0.004760 -0.001054 0.014849 0.000000 0.000000 0.000000
# 4 0.000000 0.000000 0.000000 0.083390 0.000000 0.000000
# 5 0.000000 0.000000 0.000000 0.000000 0.059370 0.000000
# 6 0.000000 0.000000 0.000000 0.000000 0.000000 0.054853
#
#
# Mechanical properties :
#
#
# Convention : Reuss Voigt Hill
#
# Bulk Modulus (GPa) = 14.80244 23.48567 19.14405
# Shear Modulus (GPa) = 18.97018 25.48171 22.22594
#
# Velocity S-wave (km/s) = 2.89401 3.35411 3.13252
# Velocity P-wave (km/s) = 4.20740 5.03676 4.64065
#
# Compressibility (1/GPa) = 0.06755645
#
# Stress axis : x y z
#
# Youngs Moduli (GPa) = 30.86110 121.27744 67.34323
#
# Poissons Ratio (x) = -0.28179 -0.32056
# Poissons Ratio (y) = -0.07171 0.07101
# Poissons Ratio (z) = -0.14690 0.12787
#
# Static dielectric constant tensor:
#      x y z
#    x 1.894940 0.000000 0.000000 
#    y 0.000000 1.891010 0.000000 
#    z 0.000000 0.000000 1.779750 
# 
# From -- ./inp_files/1366.got.cif
#   From: 2010.05.17/outbox.cif.g08.bks.cpg/sg18_1_cif.got.tgz:1366.got - 2010.06.03 22:40:56.
