data_PCOD9313640
_publ_section_title
;
Structure prediction by ZEFSAII (Michael W. Deem and Ramdas Pophale) SiO2 
 PCOD9313640
Probable space group: P 21 21 21
;
_chemical_formula_sum "Si O2"
_cell_formula_units_Z 28
_cell_length_a 10.907065
_cell_length_b 5.685555
_cell_length_c 17.004665
_cell_angle_alpha 90.000000
_cell_angle_beta 90.000000
_cell_angle_gamma 90.000000
_cell_volume 1054.505494
_symmetry_space_group_name_H-M "P 21 21 21"
_symmetry_group_IT_number 19
_symmetry_cell_setting 'orthorhombic'
loop_
_space_group_symop_operation_xyz
x,y,z
1/2-x,-y,1/2+z
1/2+x,1/2-y,-z
-x,1/2+y,1/2-z
loop_
_atom_site_type_symbol
_atom_site_label
_atom_site_fract_x
_atom_site_fract_y
_atom_site_fract_z
Si Si1 0.116574 0.635074 0.323198
Si Si2 0.377903 0.848249 0.779027
Si Si3 0.430091 0.223243 0.991240
Si Si4 0.923957 0.164121 0.418064
Si Si5 0.311597 0.929949 0.113600
Si Si6 0.575577 0.673046 0.244894
Si Si7 0.541323 0.602038 0.084084
O O1 0.973809 0.641456 0.294126
O O2 0.178826 0.414346 0.280213
O O3 0.124959 0.631523 0.418329
O O4 0.166613 0.886186 0.294232
O O5 0.466229 0.810323 0.856491
O O6 0.546304 0.091462 0.952537
O O7 0.487033 0.347362 0.067490
O O8 0.323947 0.063053 0.029532
O O9 0.800195 0.251314 0.379374
O O10 0.925240 0.317281 0.497272
O O11 0.430285 0.767259 0.110249
O O12 0.326632 0.108854 0.186571
O O13 0.483385 0.437088 0.246234
O O14 0.630712 0.641624 0.156535
#
# Coordination Sequence:
#
# PCOD9313640 Si02
#       7
#     4   4   4   4   4   4   4
#     4   9  17  31  56  78 110 152 199 227 300 361
#     4   9  17  32  53  80 111 155 188 241 290 361
#     4  10  19  37  60  84 118 164 198 256 311 369
#     4  10  21  37  59  88 125 158 209 256 310 370
#     4  10  22  38  60  90 122 162 208 258 313 371
#     4  10  20  39  64  88 121 164 211 257 315 372
#     4  10  20  38  64  84 123 167 203 259 315 370
#
# _framework density 26.552727999999998
#
# number of rings (size 3 to 8) (size 9 to 14) (size 15 to 20)
#    0.000    2.286    2.857    0.000    0.000    1.143 
#    2.571    0.000    0.000    0.000    0.000    0.000 
#    0.000    0.000    0.000    0.000    0.000    0.000 
#
# Total GULP energy -156215.912229 kJ/mol
# GULP energy per Si atom -5579.139722 kJ/mol
# Density = 2.649229 g / cm^3
# Si number density = 26.552728 Si / 1000 Ang^3
#
#
#
# Elastic Constant Matrix: (Units=GPa)
#
#
# Indices 1 2 3 4 5 6 
#
# 1 29.1513 17.1401 -3.4950 0.0000 0.0000 0.0000
# 2 17.1401 144.5789 24.8617 0.0000 0.0000 0.0000
# 3 -3.4950 24.8617 141.5976 0.0000 0.0000 0.0000
# 4 0.0000 0.0000 0.0000 53.6968 0.0000 0.0000
# 5 0.0000 0.0000 0.0000 0.0000 16.5761 0.0000
# 6 0.0000 0.0000 0.0000 0.0000 0.0000 -3.1108
#
#
#
# Elastic Compliance Matrix: (Units=1/GPa)
#
#
# Indices 1 2 3 4 5 6 
#
# 1 0.037290 -0.004722 0.001749 0.000000 0.000000 0.000000
# 2 -0.004722 0.007730 -0.001474 0.000000 0.000000 0.000000
# 3 0.001749 -0.001474 0.007364 0.000000 0.000000 0.000000
# 4 0.000000 0.000000 0.000000 0.018623 0.000000 0.000000
# 5 0.000000 0.000000 0.000000 0.000000 0.060328 0.000000
# 6 0.000000 0.000000 0.000000 0.000000 0.000000 -0.321464
#
#
# Mechanical properties :
#
#
# Convention : Reuss Voigt Hill
#
# Bulk Modulus (GPa) = 22.99282 43.59350 33.29316
# Shear Modulus (GPa) = -29.98673 31.88717 0.95022
#
# Velocity S-wave (km/s) = -3.36419 3.46916 0.59886
# Velocity P-wave (km/s) = 2.53225 5.70089 3.61164
#
# Compressibility (1/GPa) = 0.04349184
#
# Stress axis : x y z
#
# Youngs Moduli (GPa) = 26.81711 129.36924 135.79192
#
# Poissons Ratio (x) = 0.61083 -0.23756
# Poissons Ratio (y) = 0.12662 0.20012
# Poissons Ratio (z) = -0.04691 0.19066
#
# Static dielectric constant tensor:
#      x y z
#    x 2.208470 0.000000 0.000000 
#    y 0.000000 2.267550 0.000000 
#    z 0.000000 0.000000 2.201320 
# 
# From -- ./inp_files/1073.got.cif
#   From: 2010.05.17/outbox.cif.g08.bks.cpg/sg19_1_cif.got.tgz:1073.got - 2010.06.03 22:46:19.
