data_PCOD9313703
_publ_section_title
;
Structure prediction by ZEFSAII (Michael W. Deem and Ramdas Pophale) SiO2 
 PCOD9313703
Probable space group: P 21 21 21
;
_chemical_formula_sum "Si O2"
_cell_formula_units_Z 28
_cell_length_a 9.842925
_cell_length_b 21.551072
_cell_length_c 6.223598
_cell_angle_alpha 90.000000
_cell_angle_beta 90.000000
_cell_angle_gamma 90.000000
_cell_volume 1320.184369
_symmetry_space_group_name_H-M "P 21 21 21"
_symmetry_group_IT_number 19
_symmetry_cell_setting 'orthorhombic'
loop_
_space_group_symop_operation_xyz
x,y,z
1/2-x,-y,1/2+z
1/2+x,1/2-y,-z
-x,1/2+y,1/2-z
loop_
_atom_site_type_symbol
_atom_site_label
_atom_site_fract_x
_atom_site_fract_y
_atom_site_fract_z
Si Si1 0.831906 0.795296 0.944396
Si Si2 0.820530 0.420922 0.473744
Si Si3 0.875418 0.633992 0.310190
Si Si4 0.574243 0.464665 0.184670
Si Si5 0.089722 0.631243 0.924336
Si Si6 0.982587 0.736917 0.593579
Si Si7 0.104525 0.796116 0.207085
O O1 0.905391 0.792147 0.714311
O O2 0.722778 0.739247 0.924450
O O3 0.743648 0.854429 0.010696
O O4 0.956340 0.785612 0.104427
O O5 0.754413 0.382111 0.668428
O O6 0.700585 0.458955 0.352700
O O7 0.927745 0.467299 0.581411
O O8 0.870856 0.369436 0.306214
O O9 0.896826 0.580107 0.483593
O O10 0.881330 0.696472 0.447102
O O11 0.999277 0.635584 0.139508
O O12 0.447434 0.433471 0.308498
O O13 0.040803 0.686594 0.763665
O O14 0.095285 0.765451 0.439694
#
# Coordination Sequence:
#
# PCOD9313703 Si02
#       7
#     4   4   4   4   4   4   4
#     4  12  24  44  63 103 141 181 225 287 344 431
#     4  11  22  41  64 108 129 178 234 291 333 411
#     4  10  19  40  64  92 134 174 224 280 338 401
#     4  10  21  39  71  95 134 177 233 288 340 392
#     4  10  22  41  62  94 132 179 223 277 341 409
#     4  11  22  39  63  97 137 182 213 278 350 416
#     4  12  26  40  69 101 145 175 232 281 356 414
#
# _framework density 21.209160000000001
#
# number of rings (size 3 to 8) (size 9 to 14) (size 15 to 20)
#    0.000    1.143    4.286    3.429    2.000    2.286 
#    2.571    0.000    3.143    0.000    0.000    0.000 
#    0.000    0.000    0.000    0.000    0.000    0.000 
#
# Total GULP energy -156358.365715 kJ/mol
# GULP energy per Si atom -5584.227347 kJ/mol
# Density = 2.116089 g / cm^3
# Si number density = 21.209160 Si / 1000 Ang^3
#
#
#
# Elastic Constant Matrix: (Units=GPa)
#
#
# Indices 1 2 3 4 5 6 
#
# 1 65.4368 -3.6689 -0.4578 0.0000 0.0000 0.0000
# 2 -3.6689 30.7215 -0.0070 0.0000 0.0000 0.0000
# 3 -0.4578 -0.0070 75.5156 0.0000 0.0000 0.0000
# 4 0.0000 0.0000 0.0000 33.2207 0.0000 0.0000
# 5 0.0000 0.0000 0.0000 0.0000 24.6867 0.0000
# 6 0.0000 0.0000 0.0000 0.0000 0.0000 23.1764
#
#
#
# Elastic Compliance Matrix: (Units=1/GPa)
#
#
# Indices 1 2 3 4 5 6 
#
# 1 0.015386 0.001837 0.000093 0.000000 0.000000 0.000000
# 2 0.001837 0.032770 0.000014 0.000000 0.000000 0.000000
# 3 0.000093 0.000014 0.013243 0.000000 0.000000 0.000000
# 4 0.000000 0.000000 0.000000 0.030102 0.000000 0.000000
# 5 0.000000 0.000000 0.000000 0.000000 0.040508 0.000000
# 6 0.000000 0.000000 0.000000 0.000000 0.000000 0.043147
#
#
# Mechanical properties :
#
#
# Convention : Reuss Voigt Hill
#
# Bulk Modulus (GPa) = 15.31663 18.15628 16.73646
# Shear Modulus (GPa) = 25.90300 27.93727 26.92013
#
# Velocity S-wave (km/s) = 3.49852 3.63330 3.56655
# Velocity P-wave (km/s) = 4.85354 5.11667 4.98684
#
# Compressibility (1/GPa) = 0.06528849
#
# Stress axis : x y z
#
# Youngs Moduli (GPa) = 64.99585 30.51578 75.51235
#
# Poissons Ratio (x) = -0.05607 -0.00706
# Poissons Ratio (y) = -0.11943 -0.00107
# Poissons Ratio (z) = -0.00607 -0.00043
#
# Static dielectric constant tensor:
#      x y z
#    x 1.776710 0.000000 0.000000 
#    y 0.000000 1.797390 0.000000 
#    z 0.000000 0.000000 1.788910 
# 
# From -- ./inp_files/552.got.cif
#   From: 2010.05.17/outbox.cif.g08.bks.cpg/sg19_1_cif.got.tgz:552.got - 2010.06.03 22:46:19.
