data_PCOD9313991
_publ_section_title
;
Structure prediction by ZEFSAII (Michael W. Deem and Ramdas Pophale) SiO2 
 PCOD9313991
Probable space group: P 21 21 21
;
_chemical_formula_sum "Si O2"
_cell_formula_units_Z 28
_cell_length_a 12.247989
_cell_length_b 8.271566
_cell_length_c 9.863354
_cell_angle_alpha 90.000000
_cell_angle_beta 90.000000
_cell_angle_gamma 90.000000
_cell_volume 999.256881
_symmetry_space_group_name_H-M "P 21 21 21"
_symmetry_group_IT_number 19
_symmetry_cell_setting 'orthorhombic'
loop_
_space_group_symop_operation_xyz
x,y,z
1/2-x,-y,1/2+z
1/2+x,1/2-y,-z
-x,1/2+y,1/2-z
loop_
_atom_site_type_symbol
_atom_site_label
_atom_site_fract_x
_atom_site_fract_y
_atom_site_fract_z
Si Si1 0.529359 0.117922 0.451548
Si Si2 0.529730 0.868544 0.228762
Si Si3 0.667663 0.213969 0.118153
Si Si4 0.260110 0.815371 0.780457
Si Si5 0.608164 0.873509 0.660474
Si Si6 0.560303 0.101479 0.874709
Si Si7 0.712571 0.525321 0.956638
O O1 0.545611 0.043111 0.298495
O O2 0.609656 0.009215 0.542318
O O3 0.413989 0.077702 0.526370
O O4 0.521630 0.307782 0.414212
O O5 0.434440 0.812541 0.330057
O O6 0.644032 0.773533 0.238851
O O7 0.767818 0.154315 0.207412
O O8 0.724604 0.345977 0.019295
O O9 0.619352 0.077176 0.018425
O O10 0.355269 0.706207 0.718114
O O11 0.256555 0.986773 0.698018
O O12 0.272457 0.855204 0.939595
O O13 0.545026 0.714738 0.610391
O O14 0.541828 0.942779 0.787968
#
# Coordination Sequence:
#
# PCOD9313991 Si02
#       7
#     4   4   4   4   4   4   4
#     4  10  20  42  62  93 127 172 217 277 336 407
#     4  10  21  39  70  89 129 172 224 272 333 409
#     4  10  23  41  67  94 130 185 215 273 350 402
#     4  10  20  39  64  95 128 174 224 273 339 405
#     4  12  25  45  68  99 142 176 229 288 342 417
#     4  11  26  45  70  98 139 183 227 288 354 404
#     4   9  19  37  65  92 123 174 216 269 338 410
#
# _framework density 28.020821999999999
#
# number of rings (size 3 to 8) (size 9 to 14) (size 15 to 20)
#    0.000    1.714    4.286    1.714    6.000    0.000 
#   10.286    0.000    0.000    0.000    0.000    0.000 
#    0.000    0.000    0.000    0.000    0.000    0.000 
#
# Total GULP energy -156572.154002 kJ/mol
# GULP energy per Si atom -5591.862643 kJ/mol
# Density = 2.795705 g / cm^3
# Si number density = 28.020822 Si / 1000 Ang^3
#
#
#
# Elastic Constant Matrix: (Units=GPa)
#
#
# Indices 1 2 3 4 5 6 
#
# 1 144.7363 15.0666 2.6147 0.0000 0.0000 0.0000
# 2 15.0666 57.1610 -4.1235 0.0000 0.0000 0.0000
# 3 2.6147 -4.1235 44.6674 0.0000 0.0000 0.0000
# 4 0.0000 0.0000 0.0000 41.7456 0.0000 0.0000
# 5 0.0000 0.0000 0.0000 0.0000 36.7506 0.0000
# 6 0.0000 0.0000 0.0000 0.0000 0.0000 35.0295
#
#
#
# Elastic Compliance Matrix: (Units=1/GPa)
#
#
# Indices 1 2 3 4 5 6 
#
# 1 0.007120 -0.001919 -0.000594 0.000000 0.000000 0.000000
# 2 -0.001919 0.018129 0.001786 0.000000 0.000000 0.000000
# 3 -0.000594 0.001786 0.022587 0.000000 0.000000 0.000000
# 4 0.000000 0.000000 0.000000 0.023955 0.000000 0.000000
# 5 0.000000 0.000000 0.000000 0.000000 0.027210 0.000000
# 6 0.000000 0.000000 0.000000 0.000000 0.000000 0.028547
#
#
# Mechanical properties :
#
#
# Convention : Reuss Voigt Hill
#
# Bulk Modulus (GPa) = 21.56040 30.40892 25.98466
# Shear Modulus (GPa) = 34.61071 38.23894 36.42483
#
# Velocity S-wave (km/s) = 3.51832 3.69814 3.60935
# Velocity P-wave (km/s) = 4.92097 5.39544 5.16366
#
# Compressibility (1/GPa) = 0.04638132
#
# Stress axis : x y z
#
# Youngs Moduli (GPa) = 140.45622 55.15959 44.27262
#
# Poissons Ratio (x) = 0.10588 0.02630
# Poissons Ratio (y) = 0.26960 -0.07907
# Poissons Ratio (z) = 0.08343 -0.09851
#
# Static dielectric constant tensor:
#      x y z
#    x 2.115920 0.000000 0.000000 
#    y 0.000000 2.279340 0.000000 
#    z 0.000000 0.000000 2.274520 
# 
# From -- ./inp_files/4953.got.cif
#   From: 2010.05.17/outbox.cif.g08.bks.cpg/sg19_3_cif.got.tgz:4953.got - 2010.06.03 22:46:19.
