data_PCOD9313209
_publ_section_title
;
Structure prediction by ZEFSAII (Michael W. Deem and Ramdas Pophale) SiO2 
 PCOD9313209
Probable space group: P 21 21 2
;
_chemical_formula_sum "Si O2"
_cell_formula_units_Z 28
_cell_length_a 9.304736
_cell_length_b 23.223374
_cell_length_c 5.335286
_cell_angle_alpha 90.000000
_cell_angle_beta 90.000000
_cell_angle_gamma 90.000000
_cell_volume 1152.887888
_symmetry_space_group_name_H-M "P 21 21 2"
_symmetry_group_IT_number 18
_symmetry_cell_setting 'orthorhombic'
loop_
_space_group_symop_operation_xyz
x,y,z
-x,-y,z
1/2+x,1/2-y,-z
1/2-x,1/2+y,-z
loop_
_atom_site_type_symbol
_atom_site_label
_atom_site_fract_x
_atom_site_fract_y
_atom_site_fract_z
Si Si1 0.950843 0.898449 0.282521
Si Si2 0.500000 0.500000 0.470467
Si Si3 0.400766 0.279345 0.740266
Si Si4 0.679441 0.539566 0.054303
Si Si5 0.786869 0.720198 0.263332
Si Si6 0.313459 0.080253 0.036248
Si Si7 0.000000 0.500000 0.603393
Si Si8 0.085005 0.400688 0.254056
O O1 0.808926 0.876890 0.134959
O O2 0.043773 0.842985 0.343509
O O3 0.884968 0.951105 0.441985
O O4 0.065684 0.941380 0.150358
O O5 0.595096 0.546073 0.312267
O O6 0.305705 0.256571 0.502669
O O7 0.554953 0.247954 0.779808
O O8 0.308226 0.280260 0.003100
O O9 0.817484 0.578733 0.021208
O O10 0.721467 0.473506 0.058637
O O11 0.835603 0.655669 0.345830
O O12 0.412393 0.046137 0.234255
O O13 0.422033 0.107671 0.836419
O O14 0.910239 0.542695 0.425747
#
# Coordination Sequence:
#
# PCOD9313209 Si02
#       8
#     4   2   4   4   4   4   2   4
#     4  12  26  41  73 107 150 196 252 318 384 474
#     4  12  22  38  70 102 148 194 246 302 384 468
#     4  12  30  57  85 117 155 207 275 336 413 469
#     4  12  21  43  60 102 151 189 242 296 376 448
#     4  12  30  56  86 116 155 210 268 346 401 484
#     4  12  24  40  63 108 152 198 245 306 377 471
#     4  12  24  40  68 106 156 200 248 304 374 476
#     4  12  26  42  72 103 152 200 248 313 386 463
#
# _framework density 24.286836999999998
#
# number of rings (size 3 to 8) (size 9 to 14) (size 15 to 20)
#    0.000    0.000    7.143    2.571    6.000    1.143 
#    0.000    0.000    0.000    0.000    0.000    0.000 
#    0.000    0.000    0.000    0.000    0.000    0.000 
#
# Total GULP energy -155871.742314 kJ/mol
# GULP energy per Si atom -5566.847940 kJ/mol
# Density = 2.423156 g / cm^3
# Si number density = 24.286837 Si / 1000 Ang^3
#
#
#
# Elastic Constant Matrix: (Units=GPa)
#
#
# Indices 1 2 3 4 5 6 
#
# 1 136.9169 18.4206 23.3364 0.0000 0.0000 0.0000
# 2 18.4206 71.6981 -0.3394 0.0000 0.0000 0.0000
# 3 23.3364 -0.3394 44.5589 0.0000 0.0000 0.0000
# 4 0.0000 0.0000 0.0000 14.9697 0.0000 0.0000
# 5 0.0000 0.0000 0.0000 0.0000 38.8225 0.0000
# 6 0.0000 0.0000 0.0000 0.0000 0.0000 45.8264
#
#
#
# Elastic Compliance Matrix: (Units=1/GPa)
#
#
# Indices 1 2 3 4 5 6 
#
# 1 0.008342 -0.002164 -0.004386 0.000000 0.000000 0.000000
# 2 -0.002164 0.014509 0.001244 0.000000 0.000000 0.000000
# 3 -0.004386 0.001244 0.024748 0.000000 0.000000 0.000000
# 4 0.000000 0.000000 0.000000 0.066802 0.000000 0.000000
# 5 0.000000 0.000000 0.000000 0.000000 0.025758 0.000000
# 6 0.000000 0.000000 0.000000 0.000000 0.000000 0.021821
#
#
# Mechanical properties :
#
#
# Convention : Reuss Voigt Hill
#
# Bulk Modulus (GPa) = 27.03537 37.33437 32.18487
# Shear Modulus (GPa) = 27.03837 34.04080 30.53959
#
# Velocity S-wave (km/s) = 3.34022 3.74788 3.54991
# Velocity P-wave (km/s) = 5.10216 5.84247 5.48482
#
# Compressibility (1/GPa) = 0.03698858
#
# Stress axis : x y z
#
# Youngs Moduli (GPa) = 119.87058 68.92154 40.40656
#
# Poissons Ratio (x) = 0.14915 0.17720
# Poissons Ratio (y) = 0.25941 -0.05026
# Poissons Ratio (z) = 0.52570 -0.08573
#
# Static dielectric constant tensor:
#      x y z
#    x 2.068200 0.000000 0.000000 
#    y 0.000000 1.736970 0.000000 
#    z 0.000000 0.000000 2.543980 
# 
# From -- ./inp_files/730.got.cif
#   From: 2010.05.17/outbox.cif.g08.bks.cpg/sg18_1_cif.got.tgz:730.got - 2010.06.03 22:40:56.
