data_PCOD9313787
_publ_section_title
;
Structure prediction by ZEFSAII (Michael W. Deem and Ramdas Pophale) SiO2 
 PCOD9313787
Probable space group: P 21 21 21
;
_chemical_formula_sum "Si O2"
_cell_formula_units_Z 32
_cell_length_a 19.317982
_cell_length_b 14.448451
_cell_length_c 5.312916
_cell_angle_alpha 90.000000
_cell_angle_beta 90.000000
_cell_angle_gamma 90.000000
_cell_volume 1482.914105
_symmetry_space_group_name_H-M "P 21 21 21"
_symmetry_group_IT_number 19
_symmetry_cell_setting 'orthorhombic'
loop_
_space_group_symop_operation_xyz
x,y,z
1/2-x,-y,1/2+z
1/2+x,1/2-y,-z
-x,1/2+y,1/2-z
loop_
_atom_site_type_symbol
_atom_site_label
_atom_site_fract_x
_atom_site_fract_y
_atom_site_fract_z
Si Si1 0.969650 0.500255 0.193824
Si Si2 0.283613 0.118070 0.364329
Si Si3 0.824500 0.705880 0.516618
Si Si4 0.134264 0.353395 0.342023
Si Si5 0.845497 0.546658 0.872501
Si Si6 0.533835 0.064697 0.301492
Si Si7 0.273795 0.308295 0.601638
Si Si8 0.105892 0.547224 0.062051
O O1 0.992723 0.429583 0.964133
O O2 0.030258 0.576942 0.162567
O O3 0.895300 0.536539 0.111850
O O4 0.982332 0.461386 0.471157
O O5 0.234458 0.065146 0.559728
O O6 0.306014 0.214021 0.489388
O O7 0.342509 0.050589 0.270023
O O8 0.229498 0.146409 0.147206
O O9 0.874294 0.765078 0.337762
O O10 0.863429 0.635864 0.704186
O O11 0.773278 0.776438 0.663506
O O12 0.082743 0.355877 0.581753
O O13 0.214241 0.347695 0.420204
O O14 0.122396 0.449324 0.196858
O O15 0.588924 0.982242 0.227089
O O16 0.333907 0.382474 0.622450
#
# Coordination Sequence:
#
# PCOD9313787 Si02
#       8
#     4   4   4   4   4   4   4   4
#     4   9  22  37  66  89 131 172 222 256 321 395
#     4  10  22  37  64  90 123 162 217 280 329 386
#     4  10  22  38  59  98 123 162 216 278 330 383
#     4  10  20  34  63  92 132 169 210 266 318 389
#     4  11  21  41  66  93 124 173 222 280 337 382
#     4   9  20  40  58  95 123 179 211 254 313 394
#     4  10  22  36  61  97 128 165 214 272 327 387
#     4   9  21  37  61  90 136 170 208 252 323 398
#
# _framework density 21.579132999999999
#
# number of rings (size 3 to 8) (size 9 to 14) (size 15 to 20)
#    0.750    1.500    1.250    0.750    5.250    3.000 
#    0.000    2.500    0.000    0.000    0.000    0.000 
#    0.000    0.000    0.000    0.000    0.000    0.000 
#
# Total GULP energy -178225.825125 kJ/mol
# GULP energy per Si atom -5569.557035 kJ/mol
# Density = 2.153002 g / cm^3
# Si number density = 21.579133 Si / 1000 Ang^3
#
#
#
# Elastic Constant Matrix: (Units=GPa)
#
#
# Indices 1 2 3 4 5 6 
#
# 1 62.6961 35.4569 12.2162 0.0000 0.0000 0.0000
# 2 35.4569 79.4228 28.3830 0.0000 0.0000 0.0000
# 3 12.2162 28.3830 92.1125 0.0000 0.0000 0.0000
# 4 0.0000 0.0000 0.0000 18.7291 0.0000 0.0000
# 5 0.0000 0.0000 0.0000 0.0000 24.4026 0.0000
# 6 0.0000 0.0000 0.0000 0.0000 0.0000 -2.5046
#
#
#
# Elastic Compliance Matrix: (Units=1/GPa)
#
#
# Indices 1 2 3 4 5 6 
#
# 1 0.021338 -0.009568 0.000118 0.000000 0.000000 0.000000
# 2 -0.009568 0.018439 -0.004413 0.000000 0.000000 0.000000
# 3 0.000118 -0.004413 0.012200 0.000000 0.000000 0.000000
# 4 0.000000 0.000000 0.000000 0.053393 0.000000 0.000000
# 5 0.000000 0.000000 0.000000 0.000000 0.040979 0.000000
# 6 0.000000 0.000000 0.000000 0.000000 0.000000 -0.399262
#
#
# Mechanical properties :
#
#
# Convention : Reuss Voigt Hill
#
# Bulk Modulus (GPa) = 41.23309 42.92706 42.08008
# Shear Modulus (GPa) = -23.03064 18.67044 -2.18010
#
# Velocity S-wave (km/s) = -3.27045 2.94463 -1.00622
# Velocity P-wave (km/s) = 2.21094 5.61224 4.26529
#
# Compressibility (1/GPa) = 0.02425237
#
# Stress axis : x y z
#
# Youngs Moduli (GPa) = 46.86449 54.23149 81.96493
#
# Poissons Ratio (x) = 0.51891 -0.00971
# Poissons Ratio (y) = 0.44842 0.36170
# Poissons Ratio (z) = -0.00555 0.23932
#
# Static dielectric constant tensor:
#      x y z
#    x 1.791630 0.000000 0.000000 
#    y 0.000000 1.806130 0.000000 
#    z 0.000000 0.000000 1.915650 
# 
# From -- ./inp_files/2066.got.cif
#   From: 2010.05.17/outbox.cif.g08.bks.cpg/sg19_2_cif.got.tgz:2066.got - 2010.06.03 22:46:19.
