data_PCOD9313656
_publ_section_title
;
Structure prediction by ZEFSAII (Michael W. Deem and Ramdas Pophale) SiO2 
 PCOD9313656
Probable space group: P 21 21 21
;
_chemical_formula_sum "Si O2"
_cell_formula_units_Z 28
_cell_length_a 9.323008
_cell_length_b 17.331544
_cell_length_c 7.819925
_cell_angle_alpha 90.000000
_cell_angle_beta 90.000000
_cell_angle_gamma 90.000000
_cell_volume 1263.560086
_symmetry_space_group_name_H-M "P 21 21 21"
_symmetry_group_IT_number 19
_symmetry_cell_setting 'orthorhombic'
loop_
_space_group_symop_operation_xyz
x,y,z
1/2-x,-y,1/2+z
1/2+x,1/2-y,-z
-x,1/2+y,1/2-z
loop_
_atom_site_type_symbol
_atom_site_label
_atom_site_fract_x
_atom_site_fract_y
_atom_site_fract_z
Si Si1 0.931564 0.031384 0.485204
Si Si2 0.698299 0.080171 0.722084
Si Si3 0.103193 0.261732 0.364386
Si Si4 0.219483 0.792429 0.186733
Si Si5 0.478810 0.988946 0.511253
Si Si6 0.796107 0.533389 0.804322
Si Si7 0.579346 0.847426 0.683224
O O1 0.848724 0.045390 0.662997
O O2 0.891675 0.099317 0.350778
O O3 0.098513 0.032630 0.531653
O O4 0.872593 0.955217 0.391417
O O5 0.698892 0.171534 0.716064
O O6 0.595179 0.051223 0.567062
O O7 0.170959 0.231702 0.538699
O O8 0.941706 0.294904 0.392258
O O9 0.070032 0.194855 0.228233
O O10 0.261528 0.877723 0.247512
O O11 0.196437 0.721421 0.320309
O O12 0.391616 0.004907 0.341434
O O13 0.556989 0.906031 0.528360
O O14 0.352645 0.992380 0.653152
#
# Coordination Sequence:
#
# PCOD9313656 Si02
#       7
#     4   4   4   4   4   4   4
#     4  11  22  38  62  90 127 157 214 251 325 366
#     4  11  21  40  62  91 125 170 201 266 305 392
#     4  10  19  37  65  89 119 166 205 257 313 378
#     4  10  20  38  66  88 126 162 216 251 328 370
#     4  11  23  39  63  90 130 158 219 258 322 365
#     4  12  23  39  64  96 120 172 207 274 310 387
#     4   9  20  37  62  86 121 157 202 263 297 382
#
# _framework density 22.159610000000001
#
# number of rings (size 3 to 8) (size 9 to 14) (size 15 to 20)
#    0.857    0.571    4.286    2.571    0.000    0.000 
#    0.000    4.286    3.143    0.000    0.000    0.000 
#    0.000    0.000    0.000    0.000    0.000    0.000 
#
# Total GULP energy -156198.057531 kJ/mol
# GULP energy per Si atom -5578.502055 kJ/mol
# Density = 2.210917 g / cm^3
# Si number density = 22.159610 Si / 1000 Ang^3
#
#
#
# Elastic Constant Matrix: (Units=GPa)
#
#
# Indices 1 2 3 4 5 6 
#
# 1 72.1281 -15.2431 -5.8011 0.0000 0.0000 0.0000
# 2 -15.2431 69.8843 -8.3901 0.0000 0.0000 0.0000
# 3 -5.8011 -8.3901 43.6670 0.0000 0.0000 0.0000
# 4 0.0000 0.0000 0.0000 23.4464 0.0000 0.0000
# 5 0.0000 0.0000 0.0000 0.0000 29.9736 0.0000
# 6 0.0000 0.0000 0.0000 0.0000 0.0000 19.6329
#
#
#
# Elastic Compliance Matrix: (Units=1/GPa)
#
#
# Indices 1 2 3 4 5 6 
#
# 1 0.014828 0.003553 0.002653 0.000000 0.000000 0.000000
# 2 0.003553 0.015498 0.003450 0.000000 0.000000 0.000000
# 3 0.002653 0.003450 0.023916 0.000000 0.000000 0.000000
# 4 0.000000 0.000000 0.000000 0.042650 0.000000 0.000000
# 5 0.000000 0.000000 0.000000 0.000000 0.033363 0.000000
# 6 0.000000 0.000000 0.000000 0.000000 0.000000 0.050935
#
#
# Mechanical properties :
#
#
# Convention : Reuss Voigt Hill
#
# Bulk Modulus (GPa) = 13.59563 14.09009 13.84286
# Shear Modulus (GPa) = 26.82433 28.95149 27.88791
#
# Velocity S-wave (km/s) = 3.48301 3.61847 3.55139
# Velocity P-wave (km/s) = 4.72480 4.88160 4.80384
#
# Compressibility (1/GPa) = 0.07355306
#
# Stress axis : x y z
#
# Youngs Moduli (GPa) = 67.43817 64.52243 41.81338
#
# Poissons Ratio (x) = -0.22924 -0.11091
# Poissons Ratio (y) = -0.23960 -0.14425
# Poissons Ratio (z) = -0.17888 -0.22259
#
# Static dielectric constant tensor:
#      x y z
#    x 1.809180 0.000000 0.000000 
#    y 0.000000 1.836740 0.000000 
#    z 0.000000 0.000000 1.850240 
# 
# From -- ./inp_files/3070.got.cif
#   From: 2010.05.17/outbox.cif.g08.bks.cpg/sg19_2_cif.got.tgz:3070.got - 2010.06.03 22:46:19.
