data_PCOD9313281
_publ_section_title
;
Structure prediction by ZEFSAII (Michael W. Deem and Ramdas Pophale) SiO2 
 PCOD9313281
Probable space group: P 21 21 2
;
_chemical_formula_sum "Si O2"
_cell_formula_units_Z 28
_cell_length_a 9.000000
_cell_length_b 27.000000
_cell_length_c 6.000000
_cell_angle_alpha 90.000000
_cell_angle_beta 90.000000
_cell_angle_gamma 90.000000
_cell_volume 1458.000000
_symmetry_space_group_name_H-M "P 21 21 2"
_symmetry_group_IT_number 18
_symmetry_cell_setting 'orthorhombic'
loop_
_space_group_symop_operation_xyz
x,y,z
-x,-y,z
1/2+x,1/2-y,-z
1/2-x,1/2+y,-z
loop_
_atom_site_type_symbol
_atom_site_label
_atom_site_fract_x
_atom_site_fract_y
_atom_site_fract_z
Si Si1 0.500000 0.500000 0.249048
Si Si2 0.986196 0.906095 0.082201
Si Si3 0.773301 0.047426 0.431241
Si Si4 0.110121 0.356561 0.549844
Si Si5 0.503031 0.202352 0.848900
Si Si6 0.822729 0.193291 0.093834
Si Si7 0.129181 0.605755 0.902730
Si Si8 0.500000 0.000000 0.146944
O O1 0.355242 0.489874 0.401563
O O2 0.484717 0.550355 0.104336
O O3 0.808927 0.897244 0.135026
O O4 0.094190 0.930026 0.273842
O O5 0.067905 0.853065 0.022143
O O6 0.694272 0.094929 0.550427
O O7 0.643416 0.019765 0.289556
O O8 0.240122 0.328443 0.686704
O O9 0.033369 0.314717 0.402034
O O10 0.975693 0.380781 0.691827
O O11 0.416449 0.255023 0.880104
O O12 0.672921 0.203341 0.947051
O O13 0.412142 0.154304 0.946369
O O14 0.065119 0.550521 0.973038
#
# Coordination Sequence:
#
# PCOD9313281 Si02
#       8
#     2   4   4   4   4   4   4   2
#     4  12  22  36  62  88 116 160 198 236 292 352
#     4  11  23  40  59  88 125 155 193 249 298 345
#     4  10  22  39  58  86 122 157 200 241 289 353
#     4   9  22  41  60  85 118 156 195 242 294 348
#     4  11  22  41  64  89 118 156 201 241 293 358
#     4  10  23  40  60  87 120 153 194 247 295 346
#     4  10  22  38  61  89 120 156 195 242 296 349
#     4  10  20  40  60  84 126 158 188 248 296 338
#
# _framework density 19.20439
#
# number of rings (size 3 to 8) (size 9 to 14) (size 15 to 20)
#    0.000    1.714    0.000    4.714    0.000    8.000 
#    0.000    4.286    0.000    0.000    0.000    0.000 
#    0.000    0.000    0.000    0.000    0.000    0.000 
#
# Total GULP energy -155900.722555 kJ/mol
# GULP energy per Si atom -5567.882948 kJ/mol
# Density = 1.916068 g / cm^3
# Si number density = 19.204390 Si / 1000 Ang^3
#
#
#
# Elastic Constant Matrix: (Units=GPa)
#
#
# Indices 1 2 3 4 5 6 
#
# 1 172.6117 70.8062 29.9394 0.0000 0.0000 0.0000
# 2 70.8062 178.5403 33.3089 0.0000 0.0000 0.0000
# 3 29.9394 33.3089 32.4898 0.0000 0.0000 0.0000
# 4 0.0000 0.0000 0.0000 27.9408 0.0000 0.0000
# 5 0.0000 0.0000 0.0000 0.0000 20.7325 0.0000
# 6 0.0000 0.0000 0.0000 0.0000 0.0000 60.7832
#
#
#
# Elastic Compliance Matrix: (Units=1/GPa)
#
#
# Indices 1 2 3 4 5 6 
#
# 1 0.007469 -0.002075 -0.004756 0.000000 0.000000 0.000000
# 2 -0.002075 0.007502 -0.005779 0.000000 0.000000 0.000000
# 3 -0.004756 -0.005779 0.041086 0.000000 0.000000 0.000000
# 4 0.000000 0.000000 0.000000 0.035790 0.000000 0.000000
# 5 0.000000 0.000000 0.000000 0.000000 0.048233 0.000000
# 6 0.000000 0.000000 0.000000 0.000000 0.000000 0.016452
#
#
# Mechanical properties :
#
#
# Convention : Reuss Voigt Hill
#
# Bulk Modulus (GPa) = 32.42764 72.41677 52.42221
# Shear Modulus (GPa) = 26.03737 38.53047 32.28392
#
# Velocity S-wave (km/s) = 3.68612 4.48407 4.10453
# Velocity P-wave (km/s) = 5.91936 8.03738 7.05827
#
# Compressibility (1/GPa) = 0.03083789
#
# Stress axis : x y z
#
# Youngs Moduli (GPa) = 133.87941 133.29691 24.33914
#
# Poissons Ratio (x) = 0.27659 0.11575
# Poissons Ratio (y) = 0.27780 0.14066
# Poissons Ratio (z) = 0.63670 0.77033
#
# Static dielectric constant tensor:
#      x y z
#    x 1.652020 0.000000 0.000000 
#    y 0.000000 1.674070 0.000000 
#    z 0.000000 0.000000 1.754710 
# 
# From -- ./inp_files/718.got.cif
#   From: 2010.05.17/outbox.ucp.g08.bks.cvg/sg18_1_cif.got.tgz:718.got - 2010.06.11 13:13:23.
