data_PCOD9313754
_publ_section_title
;
Structure prediction by ZEFSAII (Michael W. Deem and Ramdas Pophale) SiO2 
 PCOD9313754
Probable space group: P 21 21 21
;
_chemical_formula_sum "Si O2"
_cell_formula_units_Z 32
_cell_length_a 15.901706
_cell_length_b 7.524377
_cell_length_c 9.880050
_cell_angle_alpha 90.000000
_cell_angle_beta 90.000000
_cell_angle_gamma 90.000000
_cell_volume 1182.152240
_symmetry_space_group_name_H-M "P 21 21 21"
_symmetry_group_IT_number 19
_symmetry_cell_setting 'orthorhombic'
loop_
_space_group_symop_operation_xyz
x,y,z
1/2-x,-y,1/2+z
1/2+x,1/2-y,-z
-x,1/2+y,1/2-z
loop_
_atom_site_type_symbol
_atom_site_label
_atom_site_fract_x
_atom_site_fract_y
_atom_site_fract_z
Si Si1 0.697517 0.659148 0.362669
Si Si2 0.720435 0.117495 0.095850
Si Si3 0.106282 0.446277 0.320389
Si Si4 0.032796 0.009052 0.967987
Si Si5 0.586563 0.959425 0.258418
Si Si6 0.306094 0.773609 0.134956
Si Si7 0.884972 0.215872 0.397045
Si Si8 0.626090 0.417640 0.784292
O O1 0.740977 0.798673 0.463553
O O2 0.669247 0.466978 0.419221
O O3 0.775163 0.608849 0.267328
O O4 0.625345 0.770245 0.294084
O O5 0.795713 0.990298 0.152059
O O6 0.629761 0.021512 0.117578
O O7 0.712252 0.276220 0.204395
O O8 0.046113 0.535765 0.430397
O O9 0.089474 0.536840 0.175632
O O10 0.911967 0.736924 0.193315
O O11 0.103911 0.112757 0.054177
O O12 0.061659 0.804643 0.984215
O O13 0.008360 0.052144 0.814568
O O14 0.626383 0.114309 0.359858
O O15 0.215442 0.718669 0.073058
O O16 0.895579 0.373786 0.279766
#
# Coordination Sequence:
#
# PCOD9313754 Si02
#       8
#     4   4   4   4   4   4   4   4
#     4  11  17  39  59  76 117 154 183 231 281 346
#     4   9  20  34  57  84 111 146 191 232 279 331
#     4  11  16  35  51  83 117 139 177 230 288 342
#     4  10  20  33  52  84 113 142 178 238 285 322
#     4  10  20  38  52  84 116 139 193 235 273 341
#     4   8  19  37  52  80 108 148 187 227 275 331
#     4   8  18  32  49  77 109 143 179 219 277 342
#     4   9  20  32  56  78 111 153 178 222 292 335
#
# _framework density 27.069274
#
# number of rings (size 3 to 8) (size 9 to 14) (size 15 to 20)
#    1.500    1.000    2.500    0.750    0.000    0.000 
#   11.250    0.000    0.000    4.500    0.000    0.000 
#    0.000    0.000    0.000    0.000    0.000    0.000 
#
# Total GULP energy -178424.516874 kJ/mol
# GULP energy per Si atom -5575.766152 kJ/mol
# Density = 2.700766 g / cm^3
# Si number density = 27.069274 Si / 1000 Ang^3
#
#
#
# Elastic Constant Matrix: (Units=GPa)
#
#
# Indices 1 2 3 4 5 6 
#
# 1 51.7637 32.3927 16.0831 0.0000 0.0000 0.0000
# 2 32.3927 112.0553 15.8181 0.0000 0.0000 0.0000
# 3 16.0831 15.8181 74.4050 0.0000 0.0000 0.0000
# 4 0.0000 0.0000 0.0000 22.3287 0.0000 0.0000
# 5 0.0000 0.0000 0.0000 0.0000 40.7540 0.0000
# 6 0.0000 0.0000 0.0000 0.0000 0.0000 48.3885
#
#
#
# Elastic Compliance Matrix: (Units=1/GPa)
#
#
# Indices 1 2 3 4 5 6 
#
# 1 0.024652 -0.006571 -0.003932 0.000000 0.000000 0.000000
# 2 -0.006571 0.010952 -0.000908 0.000000 0.000000 0.000000
# 3 -0.003932 -0.000908 0.014483 0.000000 0.000000 0.000000
# 4 0.000000 0.000000 0.000000 0.044785 0.000000 0.000000
# 5 0.000000 0.000000 0.000000 0.000000 0.024537 0.000000
# 6 0.000000 0.000000 0.000000 0.000000 0.000000 0.020666
#
#
# Mechanical properties :
#
#
# Convention : Reuss Voigt Hill
#
# Bulk Modulus (GPa) = 36.67684 40.75685 38.71684
# Shear Modulus (GPa) = 29.07202 33.88960 31.48081
#
# Velocity S-wave (km/s) = 3.28073 3.54214 3.41394
# Velocity P-wave (km/s) = 5.28484 5.64076 5.46570
#
# Compressibility (1/GPa) = 0.02726516
#
# Stress axis : x y z
#
# Youngs Moduli (GPa) = 40.56392 91.30762 69.04728
#
# Poissons Ratio (x) = 0.60002 0.27147
# Poissons Ratio (y) = 0.26656 0.06269
# Poissons Ratio (z) = 0.15949 0.08290
#
# Static dielectric constant tensor:
#      x y z
#    x 2.163740 0.000000 0.000000 
#    y 0.000000 2.136230 0.000000 
#    z 0.000000 0.000000 2.188240 
# 
# From -- ./inp_files/6347.got.cif
#   From: 2010.05.17/outbox.cif.g08.bks.cpg/sg19_4_cif.got.tgz:6347.got - 2010.06.03 22:46:19.
