data_PCOD9313848
_publ_section_title
;
Structure prediction by ZEFSAII (Michael W. Deem and Ramdas Pophale) SiO2 
 PCOD9313848
Probable space group: P 21 21 21
;
_chemical_formula_sum "Si O2"
_cell_formula_units_Z 24
_cell_length_a 12.220510
_cell_length_b 7.700272
_cell_length_c 10.184833
_cell_angle_alpha 90.000000
_cell_angle_beta 90.000000
_cell_angle_gamma 90.000000
_cell_volume 958.405526
_symmetry_space_group_name_H-M "P 21 21 21"
_symmetry_group_IT_number 19
_symmetry_cell_setting 'orthorhombic'
loop_
_space_group_symop_operation_xyz
x,y,z
1/2-x,-y,1/2+z
1/2+x,1/2-y,-z
-x,1/2+y,1/2-z
loop_
_atom_site_type_symbol
_atom_site_label
_atom_site_fract_x
_atom_site_fract_y
_atom_site_fract_z
Si Si1 0.169068 0.397523 0.397352
Si Si2 0.663563 0.004887 0.884488
Si Si3 0.514152 0.369601 0.293684
Si Si4 0.697898 0.462281 0.473530
Si Si5 0.566904 0.643948 0.970773
Si Si6 0.495860 0.194840 0.038121
O O1 0.210629 0.454855 0.257088
O O2 0.240513 0.483387 0.510564
O O3 0.176464 0.189887 0.420788
O O4 0.040961 0.440383 0.410254
O O5 0.598993 0.820946 0.891739
O O6 0.579001 0.158362 0.921587
O O7 0.641179 0.385626 0.340275
O O8 0.458980 0.219763 0.383376
O O9 0.497519 0.351618 0.139752
O O10 0.466052 0.543685 0.357666
O O11 0.826784 0.476085 0.465097
O O12 0.625892 0.632310 0.501610
#
# Coordination Sequence:
#
# PCOD9313848 Si02
#       6
#     4   4   4   4   4   4
#     4  10  20  36  59  88 113 165 201 254 302 366
#     4  10  21  35  64  84 123 158 210 247 309 364
#     4   8  17  33  61  87 116 160 207 243 308 369
#     4   8  18  36  59  83 123 164 195 252 317 363
#     4   9  18  38  55  85 118 164 192 257 313 363
#     4   9  18  36  58  91 121 165 203 257 307 375
#
# _framework density 25.041592000000001
#
# number of rings (size 3 to 8) (size 9 to 14) (size 15 to 20)
#    1.000    2.000    1.667    0.000    7.000    0.000 
#    3.000    3.333    0.000    0.000    0.000    0.000 
#    0.000    0.000    0.000    0.000    0.000    0.000 
#
# Total GULP energy -134131.405485 kJ/mol
# GULP energy per Si atom -5588.808562 kJ/mol
# Density = 2.498460 g / cm^3
# Si number density = 25.041592 Si / 1000 Ang^3
#
#
#
# Elastic Constant Matrix: (Units=GPa)
#
#
# Indices 1 2 3 4 5 6 
#
# 1 132.0819 4.9897 5.4731 0.0000 0.0000 0.0000
# 2 4.9897 67.3814 14.1426 0.0000 0.0000 0.0000
# 3 5.4731 14.1426 121.0792 0.0000 0.0000 0.0000
# 4 0.0000 0.0000 0.0000 24.5617 0.0000 0.0000
# 5 0.0000 0.0000 0.0000 0.0000 26.9594 0.0000
# 6 0.0000 0.0000 0.0000 0.0000 0.0000 13.0740
#
#
#
# Elastic Compliance Matrix: (Units=1/GPa)
#
#
# Indices 1 2 3 4 5 6 
#
# 1 0.007602 -0.000503 -0.000285 0.000000 0.000000 0.000000
# 2 -0.000503 0.015247 -0.001758 0.000000 0.000000 0.000000
# 3 -0.000285 -0.001758 0.008477 0.000000 0.000000 0.000000
# 4 0.000000 0.000000 0.000000 0.040714 0.000000 0.000000
# 5 0.000000 0.000000 0.000000 0.000000 0.037093 0.000000
# 6 0.000000 0.000000 0.000000 0.000000 0.000000 0.076487
#
#
# Mechanical properties :
#
#
# Convention : Reuss Voigt Hill
#
# Bulk Modulus (GPa) = 38.11854 41.08370 39.60112
# Shear Modulus (GPa) = 25.06800 32.64815 28.85807
#
# Velocity S-wave (km/s) = 3.16738 3.61467 3.39839
# Velocity P-wave (km/s) = 5.35084 5.81919 5.58992
#
# Compressibility (1/GPa) = 0.02623396
#
# Stress axis : x y z
#
# Youngs Moduli (GPa) = 131.54651 65.58591 117.96207
#
# Poissons Ratio (x) = 0.03300 0.03360
# Poissons Ratio (y) = 0.06619 0.20740
# Poissons Ratio (z) = 0.03747 0.11531
#
# Static dielectric constant tensor:
#      x y z
#    x 1.977320 0.000000 0.000000 
#    y 0.000000 2.180970 0.000000 
#    z 0.000000 0.000000 1.960030 
# 
# From -- ./inp_files/3365.got.cif
#   From: 2010.05.17/outbox.cif.g08.bks.cpg/sg19_2_cif.got.tgz:3365.got - 2010.06.03 22:46:19.
