data_PCOD9313274
_publ_section_title
;
Structure prediction by ZEFSAII (Michael W. Deem and Ramdas Pophale) SiO2 
 PCOD9313274
Probable space group: P 21 21 2
;
_chemical_formula_sum "Si O2"
_cell_formula_units_Z 24
_cell_length_a 18.774791
_cell_length_b 5.236951
_cell_length_c 11.147318
_cell_angle_alpha 90.000000
_cell_angle_beta 90.000000
_cell_angle_gamma 90.000000
_cell_volume 1096.033963
_symmetry_space_group_name_H-M "P 21 21 2"
_symmetry_group_IT_number 18
_symmetry_cell_setting 'orthorhombic'
loop_
_space_group_symop_operation_xyz
x,y,z
-x,-y,z
1/2+x,1/2-y,-z
1/2-x,1/2+y,-z
loop_
_atom_site_type_symbol
_atom_site_label
_atom_site_fract_x
_atom_site_fract_y
_atom_site_fract_z
Si Si1 0.950078 0.247041 0.630124
Si Si2 0.790053 0.811020 0.143999
Si Si3 0.049922 0.752959 0.369875
Si Si4 0.209947 0.188980 0.856001
Si Si5 0.915397 0.455389 0.866525
Si Si6 0.584603 0.955388 0.866527
O O1 0.912490 0.235464 0.499999
O O2 0.905659 0.275610 0.751799
O O3 0.000000 0.500000 0.627021
O O4 0.000000 0.000000 0.638940
O O5 0.759039 0.076995 0.189506
O O6 0.870713 0.711268 0.160770
O O7 0.740961 0.576995 0.189506
O O8 0.782482 0.827905 1.000000
O O9 0.094341 0.724391 0.248200
O O10 0.000000 0.500000 0.372978
O O11 0.000000 0.000000 0.361059
O O12 0.129287 0.288732 0.839229
O O13 0.000000 0.500000 0.875107
O O14 0.892308 0.361482 0.999999
O O15 0.500000 0.000000 0.875108
#
# Coordination Sequence:
#
# PCOD9313274 Si02
#       6
#     4   4   4   4   4   4
#     4   9  18  32  49  71 101 134 164 199 250 305
#     4   9  18  32  48  68  99 136 166 198 253 316
#     4   9  18  32  49  71 101 134 164 199 250 305
#     4   9  18  32  48  68  99 136 166 198 253 316
#     4   9  18  32  53  80 104 129 171 222 258 292
#     4   9  18  32  53  80 104 129 171 222 258 292
#
# _framework density 21.897131000000002
#
# number of rings (size 3 to 8) (size 9 to 14) (size 15 to 20)
#    0.000    3.000    0.000    0.000    0.000    6.000 
#    0.000   10.000    0.000    2.000    0.000    0.000 
#    0.000    0.000    0.000    0.000    0.000    0.000 
#
# Total GULP energy -133699.946792 kJ/mol
# GULP energy per Si atom -5570.831116 kJ/mol
# Density = 2.184729 g / cm^3
# Si number density = 21.897131 Si / 1000 Ang^3
#
#
#
# Elastic Constant Matrix: (Units=GPa)
#
#
# Indices 1 2 3 4 5 6 
#
# 1 113.2720 21.6768 -12.4496 0.0000 0.0000 0.0000
# 2 21.6768 120.8498 13.3234 0.0000 0.0000 0.0000
# 3 -12.4496 13.3234 161.8000 0.0000 0.0000 0.0000
# 4 0.0000 0.0000 0.0000 -4.3669 0.0000 0.0000
# 5 0.0000 0.0000 0.0000 0.0000 6.8773 0.0000
# 6 0.0000 0.0000 0.0000 0.0000 0.0000 33.9343
#
#
#
# Elastic Compliance Matrix: (Units=1/GPa)
#
#
# Indices 1 2 3 4 5 6 
#
# 1 0.009258 -0.001755 0.000857 0.000000 0.000000 0.000000
# 2 -0.001755 0.008683 -0.000850 0.000000 0.000000 0.000000
# 3 0.000857 -0.000850 0.006316 0.000000 0.000000 0.000000
# 4 0.000000 0.000000 0.000000 -0.228998 0.000000 0.000000
# 5 0.000000 0.000000 0.000000 0.000000 0.145407 0.000000
# 6 0.000000 0.000000 0.000000 0.000000 0.000000 0.029469
#
#
# Mechanical properties :
#
#
# Convention : Reuss Voigt Hill
#
# Bulk Modulus (GPa) = 48.16623 49.00254 48.58439
# Shear Modulus (GPa) = -257.10736 32.18036 -112.46350
#
# Velocity S-wave (km/s) = -10.84762 3.83772 -7.17436
# Velocity P-wave (km/s) = 11.61250 6.48572 6.81123
#
# Compressibility (1/GPa) = 0.02076143
#
# Stress axis : x y z
#
# Youngs Moduli (GPa) = 108.01041 115.16395 158.31793
#
# Poissons Ratio (x) = 0.20213 -0.13566
# Poissons Ratio (y) = 0.18957 0.13458
# Poissons Ratio (z) = -0.09255 0.09790
#
# Static dielectric constant tensor:
#      x y z
#    x 1.856070 0.000000 0.000000 
#    y 0.000000 1.846870 0.000000 
#    z 0.000000 0.000000 1.873850 
# 
# From -- ./inp_files/6171.got.cif
#   From: 2010.05.17/outbox.cif.g08.bks.cpg/sg18_4_cif.got.tgz:6171.got - 2010.06.03 22:40:56.
