data_PCOD9313154
_publ_section_title
;
Structure prediction by ZEFSAII (Michael W. Deem and Ramdas Pophale) SiO2 
 PCOD9313154
Probable space group: P 21 21 2
;
_chemical_formula_sum "Si O2"
_cell_formula_units_Z 18
_cell_length_a 8.291006
_cell_length_b 9.306205
_cell_length_c 8.557075
_cell_angle_alpha 90.000000
_cell_angle_beta 90.000000
_cell_angle_gamma 90.000000
_cell_volume 660.245094
_symmetry_space_group_name_H-M "P 21 21 2"
_symmetry_group_IT_number 18
_symmetry_cell_setting 'orthorhombic'
loop_
_space_group_symop_operation_xyz
x,y,z
-x,-y,z
1/2+x,1/2-y,-z
1/2-x,1/2+y,-z
loop_
_atom_site_type_symbol
_atom_site_label
_atom_site_fract_x
_atom_site_fract_y
_atom_site_fract_z
Si Si1 0.240902 0.352981 0.509127
Si Si2 0.000000 0.500000 0.753229
Si Si3 0.028571 0.165283 0.300503
Si Si4 0.238377 0.715761 0.944691
Si Si5 0.698385 0.987086 0.789749
O O1 0.119813 0.414254 0.638570
O O2 0.175013 0.233537 0.392251
O O3 0.380245 0.274270 0.603850
O O4 0.274394 0.477408 0.379259
O O5 0.105878 0.612671 0.857546
O O6 0.082123 0.181521 0.123153
O O7 0.000000 0.000000 0.327371
O O8 0.232727 0.885115 0.904224
O O9 0.236085 0.660385 0.121306
O O10 0.500000 0.000000 0.776204
#
# Coordination Sequence:
#
# PCOD9313154 Si02
#       5
#     4   2   4   4   4
#     4  11  24  45  78 110 155 198 266 322 393 465
#     4  12  22  50  78 110 156 210 260 332 382 474
#     4  11  24  45  72 112 148 202 255 322 386 461
#     4  11  26  49  79 111 160 210 264 323 403 463
#     4  11  25  50  78 117 157 209 260 333 391 483
#
# _framework density 27.262604
#
# number of rings (size 3 to 8) (size 9 to 14) (size 15 to 20)
#    0.000    0.889    4.444    2.667    0.000    3.556 
#    4.000    1.111    0.000    0.000    0.000    0.000 
#    0.000    0.000    0.000    0.000    0.000    0.000 
#
# Total GULP energy -100727.877308 kJ/mol
# GULP energy per Si atom -5595.993184 kJ/mol
# Density = 2.720055 g / cm^3
# Si number density = 27.262604 Si / 1000 Ang^3
#
#
#
# Elastic Constant Matrix: (Units=GPa)
#
#
# Indices 1 2 3 4 5 6 
#
# 1 80.6754 -12.8623 40.2367 0.0000 0.0000 0.0000
# 2 -12.8623 72.5045 26.9242 0.0000 0.0000 0.0000
# 3 40.2367 26.9242 180.5602 0.0000 0.0000 0.0000
# 4 0.0000 0.0000 0.0000 68.2602 0.0000 0.0000
# 5 0.0000 0.0000 0.0000 0.0000 40.4296 0.0000
# 6 0.0000 0.0000 0.0000 0.0000 0.0000 58.2535
#
#
#
# Elastic Compliance Matrix: (Units=1/GPa)
#
#
# Indices 1 2 3 4 5 6 
#
# 1 0.015034 0.004140 -0.003968 0.000000 0.000000 0.000000
# 2 0.004140 0.015741 -0.003270 0.000000 0.000000 0.000000
# 3 -0.003968 -0.003270 0.006910 0.000000 0.000000 0.000000
# 4 0.000000 0.000000 0.000000 0.014650 0.000000 0.000000
# 5 0.000000 0.000000 0.000000 0.000000 0.024734 0.000000
# 6 0.000000 0.000000 0.000000 0.000000 0.000000 0.017166
#
#
# Mechanical properties :
#
#
# Convention : Reuss Voigt Hill
#
# Bulk Modulus (GPa) = 31.75489 49.14857 40.45173
# Shear Modulus (GPa) = 45.07455 52.01809 48.54632
#
# Velocity S-wave (km/s) = 4.07055 4.37285 4.22440
# Velocity P-wave (km/s) = 5.81081 6.60021 6.21805
#
# Compressibility (1/GPa) = 0.03149122
#
# Stress axis : x y z
#
# Youngs Moduli (GPa) = 66.51431 63.52824 144.71593
#
# Poissons Ratio (x) = -0.26304 0.57419
# Poissons Ratio (y) = -0.27540 0.47321
# Poissons Ratio (z) = 0.26391 0.20773
#
# Static dielectric constant tensor:
#      x y z
#    x 2.247950 0.000000 0.000000 
#    y 0.000000 2.170630 0.000000 
#    z 0.000000 0.000000 2.038780 
# 
# From -- ./inp_files/2883.got.cif
#   From: 2010.05.17/outbox.cif.g08.bks.cpg/sg18_2_cif.got.tgz:2883.got - 2010.06.03 22:40:56.
