data_PCOD9313798
_publ_section_title
;
Structure prediction by ZEFSAII (Michael W. Deem and Ramdas Pophale) SiO2 
 PCOD9313798
Probable space group: P 21 21 21
;
_chemical_formula_sum "Si O2"
_cell_formula_units_Z 32
_cell_length_a 11.789037
_cell_length_b 7.197615
_cell_length_c 14.891263
_cell_angle_alpha 90.000000
_cell_angle_beta 90.000000
_cell_angle_gamma 90.000000
_cell_volume 1263.567588
_symmetry_space_group_name_H-M "P 21 21 21"
_symmetry_group_IT_number 19
_symmetry_cell_setting 'orthorhombic'
loop_
_space_group_symop_operation_xyz
x,y,z
1/2-x,-y,1/2+z
1/2+x,1/2-y,-z
-x,1/2+y,1/2-z
loop_
_atom_site_type_symbol
_atom_site_label
_atom_site_fract_x
_atom_site_fract_y
_atom_site_fract_z
Si Si1 0.963281 0.992726 0.006813
Si Si2 0.255981 0.030566 0.320569
Si Si3 0.252382 0.406791 0.867118
Si Si4 0.387240 0.980440 0.661217
Si Si5 0.493940 0.635844 0.173054
Si Si6 0.543351 0.440834 0.554645
Si Si7 0.899051 0.086152 0.289573
Si Si8 0.001239 0.470019 0.876000
O O1 0.978605 0.768277 0.019665
O O2 0.076869 0.063236 0.059099
O O3 0.852938 0.056351 0.062150
O O4 0.948873 0.013610 0.899360
O O5 0.263263 0.810502 0.342462
O O6 0.222339 0.080702 0.217660
O O7 0.372243 0.125832 0.345299
O O8 0.153389 0.086957 0.384686
O O9 0.295500 0.487221 0.770383
O O10 0.134183 0.484144 0.902582
O O11 0.380678 0.203390 0.677482
O O12 0.495298 0.914053 0.720363
O O13 0.486771 0.622546 0.279603
O O14 0.443713 0.835547 0.151270
O O15 0.444967 0.513300 0.621542
O O16 0.557771 0.577578 0.470098
#
# Coordination Sequence:
#
# PCOD9313798 Si02
#       8
#     4   4   4   4   4   4   4   4
#     4   9  19  37  59  81 108 147 192 233 278 336
#     4  10  20  35  58  87 116 145 181 230 286 341
#     4  10  20  35  58  87 116 145 181 230 286 341
#     4   8  15  30  53  80 107 136 175 223 273 328
#     4  11  24  40  57  80 114 154 194 236 283 335
#     4   9  19  37  59  81 108 147 192 233 278 336
#     4   8  15  30  53  80 107 136 175 223 273 328
#     4  11  24  40  57  80 114 154 194 236 283 335
#
# _framework density 25.325120999999999
#
# number of rings (size 3 to 8) (size 9 to 14) (size 15 to 20)
#    0.000    2.500    0.000    1.500    0.000    5.000 
#    0.000    5.000    0.000    0.000    0.000    0.000 
#    0.000    0.000    0.000    0.000    0.000    0.000 
#
# Total GULP energy -178462.294443 kJ/mol
# GULP energy per Si atom -5576.946701 kJ/mol
# Density = 2.526748 g / cm^3
# Si number density = 25.325121 Si / 1000 Ang^3
#
#
#
# Elastic Constant Matrix: (Units=GPa)
#
#
# Indices 1 2 3 4 5 6 
#
# 1 41.2508 -17.5512 10.8132 0.0000 0.0000 0.0000
# 2 -17.5512 49.6050 1.6239 0.0000 0.0000 0.0000
# 3 10.8132 1.6239 153.7431 0.0000 0.0000 0.0000
# 4 0.0000 0.0000 0.0000 21.3010 0.0000 0.0000
# 5 0.0000 0.0000 0.0000 0.0000 29.8289 0.0000
# 6 0.0000 0.0000 0.0000 0.0000 0.0000 18.9472
#
#
#
# Elastic Compliance Matrix: (Units=1/GPa)
#
#
# Indices 1 2 3 4 5 6 
#
# 1 0.029242 0.010417 -0.002167 0.000000 0.000000 0.000000
# 2 0.010417 0.023877 -0.000985 0.000000 0.000000 0.000000
# 3 -0.002167 -0.000985 0.006667 0.000000 0.000000 0.000000
# 4 0.000000 0.000000 0.000000 0.046946 0.000000 0.000000
# 5 0.000000 0.000000 0.000000 0.000000 0.033525 0.000000
# 6 0.000000 0.000000 0.000000 0.000000 0.000000 0.052778
#
#
# Mechanical properties :
#
#
# Convention : Reuss Voigt Hill
#
# Bulk Modulus (GPa) = 13.45562 26.04118 19.74840
# Shear Modulus (GPa) = 24.59699 30.66295 27.62997
#
# Velocity S-wave (km/s) = 3.11987 3.48339 3.30663
# Velocity P-wave (km/s) = 4.27817 5.14624 4.73215
#
# Compressibility (1/GPa) = 0.07431838
#
# Stress axis : x y z
#
# Youngs Moduli (GPa) = 34.19707 41.88064 149.98913
#
# Poissons Ratio (x) = -0.43629 0.32498
# Poissons Ratio (y) = -0.35624 0.14772
# Poissons Ratio (z) = 0.07410 0.04125
#
# Static dielectric constant tensor:
#      x y z
#    x 1.973720 0.000000 0.000000 
#    y 0.000000 2.222760 0.000000 
#    z 0.000000 0.000000 2.104200 
# 
# From -- ./inp_files/5232.got.cif
#   From: 2010.05.17/outbox.cif.g08.bks.cpg/sg19_3_cif.got.tgz:5232.got - 2010.06.03 22:46:19.
