data_PCOD9313089
_publ_section_title
;
Structure prediction by ZEFSAII (Michael W. Deem and Ramdas Pophale) SiO2 
 PCOD9313089
Probable space group: P 21 21 2
;
_chemical_formula_sum "Si O2"
_cell_formula_units_Z 24
_cell_length_a 8.587352
_cell_length_b 10.238630
_cell_length_c 12.604393
_cell_angle_alpha 90.000000
_cell_angle_beta 90.000000
_cell_angle_gamma 90.000000
_cell_volume 1108.212514
_symmetry_space_group_name_H-M "P 21 21 2"
_symmetry_group_IT_number 18
_symmetry_cell_setting 'orthorhombic'
loop_
_space_group_symop_operation_xyz
x,y,z
-x,-y,z
1/2+x,1/2-y,-z
1/2-x,1/2+y,-z
loop_
_atom_site_type_symbol
_atom_site_label
_atom_site_fract_x
_atom_site_fract_y
_atom_site_fract_z
Si Si1 0.624155 0.753051 0.263338
Si Si2 0.924458 0.640273 0.322157
Si Si3 0.087324 0.359548 0.561068
Si Si4 0.437560 0.648157 0.067185
Si Si5 0.879784 0.238845 0.132582
Si Si6 0.182778 0.977486 0.279768
O O1 0.750835 0.639517 0.275960
O O2 0.508156 0.763911 0.362608
O O3 0.526316 0.729301 0.158377
O O4 0.723810 0.887330 0.266018
O O5 0.905408 0.694375 0.441932
O O6 0.000000 0.500000 0.333023
O O7 0.034862 0.712065 0.238539
O O8 0.246126 0.395842 0.621982
O O9 0.000000 0.500000 0.558183
O O10 0.500000 0.500000 0.071826
O O11 0.253736 0.665828 0.088409
O O12 0.490951 0.707378 0.954982
O O13 0.798507 0.105221 0.171769
O O14 0.000000 0.000000 0.295291
#
# Coordination Sequence:
#
# PCOD9313089 Si02
#       6
#     4   4   4   4   4   4
#     4  11  23  43  71  99 138 185 229 293 352 425
#     4  11  24  44  67 102 145 182 234 287 359 423
#     4   9  22  42  68 105 138 182 228 286 352 426
#     4  12  28  47  70 102 140 184 240 295 364 422
#     4  12  26  45  72  99 142 184 241 296 351 428
#     4  11  22  44  72 103 137 181 243 283 351 425
#
# _framework density 21.656495
#
# number of rings (size 3 to 8) (size 9 to 14) (size 15 to 20)
#    0.000    1.000    3.333    2.500    4.667    0.000 
#    0.000    4.167    0.000    0.000    0.000    0.000 
#    0.000    0.000    0.000    0.000    0.000    0.000 
#
# Total GULP energy -134168.580365 kJ/mol
# GULP energy per Si atom -5590.357515 kJ/mol
# Density = 2.160720 g / cm^3
# Si number density = 21.656495 Si / 1000 Ang^3
#
#
#
# Elastic Constant Matrix: (Units=GPa)
#
#
# Indices 1 2 3 4 5 6 
#
# 1 99.6558 35.2192 31.3998 0.0000 0.0000 0.0000
# 2 35.2192 40.5028 30.0646 0.0000 0.0000 0.0000
# 3 31.3998 30.0646 141.8025 0.0000 0.0000 0.0000
# 4 0.0000 0.0000 0.0000 31.3404 0.0000 0.0000
# 5 0.0000 0.0000 0.0000 0.0000 29.0326 0.0000
# 6 0.0000 0.0000 0.0000 0.0000 0.0000 33.2366
#
#
#
# Elastic Compliance Matrix: (Units=1/GPa)
#
#
# Indices 1 2 3 4 5 6 
#
# 1 0.014535 -0.012164 -0.000640 0.000000 0.000000 0.000000
# 2 -0.012164 0.039481 -0.005677 0.000000 0.000000 0.000000
# 3 -0.000640 -0.005677 0.008397 0.000000 0.000000 0.000000
# 4 0.000000 0.000000 0.000000 0.031908 0.000000 0.000000
# 5 0.000000 0.000000 0.000000 0.000000 0.034444 0.000000
# 6 0.000000 0.000000 0.000000 0.000000 0.000000 0.030087
#
#
# Mechanical properties :
#
#
# Convention : Reuss Voigt Hill
#
# Bulk Modulus (GPa) = 39.29007 52.81425 46.05216
# Shear Modulus (GPa) = 24.47410 31.07378 27.77394
#
# Velocity S-wave (km/s) = 3.36535 3.79205 3.58505
# Velocity P-wave (km/s) = 5.76910 6.60402 6.20063
#
# Compressibility (1/GPa) = 0.02545172
#
# Stress axis : x y z
#
# Youngs Moduli (GPa) = 68.79976 25.32866 119.08572
#
# Poissons Ratio (x) = 0.30810 0.07616
# Poissons Ratio (y) = 0.83689 0.67606
# Poissons Ratio (z) = 0.04400 0.14379
#
# Static dielectric constant tensor:
#      x y z
#    x 1.778740 0.000000 0.000000 
#    y 0.000000 1.848450 0.000000 
#    z 0.000000 0.000000 1.776410 
# 
# From -- ./inp_files/5497.got.cif
#   From: 2010.05.17/outbox.cif.g08.bks.cpg/sg18_3_cif.got.tgz:5497.got - 2010.06.03 22:40:56.
