data_PCOD9313873
_publ_section_title
;
Structure prediction by ZEFSAII (Michael W. Deem and Ramdas Pophale) SiO2 
 PCOD9313873
Probable space group: P 21 21 21
;
_chemical_formula_sum "Si O2"
_cell_formula_units_Z 28
_cell_length_a 7.180307
_cell_length_b 25.676123
_cell_length_c 7.180703
_cell_angle_alpha 90.000000
_cell_angle_beta 90.000000
_cell_angle_gamma 90.000000
_cell_volume 1323.851967
_symmetry_space_group_name_H-M "P 21 21 21"
_symmetry_group_IT_number 19
_symmetry_cell_setting 'orthorhombic'
loop_
_space_group_symop_operation_xyz
x,y,z
1/2-x,-y,1/2+z
1/2+x,1/2-y,-z
-x,1/2+y,1/2-z
loop_
_atom_site_type_symbol
_atom_site_label
_atom_site_fract_x
_atom_site_fract_y
_atom_site_fract_z
Si Si1 0.676381 0.928635 0.589827
Si Si2 0.201731 0.409373 0.480046
Si Si3 0.394881 0.012912 0.494584
Si Si4 0.717190 0.271574 0.743782
Si Si5 0.020969 0.509778 0.911169
Si Si6 0.857449 0.190591 0.051070
Si Si7 0.899927 0.798025 0.910652
O O1 0.733596 0.920898 0.805987
O O2 0.481367 0.959526 0.576759
O O3 0.673977 0.870507 0.509926
O O4 0.829661 0.968921 0.506477
O O5 0.371125 0.436480 0.373458
O O6 0.012566 0.439196 0.421816
O O7 0.168815 0.348528 0.477052
O O8 0.457121 0.013076 0.282837
O O9 0.174343 0.017395 0.489745
O O10 0.566617 0.300799 0.871822
O O11 0.616906 0.248457 0.559415
O O12 0.890588 0.304510 0.665415
O O13 0.806431 0.226500 0.875120
O O14 0.726818 0.207084 0.226256
#
# Coordination Sequence:
#
# PCOD9313873 Si02
#       7
#     4   4   4   4   4   4   4
#     4   9  21  39  61  86 125 165 202 260 323 378
#     4   9  21  39  61  86 124 163 206 255 327 372
#     4  10  20  37  59  92 121 164 206 257 304 395
#     4  12  24  44  68  98 129 171 228 274 330 395
#     4  10  20  37  60  89 127 162 209 255 315 385
#     4  11  24  43  68  95 133 173 221 277 333 390
#     4  11  24  43  67  96 131 172 218 282 330 387
#
# _framework density 21.150402
#
# number of rings (size 3 to 8) (size 9 to 14) (size 15 to 20)
#    0.000    1.714    2.857    0.857    2.000    6.857 
#    0.000    0.000    0.000    0.000    0.000    0.000 
#    0.000    0.000    0.000    0.000    0.000    0.000 
#
# Total GULP energy -156235.347677 kJ/mol
# GULP energy per Si atom -5579.833846 kJ/mol
# Density = 2.110226 g / cm^3
# Si number density = 21.150402 Si / 1000 Ang^3
#
#
#
# Elastic Constant Matrix: (Units=GPa)
#
#
# Indices 1 2 3 4 5 6 
#
# 1 141.5778 26.7507 17.3492 0.0000 0.0000 0.0000
# 2 26.7507 52.9021 6.5119 0.0000 0.0000 0.0000
# 3 17.3492 6.5119 48.2835 0.0000 0.0000 0.0000
# 4 0.0000 0.0000 0.0000 25.4513 0.0000 0.0000
# 5 0.0000 0.0000 0.0000 0.0000 35.9776 0.0000
# 6 0.0000 0.0000 0.0000 0.0000 0.0000 9.0764
#
#
#
# Elastic Compliance Matrix: (Units=1/GPa)
#
#
# Indices 1 2 3 4 5 6 
#
# 1 0.008072 -0.003787 -0.002390 0.000000 0.000000 0.000000
# 2 -0.003787 0.020999 -0.001471 0.000000 0.000000 0.000000
# 3 -0.002390 -0.001471 0.021768 0.000000 0.000000 0.000000
# 4 0.000000 0.000000 0.000000 0.039291 0.000000 0.000000
# 5 0.000000 0.000000 0.000000 0.000000 0.027795 0.000000
# 6 0.000000 0.000000 0.000000 0.000000 0.000000 0.110176
#
#
# Mechanical properties :
#
#
# Convention : Reuss Voigt Hill
#
# Bulk Modulus (GPa) = 28.13533 38.22079 33.17806
# Shear Modulus (GPa) = 19.58903 26.91116 23.25009
#
# Velocity S-wave (km/s) = 3.04662 3.57090 3.31913
# Velocity P-wave (km/s) = 5.07023 5.92553 5.51449
#
# Compressibility (1/GPa) = 0.03554251
#
# Stress axis : x y z
#
# Youngs Moduli (GPa) = 123.88973 47.62102 45.93892
#
# Poissons Ratio (x) = 0.18036 0.10977
# Poissons Ratio (y) = 0.46922 0.06759
# Poissons Ratio (z) = 0.29604 0.07006
#
# Static dielectric constant tensor:
#      x y z
#    x 1.806240 0.000000 0.000000 
#    y 0.000000 1.760350 0.000000 
#    z 0.000000 0.000000 1.807020 
# 
# From -- ./inp_files/2470.got.cif
#   From: 2010.05.17/outbox.cif.g08.bks.cpg/sg19_2_cif.got.tgz:2470.got - 2010.06.03 22:46:19.
