data_PCOD9313503
_publ_section_title
;
Structure prediction by ZEFSAII (Michael W. Deem and Ramdas Pophale) SiO2 
 PCOD9313503
Probable space group: P 21 21 21
;
_chemical_formula_sum "Si O2"
_cell_formula_units_Z 28
_cell_length_a 9.449495
_cell_length_b 18.147006
_cell_length_c 7.319592
_cell_angle_alpha 90.000000
_cell_angle_beta 90.000000
_cell_angle_gamma 90.000000
_cell_volume 1255.163947
_symmetry_space_group_name_H-M "P 21 21 21"
_symmetry_group_IT_number 19
_symmetry_cell_setting 'orthorhombic'
loop_
_space_group_symop_operation_xyz
x,y,z
1/2-x,-y,1/2+z
1/2+x,1/2-y,-z
-x,1/2+y,1/2-z
loop_
_atom_site_type_symbol
_atom_site_label
_atom_site_fract_x
_atom_site_fract_y
_atom_site_fract_z
Si Si1 0.587758 0.859853 0.335713
Si Si2 0.192456 0.305841 0.699468
Si Si3 0.303412 0.758388 0.821003
Si Si4 0.093395 0.874287 0.671549
Si Si5 0.432731 0.241133 0.901705
Si Si6 0.661519 0.950440 0.699791
Si Si7 0.456863 0.479724 0.429099
O O1 0.724770 0.814983 0.259826
O O2 0.507632 0.792867 0.435329
O O3 0.609722 0.917693 0.504374
O O4 0.515666 0.901335 0.167056
O O5 0.209475 0.250109 0.535466
O O6 0.035225 0.337177 0.716252
O O7 0.274154 0.268584 0.867716
O O8 0.282303 0.380908 0.683442
O O9 0.466504 0.754446 0.766716
O O10 0.232191 0.833460 0.746970
O O11 0.068938 0.841651 0.468998
O O12 0.066330 0.960627 0.654088
O O13 0.798903 0.998684 0.646724
O O14 0.554265 0.984354 0.849497
#
# Coordination Sequence:
#
# PCOD9313503 Si02
#       7
#     4   4   4   4   4   4   4
#     4  10  21  36  58  84 117 156 194 243 298 347
#     4  10  20  36  59  92 112 155 201 239 301 354
#     4  11  20  38  60  86 122 156 198 247 289 363
#     4  10  22  36  58  90 116 153 200 248 295 348
#     4  10  21  37  60  82 126 156 192 241 303 352
#     4  10  19  31  55  85 111 150 187 242 299 340
#     4  11  19  34  56  85 120 148 198 246 301 346
#
# _framework density 22.307843999999999
#
# number of rings (size 3 to 8) (size 9 to 14) (size 15 to 20)
#    0.000    1.714    2.857    4.286    0.000    0.000 
#    2.571    0.000    6.286    0.000    0.000    0.000 
#    0.000    0.000    0.000    0.000    0.000    0.000 
#
# Total GULP energy -156012.735955 kJ/mol
# GULP energy per Si atom -5571.883427 kJ/mol
# Density = 2.225707 g / cm^3
# Si number density = 22.307844 Si / 1000 Ang^3
#
#
#
# Elastic Constant Matrix: (Units=GPa)
#
#
# Indices 1 2 3 4 5 6 
#
# 1 35.4700 -6.1256 -13.6399 0.0000 0.0000 0.0000
# 2 -6.1256 58.7213 4.2012 0.0000 0.0000 0.0000
# 3 -13.6399 4.2012 59.6251 0.0000 0.0000 0.0000
# 4 0.0000 0.0000 0.0000 34.6889 0.0000 0.0000
# 5 0.0000 0.0000 0.0000 0.0000 17.9557 0.0000
# 6 0.0000 0.0000 0.0000 0.0000 0.0000 20.1153
#
#
#
# Elastic Compliance Matrix: (Units=1/GPa)
#
#
# Indices 1 2 3 4 5 6 
#
# 1 0.031355 0.002772 0.006977 0.000000 0.000000 0.000000
# 2 0.002772 0.017361 -0.000589 0.000000 0.000000 0.000000
# 3 0.006977 -0.000589 0.018409 0.000000 0.000000 0.000000
# 4 0.000000 0.000000 0.000000 0.028828 0.000000 0.000000
# 5 0.000000 0.000000 0.000000 0.000000 0.055693 0.000000
# 6 0.000000 0.000000 0.000000 0.000000 0.000000 0.049713
#
#
# Mechanical properties :
#
#
# Convention : Reuss Voigt Hill
#
# Bulk Modulus (GPa) = 11.70354 13.63197 12.66776
# Shear Modulus (GPa) = 23.63843 25.84403 24.74123
#
# Velocity S-wave (km/s) = 3.25875 3.40739 3.33390
# Velocity P-wave (km/s) = 4.40648 4.64807 4.52889
#
# Compressibility (1/GPa) = 0.08544425
#
# Stress axis : x y z
#
# Youngs Moduli (GPa) = 31.89324 57.60076 54.32085
#
# Poissons Ratio (x) = -0.15965 -0.37902
# Poissons Ratio (y) = -0.08840 0.03201
# Poissons Ratio (z) = -0.22253 0.03394
#
# Static dielectric constant tensor:
#      x y z
#    x 1.828750 0.000000 0.000000 
#    y 0.000000 1.883850 0.000000 
#    z 0.000000 0.000000 1.840220 
# 
# From -- ./inp_files/2948.got.cif
#   From: 2010.05.17/outbox.cif.g08.bks.cpg/sg19_2_cif.got.tgz:2948.got - 2010.06.03 22:46:19.
