data_PCOD9313563
_publ_section_title
;
Structure prediction by ZEFSAII (Michael W. Deem and Ramdas Pophale) SiO2 
 PCOD9313563
Probable space group: P 21 21 21
;
_chemical_formula_sum "Si O2"
_cell_formula_units_Z 32
_cell_length_a 8.419089
_cell_length_b 14.786043
_cell_length_c 13.812793
_cell_angle_alpha 90.000000
_cell_angle_beta 90.000000
_cell_angle_gamma 90.000000
_cell_volume 1719.485702
_symmetry_space_group_name_H-M "P 21 21 21"
_symmetry_group_IT_number 19
_symmetry_cell_setting 'orthorhombic'
loop_
_space_group_symop_operation_xyz
x,y,z
1/2-x,-y,1/2+z
1/2+x,1/2-y,-z
-x,1/2+y,1/2-z
loop_
_atom_site_type_symbol
_atom_site_label
_atom_site_fract_x
_atom_site_fract_y
_atom_site_fract_z
Si Si1 0.642361 0.705752 0.570487
Si Si2 0.202015 0.924732 0.260655
Si Si3 0.836060 0.681092 0.386623
Si Si4 0.136701 0.883527 0.780508
Si Si5 0.047093 0.503557 0.381333
Si Si6 0.495978 0.660852 0.018804
Si Si7 0.214678 0.751848 0.135235
Si Si8 0.212365 0.360570 0.808898
O O1 0.672854 0.617308 0.634421
O O2 0.689369 0.689809 0.460163
O O3 0.466016 0.741856 0.592953
O O4 0.761161 0.783649 0.610678
O O5 0.038764 0.954712 0.208803
O O6 0.266051 0.842613 0.193474
O O7 0.312235 0.012293 0.267037
O O8 0.765511 0.675238 0.278683
O O9 0.931157 0.587704 0.406672
O O10 0.118127 0.859250 0.893318
O O11 0.965082 0.869097 0.730465
O O12 0.056091 0.433215 0.469059
O O13 0.212632 0.547610 0.349228
O O14 0.351934 0.713006 0.067987
O O15 0.571786 0.720339 0.933829
O O16 0.183401 0.677146 0.218050
#
# Coordination Sequence:
#
# PCOD9313563 Si02
#       8
#     4   4   4   4   4   4   4   4
#     4  10  19  35  55  77 106 143 182 224 271 327
#     4   9  19  35  53  75 105 140 179 219 271 322
#     4  10  20  34  54  78 106 141 179 224 273 320
#     4  10  20  35  54  80 111 143 179 226 273 323
#     4   9  19  35  54  77 106 141 179 222 269 322
#     4  10  20  35  55  80 109 143 182 221 270 326
#     4   9  20  35  53  78 107 141 178 222 270 322
#     4   9  19  36  54  77 110 140 178 226 269 318
#
# _framework density 18.610215
#
# number of rings (size 3 to 8) (size 9 to 14) (size 15 to 20)
#    0.000    2.500    0.000    1.500    0.000    6.000 
#    0.000   11.250    0.000    0.000    0.000    0.000 
#    0.000    0.000    0.000    0.000    0.000    0.000 
#
# Total GULP energy -178420.451973 kJ/mol
# GULP energy per Si atom -5575.639124 kJ/mol
# Density = 1.856786 g / cm^3
# Si number density = 18.610215 Si / 1000 Ang^3
#
#
#
# Elastic Constant Matrix: (Units=GPa)
#
#
# Indices 1 2 3 4 5 6 
#
# 1 48.2576 10.6663 9.1388 0.0000 0.0000 0.0000
# 2 10.6663 36.1025 13.8275 0.0000 0.0000 0.0000
# 3 9.1388 13.8275 76.7400 0.0000 0.0000 0.0000
# 4 0.0000 0.0000 0.0000 20.1813 0.0000 0.0000
# 5 0.0000 0.0000 0.0000 0.0000 25.3051 0.0000
# 6 0.0000 0.0000 0.0000 0.0000 0.0000 23.3567
#
#
#
# Elastic Compliance Matrix: (Units=1/GPa)
#
#
# Indices 1 2 3 4 5 6 
#
# 1 0.022347 -0.005997 -0.001581 0.000000 0.000000 0.000000
# 2 -0.005997 0.031361 -0.004937 0.000000 0.000000 0.000000
# 3 -0.001581 -0.004937 0.014109 0.000000 0.000000 0.000000
# 4 0.000000 0.000000 0.000000 0.049551 0.000000 0.000000
# 5 0.000000 0.000000 0.000000 0.000000 0.039518 0.000000
# 6 0.000000 0.000000 0.000000 0.000000 0.000000 0.042814
#
#
# Mechanical properties :
#
#
# Convention : Reuss Voigt Hill
#
# Bulk Modulus (GPa) = 23.37075 25.37393 24.37234
# Shear Modulus (GPa) = 20.92123 22.26644 21.59384
#
# Velocity S-wave (km/s) = 3.35652 3.46275 3.41005
# Velocity P-wave (km/s) = 5.25423 5.44532 5.35063
#
# Compressibility (1/GPa) = 0.04278854
#
# Stress axis : x y z
#
# Youngs Moduli (GPa) = 44.74877 31.88625 70.87777
#
# Poissons Ratio (x) = 0.19122 0.11204
# Poissons Ratio (y) = 0.26835 0.34991
# Poissons Ratio (z) = 0.07073 0.15741
#
# Static dielectric constant tensor:
#      x y z
#    x 1.637850 0.000000 0.000000 
#    y 0.000000 1.637130 0.000000 
#    z 0.000000 0.000000 1.652780 
# 
# From -- ./inp_files/3587.got.cif
#   From: 2010.05.17/outbox.cif.g08.bks.cpg/sg19_2_cif.got.tgz:3587.got - 2010.06.03 22:46:19.
