data_PCOD9313057
_publ_section_title
;
Structure prediction by ZEFSAII (Michael W. Deem and Ramdas Pophale) SiO2 
 PCOD9313057
Probable space group: P 21 21 2
;
_chemical_formula_sum "Si O2"
_cell_formula_units_Z 32
_cell_length_a 16.910303
_cell_length_b 5.379317
_cell_length_c 19.207551
_cell_angle_alpha 90.000000
_cell_angle_beta 90.000000
_cell_angle_gamma 90.000000
_cell_volume 1747.231787
_symmetry_space_group_name_H-M "P 21 21 2"
_symmetry_group_IT_number 18
_symmetry_cell_setting 'orthorhombic'
loop_
_space_group_symop_operation_xyz
x,y,z
-x,-y,z
1/2+x,1/2-y,-z
1/2-x,1/2+y,-z
loop_
_atom_site_type_symbol
_atom_site_label
_atom_site_fract_x
_atom_site_fract_y
_atom_site_fract_z
Si Si1 0.278800 0.750371 0.783124
Si Si2 0.552291 0.250188 0.864216
Si Si3 0.187125 0.745687 0.926529
Si Si4 0.354969 0.745839 0.007884
Si Si5 0.217807 0.750282 0.305421
Si Si6 0.278765 0.214157 0.535416
Si Si7 0.967084 0.249861 0.481713
Si Si8 0.031064 0.749944 0.321902
O O1 0.368633 0.749726 0.815084
O O2 0.218894 0.746804 0.847975
O O3 0.265713 0.504049 0.736360
O O4 0.265543 0.001105 0.738437
O O5 0.500000 0.500000 0.856352
O O6 0.500000 0.000000 0.856766
O O7 0.585700 0.251739 0.943267
O O8 0.140795 0.495555 0.946559
O O9 0.140482 0.994788 0.947138
O O10 0.267206 0.745553 0.973254
O O11 0.249331 0.741509 0.384490
O O12 0.123885 0.749308 0.318156
O O13 0.240678 0.438313 0.491565
O O14 0.373178 0.248860 0.526485
O O15 0.000028 0.250106 0.401796
O O16 0.000000 0.500000 0.515350
O O17 0.000000 0.000000 0.515380
O O18 0.000000 0.500000 0.289084
O O19 0.000000 0.000000 0.289212
#
# Coordination Sequence:
#
# PCOD9313057 Si02
#       8
#     4   4   4   4   4   4   4   4
#     4  11  22  34  49  72 104 139 176 217 256 312
#     4  11  22  34  49  76 113 147 177 206 246 301
#     4   9  17  31  50  69  91 127 173 214 250 279
#     4   9  17  31  50  69  95 131 170 211 244 279
#     4  11  22  34  49  72 104 139 176 217 262 318
#     4  11  22  37  56  79 110 145 182 235 294 337
#     4   9  17  31  50  73 100 130 168 211 256 319
#     4   9  17  28  43  62  89 130 170 197 228 283
#
# _framework density 18.314682999999999
#
# number of rings (size 3 to 8) (size 9 to 14) (size 15 to 20)
#    0.000    2.000    0.000    4.500    0.000   11.000 
#    0.000    0.000    0.000    0.000    0.000    0.000 
#    0.000   70.000    0.000    0.000    0.000    0.000 
#
# Total GULP energy -178493.679815 kJ/mol
# GULP energy per Si atom -5577.927494 kJ/mol
# Density = 1.827300 g / cm^3
# Si number density = 18.314683 Si / 1000 Ang^3
#
#
#
# Elastic Constant Matrix: (Units=GPa)
#
#
# Indices 1 2 3 4 5 6 
#
# 1 23.2457 7.1549 3.5809 0.0000 0.0000 0.0000
# 2 7.1549 151.3330 30.9206 0.0000 0.0000 0.0000
# 3 3.5809 30.9206 83.8430 0.0000 0.0000 0.0000
# 4 0.0000 0.0000 0.0000 26.2681 0.0000 0.0000
# 5 0.0000 0.0000 0.0000 0.0000 19.5605 0.0000
# 6 0.0000 0.0000 0.0000 0.0000 0.0000 23.8546
#
#
#
# Elastic Compliance Matrix: (Units=1/GPa)
#
#
# Indices 1 2 3 4 5 6 
#
# 1 0.043765 -0.001825 -0.001196 0.000000 0.000000 0.000000
# 2 -0.001825 0.007223 -0.002586 0.000000 0.000000 0.000000
# 3 -0.001196 -0.002586 0.012932 0.000000 0.000000 0.000000
# 4 0.000000 0.000000 0.000000 0.038069 0.000000 0.000000
# 5 0.000000 0.000000 0.000000 0.000000 0.051123 0.000000
# 6 0.000000 0.000000 0.000000 0.000000 0.000000 0.041921
#
#
# Mechanical properties :
#
#
# Convention : Reuss Voigt Hill
#
# Bulk Modulus (GPa) = 18.97329 37.97050 28.47189
# Shear Modulus (GPa) = 22.34000 28.38766 25.36383
#
# Velocity S-wave (km/s) = 3.49633 3.94127 3.72545
# Velocity P-wave (km/s) = 5.16539 6.44118 5.83823
#
# Compressibility (1/GPa) = 0.05270567
#
# Stress axis : x y z
#
# Youngs Moduli (GPa) = 22.84948 138.45571 77.32922
#
# Poissons Ratio (x) = 0.25265 0.09250
# Poissons Ratio (y) = 0.04169 0.19995
# Poissons Ratio (z) = 0.02733 0.35800
#
# Static dielectric constant tensor:
#      x y z
#    x 1.605180 0.000000 0.000000 
#    y 0.000000 1.675990 0.000000 
#    z 0.000000 0.000000 1.647200 
# 
# From -- ./inp_files/7430.got.cif
#   From: 2010.05.17/outbox.cif.g08.bks.cpg/sg18_4_cif.got.tgz:7430.got - 2010.06.03 22:40:56.
