data_PCOD9313135
_publ_section_title
;
Structure prediction by ZEFSAII (Michael W. Deem and Ramdas Pophale) SiO2 
 PCOD9313135
Probable space group: P 21 21 2
;
_chemical_formula_sum "Si O2"
_cell_formula_units_Z 22
_cell_length_a 9.531516
_cell_length_b 9.531528
_cell_length_c 13.088655
_cell_angle_alpha 90.000000
_cell_angle_beta 90.000000
_cell_angle_gamma 90.000000
_cell_volume 1189.103150
_symmetry_space_group_name_H-M "P 21 21 2"
_symmetry_group_IT_number 18
_symmetry_cell_setting 'orthorhombic'
loop_
_space_group_symop_operation_xyz
x,y,z
-x,-y,z
1/2+x,1/2-y,-z
1/2-x,1/2+y,-z
loop_
_atom_site_type_symbol
_atom_site_label
_atom_site_fract_x
_atom_site_fract_y
_atom_site_fract_z
Si Si1 0.164278 0.538042 0.624421
Si Si2 0.001193 0.768171 0.145451
Si Si3 0.500000 0.000000 0.000000
Si Si4 0.768171 0.998805 0.145451
Si Si5 0.961958 0.335722 0.375578
Si Si6 0.725377 0.225377 0.500000
O O1 0.223330 0.505614 0.735871
O O2 0.192689 0.699465 0.593655
O O3 0.236718 0.434982 0.540297
O O4 0.000000 0.500000 0.623039
O O5 0.005613 0.723329 0.264129
O O6 0.000691 0.635022 0.072673
O O7 0.136189 0.865390 0.126782
O O8 0.865384 0.863805 0.126782
O O9 0.364978 0.000686 0.072674
O O10 0.065019 0.263281 0.459702
O O11 0.000000 0.500000 0.376961
O O12 0.800535 0.307309 0.406344
#
# Coordination Sequence:
#
# PCOD9313135 Si02
#       6
#     4   4   2   4   4   4
#     4  12  23  40  60  94 128 161 206 256 306 370
#     4  11  24  41  67  93 119 165 212 254 312 378
#     4  12  24  44  68  86 132 160 204 276 320 342
#     4  11  24  41  67  93 119 165 212 254 312 378
#     4  12  23  40  60  94 128 161 206 256 306 370
#     4  12  22  38  64  88 126 166 202 248 308 372
#
# _framework density 18.501339000000002
#
# number of rings (size 3 to 8) (size 9 to 14) (size 15 to 20)
#    0.000    0.364    9.091    1.091    0.000    0.727 
#    0.000    0.000    0.000    0.000    0.000    0.000 
#    0.000    0.000    0.000    0.000    0.000    0.000 
#
# Total GULP energy -122652.270349 kJ/mol
# GULP energy per Si atom -5575.103198 kJ/mol
# Density = 1.845923 g / cm^3
# Si number density = 18.501339 Si / 1000 Ang^3
#
#
#
# Elastic Constant Matrix: (Units=GPa)
#
#
# Indices 1 2 3 4 5 6 
#
# 1 131.2655 79.2673 70.8646 0.0000 0.0000 0.0000
# 2 79.2673 131.2662 70.8647 0.0000 0.0000 0.0000
# 3 70.8646 70.8647 137.7185 0.0000 0.0000 0.0000
# 4 0.0000 0.0000 0.0000 25.4510 0.0000 0.0000
# 5 0.0000 0.0000 0.0000 0.0000 25.4520 0.0000
# 6 0.0000 0.0000 0.0000 0.0000 0.0000 17.4887
#
#
#
# Elastic Compliance Matrix: (Units=1/GPa)
#
#
# Indices 1 2 3 4 5 6 
#
# 1 0.013249 -0.005982 -0.003739 0.000000 0.000000 0.000000
# 2 -0.005982 0.013249 -0.003739 0.000000 0.000000 0.000000
# 3 -0.003739 -0.003739 0.011110 0.000000 0.000000 0.000000
# 4 0.000000 0.000000 0.000000 0.039291 0.000000 0.000000
# 5 0.000000 0.000000 0.000000 0.000000 0.039290 0.000000
# 6 0.000000 0.000000 0.000000 0.000000 0.000000 0.057180
#
#
# Mechanical properties :
#
#
# Convention : Reuss Voigt Hill
#
# Bulk Modulus (GPa) = 93.57844 93.58261 93.58052
# Shear Modulus (GPa) = 24.52755 25.62859 25.07807
#
# Velocity S-wave (km/s) = 3.64499 3.72590 3.68567
# Velocity P-wave (km/s) = 8.27065 8.31872 8.29472
#
# Compressibility (1/GPa) = 0.01068622
#
# Stress axis : x y z
#
# Youngs Moduli (GPa) = 75.47578 75.47623 90.01298
#
# Poissons Ratio (x) = 0.45150 0.33660
# Poissons Ratio (y) = 0.45150 0.33660
# Poissons Ratio (z) = 0.28224 0.28224
#
# Static dielectric constant tensor:
#      x y z
#    x 1.641530 0.000000 0.000000 
#    y 0.000000 1.641530 0.000000 
#    z 0.000000 0.000000 1.627650 
# 
# From -- ./inp_files/6621.got.cif
#   From: 2010.05.17/outbox.cif.g08.bks.cpg/sg18_4_cif.got.tgz:6621.got - 2010.06.03 22:40:56.
