data_PCOD9313974
_publ_section_title
;
Structure prediction by ZEFSAII (Michael W. Deem and Ramdas Pophale) SiO2 
 PCOD9313974
Probable space group: P 21 21 21
;
_chemical_formula_sum "Si O2"
_cell_formula_units_Z 24
_cell_length_a 16.967420
_cell_length_b 10.442336
_cell_length_c 5.062572
_cell_angle_alpha 90.000000
_cell_angle_beta 90.000000
_cell_angle_gamma 90.000000
_cell_volume 896.983979
_symmetry_space_group_name_H-M "P 21 21 21"
_symmetry_group_IT_number 19
_symmetry_cell_setting 'orthorhombic'
loop_
_space_group_symop_operation_xyz
x,y,z
1/2-x,-y,1/2+z
1/2+x,1/2-y,-z
-x,1/2+y,1/2-z
loop_
_atom_site_type_symbol
_atom_site_label
_atom_site_fract_x
_atom_site_fract_y
_atom_site_fract_z
Si Si1 0.204399 0.965187 0.226523
Si Si2 0.775329 0.791781 0.852364
Si Si3 0.542302 0.962540 0.121550
Si Si4 0.969299 0.283377 0.914378
Si Si5 0.361849 0.416355 0.894453
Si Si6 0.374216 0.783899 0.656603
O O1 0.131488 0.063088 0.208596
O O2 0.232357 0.965970 0.529694
O O3 0.210853 0.823180 0.107747
O O4 0.723738 0.907565 0.734708
O O5 0.834429 0.745645 0.625008
O O6 0.823130 0.791930 0.125146
O O7 0.511236 0.821737 0.191240
O O8 0.613120 0.986641 0.334849
O O9 0.477361 0.070922 0.166263
O O10 0.579431 0.961811 0.833760
O O11 0.036801 0.261503 0.131830
O O12 0.887544 0.229011 0.021102
#
# Coordination Sequence:
#
# PCOD9313974 Si02
#       6
#     4   4   4   4   4   4
#     4   8  16  31  51  87 123 164 209 270 331 395
#     4  10  20  39  61  95 138 180 230 285 353 413
#     4  10  25  43  70 100 142 181 244 285 362 421
#     4  10  26  45  71 105 143 186 240 296 353 431
#     4  10  24  42  69  97 142 182 237 285 359 419
#     4  10  21  36  64  94 138 177 236 285 344 413
#
# _framework density 26.756330999999999
#
# number of rings (size 3 to 8) (size 9 to 14) (size 15 to 20)
#    1.000    1.333    0.000    1.000    4.667    2.667 
#   12.000    3.333    0.000    0.000    0.000    0.000 
#    0.000    0.000    0.000    0.000    0.000    0.000 
#
# Total GULP energy -134156.962460 kJ/mol
# GULP energy per Si atom -5589.873436 kJ/mol
# Density = 2.669543 g / cm^3
# Si number density = 26.756331 Si / 1000 Ang^3
#
#
#
# Elastic Constant Matrix: (Units=GPa)
#
#
# Indices 1 2 3 4 5 6 
#
# 1 29.0304 10.9592 1.7152 0.0000 0.0000 0.0000
# 2 10.9592 64.3268 22.4881 0.0000 0.0000 0.0000
# 3 1.7152 22.4881 126.0793 0.0000 0.0000 0.0000
# 4 0.0000 0.0000 0.0000 35.8784 0.0000 0.0000
# 5 0.0000 0.0000 0.0000 0.0000 40.3664 0.0000
# 6 0.0000 0.0000 0.0000 0.0000 0.0000 29.8347
#
#
#
# Elastic Compliance Matrix: (Units=1/GPa)
#
#
# Indices 1 2 3 4 5 6 
#
# 1 0.036866 -0.006511 0.000660 0.000000 0.000000 0.000000
# 2 -0.006511 0.017729 -0.003074 0.000000 0.000000 0.000000
# 3 0.000660 -0.003074 0.008471 0.000000 0.000000 0.000000
# 4 0.000000 0.000000 0.000000 0.027872 0.000000 0.000000
# 5 0.000000 0.000000 0.000000 0.000000 0.024773 0.000000
# 6 0.000000 0.000000 0.000000 0.000000 0.000000 0.033518
#
#
# Mechanical properties :
#
#
# Convention : Reuss Voigt Hill
#
# Bulk Modulus (GPa) = 22.11631 32.19572 27.15601
# Shear Modulus (GPa) = 27.44969 33.50082 30.47526
#
# Velocity S-wave (km/s) = 3.20646 3.54230 3.37856
# Velocity P-wave (km/s) = 4.68960 5.36559 5.03894
#
# Compressibility (1/GPa) = 0.04521550
#
# Stress axis : x y z
#
# Youngs Moduli (GPa) = 27.12546 56.40319 118.05276
#
# Poissons Ratio (x) = 0.36726 -0.07790
# Poissons Ratio (y) = 0.17662 0.36286
# Poissons Ratio (z) = -0.01790 0.17337
#
# Static dielectric constant tensor:
#      x y z
#    x 2.090930 0.000000 0.000000 
#    y 0.000000 2.268380 0.000000 
#    z 0.000000 0.000000 2.025540 
# 
# From -- ./inp_files/1721.got.cif
#   From: 2010.05.17/outbox.cif.g08.bks.cpg/sg19_1_cif.got.tgz:1721.got - 2010.06.03 22:46:19.
