data_PCOD9313303
_publ_section_title
;
Structure prediction by ZEFSAII (Michael W. Deem and Ramdas Pophale) SiO2 
 PCOD9313303
Probable space group: P 21 21 21
;
_chemical_formula_sum "Si O2"
_cell_formula_units_Z 32
_cell_length_a 7.019678
_cell_length_b 31.525116
_cell_length_c 5.411941
_cell_angle_alpha 90.000000
_cell_angle_beta 90.000000
_cell_angle_gamma 90.000000
_cell_volume 1197.641779
_symmetry_space_group_name_H-M "P 21 21 21"
_symmetry_group_IT_number 19
_symmetry_cell_setting 'orthorhombic'
loop_
_space_group_symop_operation_xyz
x,y,z
1/2-x,-y,1/2+z
1/2+x,1/2-y,-z
-x,1/2+y,1/2-z
loop_
_atom_site_type_symbol
_atom_site_label
_atom_site_fract_x
_atom_site_fract_y
_atom_site_fract_z
Si Si1 0.835444 0.186374 0.447091
Si Si2 0.723461 0.850321 0.438927
Si Si3 0.996968 0.971186 0.723812
Si Si4 0.091006 0.780854 0.032264
Si Si5 0.839879 0.598179 0.290550
Si Si6 0.361218 0.183905 0.037275
Si Si7 0.882722 0.568433 0.781459
Si Si8 0.426522 0.566051 0.768839
O O1 0.896363 0.169541 0.715465
O O2 0.610385 0.195712 0.491012
O O3 0.924517 0.232025 0.393454
O O4 0.868537 0.155299 0.213195
O O5 0.913425 0.822082 0.495545
O O6 0.822271 0.891695 0.315816
O O7 0.184649 0.940996 0.710408
O O8 0.895439 0.965566 0.460481
O O9 0.066700 0.019241 0.742274
O O10 0.884286 0.954070 0.963733
O O11 0.176043 0.782573 0.754746
O O12 0.200055 0.803549 0.259600
O O13 0.720433 0.640625 0.341550
O O14 0.960778 0.590755 0.537415
O O15 0.945261 0.589329 0.035377
O O16 0.653770 0.574941 0.781942
#
# Coordination Sequence:
#
# PCOD9313303 Si02
#       8
#     4   4   4   4   4   4   4   4
#     4  10  21  34  50  69  92 117 155 200 248 291
#     4  10  18  29  46  65  85 117 155 204 225 278
#     4  10  17  23  34  53  85 118 158 190 215 260
#     4  10  21  34  50  69  92 117 155 200 248 291
#     4  10  16  24  36  53  79 110 157 190 215 255
#     4  10  18  29  46  65  85 117 155 204 225 278
#     4  10  17  23  34  53  85 118 158 190 215 260
#     4  10  16  24  36  53  79 110 157 190 215 255
#
# _framework density 26.719176999999998
#
# number of rings (size 3 to 8) (size 9 to 14) (size 15 to 20)
#    0.000    2.000    2.500    6.000    7.000    0.000 
#    0.000    0.000    0.000    0.000    0.000    0.000 
#    0.000    0.000    0.000    0.000    0.000  112.500 
#
# Total GULP energy -178997.286648 kJ/mol
# GULP energy per Si atom -5593.665208 kJ/mol
# Density = 2.665836 g / cm^3
# Si number density = 26.719177 Si / 1000 Ang^3
#
#
#
# Elastic Constant Matrix: (Units=GPa)
#
#
# Indices 1 2 3 4 5 6 
#
# 1 80.8686 13.3797 28.1797 0.0000 0.0000 0.0000
# 2 13.3797 104.7097 51.4049 0.0000 0.0000 0.0000
# 3 28.1797 51.4049 260.0171 0.0000 0.0000 0.0000
# 4 0.0000 0.0000 0.0000 44.7054 0.0000 0.0000
# 5 0.0000 0.0000 0.0000 0.0000 -23.8312 0.0000
# 6 0.0000 0.0000 0.0000 0.0000 0.0000 23.3661
#
#
#
# Elastic Compliance Matrix: (Units=1/GPa)
#
#
# Indices 1 2 3 4 5 6 
#
# 1 0.012958 -0.001070 -0.001193 0.000000 0.000000 0.000000
# 2 -0.001070 0.010665 -0.001992 0.000000 0.000000 0.000000
# 3 -0.001193 -0.001992 0.004369 0.000000 0.000000 0.000000
# 4 0.000000 0.000000 0.000000 0.022369 0.000000 0.000000
# 5 0.000000 0.000000 0.000000 0.000000 -0.041962 0.000000
# 6 0.000000 0.000000 0.000000 0.000000 0.000000 0.042797
#
#
# Mechanical properties :
#
#
# Convention : Reuss Voigt Hill
#
# Bulk Modulus (GPa) = 51.33046 70.16935 60.74991
# Shear Modulus (GPa) = 75.52714 32.35682 53.94198
#
# Velocity S-wave (km/s) = 5.32244 3.48371 4.49803
# Velocity P-wave (km/s) = 7.55142 6.51924 7.05423
#
# Compressibility (1/GPa) = 0.01948161
#
# Stress axis : x y z
#
# Youngs Moduli (GPa) = 77.16970 93.76349 228.88090
#
# Poissons Ratio (x) = 0.10035 0.27301
# Poissons Ratio (y) = 0.08259 0.45604
# Poissons Ratio (z) = 0.09205 0.18682
#
# Static dielectric constant tensor:
#      x y z
#    x 2.197970 0.000000 0.000000 
#    y 0.000000 2.146040 0.000000 
#    z 0.000000 0.000000 2.153130 
# 
# From -- ./inp_files/709.got.cif
#   From: 2010.05.17/outbox.cif.g08.bks.cpg/sg19_1_cif.got.tgz:709.got - 2010.06.03 22:46:19.
