data_PCOD9313659
_publ_section_title
;
Structure prediction by ZEFSAII (Michael W. Deem and Ramdas Pophale) SiO2 
 PCOD9313659
Probable space group: P 21 21 21
;
_chemical_formula_sum "Si O2"
_cell_formula_units_Z 28
_cell_length_a 6.955591
_cell_length_b 13.273413
_cell_length_c 12.370100
_cell_angle_alpha 90.000000
_cell_angle_beta 90.000000
_cell_angle_gamma 90.000000
_cell_volume 1142.062456
_symmetry_space_group_name_H-M "P 21 21 21"
_symmetry_group_IT_number 19
_symmetry_cell_setting 'orthorhombic'
loop_
_space_group_symop_operation_xyz
x,y,z
1/2-x,-y,1/2+z
1/2+x,1/2-y,-z
-x,1/2+y,1/2-z
loop_
_atom_site_type_symbol
_atom_site_label
_atom_site_fract_x
_atom_site_fract_y
_atom_site_fract_z
Si Si1 0.927772 0.590233 0.050448
Si Si2 0.655875 0.844490 0.313751
Si Si3 0.196979 0.910507 0.153359
Si Si4 0.392390 0.347361 0.958238
Si Si5 0.277342 0.866039 0.717641
Si Si6 0.894179 0.361875 0.116605
Si Si7 0.749614 0.949774 0.097835
O O1 0.875690 0.639209 0.164082
O O2 0.869099 0.472594 0.066884
O O3 0.806315 0.631333 0.949886
O O4 0.147146 0.594161 0.008786
O O5 0.543557 0.877805 0.420933
O O6 0.630148 0.726125 0.289578
O O7 0.645642 0.907860 0.204672
O O8 0.876929 0.857942 0.355801
O O9 0.200553 0.849518 0.264951
O O10 0.974315 0.924583 0.116027
O O11 0.280249 0.019953 0.189691
O O12 0.557367 0.349759 0.870095
O O13 0.333144 0.230675 0.958488
O O14 0.240545 0.429595 0.916716
#
# Coordination Sequence:
#
# PCOD9313659 Si02
#       7
#     4   4   4   4   4   4   4
#     4  11  20  42  64  93 126 166 204 268 316 377
#     4  10  19  40  60  87 126 163 208 263 310 375
#     4   9  20  40  61  90 128 166 202 259 321 365
#     4  10  19  37  67  86 122 171 202 260 318 360
#     4   9  21  39  62  90 130 163 207 268 314 366
#     4   9  19  37  61  89 128 155 210 263 302 369
#     4  10  22  39  63  93 122 164 215 255 315 378
#
# _framework density 24.517047000000002
#
# number of rings (size 3 to 8) (size 9 to 14) (size 15 to 20)
#    0.000    2.286    1.429    1.714    0.000    0.000 
#   23.143    0.000    0.000    0.000    0.000    0.000 
#    0.000    0.000    0.000    0.000    0.000    0.000 
#
# Total GULP energy -156510.084033 kJ/mol
# GULP energy per Si atom -5589.645858 kJ/mol
# Density = 2.446125 g / cm^3
# Si number density = 24.517047 Si / 1000 Ang^3
#
#
#
# Elastic Constant Matrix: (Units=GPa)
#
#
# Indices 1 2 3 4 5 6 
#
# 1 69.5809 13.7073 32.1584 0.0000 0.0000 0.0000
# 2 13.7073 52.2857 28.0943 0.0000 0.0000 0.0000
# 3 32.1584 28.0943 170.1463 0.0000 0.0000 0.0000
# 4 0.0000 0.0000 0.0000 32.9655 0.0000 0.0000
# 5 0.0000 0.0000 0.0000 0.0000 43.0861 0.0000
# 6 0.0000 0.0000 0.0000 0.0000 0.0000 23.4642
#
#
#
# Elastic Compliance Matrix: (Units=1/GPa)
#
#
# Indices 1 2 3 4 5 6 
#
# 1 0.016123 -0.002842 -0.002578 0.000000 0.000000 0.000000
# 2 -0.002842 0.021489 -0.003011 0.000000 0.000000 0.000000
# 3 -0.002578 -0.003011 0.006862 0.000000 0.000000 0.000000
# 4 0.000000 0.000000 0.000000 0.030335 0.000000 0.000000
# 5 0.000000 0.000000 0.000000 0.000000 0.023209 0.000000
# 6 0.000000 0.000000 0.000000 0.000000 0.000000 0.042618
#
#
# Mechanical properties :
#
#
# Convention : Reuss Voigt Hill
#
# Bulk Modulus (GPa) = 36.21640 48.88146 42.54893
# Shear Modulus (GPa) = 29.99380 34.44003 32.21692
#
# Velocity S-wave (km/s) = 3.50149 3.75205 3.62893
# Velocity P-wave (km/s) = 5.58133 6.22507 5.91197
#
# Compressibility (1/GPa) = 0.02761180
#
# Stress axis : x y z
#
# Youngs Moduli (GPa) = 62.02282 46.53642 145.73521
#
# Poissons Ratio (x) = 0.13224 0.37573
# Poissons Ratio (y) = 0.17624 0.43882
# Poissons Ratio (z) = 0.15990 0.14012
#
# Static dielectric constant tensor:
#      x y z
#    x 2.053880 0.000000 0.000000 
#    y 0.000000 1.982420 0.000000 
#    z 0.000000 0.000000 1.907410 
# 
# From -- ./inp_files/4645.got.cif
#   From: 2010.05.17/outbox.cif.g08.bks.cpg/sg19_3_cif.got.tgz:4645.got - 2010.06.03 22:46:19.
