data_PCOD9313801
_publ_section_title
;
Structure prediction by ZEFSAII (Michael W. Deem and Ramdas Pophale) SiO2 
 PCOD9313801
Probable space group: P 21 21 21
;
_chemical_formula_sum "Si O2"
_cell_formula_units_Z 28
_cell_length_a 20.416502
_cell_length_b 7.655502
_cell_length_c 7.106219
_cell_angle_alpha 90.000000
_cell_angle_beta 90.000000
_cell_angle_gamma 90.000000
_cell_volume 1110.691881
_symmetry_space_group_name_H-M "P 21 21 21"
_symmetry_group_IT_number 19
_symmetry_cell_setting 'orthorhombic'
loop_
_space_group_symop_operation_xyz
x,y,z
1/2-x,-y,1/2+z
1/2+x,1/2-y,-z
-x,1/2+y,1/2-z
loop_
_atom_site_type_symbol
_atom_site_label
_atom_site_fract_x
_atom_site_fract_y
_atom_site_fract_z
Si Si1 0.706578 0.605877 0.243825
Si Si2 0.425873 0.214727 0.358233
Si Si3 0.267280 0.555042 0.685263
Si Si4 0.622147 0.085305 0.304614
Si Si5 0.025678 0.290865 0.965321
Si Si6 0.975676 0.923159 0.127199
Si Si7 0.275934 0.237584 0.866307
O O1 0.641875 0.610735 0.120865
O O2 0.752391 0.772511 0.189965
O O3 0.685023 0.653399 0.458640
O O4 0.744684 0.424389 0.240887
O O5 0.405243 0.407229 0.291209
O O6 0.468143 0.204885 0.546017
O O7 0.471672 0.144765 0.187001
O O8 0.197477 0.457050 0.655976
O O9 0.278567 0.650803 0.487477
O O10 0.310671 0.391805 0.749954
O O11 0.588901 0.118757 0.506427
O O12 0.591110 0.225814 0.161336
O O13 0.034070 0.405972 0.151688
O O14 0.001220 0.108933 0.052056
#
# Coordination Sequence:
#
# PCOD9313801 Si02
#       7
#     4   4   4   4   4   4   4
#     4   9  22  41  62  90 121 169 205 271 316 380
#     4   9  19  40  59  81 122 160 198 251 316 370
#     4   9  22  41  62  90 121 169 205 271 316 380
#     4   9  19  40  59  81 122 160 198 251 316 370
#     4  10  20  35  58  90 119 158 200 250 304 386
#     4  10  20  35  58  90 119 158 200 250 304 386
#     4  10  22  40  66  88 126 160 220 260 328 374
#
# _framework density 25.209509000000001
#
# number of rings (size 3 to 8) (size 9 to 14) (size 15 to 20)
#    0.857    1.714    0.000    0.857    4.000    1.143 
#    5.143    0.000    0.000    0.000    0.000    0.000 
#    0.000    0.000    0.000    0.000    0.000    0.000 
#
# Total GULP energy -156171.167096 kJ/mol
# GULP energy per Si atom -5577.541682 kJ/mol
# Density = 2.515213 g / cm^3
# Si number density = 25.209509 Si / 1000 Ang^3
#
#
#
# Elastic Constant Matrix: (Units=GPa)
#
#
# Indices 1 2 3 4 5 6 
#
# 1 42.3680 9.4402 8.5181 0.0000 0.0000 0.0000
# 2 9.4402 126.7494 39.9621 0.0000 0.0000 0.0000
# 3 8.5181 39.9621 99.7686 0.0000 0.0000 0.0000
# 4 0.0000 0.0000 0.0000 48.0513 0.0000 0.0000
# 5 0.0000 0.0000 0.0000 0.0000 13.7730 0.0000
# 6 0.0000 0.0000 0.0000 0.0000 0.0000 22.2293
#
#
#
# Elastic Compliance Matrix: (Units=1/GPa)
#
#
# Indices 1 2 3 4 5 6 
#
# 1 0.024206 -0.001318 -0.001539 0.000000 0.000000 0.000000
# 2 -0.001318 0.009102 -0.003533 0.000000 0.000000 0.000000
# 3 -0.001539 -0.003533 0.011570 0.000000 0.000000 0.000000
# 4 0.000000 0.000000 0.000000 0.020811 0.000000 0.000000
# 5 0.000000 0.000000 0.000000 0.000000 0.072606 0.000000
# 6 0.000000 0.000000 0.000000 0.000000 0.000000 0.044986
#
#
# Mechanical properties :
#
#
# Convention : Reuss Voigt Hill
#
# Bulk Modulus (GPa) = 31.15477 42.74742 36.95109
# Shear Modulus (GPa) = 24.18283 30.87508 27.52896
#
# Velocity S-wave (km/s) = 3.10057 3.50342 3.30814
# Velocity P-wave (km/s) = 5.02028 5.77572 5.41120
#
# Compressibility (1/GPa) = 0.03209781
#
# Stress axis : x y z
#
# Youngs Moduli (GPa) = 41.31260 109.86991 86.43202
#
# Poissons Ratio (x) = 0.14477 0.13301
# Poissons Ratio (y) = 0.05443 0.30538
# Poissons Ratio (z) = 0.06357 0.38819
#
# Static dielectric constant tensor:
#      x y z
#    x 2.011840 0.000000 0.000000 
#    y 0.000000 2.152420 0.000000 
#    z 0.000000 0.000000 2.122890 
# 
# From -- ./inp_files/2239.got.cif
#   From: 2010.05.17/outbox.cif.g08.bks.cpg/sg19_2_cif.got.tgz:2239.got - 2010.06.03 22:46:19.
