data_PCOD9313937
_publ_section_title
;
Structure prediction by ZEFSAII (Michael W. Deem and Ramdas Pophale) SiO2 
 PCOD9313937
Probable space group: P 21 21 21
;
_chemical_formula_sum "Si O2"
_cell_formula_units_Z 32
_cell_length_a 8.153778
_cell_length_b 24.699274
_cell_length_c 5.613932
_cell_angle_alpha 90.000000
_cell_angle_beta 90.000000
_cell_angle_gamma 90.000000
_cell_volume 1130.603222
_symmetry_space_group_name_H-M "P 21 21 21"
_symmetry_group_IT_number 19
_symmetry_cell_setting 'orthorhombic'
loop_
_space_group_symop_operation_xyz
x,y,z
1/2-x,-y,1/2+z
1/2+x,1/2-y,-z
-x,1/2+y,1/2-z
loop_
_atom_site_type_symbol
_atom_site_label
_atom_site_fract_x
_atom_site_fract_y
_atom_site_fract_z
Si Si1 0.845025 0.756760 0.505172
Si Si2 0.699535 0.125000 0.000000
Si Si3 0.300465 0.125000 0.500000
Si Si4 0.154974 0.756761 0.994828
Si Si5 1.000000 0.582936 0.750000
Si Si6 0.654974 0.506760 0.994827
Si Si7 1.000000 0.667064 0.250000
Si Si8 0.845026 0.993239 0.494829
O O1 0.901344 0.819547 0.491710
O O2 0.759790 0.750248 0.760704
O O3 0.973749 0.708578 0.467723
O O4 0.740209 0.749752 0.260704
O O5 0.833492 0.133918 0.211237
O O6 0.833492 0.116082 0.788764
O O7 0.598656 0.069548 0.008291
O O8 0.401345 0.180452 0.508291
O O9 0.166508 0.133918 0.288764
O O10 0.166508 0.116082 0.711237
O O11 0.401345 0.069547 0.491710
O O12 0.026251 0.708578 0.032276
O O13 0.973749 0.541422 0.532276
O O14 0.026251 0.541422 0.967723
O O15 0.740209 0.500248 0.739295
O O16 0.740210 0.000248 0.739297
#
# Coordination Sequence:
#
# PCOD9313937 Si02
#       8
#     4   4   4   4   4   4   4   4
#     4  10  22  38  60  90 116 150 200 236 282 354
#     4  10  20  38  62  86 118 156 190 240 292 338
#     4  10  20  38  62  86 118 156 190 240 292 338
#     4  10  22  38  60  90 116 150 200 236 282 354
#     4  10  20  38  62  86 118 156 190 240 292 338
#     4  10  22  38  60  90 116 150 200 236 282 354
#     4  10  20  38  62  86 118 156 190 240 292 338
#     4  10  22  38  60  90 116 150 200 236 282 354
#
# _framework density 28.303476
#
# number of rings (size 3 to 8) (size 9 to 14) (size 15 to 20)
#    0.000    2.000    0.000    3.000    0.000   12.000 
#    0.000   20.000    0.000    0.000    0.000    0.000 
#    0.000    0.000    0.000    0.000    0.000    0.000 
#
# Total GULP energy -178777.125898 kJ/mol
# GULP energy per Si atom -5586.785184 kJ/mol
# Density = 2.823906 g / cm^3
# Si number density = 28.303476 Si / 1000 Ang^3
#
#
#
# Elastic Constant Matrix: (Units=GPa)
#
#
# Indices 1 2 3 4 5 6 
#
# 1 47.3265 -6.6160 51.9501 0.0000 0.0000 0.0000
# 2 -6.6160 192.7318 28.9100 0.0000 0.0000 0.0000
# 3 51.9501 28.9100 200.1718 0.0000 0.0000 0.0000
# 4 0.0000 0.0000 0.0000 51.8044 0.0000 0.0000
# 5 0.0000 0.0000 0.0000 0.0000 72.4529 0.0000
# 6 0.0000 0.0000 0.0000 0.0000 0.0000 18.7773
#
#
#
# Elastic Compliance Matrix: (Units=1/GPa)
#
#
# Indices 1 2 3 4 5 6 
#
# 1 0.030500 0.002284 -0.008245 0.000000 0.000000 0.000000
# 2 0.002284 0.005474 -0.001383 0.000000 0.000000 0.000000
# 3 -0.008245 -0.001383 0.007335 0.000000 0.000000 0.000000
# 4 0.000000 0.000000 0.000000 0.019303 0.000000 0.000000
# 5 0.000000 0.000000 0.000000 0.000000 0.013802 0.000000
# 6 0.000000 0.000000 0.000000 0.000000 0.000000 0.053256
#
#
# Mechanical properties :
#
#
# Convention : Reuss Voigt Hill
#
# Bulk Modulus (GPa) = 34.94068 65.41314 50.17691
# Shear Modulus (GPa) = 32.48837 53.00597 42.74717
#
# Velocity S-wave (km/s) = 3.39168 4.33225 3.89049
# Velocity P-wave (km/s) = 5.26401 6.94162 6.16019
#
# Compressibility (1/GPa) = 0.02861994
#
# Stress axis : x y z
#
# Youngs Moduli (GPa) = 32.78683 182.66634 136.32472
#
# Poissons Ratio (x) = -0.41718 1.12406
# Poissons Ratio (y) = -0.07488 0.18859
# Poissons Ratio (z) = 0.27034 0.25269
#
# Static dielectric constant tensor:
#      x y z
#    x 2.296940 0.000000 0.000000 
#    y 0.000000 2.210650 0.000000 
#    z 0.000000 0.000000 2.224290 
# 
# From -- ./inp_files/1317.got.cif
#   From: 2010.05.17/outbox.cif.g08.bks.cpg/sg19_1_cif.got.tgz:1317.got - 2010.06.03 22:46:19.
