data_PCOD9313156
_publ_section_title
;
Structure prediction by ZEFSAII (Michael W. Deem and Ramdas Pophale) SiO2 
 PCOD9313156
Probable space group: P 21 21 2
;
_chemical_formula_sum "Si O2"
_cell_formula_units_Z 22
_cell_length_a 12.462793
_cell_length_b 13.216354
_cell_length_c 5.517102
_cell_angle_alpha 90.000000
_cell_angle_beta 90.000000
_cell_angle_gamma 90.000000
_cell_volume 908.736679
_symmetry_space_group_name_H-M "P 21 21 2"
_symmetry_group_IT_number 18
_symmetry_cell_setting 'orthorhombic'
loop_
_space_group_symop_operation_xyz
x,y,z
-x,-y,z
1/2+x,1/2-y,-z
1/2-x,1/2+y,-z
loop_
_atom_site_type_symbol
_atom_site_label
_atom_site_fract_x
_atom_site_fract_y
_atom_site_fract_z
Si Si1 0.000000 0.000000 0.763116
Si Si2 0.378137 0.650550 0.948720
Si Si3 0.093318 0.856905 0.380012
Si Si4 0.419807 0.133366 0.599758
Si Si5 0.055862 0.366688 0.905004
Si Si6 0.721187 0.983347 0.289665
O O1 0.101458 0.052862 0.886127
O O2 0.952003 0.096520 0.625841
O O3 0.380194 0.760424 0.068263
O O4 0.486993 0.645433 0.787136
O O5 0.270829 0.621904 0.805857
O O6 0.135303 0.743384 0.388248
O O7 0.182865 0.937038 0.308694
O O8 0.491533 0.137825 0.351634
O O9 0.486686 0.123859 0.847845
O O10 0.336656 0.044242 0.542599
O O11 0.865991 0.538182 0.876591
#
# Coordination Sequence:
#
# PCOD9313156 Si02
#       6
#     2   4   4   4   4   4
#     4  12  18  40  80 104 146 196 242 312 366 434
#     4  11  24  45  74 113 151 193 250 313 373 448
#     4  11  24  45  74 113 151 193 250 313 373 448
#     4  11  28  52  73 107 158 201 245 312 377 445
#     4  11  28  52  73 107 158 201 245 312 377 445
#     4  12  26  48  78 112 146 198 258 308 376 446
#
# _framework density 24.209434000000002
#
# number of rings (size 3 to 8) (size 9 to 14) (size 15 to 20)
#    0.000    0.727    5.455    0.545    0.000   14.545 
#    0.000    0.000    0.000    0.000    0.000    0.000 
#    0.000    0.000    0.000    0.000    0.000    0.000 
#
# Total GULP energy -122987.874362 kJ/mol
# GULP energy per Si atom -5590.357926 kJ/mol
# Density = 2.415433 g / cm^3
# Si number density = 24.209434 Si / 1000 Ang^3
#
#
#
# Elastic Constant Matrix: (Units=GPa)
#
#
# Indices 1 2 3 4 5 6 
#
# 1 68.6687 43.5453 38.3234 0.0000 0.0000 0.0000
# 2 43.5453 124.1918 11.3072 0.0000 0.0000 0.0000
# 3 38.3234 11.3072 90.9673 0.0000 0.0000 0.0000
# 4 0.0000 0.0000 0.0000 47.4077 0.0000 0.0000
# 5 0.0000 0.0000 0.0000 0.0000 33.4632 0.0000
# 6 0.0000 0.0000 0.0000 0.0000 0.0000 -4.1336
#
#
#
# Elastic Compliance Matrix: (Units=1/GPa)
#
#
# Indices 1 2 3 4 5 6 
#
# 1 0.024830 -0.007842 -0.009486 0.000000 0.000000 0.000000
# 2 -0.007842 0.010621 0.001984 0.000000 0.000000 0.000000
# 3 -0.009486 0.001984 0.014743 0.000000 0.000000 0.000000
# 4 0.000000 0.000000 0.000000 0.021094 0.000000 0.000000
# 5 0.000000 0.000000 0.000000 0.000000 0.029884 0.000000
# 6 0.000000 0.000000 0.000000 0.000000 0.000000 -0.241919
#
#
# Mechanical properties :
#
#
# Convention : Reuss Voigt Hill
#
# Bulk Modulus (GPa) = 51.26942 52.24219 51.75580
# Shear Modulus (GPa) = -48.28198 28.05760 -10.11219
#
# Velocity S-wave (km/s) = -4.47065 3.40803 -2.04598
# Velocity P-wave (km/s) = 2.32929 6.09199 3.98038
#
# Compressibility (1/GPa) = 0.01950480
#
# Stress axis : x y z
#
# Youngs Moduli (GPa) = 40.27442 94.15110 67.83075
#
# Poissons Ratio (x) = 0.73837 0.64342
# Poissons Ratio (y) = 0.31585 -0.13456
# Poissons Ratio (z) = 0.38203 -0.18677
#
# Static dielectric constant tensor:
#      x y z
#    x 1.984910 0.000000 0.000000 
#    y 0.000000 1.893810 0.000000 
#    z 0.000000 0.000000 2.025610 
# 
# From -- ./inp_files/1568.got.cif
#   From: 2010.05.17/outbox.cif.g08.bks.cpg/sg18_1_cif.got.tgz:1568.got - 2010.06.03 22:40:56.
