data_PCOD9313818
_publ_section_title
;
Structure prediction by ZEFSAII (Michael W. Deem and Ramdas Pophale) SiO2 
 PCOD9313818
Probable space group: P 21 21 21
;
_chemical_formula_sum "Si O2"
_cell_formula_units_Z 32
_cell_length_a 11.626001
_cell_length_b 7.511611
_cell_length_c 14.007140
_cell_angle_alpha 90.000000
_cell_angle_beta 90.000000
_cell_angle_gamma 90.000000
_cell_volume 1223.243494
_symmetry_space_group_name_H-M "P 21 21 21"
_symmetry_group_IT_number 19
_symmetry_cell_setting 'orthorhombic'
loop_
_space_group_symop_operation_xyz
x,y,z
1/2-x,-y,1/2+z
1/2+x,1/2-y,-z
-x,1/2+y,1/2-z
loop_
_atom_site_type_symbol
_atom_site_label
_atom_site_fract_x
_atom_site_fract_y
_atom_site_fract_z
Si Si1 0.232326 0.528618 0.415543
Si Si2 0.659480 0.221743 0.265001
Si Si3 0.944681 0.190802 0.561126
Si Si4 0.019527 0.063476 0.016021
Si Si5 0.239827 0.400086 0.128685
Si Si6 0.946284 0.345619 0.856910
Si Si7 0.026140 0.606735 0.160385
Si Si8 0.348243 0.024964 0.699864
O O1 0.272336 0.643552 0.326890
O O2 0.312092 0.353982 0.414311
O O3 0.268716 0.617692 0.515371
O O4 0.095901 0.515014 0.423899
O O5 0.529070 0.207676 0.230386
O O6 0.718936 0.409701 0.284110
O O7 0.690141 0.084660 0.350016
O O8 0.957518 0.402466 0.557440
O O9 0.975944 0.135180 0.452586
O O10 0.023646 0.051308 0.619008
O O11 0.118388 0.063155 0.097554
O O12 0.991128 0.235814 0.951918
O O13 0.322407 0.243874 0.163669
O O14 0.116253 0.442874 0.174197
O O15 0.085599 0.784799 0.198006
O O16 0.906496 0.575729 0.212338
#
# Coordination Sequence:
#
# PCOD9313818 Si02
#       8
#     4   4   4   4   4   4   4   4
#     4   9  19  39  66  87 128 174 197 269 327 364
#     4  10  21  41  66  93 135 169 214 269 326 378
#     4   9  20  38  60  93 123 162 221 251 313 387
#     4  10  20  39  65  93 124 168 217 264 324 381
#     4   9  19  39  64  90 124 171 210 254 325 377
#     4  10  22  41  68  87 126 182 210 263 321 385
#     4   9  19  34  60  89 126 159 204 266 317 375
#     4  10  20  35  63  94 126 163 207 278 323 371
#
# _framework density 26.159960000000002
#
# number of rings (size 3 to 8) (size 9 to 14) (size 15 to 20)
#    0.000    2.500    0.000    2.250    5.250    0.000 
#   13.500    1.250   11.000    0.000    0.000    0.000 
#    0.000    0.000    0.000    0.000    0.000    0.000 
#
# Total GULP energy -179082.071739 kJ/mol
# GULP energy per Si atom -5596.314742 kJ/mol
# Density = 2.610042 g / cm^3
# Si number density = 26.159960 Si / 1000 Ang^3
#
#
#
# Elastic Constant Matrix: (Units=GPa)
#
#
# Indices 1 2 3 4 5 6 
#
# 1 78.7791 -33.7120 5.3480 0.0000 0.0000 0.0000
# 2 -33.7120 43.0334 -15.2344 0.0000 0.0000 0.0000
# 3 5.3480 -15.2344 87.4262 0.0000 0.0000 0.0000
# 4 0.0000 0.0000 0.0000 35.7390 0.0000 0.0000
# 5 0.0000 0.0000 0.0000 0.0000 44.8002 0.0000
# 6 0.0000 0.0000 0.0000 0.0000 0.0000 23.7500
#
#
#
# Elastic Compliance Matrix: (Units=1/GPa)
#
#
# Indices 1 2 3 4 5 6 
#
# 1 0.019290 0.015660 0.001549 0.000000 0.000000 0.000000
# 2 0.015660 0.037478 0.005573 0.000000 0.000000 0.000000
# 3 0.001549 0.005573 0.012315 0.000000 0.000000 0.000000
# 4 0.000000 0.000000 0.000000 0.027981 0.000000 0.000000
# 5 0.000000 0.000000 0.000000 0.000000 0.022321 0.000000
# 6 0.000000 0.000000 0.000000 0.000000 0.000000 0.042105
#
#
# Mechanical properties :
#
#
# Convention : Reuss Voigt Hill
#
# Bulk Modulus (GPa) = 8.72251 13.56022 11.14136
# Shear Modulus (GPa) = 32.43753 37.71365 35.07559
#
# Velocity S-wave (km/s) = 3.52514 3.80103 3.66568
# Velocity P-wave (km/s) = 4.46210 4.94557 4.71004
#
# Compressibility (1/GPa) = 0.11464587
#
# Stress axis : x y z
#
# Youngs Moduli (GPa) = 51.84058 26.68201 81.20463
#
# Poissons Ratio (x) = -0.41784 -0.12577
# Poissons Ratio (y) = -0.81182 -0.45254
# Poissons Ratio (z) = -0.08029 -0.14869
#
# Static dielectric constant tensor:
#      x y z
#    x 2.118360 0.000000 0.000000 
#    y 0.000000 2.100150 0.000000 
#    z 0.000000 0.000000 1.993600 
# 
# From -- ./inp_files/6186.got.cif
#   From: 2010.05.17/outbox.cif.g08.bks.cpg/sg19_4_cif.got.tgz:6186.got - 2010.06.03 22:46:19.
