data_PCOD9313272
_publ_section_title
;
Structure prediction by ZEFSAII (Michael W. Deem and Ramdas Pophale) SiO2 
 PCOD9313272
Probable space group: P 21 21 2
;
_chemical_formula_sum "Si O2"
_cell_formula_units_Z 16
_cell_length_a 10.135942
_cell_length_b 8.288139
_cell_length_c 7.093951
_cell_angle_alpha 90.000000
_cell_angle_beta 90.000000
_cell_angle_gamma 90.000000
_cell_volume 595.949318
_symmetry_space_group_name_H-M "P 21 21 2"
_symmetry_group_IT_number 18
_symmetry_cell_setting 'orthorhombic'
loop_
_space_group_symop_operation_xyz
x,y,z
-x,-y,z
1/2+x,1/2-y,-z
1/2-x,1/2+y,-z
loop_
_atom_site_type_symbol
_atom_site_label
_atom_site_fract_x
_atom_site_fract_y
_atom_site_fract_z
Si Si1 0.105684 0.733452 0.638292
Si Si2 0.898907 0.755671 0.327177
Si Si3 0.232693 0.957889 0.205491
Si Si4 0.617414 0.328836 0.091339
O O1 0.021455 0.703712 0.450284
O O2 0.004715 0.828816 0.770141
O O3 0.252892 0.810342 0.617596
O O4 0.140196 0.565723 0.744406
O O5 0.870561 0.950567 0.341647
O O6 0.919937 0.733713 0.103419
O O7 0.269705 0.773595 0.195800
O O8 0.177453 0.011260 0.001095
#
# Coordination Sequence:
#
# PCOD9313272 Si02
#       4
#     4   4   4   4
#     4   9  18  38  61  92 122 160 213 255 316 376
#     4   8  21  34  64  90 121 164 205 268 305 376
#     4   8  20  36  64  85 124 161 206 262 301 382
#     4   9  18  39  58  92 118 165 209 251 311 372
#
# _framework density 26.847922000000001
#
# number of rings (size 3 to 8) (size 9 to 14) (size 15 to 20)
#    3.000    0.000    0.000    0.750    0.000    4.000 
#    4.500    7.500    0.000    0.000    0.000    0.000 
#    0.000    0.000    0.000    0.000    0.000    0.000 
#
# Total GULP energy -89236.346506 kJ/mol
# GULP energy per Si atom -5577.271657 kJ/mol
# Density = 2.678682 g / cm^3
# Si number density = 26.847922 Si / 1000 Ang^3
#
#
#
# Elastic Constant Matrix: (Units=GPa)
#
#
# Indices 1 2 3 4 5 6 
#
# 1 195.3673 33.4891 64.8416 0.0000 0.0000 0.0000
# 2 33.4891 40.4632 -8.3059 0.0000 0.0000 0.0000
# 3 64.8416 -8.3059 144.0635 0.0000 0.0000 0.0000
# 4 0.0000 0.0000 0.0000 17.1046 0.0000 0.0000
# 5 0.0000 0.0000 0.0000 0.0000 73.7323 0.0000
# 6 0.0000 0.0000 0.0000 0.0000 0.0000 33.8942
#
#
#
# Elastic Compliance Matrix: (Units=1/GPa)
#
#
# Indices 1 2 3 4 5 6 
#
# 1 0.007603 -0.007079 -0.003830 0.000000 0.000000 0.000000
# 2 -0.007079 0.031601 0.005008 0.000000 0.000000 0.000000
# 3 -0.003830 0.005008 0.008954 0.000000 0.000000 0.000000
# 4 0.000000 0.000000 0.000000 0.058464 0.000000 0.000000
# 5 0.000000 0.000000 0.000000 0.000000 0.013563 0.000000
# 6 0.000000 0.000000 0.000000 0.000000 0.000000 0.029504
#
#
# Mechanical properties :
#
#
# Convention : Reuss Voigt Hill
#
# Bulk Modulus (GPa) = 27.50598 62.21598 44.86098
# Shear Modulus (GPa) = 28.80031 44.27081 36.53556
#
# Velocity S-wave (km/s) = 3.27879 4.06513 3.69295
# Velocity P-wave (km/s) = 4.95997 6.72737 5.91011
#
# Compressibility (1/GPa) = 0.03635573
#
# Stress axis : x y z
#
# Youngs Moduli (GPa) = 131.52186 31.64475 111.68055
#
# Poissons Ratio (x) = 0.22402 0.42777
# Poissons Ratio (y) = 0.93105 -0.55931
# Poissons Ratio (z) = 0.50377 -0.15848
#
# Static dielectric constant tensor:
#      x y z
#    x 2.117980 0.000000 0.000000 
#    y 0.000000 2.174410 0.000000 
#    z 0.000000 0.000000 2.092380 
# 
# From -- ./inp_files/2829.got.cif
#   From: 2010.05.17/outbox.cif.g08.bks.cpg/sg18_2_cif.got.tgz:2829.got - 2010.06.03 22:40:56.
