data_PCOD9313145
_publ_section_title
;
Structure prediction by ZEFSAII (Michael W. Deem and Ramdas Pophale) SiO2 
 PCOD9313145
Probable space group: P 21 21 2
;
_chemical_formula_sum "Si O2"
_cell_formula_units_Z 24
_cell_length_a 10.444743
_cell_length_b 11.563156
_cell_length_c 8.737978
_cell_angle_alpha 90.000000
_cell_angle_beta 90.000000
_cell_angle_gamma 90.000000
_cell_volume 1055.322239
_symmetry_space_group_name_H-M "P 21 21 2"
_symmetry_group_IT_number 18
_symmetry_cell_setting 'orthorhombic'
loop_
_space_group_symop_operation_xyz
x,y,z
-x,-y,z
1/2+x,1/2-y,-z
1/2-x,1/2+y,-z
loop_
_atom_site_type_symbol
_atom_site_label
_atom_site_fract_x
_atom_site_fract_y
_atom_site_fract_z
Si Si1 0.650229 0.172417 0.079250
Si Si2 0.815328 0.285812 0.645521
Si Si3 0.195643 0.942619 0.811037
Si Si4 0.000000 0.000000 0.061949
Si Si5 0.310303 0.169893 0.693753
Si Si6 0.454062 0.725298 0.815355
Si Si7 0.500000 0.000000 0.283582
O O1 0.740703 0.257870 0.172079
O O2 0.601799 0.069492 0.182287
O O3 0.704780 0.120591 0.922026
O O4 0.537643 0.243472 0.996968
O O5 0.866674 0.162359 0.712563
O O6 0.776514 0.274643 0.468779
O O7 0.684848 0.305927 0.743652
O O8 0.916059 0.393185 0.646066
O O9 0.113654 0.008980 0.939289
O O10 0.261941 0.038357 0.705396
O O11 0.027516 0.895842 0.176288
O O12 0.462480 0.183567 0.721432
#
# Coordination Sequence:
#
# PCOD9313145 Si02
#       7
#     4   4   4   2   4   4   2
#     4  11  24  43  75 102 139 190 252 307 372 441
#     4  11  30  45  73 106 153 205 249 309 403 459
#     4  11  25  45  72 110 146 199 254 315 382 454
#     4  12  20  40  74 100 148 188 270 324 368 444
#     4  12  27  46  74 110 156 195 252 319 385 473
#     4  11  25  45  72 110 146 199 254 315 382 454
#     4  12  26  46  74 104 148 200 260 312 368 468
#
# _framework density 22.741868
#
# number of rings (size 3 to 8) (size 9 to 14) (size 15 to 20)
#    0.000    0.667    3.333    3.000    9.333    3.333 
#    0.000    0.000    0.000    0.000    0.000    0.000 
#    0.000    0.000    0.000    0.000    0.000    0.000 
#
# Total GULP energy -133700.055161 kJ/mol
# GULP energy per Si atom -5570.835632 kJ/mol
# Density = 2.269011 g / cm^3
# Si number density = 22.741868 Si / 1000 Ang^3
#
#
#
# Elastic Constant Matrix: (Units=GPa)
#
#
# Indices 1 2 3 4 5 6 
#
# 1 48.0448 23.9974 12.9215 0.0000 0.0000 0.0000
# 2 23.9974 100.8355 12.3686 0.0000 0.0000 0.0000
# 3 12.9215 12.3686 73.2982 0.0000 0.0000 0.0000
# 4 0.0000 0.0000 0.0000 27.6839 0.0000 0.0000
# 5 0.0000 0.0000 0.0000 0.0000 28.8860 0.0000
# 6 0.0000 0.0000 0.0000 0.0000 0.0000 31.3785
#
#
#
# Elastic Compliance Matrix: (Units=1/GPa)
#
#
# Indices 1 2 3 4 5 6 
#
# 1 0.024422 -0.005396 -0.003395 0.000000 0.000000 0.000000
# 2 -0.005396 0.011319 -0.000959 0.000000 0.000000 0.000000
# 3 -0.003395 -0.000959 0.014403 0.000000 0.000000 0.000000
# 4 0.000000 0.000000 0.000000 0.036122 0.000000 0.000000
# 5 0.000000 0.000000 0.000000 0.000000 0.034619 0.000000
# 6 0.000000 0.000000 0.000000 0.000000 0.000000 0.031869
#
#
# Mechanical properties :
#
#
# Convention : Reuss Voigt Hill
#
# Bulk Modulus (GPa) = 32.63128 35.63927 34.13527
# Shear Modulus (GPa) = 27.40214 29.11574 28.25894
#
# Velocity S-wave (km/s) = 3.47496 3.58197 3.52887
# Velocity P-wave (km/s) = 5.52089 5.72823 5.62551
#
# Compressibility (1/GPa) = 0.03064545
#
# Stress axis : x y z
#
# Youngs Moduli (GPa) = 40.94681 88.34834 69.42923
#
# Poissons Ratio (x) = 0.47670 0.23570
# Poissons Ratio (y) = 0.22093 0.06657
# Poissons Ratio (z) = 0.13901 0.08471
#
# Static dielectric constant tensor:
#      x y z
#    x 3.839020 0.000000 0.000000 
#    y 0.000000 0.513640 0.000000 
#    z 0.000000 0.000000 1.780590 
# 
# From -- ./inp_files/3776.got.cif
#   From: 2010.05.17/outbox.cif.g08.bks.cpg/sg18_2_cif.got.tgz:3776.got - 2010.06.03 22:40:56.
