data_PCOD9313497
_publ_section_title
;
Structure prediction by ZEFSAII (Michael W. Deem and Ramdas Pophale) SiO2 
 PCOD9313497
Probable space group: P 21 21 21
;
_chemical_formula_sum "Si O2"
_cell_formula_units_Z 16
_cell_length_a 8.025416
_cell_length_b 12.886051
_cell_length_c 5.484416
_cell_angle_alpha 90.000000
_cell_angle_beta 90.000000
_cell_angle_gamma 90.000000
_cell_volume 567.175926
_symmetry_space_group_name_H-M "P 21 21 21"
_symmetry_group_IT_number 19
_symmetry_cell_setting 'orthorhombic'
loop_
_space_group_symop_operation_xyz
x,y,z
1/2-x,-y,1/2+z
1/2+x,1/2-y,-z
-x,1/2+y,1/2-z
loop_
_atom_site_type_symbol
_atom_site_label
_atom_site_fract_x
_atom_site_fract_y
_atom_site_fract_z
Si Si1 0.106069 0.043767 0.845987
Si Si2 0.146875 0.309982 0.148859
Si Si3 0.475787 0.202998 0.347272
Si Si4 0.516123 0.481663 0.651835
O O1 0.032399 0.084427 0.593620
O O2 0.059549 0.921486 0.837062
O O3 0.193434 0.954426 0.349333
O O4 0.026474 0.080604 0.097505
O O5 0.313158 0.258718 0.246242
O O6 0.133556 0.436520 0.147724
O O7 0.112099 0.279042 0.867720
O O8 0.520374 0.218105 0.630110
#
# Coordination Sequence:
#
# PCOD9313497 Si02
#       4
#     4   4   4   4
#     4   8  14  25  42  63  84 110 148 186 214 250
#     4  10  19  31  48  69  93 120 150 186 226 268
#     4  10  19  31  48  69  93 120 150 186 226 268
#     4   8  14  25  42  63  84 110 148 186 214 250
#
# _framework density 28.209942999999999
#
# number of rings (size 3 to 8) (size 9 to 14) (size 15 to 20)
#    0.000    3.000    0.000    1.500    0.000    0.000 
#    0.000    0.000    0.000    3.000    0.000    0.000 
#    0.000    0.000    0.000    0.000    0.000    0.000 
#
# Total GULP energy -89647.704260 kJ/mol
# GULP energy per Si atom -5602.981516 kJ/mol
# Density = 2.814574 g / cm^3
# Si number density = 28.209943 Si / 1000 Ang^3
#
#
#
# Elastic Constant Matrix: (Units=GPa)
#
#
# Indices 1 2 3 4 5 6 
#
# 1 77.2530 16.2181 29.7880 0.0000 0.0000 0.0000
# 2 16.2181 64.7287 37.1675 0.0000 0.0000 0.0000
# 3 29.7880 37.1675 264.9719 0.0000 0.0000 0.0000
# 4 0.0000 0.0000 0.0000 59.8926 0.0000 0.0000
# 5 0.0000 0.0000 0.0000 0.0000 46.1731 0.0000
# 6 0.0000 0.0000 0.0000 0.0000 0.0000 40.8364
#
#
#
# Elastic Compliance Matrix: (Units=1/GPa)
#
#
# Indices 1 2 3 4 5 6 
#
# 1 0.013992 -0.002831 -0.001176 0.000000 0.000000 0.000000
# 2 -0.002831 0.017375 -0.002119 0.000000 0.000000 0.000000
# 3 -0.001176 -0.002119 0.004203 0.000000 0.000000 0.000000
# 4 0.000000 0.000000 0.000000 0.016697 0.000000 0.000000
# 5 0.000000 0.000000 0.000000 0.000000 0.021658 0.000000
# 6 0.000000 0.000000 0.000000 0.000000 0.000000 0.024488
#
#
# Mechanical properties :
#
#
# Convention : Reuss Voigt Hill
#
# Bulk Modulus (GPa) = 42.88237 63.70009 53.29123
# Shear Modulus (GPa) = 42.21656 50.96575 46.59116
#
# Velocity S-wave (km/s) = 3.87268 4.25509 4.06838
# Velocity P-wave (km/s) = 5.93557 6.83892 6.40319
#
# Compressibility (1/GPa) = 0.02331961
#
# Stress axis : x y z
#
# Youngs Moduli (GPa) = 71.46863 57.55388 237.90190
#
# Poissons Ratio (x) = 0.16291 0.27976
# Poissons Ratio (y) = 0.20230 0.50411
# Poissons Ratio (z) = 0.08404 0.12196
#
# Static dielectric constant tensor:
#      x y z
#    x 2.120510 0.000000 0.000000 
#    y 0.000000 2.222520 0.000000 
#    z 0.000000 0.000000 2.275380 
# 
# From -- ./inp_files/318.got.cif
#   From: 2010.05.17/outbox.cif.g08.bks.cpg/sg19_1_cif.got.tgz:318.got - 2010.06.03 22:46:19.
