data_PCOD9313707
_publ_section_title
;
Structure prediction by ZEFSAII (Michael W. Deem and Ramdas Pophale) SiO2 
 PCOD9313707
Probable space group: P 21 21 21
;
_chemical_formula_sum "Si O2"
_cell_formula_units_Z 20
_cell_length_a 14.319683
_cell_length_b 7.712989
_cell_length_c 7.216464
_cell_angle_alpha 90.000000
_cell_angle_beta 90.000000
_cell_angle_gamma 90.000000
_cell_volume 797.040822
_symmetry_space_group_name_H-M "P 21 21 21"
_symmetry_group_IT_number 19
_symmetry_cell_setting 'orthorhombic'
loop_
_space_group_symop_operation_xyz
x,y,z
1/2-x,-y,1/2+z
1/2+x,1/2-y,-z
-x,1/2+y,1/2-z
loop_
_atom_site_type_symbol
_atom_site_label
_atom_site_fract_x
_atom_site_fract_y
_atom_site_fract_z
Si Si1 0.419540 0.543780 0.859271
Si Si2 0.385405 0.903346 0.756450
Si Si3 0.384698 0.312244 0.160310
Si Si4 0.791946 0.536316 0.848301
Si Si5 0.918585 0.831049 0.734493
O O1 0.376681 0.694929 0.733723
O O2 0.507954 0.457510 0.764511
O O3 0.356784 0.397749 0.961283
O O4 0.451026 0.644838 0.048706
O O5 0.318529 0.020977 0.630538
O O6 0.343983 0.947991 0.956723
O O7 0.323640 0.152407 0.222100
O O8 0.490947 0.243600 0.134301
O O9 0.388431 0.471990 0.304794
O O10 0.834438 0.695034 0.732708
#
# Coordination Sequence:
#
# PCOD9313707 Si02
#       5
#     4   4   4   4   4
#     4   9  22  42  63  92 135 176 214 255 349 391
#     4  11  24  44  66  98 132 177 217 278 327 394
#     4  10  19  40  66  96 128 172 216 266 328 397
#     4  11  23  41  65  96 132 165 228 273 320 387
#     4   9  20  37  68  96 125 172 213 264 334 391
#
# _framework density 25.092818999999999
#
# number of rings (size 3 to 8) (size 9 to 14) (size 15 to 20)
#    1.200    0.800    2.000    1.200    5.600    0.000 
#    7.200    0.000    0.000    0.000    0.000    0.000 
#    0.000    0.000    0.000    0.000    0.000    0.000 
#
# Total GULP energy -111626.959253 kJ/mol
# GULP energy per Si atom -5581.347963 kJ/mol
# Density = 2.503571 g / cm^3
# Si number density = 25.092819 Si / 1000 Ang^3
#
#
#
# Elastic Constant Matrix: (Units=GPa)
#
#
# Indices 1 2 3 4 5 6 
#
# 1 44.9920 34.0499 0.7435 0.0000 0.0000 0.0000
# 2 34.0499 167.6970 4.9513 0.0000 0.0000 0.0000
# 3 0.7435 4.9513 38.2127 0.0000 0.0000 0.0000
# 4 0.0000 0.0000 0.0000 35.1639 0.0000 0.0000
# 5 0.0000 0.0000 0.0000 0.0000 30.2616 0.0000
# 6 0.0000 0.0000 0.0000 0.0000 0.0000 27.0226
#
#
#
# Elastic Compliance Matrix: (Units=1/GPa)
#
#
# Indices 1 2 3 4 5 6 
#
# 1 0.026263 -0.005338 0.000181 0.000000 0.000000 0.000000
# 2 -0.005338 0.007071 -0.000812 0.000000 0.000000 0.000000
# 3 0.000181 -0.000812 0.026271 0.000000 0.000000 0.000000
# 4 0.000000 0.000000 0.000000 0.028438 0.000000 0.000000
# 5 0.000000 0.000000 0.000000 0.000000 0.033045 0.000000
# 6 0.000000 0.000000 0.000000 0.000000 0.000000 0.037006
#
#
# Mechanical properties :
#
#
# Convention : Reuss Voigt Hill
#
# Bulk Modulus (GPa) = 20.97939 36.71013 28.84476
# Shear Modulus (GPa) = 26.89299 32.56675 29.72987
#
# Velocity S-wave (km/s) = 3.27730 3.60648 3.44582
# Velocity P-wave (km/s) = 4.76443 5.65719 5.22989
#
# Compressibility (1/GPa) = 0.04766583
#
# Stress axis : x y z
#
# Youngs Moduli (GPa) = 38.07656 141.42379 38.06467
#
# Poissons Ratio (x) = 0.75490 -0.00688
# Poissons Ratio (y) = 0.20325 0.03092
# Poissons Ratio (z) = -0.00688 0.11489
#
# Static dielectric constant tensor:
#      x y z
#    x 1.952780 0.000000 0.000000 
#    y 0.000000 2.033190 0.000000 
#    z 0.000000 0.000000 2.106090 
# 
# From -- ./inp_files/2722.got.cif
#   From: 2010.05.17/outbox.cif.g08.bks.cpg/sg19_2_cif.got.tgz:2722.got - 2010.06.03 22:46:19.
