data_PCOD9313833
_publ_section_title
;
Structure prediction by ZEFSAII (Michael W. Deem and Ramdas Pophale) SiO2 
 PCOD9313833
Probable space group: P 21 21 21
;
_chemical_formula_sum "Si O2"
_cell_formula_units_Z 32
_cell_length_a 20.362424
_cell_length_b 10.836401
_cell_length_c 5.659371
_cell_angle_alpha 90.000000
_cell_angle_beta 90.000000
_cell_angle_gamma 90.000000
_cell_volume 1248.770725
_symmetry_space_group_name_H-M "P 21 21 21"
_symmetry_group_IT_number 19
_symmetry_cell_setting 'orthorhombic'
loop_
_space_group_symop_operation_xyz
x,y,z
1/2-x,-y,1/2+z
1/2+x,1/2-y,-z
-x,1/2+y,1/2-z
loop_
_atom_site_type_symbol
_atom_site_label
_atom_site_fract_x
_atom_site_fract_y
_atom_site_fract_z
Si Si1 0.440233 0.597374 0.386181
Si Si2 0.114828 0.483485 0.398481
Si Si3 0.006672 0.695159 0.359376
Si Si4 0.111973 0.846901 0.173161
Si Si5 0.192757 0.154872 0.676967
Si Si6 0.288159 0.318927 0.908834
Si Si7 0.209602 0.880230 0.799576
Si Si8 0.068220 0.050393 0.508198
O O1 0.402047 0.590893 0.137969
O O2 0.480150 0.723098 0.429657
O O3 0.499697 0.495968 0.385099
O O4 0.400425 0.572504 0.636254
O O5 0.188470 0.540572 0.422402
O O6 0.063999 0.599192 0.418674
O O7 0.039801 0.790369 0.170690
O O8 0.949770 0.624837 0.227247
O O9 0.164839 0.738002 0.205743
O O10 0.109643 0.936292 0.399011
O O11 0.142419 0.907257 0.944970
O O12 0.224487 0.173702 0.421147
O O13 0.116622 0.129268 0.665741
O O14 0.227678 0.022107 0.733888
O O15 0.216924 0.266380 0.840298
O O16 0.307416 0.233969 0.129791
#
# Coordination Sequence:
#
# PCOD9313833 Si02
#       8
#     4   4   4   4   4   4   4   4
#     4  10  23  42  62  92 130 168 216 261 307 385
#     4  10  23  41  64  92 124 170 216 254 317 378
#     4   9  21  40  59  91 125 167 210 262 321 365
#     4   9  19  35  53  82 122 163 206 254 306 386
#     4  11  20  32  51  92 125 160 205 255 327 377
#     4  10  21  34  56  87 120 167 205 255 314 394
#     4  11  19  32  55  78 127 161 197 254 319 386
#     4  10  20  36  56  90 127 164 205 257 321 383
#
# _framework density 25.625202000000002
#
# number of rings (size 3 to 8) (size 9 to 14) (size 15 to 20)
#    0.000    2.000    2.500    0.750    7.000    5.000 
#    0.000    0.000    0.000    0.000    3.250    0.000 
#    0.000    0.000    0.000    0.000    0.000    0.000 
#
# Total GULP energy -178570.828777 kJ/mol
# GULP energy per Si atom -5580.338399 kJ/mol
# Density = 2.556688 g / cm^3
# Si number density = 25.625202 Si / 1000 Ang^3
#
#
#
# Elastic Constant Matrix: (Units=GPa)
#
#
# Indices 1 2 3 4 5 6 
#
# 1 55.1036 10.4833 32.2442 0.0000 0.0000 0.0000
# 2 10.4833 43.6007 8.3700 0.0000 0.0000 0.0000
# 3 32.2442 8.3700 76.8782 0.0000 0.0000 0.0000
# 4 0.0000 0.0000 0.0000 23.1463 0.0000 0.0000
# 5 0.0000 0.0000 0.0000 0.0000 38.2821 0.0000
# 6 0.0000 0.0000 0.0000 0.0000 0.0000 37.9992
#
#
#
# Elastic Compliance Matrix: (Units=1/GPa)
#
#
# Indices 1 2 3 4 5 6 
#
# 1 0.024727 -0.004039 -0.009931 0.000000 0.000000 0.000000
# 2 -0.004039 0.024085 -0.000928 0.000000 0.000000 0.000000
# 3 -0.009931 -0.000928 0.017274 0.000000 0.000000 0.000000
# 4 0.000000 0.000000 0.000000 0.043204 0.000000 0.000000
# 5 0.000000 0.000000 0.000000 0.000000 0.026122 0.000000
# 6 0.000000 0.000000 0.000000 0.000000 0.000000 0.026316
#
#
# Mechanical properties :
#
#
# Convention : Reuss Voigt Hill
#
# Bulk Modulus (GPa) = 27.55641 30.86414 29.21027
# Shear Modulus (GPa) = 24.55537 28.18452 26.36994
#
# Velocity S-wave (km/s) = 3.09892 3.32003 3.21138
# Velocity P-wave (km/s) = 4.85607 5.17372 5.01741
#
# Compressibility (1/GPa) = 0.03628920
#
# Stress axis : x y z
#
# Youngs Moduli (GPa) = 40.44086 41.52009 57.89019
#
# Poissons Ratio (x) = 0.16770 0.57493
# Poissons Ratio (y) = 0.16334 0.05373
# Poissons Ratio (z) = 0.40164 0.03854
#
# Static dielectric constant tensor:
#      x y z
#    x 2.047720 0.000000 0.000000 
#    y 0.000000 2.120760 0.000000 
#    z 0.000000 0.000000 2.106150 
# 
# From -- ./inp_files/2004.got.cif
#   From: 2010.05.17/outbox.cif.g08.bks.cpg/sg19_2_cif.got.tgz:2004.got - 2010.06.03 22:46:19.
