data_PCOD9313125
_publ_section_title
;
Structure prediction by ZEFSAII (Michael W. Deem and Ramdas Pophale) SiO2 
 PCOD9313125
Probable space group: P 21 21 2
;
_chemical_formula_sum "Si O2"
_cell_formula_units_Z 20
_cell_length_a 22.161411
_cell_length_b 5.755887
_cell_length_c 7.012612
_cell_angle_alpha 90.000000
_cell_angle_beta 90.000000
_cell_angle_gamma 90.000000
_cell_volume 894.518811
_symmetry_space_group_name_H-M "P 21 21 2"
_symmetry_group_IT_number 18
_symmetry_cell_setting 'orthorhombic'
loop_
_space_group_symop_operation_xyz
x,y,z
-x,-y,z
1/2+x,1/2-y,-z
1/2-x,1/2+y,-z
loop_
_atom_site_type_symbol
_atom_site_label
_atom_site_fract_x
_atom_site_fract_y
_atom_site_fract_z
Si Si1 0.262658 0.805718 0.892397
Si Si2 0.377473 0.610007 0.732809
Si Si3 0.160089 0.788668 0.586821
Si Si4 0.070046 0.046142 0.873894
Si Si5 0.067079 0.399255 0.578393
O O1 0.332277 0.793578 0.829896
O O2 0.221552 0.779675 0.703629
O O3 0.251457 0.560913 0.012242
O O4 0.336832 0.439331 0.604732
O O5 0.426673 0.704816 0.584562
O O6 0.411299 0.498442 0.911153
O O7 0.125241 0.555325 0.534760
O O8 0.112931 0.900820 0.736491
O O9 0.077643 0.305962 0.792392
O O10 0.000000 0.000000 0.842548
O O11 0.000000 0.500000 0.566734
#
# Coordination Sequence:
#
# PCOD9313125 Si02
#       5
#     4   4   4   4   4
#     4  12  28  51  78 106 150 194 248 306 374 439
#     4  11  28  43  74 105 140 192 246 301 370 437
#     4  11  26  46  72 101 143 184 245 301 365 435
#     4  11  23  46  69 101 142 185 236 301 366 440
#     4  11  25  44  70 104 144 187 240 304 368 437
#
# _framework density 22.358388000000001
#
# number of rings (size 3 to 8) (size 9 to 14) (size 15 to 20)
#    0.000    0.800    4.000    1.200   11.200    2.400 
#    0.000    0.000    0.000    0.000    0.000    0.000 
#    0.000    0.000    0.000    0.000    0.000    0.000 
#
# Total GULP energy -111605.662223 kJ/mol
# GULP energy per Si atom -5580.283111 kJ/mol
# Density = 2.230750 g / cm^3
# Si number density = 22.358388 Si / 1000 Ang^3
#
#
#
# Elastic Constant Matrix: (Units=GPa)
#
#
# Indices 1 2 3 4 5 6 
#
# 1 61.2692 -6.8191 1.1765 0.0000 0.0000 0.0000
# 2 -6.8191 64.8730 33.1812 0.0000 0.0000 0.0000
# 3 1.1765 33.1812 110.0907 0.0000 0.0000 0.0000
# 4 0.0000 0.0000 0.0000 37.7515 0.0000 0.0000
# 5 0.0000 0.0000 0.0000 0.0000 27.9937 0.0000
# 6 0.0000 0.0000 0.0000 0.0000 0.0000 31.9458
#
#
#
# Elastic Compliance Matrix: (Units=1/GPa)
#
#
# Indices 1 2 3 4 5 6 
#
# 1 0.016579 0.002167 -0.000830 0.000000 0.000000 0.000000
# 2 0.002167 0.018508 -0.005601 0.000000 0.000000 0.000000
# 3 -0.000830 -0.005601 0.010781 0.000000 0.000000 0.000000
# 4 0.000000 0.000000 0.000000 0.026489 0.000000 0.000000
# 5 0.000000 0.000000 0.000000 0.000000 0.035722 0.000000
# 6 0.000000 0.000000 0.000000 0.000000 0.000000 0.031303
#
#
# Mechanical properties :
#
#
# Convention : Reuss Voigt Hill
#
# Bulk Modulus (GPa) = 26.78242 32.36780 29.57511
# Shear Modulus (GPa) = 31.18071 33.45116 32.31594
#
# Velocity S-wave (km/s) = 3.73847 3.87219 3.80591
# Velocity P-wave (km/s) = 5.53530 5.87367 5.70699
#
# Compressibility (1/GPa) = 0.03733793
#
# Stress axis : x y z
#
# Youngs Moduli (GPa) = 60.31881 54.03214 92.75992
#
# Poissons Ratio (x) = -0.11711 0.07703
# Poissons Ratio (y) = -0.13073 0.51958
# Poissons Ratio (z) = 0.05009 0.30265
#
# Static dielectric constant tensor:
#      x y z
#    x 1.727450 0.000000 0.000000 
#    y 0.000000 1.824510 0.000000 
#    z 0.000000 0.000000 1.782600 
# 
# From -- ./inp_files/260.got.cif
#   From: 2010.05.17/outbox.cif.g08.bks.cpg/sg18_1_cif.got.tgz:260.got - 2010.06.03 22:40:56.
