data_PCOD9313641
_publ_section_title
;
Structure prediction by ZEFSAII (Michael W. Deem and Ramdas Pophale) SiO2 
 PCOD9313641
Probable space group: P 21 21 21
;
_chemical_formula_sum "Si O2"
_cell_formula_units_Z 32
_cell_length_a 5.988750
_cell_length_b 27.893861
_cell_length_c 8.127828
_cell_angle_alpha 90.000000
_cell_angle_beta 90.000000
_cell_angle_gamma 90.000000
_cell_volume 1357.748466
_symmetry_space_group_name_H-M "P 21 21 21"
_symmetry_group_IT_number 19
_symmetry_cell_setting 'orthorhombic'
loop_
_space_group_symop_operation_xyz
x,y,z
1/2-x,-y,1/2+z
1/2+x,1/2-y,-z
-x,1/2+y,1/2-z
loop_
_atom_site_type_symbol
_atom_site_label
_atom_site_fract_x
_atom_site_fract_y
_atom_site_fract_z
Si Si1 0.287431 0.844850 0.184350
Si Si2 0.085933 0.975585 0.815903
Si Si3 0.209719 0.232607 0.440602
Si Si4 0.648591 0.401598 0.845149
Si Si5 0.462712 0.722570 0.613787
Si Si6 0.227233 0.527858 0.463361
Si Si7 0.908908 0.433698 0.169015
Si Si8 0.429372 0.322433 0.025344
O O1 0.151150 0.894093 0.195524
O O2 0.507749 0.846949 0.300121
O O3 0.160258 0.803676 0.289972
O O4 0.310351 0.822322 0.004114
O O5 0.272714 0.016979 0.809587
O O6 0.927023 0.984805 0.971781
O O7 0.207073 0.924365 0.800927
O O8 0.930177 0.984031 0.656395
O O9 0.471051 0.246789 0.481870
O O10 0.179369 0.252223 0.257781
O O11 0.433102 0.435475 0.869528
O O12 0.803282 0.410361 0.004452
O O13 0.550726 0.349116 0.875649
O O14 0.337339 0.679900 0.518440
O O15 0.522002 0.766071 0.495709
O O16 0.338265 0.553158 0.623173
#
# Coordination Sequence:
#
# PCOD9313641 Si02
#       8
#     4   4   4   4   4   4   4   4
#     4  10  20  37  58  85 119 160 205 253 302 377
#     4  10  20  37  59  88 117 157 203 255 306 373
#     4  10  21  38  60  84 123 165 205 256 315 366
#     4   9  20  35  58  85 120 157 202 250 302 375
#     4  11  21  35  59  89 119 158 204 257 310 364
#     4  10  19  37  60  86 117 158 201 253 313 360
#     4   9  19  35  60  86 117 157 212 246 298 368
#     4  11  20  36  58  87 120 156 204 252 308 369
#
# _framework density 23.568429999999999
#
# number of rings (size 3 to 8) (size 9 to 14) (size 15 to 20)
#    0.000    2.000    2.500    1.500    0.000    0.000 
#    0.000    6.250    0.000    0.000    3.250    0.000 
#    0.000    0.000    0.000    0.000    0.000    0.000 
#
# Total GULP energy -178291.387344 kJ/mol
# GULP energy per Si atom -5571.605854 kJ/mol
# Density = 2.351479 g / cm^3
# Si number density = 23.568430 Si / 1000 Ang^3
#
#
#
# Elastic Constant Matrix: (Units=GPa)
#
#
# Indices 1 2 3 4 5 6 
#
# 1 86.0038 18.9523 25.7223 0.0000 0.0000 0.0000
# 2 18.9523 60.3468 9.1075 0.0000 0.0000 0.0000
# 3 25.7223 9.1075 49.5042 0.0000 0.0000 0.0000
# 4 0.0000 0.0000 0.0000 30.8082 0.0000 0.0000
# 5 0.0000 0.0000 0.0000 0.0000 38.7533 0.0000
# 6 0.0000 0.0000 0.0000 0.0000 0.0000 29.7340
#
#
#
# Elastic Compliance Matrix: (Units=1/GPa)
#
#
# Indices 1 2 3 4 5 6 
#
# 1 0.014453 -0.003503 -0.006865 0.000000 0.000000 0.000000
# 2 -0.003503 0.017893 -0.001472 0.000000 0.000000 0.000000
# 3 -0.006865 -0.001472 0.024038 0.000000 0.000000 0.000000
# 4 0.000000 0.000000 0.000000 0.032459 0.000000 0.000000
# 5 0.000000 0.000000 0.000000 0.000000 0.025804 0.000000
# 6 0.000000 0.000000 0.000000 0.000000 0.000000 0.033632
#
#
# Mechanical properties :
#
#
# Convention : Reuss Voigt Hill
#
# Bulk Modulus (GPa) = 30.57698 33.71322 32.14510
# Shear Modulus (GPa) = 27.34342 29.33061 28.33701
#
# Velocity S-wave (km/s) = 3.40982 3.53156 3.47122
# Velocity P-wave (km/s) = 5.33895 5.56459 5.45294
#
# Compressibility (1/GPa) = 0.03270434
#
# Stress axis : x y z
#
# Youngs Moduli (GPa) = 69.19208 55.88744 41.60057
#
# Poissons Ratio (x) = 0.19576 0.28559
# Poissons Ratio (y) = 0.24237 0.06123
# Poissons Ratio (z) = 0.47501 0.08226
#
# Static dielectric constant tensor:
#      x y z
#    x 1.998150 0.000000 0.000000 
#    y 0.000000 1.930960 0.000000 
#    z 0.000000 0.000000 1.928240 
# 
# From -- ./inp_files/2310.got.cif
#   From: 2010.05.17/outbox.cif.g08.bks.cpg/sg19_2_cif.got.tgz:2310.got - 2010.06.03 22:46:19.
