data_PCOD9313010
_publ_section_title
;
Structure prediction by ZEFSAII (Michael W. Deem and Ramdas Pophale) SiO2 
 PCOD9313010
Probable space group: P 21 21 2
;
_chemical_formula_sum "Si O2"
_cell_formula_units_Z 18
_cell_length_a 11.161253
_cell_length_b 5.388635
_cell_length_c 12.218660
_cell_angle_alpha 90.000000
_cell_angle_beta 90.000000
_cell_angle_gamma 90.000000
_cell_volume 734.878092
_symmetry_space_group_name_H-M "P 21 21 2"
_symmetry_group_IT_number 18
_symmetry_cell_setting 'orthorhombic'
loop_
_space_group_symop_operation_xyz
x,y,z
-x,-y,z
1/2+x,1/2-y,-z
1/2-x,1/2+y,-z
loop_
_atom_site_type_symbol
_atom_site_label
_atom_site_fract_x
_atom_site_fract_y
_atom_site_fract_z
Si Si1 0.176800 0.264818 0.173425
Si Si2 0.776107 0.255481 0.437797
Si Si3 0.000000 0.000000 0.324371
Si Si4 0.868722 0.886542 0.932164
Si Si5 0.370216 0.939108 0.259167
O O1 0.247279 0.496081 0.119285
O O2 0.059418 0.213569 0.246845
O O3 0.277356 0.160998 0.255903
O O4 0.145834 0.116788 0.061756
O O5 0.780056 0.525456 0.492588
O O6 0.690130 0.271806 0.331859
O O7 0.902596 0.144512 0.397250
O O8 0.878085 0.628280 0.868688
O O9 0.000000 0.000000 0.905413
O O10 0.500000 0.000000 0.302418
#
# Coordination Sequence:
#
# PCOD9313010 Si02
#       5
#     4   4   2   4   4
#     4  11  23  43  67 109 148 196 243 300 380 453
#     4  11  29  52  78 107 145 198 259 326 391 446
#     4  10  26  50  74 110 152 194 260 320 388 468
#     4  12  23  40  72 103 156 197 243 301 373 464
#     4  11  25  43  69 103 142 191 247 303 376 454
#
# _framework density 24.493859
#
# number of rings (size 3 to 8) (size 9 to 14) (size 15 to 20)
#    0.000    0.889    5.556    0.000    9.333    0.000 
#    4.000    4.444    0.000    0.000    0.000    0.000 
#    0.000    0.000    0.000    0.000    0.000    0.000 
#
# Total GULP energy -100367.413439 kJ/mol
# GULP energy per Si atom -5575.967413 kJ/mol
# Density = 2.443811 g / cm^3
# Si number density = 24.493859 Si / 1000 Ang^3
#
#
#
# Elastic Constant Matrix: (Units=GPa)
#
#
# Indices 1 2 3 4 5 6 
#
# 1 135.2292 19.2041 24.8821 0.0000 0.0000 0.0000
# 2 19.2041 68.3365 20.8652 0.0000 0.0000 0.0000
# 3 24.8821 20.8652 92.4978 0.0000 0.0000 0.0000
# 4 0.0000 0.0000 0.0000 42.1938 0.0000 0.0000
# 5 0.0000 0.0000 0.0000 0.0000 -206.7996 0.0000
# 6 0.0000 0.0000 0.0000 0.0000 0.0000 17.4155
#
#
#
# Elastic Compliance Matrix: (Units=1/GPa)
#
#
# Indices 1 2 3 4 5 6 
#
# 1 0.007960 -0.001700 -0.001758 0.000000 0.000000 0.000000
# 2 -0.001700 0.016079 -0.003170 0.000000 0.000000 0.000000
# 3 -0.001758 -0.003170 0.011999 0.000000 0.000000 0.000000
# 4 0.000000 0.000000 0.000000 0.023700 0.000000 0.000000
# 5 0.000000 0.000000 0.000000 0.000000 -0.004836 0.000000
# 6 0.000000 0.000000 0.000000 0.000000 0.000000 0.057420
#
#
# Mechanical properties :
#
#
# Convention : Reuss Voigt Hill
#
# Bulk Modulus (GPa) = 43.89315 47.32958 45.61137
# Shear Modulus (GPa) = 37.54555 -14.03058 11.75749
#
# Velocity S-wave (km/s) = 3.91942 -2.39596 2.19331
# Velocity P-wave (km/s) = 6.20011 3.42211 5.00761
#
# Compressibility (1/GPa) = 0.02278260
#
# Stress axis : x y z
#
# Youngs Moduli (GPa) = 125.63281 62.19273 83.34113
#
# Poissons Ratio (x) = 0.10574 0.14649
# Poissons Ratio (y) = 0.21360 0.26416
# Poissons Ratio (z) = 0.22082 0.19713
#
# Static dielectric constant tensor:
#      x y z
#    x 2.038590 0.000000 0.000000 
#    y 0.000000 2.062280 0.000000 
#    z 0.000000 0.000000 1.969120 
# 
# From -- ./inp_files/4997.got.cif
#   From: 2010.05.17/outbox.cif.g08.bks.cpg/sg18_3_cif.got.tgz:4997.got - 2010.06.03 22:40:56.
