data_PCOD9313527
_publ_section_title
;
Structure prediction by ZEFSAII (Michael W. Deem and Ramdas Pophale) SiO2 
 PCOD9313527
Probable space group: P 21 21 21
;
_chemical_formula_sum "Si O2"
_cell_formula_units_Z 32
_cell_length_a 5.141110
_cell_length_b 14.549991
_cell_length_c 17.968763
_cell_angle_alpha 90.000000
_cell_angle_beta 90.000000
_cell_angle_gamma 90.000000
_cell_volume 1344.119252
_symmetry_space_group_name_H-M "P 21 21 21"
_symmetry_group_IT_number 19
_symmetry_cell_setting 'orthorhombic'
loop_
_space_group_symop_operation_xyz
x,y,z
1/2-x,-y,1/2+z
1/2+x,1/2-y,-z
-x,1/2+y,1/2-z
loop_
_atom_site_type_symbol
_atom_site_label
_atom_site_fract_x
_atom_site_fract_y
_atom_site_fract_z
Si Si1 0.174575 0.506431 0.389865
Si Si2 0.311789 0.078064 0.299754
Si Si3 0.343096 0.201483 0.904672
Si Si4 0.837513 0.572368 0.819735
Si Si5 0.336392 0.768414 0.094974
Si Si6 0.200210 0.666002 0.273394
Si Si7 0.664101 0.344325 0.560344
Si Si8 0.341910 0.371694 0.023874
O O1 0.382743 0.433390 0.360418
O O2 0.257198 0.593435 0.340182
O O3 0.188777 0.535814 0.475609
O O4 0.883902 0.481966 0.365474
O O5 0.568143 0.138997 0.283012
O O6 0.242158 0.071871 0.386774
O O7 0.072582 0.134374 0.262465
O O8 0.343498 0.980128 0.258753
O O9 0.318064 0.241127 0.821663
O O10 0.606586 0.147184 0.920526
O O11 0.104213 0.139633 0.930461
O O12 0.346906 0.288642 0.962472
O O13 0.767904 0.679221 0.829066
O O14 0.628023 0.732212 0.087713
O O15 0.126611 0.689781 0.077146
O O16 0.297314 0.842603 0.027747
#
# Coordination Sequence:
#
# PCOD9313527 Si02
#       8
#     4   4   4   4   4   4   4   4
#     4   9  17  28  45  73 104 138 180 223 269 325
#     4  10  19  33  55  81 109 143 181 228 287 345
#     4   9  15  23  37  58  90 132 179 225 266 310
#     4  10  19  33  55  82 112 142 179 231 288 341
#     4  10  21  38  61  88 115 145 187 240 288 332
#     4   9  17  28  45  72 103 137 180 224 269 324
#     4  10  21  38  61  87 113 146 189 237 287 335
#     4   9  15  23  37  59  90 133 179 224 266 312
#
# _framework density 23.807411999999999
#
# number of rings (size 3 to 8) (size 9 to 14) (size 15 to 20)
#    0.000    2.500    0.000    3.000    0.000    6.000 
#    0.000    0.000    0.000    9.000    0.000    0.000 
#    0.000    0.000    0.000    0.000    0.000    0.000 
#
# Total GULP energy -178688.447997 kJ/mol
# GULP energy per Si atom -5584.014000 kJ/mol
# Density = 2.375323 g / cm^3
# Si number density = 23.807412 Si / 1000 Ang^3
#
#
#
# Elastic Constant Matrix: (Units=GPa)
#
#
# Indices 1 2 3 4 5 6 
#
# 1 -7642.8886 2846.7562-1162.4584 0.0000 0.0000 0.0000
# 2 2846.7562-1018.1457 449.4069 0.0000 0.0000 0.0000
# 3 -1162.4584 449.4069 -84.9376 0.0000 0.0000 0.0000
# 4 0.0000 0.0000 0.0000 23.1213 0.0000 0.0000
# 5 0.0000 0.0000 0.0000 0.0000 24.8275 0.0000
# 6 0.0000 0.0000 0.0000 0.0000 0.0000 9.7286
#
#
#
# Elastic Compliance Matrix: (Units=1/GPa)
#
#
# Indices 1 2 3 4 5 6 
#
# 1 0.004190 0.010182 -0.003476 0.000000 0.000000 0.000000
# 2 0.010182 0.025476 -0.004555 0.000000 0.000000 0.000000
# 3 -0.003476 -0.004555 0.011699 0.000000 0.000000 0.000000
# 4 0.000000 0.000000 0.000000 0.043250 0.000000 0.000000
# 5 0.000000 0.000000 0.000000 0.000000 0.040278 0.000000
# 6 0.000000 0.000000 0.000000 0.000000 0.000000 0.102790
#
#
# Mechanical properties :
#
#
# Convention : Reuss Voigt Hill
#
# Bulk Modulus (GPa) = 21.89713 -497.61805 -237.86046
# Shear Modulus (GPa) = 20.95523 -713.77630 -346.41054
#
# Velocity S-wave (km/s) = 2.97003 -17.33388 -12.07565
# Velocity P-wave (km/s) = 4.58029 24.70000 17.16262
#
# Compressibility (1/GPa) = 0.04566809
#
# Stress axis : x y z
#
# Youngs Moduli (GPa) = 238.64770 39.25264 85.47428
#
# Poissons Ratio (x) = -0.39966 0.29710
# Poissons Ratio (y) = -2.42987 0.38931
# Poissons Ratio (z) = 0.82952 0.17878
#
# Static dielectric constant tensor:
#      x y z
#    x 1.869930 0.000000 0.000000 
#    y 0.000000 1.972010 0.000000 
#    z 0.000000 0.000000 1.932690 
# 
# From -- ./inp_files/1886.got.cif
#   From: 2010.05.17/outbox.cif.g08.bks.cpg/sg19_1_cif.got.tgz:1886.got - 2010.06.03 22:46:19.
