data_PCOD9313407
_publ_section_title
;
Structure prediction by ZEFSAII (Michael W. Deem and Ramdas Pophale) SiO2 
 PCOD9313407
Probable space group: P 21 21 21
;
_chemical_formula_sum "Si O2"
_cell_formula_units_Z 28
_cell_length_a 9.309996
_cell_length_b 8.901686
_cell_length_c 16.749384
_cell_angle_alpha 90.000000
_cell_angle_beta 90.000000
_cell_angle_gamma 90.000000
_cell_volume 1388.099522
_symmetry_space_group_name_H-M "P 21 21 21"
_symmetry_group_IT_number 19
_symmetry_cell_setting 'orthorhombic'
loop_
_space_group_symop_operation_xyz
x,y,z
1/2-x,-y,1/2+z
1/2+x,1/2-y,-z
-x,1/2+y,1/2-z
loop_
_atom_site_type_symbol
_atom_site_label
_atom_site_fract_x
_atom_site_fract_y
_atom_site_fract_z
Si Si1 0.509365 0.309705 0.409047
Si Si2 0.304684 0.228414 0.985869
Si Si3 0.746631 0.628332 0.178472
Si Si4 0.369754 0.101860 0.160441
Si Si5 0.919222 0.661398 0.643455
Si Si6 0.503119 0.975880 0.922924
Si Si7 0.321488 0.513306 0.076911
O O1 0.370167 0.230604 0.368815
O O2 0.588320 0.427642 0.350579
O O3 0.474187 0.399591 0.490149
O O4 0.620754 0.180043 0.434306
O O5 0.312664 0.156567 0.074205
O O6 0.324843 0.405804 0.998812
O O7 0.154357 0.200356 0.941470
O O8 0.425659 0.136144 0.937762
O O9 0.740121 0.658597 0.272388
O O10 0.691135 0.454862 0.180283
O O11 0.895758 0.622561 0.131230
O O12 0.522115 0.184917 0.179803
O O13 0.063081 0.564686 0.633945
O O14 0.661872 0.990940 0.888908
#
# Coordination Sequence:
#
# PCOD9313407 Si02
#       7
#     4   4   4   4   4   4   4
#     4  10  20  33  53  78 106 142 183 225 273 331
#     4   9  18  34  56  79 102 138 182 221 269 335
#     4  10  20  35  55  81 110 145 186 235 280 328
#     4  10  19  34  56  81 110 144 187 235 281 327
#     4   9  19  34  56  78 104 144 186 219 269 341
#     4  10  20  34  54  80 108 139 180 228 276 327
#     4  10  18  32  52  75 102 134 174 219 262 317
#
# _framework density 20.171465000000001
#
# number of rings (size 3 to 8) (size 9 to 14) (size 15 to 20)
#    0.000    2.286    0.000    4.286    0.000    1.143 
#    0.000    2.857    0.000   13.714    0.000    0.000 
#    0.000    0.000    0.000    0.000    0.000    0.000 
#
# Total GULP energy -155953.389602 kJ/mol
# GULP energy per Si atom -5569.763914 kJ/mol
# Density = 2.012555 g / cm^3
# Si number density = 20.171465 Si / 1000 Ang^3
#
#
#
# Elastic Constant Matrix: (Units=GPa)
#
#
# Indices 1 2 3 4 5 6 
#
# 1 95.8801 19.2413 -0.1653 0.0000 0.0000 0.0000
# 2 19.2413 105.3962 -4.3443 0.0000 0.0000 0.0000
# 3 -0.1653 -4.3443 23.8364 0.0000 0.0000 0.0000
# 4 0.0000 0.0000 0.0000 14.3312 0.0000 0.0000
# 5 0.0000 0.0000 0.0000 0.0000 13.9688 0.0000
# 6 0.0000 0.0000 0.0000 0.0000 0.0000 23.6058
#
#
#
# Elastic Compliance Matrix: (Units=1/GPa)
#
#
# Indices 1 2 3 4 5 6 
#
# 1 0.010828 -0.001989 -0.000287 0.000000 0.000000 0.000000
# 2 -0.001989 0.009925 0.001795 0.000000 0.000000 0.000000
# 3 -0.000287 0.001795 0.042278 0.000000 0.000000 0.000000
# 4 0.000000 0.000000 0.000000 0.069778 0.000000 0.000000
# 5 0.000000 0.000000 0.000000 0.000000 0.071588 0.000000
# 6 0.000000 0.000000 0.000000 0.000000 0.000000 0.042362
#
#
# Mechanical properties :
#
#
# Convention : Reuss Voigt Hill
#
# Bulk Modulus (GPa) = 16.11104 28.28625 22.19864
# Shear Modulus (GPa) = 18.62812 24.40655 21.51734
#
# Velocity S-wave (km/s) = 3.04219 3.48221 3.26961
# Velocity P-wave (km/s) = 4.51047 5.49737 5.02819
#
# Compressibility (1/GPa) = 0.06206924
#
# Stress axis : x y z
#
# Youngs Moduli (GPa) = 92.35069 100.75515 23.65309
#
# Poissons Ratio (x) = 0.20037 0.00680
# Poissons Ratio (y) = 0.18366 -0.04246
# Poissons Ratio (z) = 0.02654 -0.18086
#
# Static dielectric constant tensor:
#      x y z
#    x 1.723890 0.000000 0.000000 
#    y 0.000000 1.790460 0.000000 
#    z 0.000000 0.000000 1.795160 
# 
# From -- ./inp_files/2946.got.cif
#   From: 2010.05.17/outbox.cif.g08.bks.cpg/sg19_2_cif.got.tgz:2946.got - 2010.06.03 22:46:19.
