data_PCOD9313941
_publ_section_title
;
Structure prediction by ZEFSAII (Michael W. Deem and Ramdas Pophale) SiO2 
 PCOD9313941
Probable space group: P 21 21 21
;
_chemical_formula_sum "Si O2"
_cell_formula_units_Z 32
_cell_length_a 10.640712
_cell_length_b 7.831277
_cell_length_c 19.801397
_cell_angle_alpha 90.000000
_cell_angle_beta 90.000000
_cell_angle_gamma 90.000000
_cell_volume 1650.057603
_symmetry_space_group_name_H-M "P 21 21 21"
_symmetry_group_IT_number 19
_symmetry_cell_setting 'orthorhombic'
loop_
_space_group_symop_operation_xyz
x,y,z
1/2-x,-y,1/2+z
1/2+x,1/2-y,-z
-x,1/2+y,1/2-z
loop_
_atom_site_type_symbol
_atom_site_label
_atom_site_fract_x
_atom_site_fract_y
_atom_site_fract_z
Si Si1 0.476586 0.321779 0.133240
Si Si2 0.691597 0.770270 0.240028
Si Si3 0.861462 0.529639 0.910636
Si Si4 0.380857 0.541357 0.852482
Si Si5 0.046238 0.823278 0.885868
Si Si6 0.275674 0.185581 0.846687
Si Si7 0.841418 0.461895 0.296364
Si Si8 0.691930 0.355394 0.561339
O O1 0.404510 0.336141 0.204427
O O2 0.467843 0.507212 0.098646
O O3 0.625959 0.288793 0.141769
O O4 0.408600 0.164770 0.096337
O O5 0.765094 0.910541 0.197153
O O6 0.612232 0.656454 0.187271
O O7 0.797020 0.649887 0.272817
O O8 0.968380 0.652364 0.881370
O O9 0.740075 0.565580 0.864152
O O10 0.844934 0.584479 0.987616
O O11 0.350557 0.349168 0.874757
O O12 0.512548 0.548046 0.813639
O O13 0.378239 0.689248 0.909298
O O14 0.160380 0.807967 0.937797
O O15 0.305531 0.158619 0.767097
O O16 0.318701 0.015222 0.886921
#
# Coordination Sequence:
#
# PCOD9313941 Si02
#       8
#     4   4   4   4   4   4   4   4
#     4  10  21  38  64  96 121 154 214 272 305 373
#     4  10  20  38  62  96 126 156 208 265 317 372
#     4  11  25  40  65  93 125 167 217 259 324 380
#     4  11  23  39  65  88 133 172 204 252 330 382
#     4  10  21  40  65  88 122 161 207 262 315 371
#     4  11  22  41  68  91 126 168 210 265 326 361
#     4  11  22  41  62  98 129 163 211 272 308 381
#     4  10  24  45  59  92 128 169 211 263 315 392
#
# _framework density 19.393260999999999
#
# number of rings (size 3 to 8) (size 9 to 14) (size 15 to 20)
#    0.000    1.500    3.750    3.000    7.000    1.000 
#    2.250    0.000    0.000    0.000    0.000    0.000 
#    0.000    0.000    0.000    0.000    0.000    0.000 
#
# Total GULP energy -178568.935199 kJ/mol
# GULP energy per Si atom -5580.279225 kJ/mol
# Density = 1.934912 g / cm^3
# Si number density = 19.393261 Si / 1000 Ang^3
#
#
#
# Elastic Constant Matrix: (Units=GPa)
#
#
# Indices 1 2 3 4 5 6 
#
# 1 44.4620 5.9715 4.5375 0.0000 0.0000 0.0000
# 2 5.9715 74.1755 -2.7461 0.0000 0.0000 0.0000
# 3 4.5375 -2.7461 63.1249 0.0000 0.0000 0.0000
# 4 0.0000 0.0000 0.0000 11.2956 0.0000 0.0000
# 5 0.0000 0.0000 0.0000 0.0000 11.9694 0.0000
# 6 0.0000 0.0000 0.0000 0.0000 0.0000 18.6636
#
#
#
# Elastic Compliance Matrix: (Units=1/GPa)
#
#
# Indices 1 2 3 4 5 6 
#
# 1 0.022924 -0.001910 -0.001731 0.000000 0.000000 0.000000
# 2 -0.001910 0.013662 0.000732 0.000000 0.000000 0.000000
# 3 -0.001731 0.000732 0.015998 0.000000 0.000000 0.000000
# 4 0.000000 0.000000 0.000000 0.088530 0.000000 0.000000
# 5 0.000000 0.000000 0.000000 0.000000 0.083546 0.000000
# 6 0.000000 0.000000 0.000000 0.000000 0.000000 0.053580
#
#
# Mechanical properties :
#
#
# Convention : Reuss Voigt Hill
#
# Bulk Modulus (GPa) = 21.38273 21.92090 21.65182
# Shear Modulus (GPa) = 16.68625 19.98568 18.33597
#
# Velocity S-wave (km/s) = 2.93647 3.21370 3.07820
# Velocity P-wave (km/s) = 4.74836 5.00983 4.88084
#
# Compressibility (1/GPa) = 0.04676671
#
# Stress axis : x y z
#
# Youngs Moduli (GPa) = 43.62200 73.19381 62.50837
#
# Poissons Ratio (x) = 0.13977 0.10819
# Poissons Ratio (y) = 0.08330 -0.04573
# Poissons Ratio (z) = 0.07550 -0.05355
#
# Static dielectric constant tensor:
#      x y z
#    x 1.671990 0.000000 0.000000 
#    y 0.000000 1.708970 0.000000 
#    z 0.000000 0.000000 1.711530 
# 
# From -- ./inp_files/7074.got.cif
#   From: 2010.05.17/outbox.cif.g08.bks.cpg/sg19_4_cif.got.tgz:7074.got - 2010.06.03 22:46:19.
