data_PCOD9313963
_publ_section_title
;
Structure prediction by ZEFSAII (Michael W. Deem and Ramdas Pophale) SiO2 
 PCOD9313963
Probable space group: P 21 21 21
;
_chemical_formula_sum "Si O2"
_cell_formula_units_Z 32
_cell_length_a 6.891018
_cell_length_b 10.054994
_cell_length_c 17.444655
_cell_angle_alpha 90.000000
_cell_angle_beta 90.000000
_cell_angle_gamma 90.000000
_cell_volume 1208.725224
_symmetry_space_group_name_H-M "P 21 21 21"
_symmetry_group_IT_number 19
_symmetry_cell_setting 'orthorhombic'
loop_
_space_group_symop_operation_xyz
x,y,z
1/2-x,-y,1/2+z
1/2+x,1/2-y,-z
-x,1/2+y,1/2-z
loop_
_atom_site_type_symbol
_atom_site_label
_atom_site_fract_x
_atom_site_fract_y
_atom_site_fract_z
Si Si1 0.851501 0.943136 0.561841
Si Si2 0.777421 0.977825 0.739645
Si Si3 0.799494 0.747448 0.185958
Si Si4 0.775198 0.528803 0.750347
Si Si5 0.472378 0.828049 0.496237
Si Si6 0.397560 0.131374 0.896237
Si Si7 0.943903 0.138532 0.446658
Si Si8 0.843519 0.744947 0.853380
O O1 0.662584 0.917779 0.506818
O O2 0.983217 0.810791 0.552262
O O3 0.789949 0.944186 0.649513
O O4 0.952477 0.078399 0.532600
O O5 0.661372 0.117851 0.734192
O O6 0.995501 0.016176 0.764563
O O7 0.742689 0.851148 0.793794
O O8 0.819395 0.614770 0.237769
O O9 0.570876 0.748578 0.163658
O O10 0.912493 0.730027 0.104872
O O11 0.701409 0.627303 0.684936
O O12 0.761934 0.599991 0.831694
O O13 0.283997 0.890093 0.456658
O O14 0.476165 0.758696 0.580311
O O15 0.529934 0.002887 0.903763
O O16 0.734996 0.205306 0.434338
#
# Coordination Sequence:
#
# PCOD9313963 Si02
#       8
#     4   4   4   4   4   4   4   4
#     4  10  21  38  62  96 133 178 227 279 341 417
#     4  10  21  40  64  96 128 175 225 278 344 410
#     4   9  21  40  59  91 128 166 214 268 337 400
#     4   9  19  38  65  87 129 171 221 274 336 409
#     4   9  18  34  63  93 132 170 219 276 338 392
#     4   9  18  35  61  95 126 167 216 275 332 407
#     4  10  22  37  60  90 129 169 223 267 339 404
#     4  10  20  38  68  88 121 172 219 277 337 393
#
# _framework density 26.474171999999999
#
# number of rings (size 3 to 8) (size 9 to 14) (size 15 to 20)
#    0.000    2.500    0.000    1.500    5.250    2.000 
#    4.500    0.000   52.250    0.000    0.000    0.000 
#    0.000    0.000    0.000    0.000    0.000    0.000 
#
# Total GULP energy -178484.996713 kJ/mol
# GULP energy per Si atom -5577.656147 kJ/mol
# Density = 2.641392 g / cm^3
# Si number density = 26.474172 Si / 1000 Ang^3
#
#
#
# Elastic Constant Matrix: (Units=GPa)
#
#
# Indices 1 2 3 4 5 6 
#
# 1 116.2736 5.6747 17.0250 0.0000 0.0000 0.0000
# 2 5.6747 106.2837 29.5615 0.0000 0.0000 0.0000
# 3 17.0250 29.5615 90.5059 0.0000 0.0000 0.0000
# 4 0.0000 0.0000 0.0000 53.8335 0.0000 0.0000
# 5 0.0000 0.0000 0.0000 0.0000 37.5732 0.0000
# 6 0.0000 0.0000 0.0000 0.0000 0.0000 -12.5989
#
#
#
# Elastic Compliance Matrix: (Units=1/GPa)
#
#
# Indices 1 2 3 4 5 6 
#
# 1 0.008844 -0.000010 -0.001660 0.000000 0.000000 0.000000
# 2 -0.000010 0.010349 -0.003378 0.000000 0.000000 0.000000
# 3 -0.001660 -0.003378 0.012465 0.000000 0.000000 0.000000
# 4 0.000000 0.000000 0.000000 0.018576 0.000000 0.000000
# 5 0.000000 0.000000 0.000000 0.000000 0.026615 0.000000
# 6 0.000000 0.000000 0.000000 0.000000 0.000000 -0.079372
#
#
# Mechanical properties :
#
#
# Convention : Reuss Voigt Hill
#
# Bulk Modulus (GPa) = 46.38251 46.39839 46.39045
# Shear Modulus (GPa) = 338.73978 33.14836 185.94407
#
# Velocity S-wave (km/s) = 11.32382 3.54234 8.38979
# Velocity P-wave (km/s) = 13.73061 5.85618 10.55520
#
# Compressibility (1/GPa) = 0.02155985
#
# Stress axis : x y z
#
# Youngs Moduli (GPa) = 113.07095 96.62804 80.22635
#
# Poissons Ratio (x) = 0.00101 0.13319
# Poissons Ratio (y) = 0.00118 0.27103
# Poissons Ratio (z) = 0.18772 0.32644
#
# Static dielectric constant tensor:
#      x y z
#    x 2.146490 0.000000 0.000000 
#    y 0.000000 2.104160 0.000000 
#    z 0.000000 0.000000 2.149650 
# 
# From -- ./inp_files/6674.got.cif
#   From: 2010.05.17/outbox.cif.g08.bks.cpg/sg19_4_cif.got.tgz:6674.got - 2010.06.03 22:46:19.
