data_PCOD9313133
_publ_section_title
;
Structure prediction by ZEFSAII (Michael W. Deem and Ramdas Pophale) SiO2 
 PCOD9313133
Probable space group: P 21 21 2
;
_chemical_formula_sum "Si O2"
_cell_formula_units_Z 24
_cell_length_a 8.430509
_cell_length_b 4.976456
_cell_length_c 26.548027
_cell_angle_alpha 90.000000
_cell_angle_beta 90.000000
_cell_angle_gamma 90.000000
_cell_volume 1113.797441
_symmetry_space_group_name_H-M "P 21 21 2"
_symmetry_group_IT_number 18
_symmetry_cell_setting 'orthorhombic'
loop_
_space_group_symop_operation_xyz
x,y,z
-x,-y,z
1/2+x,1/2-y,-z
1/2-x,1/2+y,-z
loop_
_atom_site_type_symbol
_atom_site_label
_atom_site_fract_x
_atom_site_fract_y
_atom_site_fract_z
Si Si1 0.315897 0.080392 0.860354
Si Si2 0.682843 0.918042 0.638442
Si Si3 0.183069 0.580566 0.808338
Si Si4 0.188164 0.957218 0.527720
Si Si5 0.185828 0.442255 0.025597
Si Si6 0.816580 0.419058 0.691081
O O1 0.286183 0.383861 0.843275
O O2 0.500000 0.000000 0.855580
O O3 0.215127 0.884763 0.824625
O O4 0.266928 0.024168 0.917886
O O5 0.712861 0.616132 0.656603
O O6 0.500000 0.000000 0.642419
O O7 0.742262 0.963996 0.581802
O O8 0.784102 0.115742 0.674170
O O9 0.224472 0.544306 0.749716
O O10 0.000000 0.500000 0.815049
O O11 0.232709 0.653974 0.513330
O O12 0.000000 0.000000 0.527313
O O13 0.000000 0.500000 0.020143
O O14 0.222466 0.134383 0.013225
O O15 0.000000 0.500000 0.684051
#
# Coordination Sequence:
#
# PCOD9313133 Si02
#       6
#     4   4   4   4   4   4
#     4  11  24  41  62  90 125 160 201 252 309 364
#     4  12  25  42  65  95 126 163 209 254 305 367
#     4  11  24  41  64  92 123 161 207 252 303 365
#     4  12  25  44  67  94 128 166 207 256 309 364
#     4  11  24  41  62  90 122 160 203 252 305 364
#     4  11  24  43  64  91 126 164 205 254 307 362
#
# _framework density 21.547903000000002
#
# number of rings (size 3 to 8) (size 9 to 14) (size 15 to 20)
#    0.000    0.667    0.000    8.000    0.000   13.333 
#    0.000    0.000    0.000    0.000    0.000    0.000 
#    0.000    0.000    0.000    0.000    0.000    0.000 
#
# Total GULP energy -134486.873145 kJ/mol
# GULP energy per Si atom -5603.619714 kJ/mol
# Density = 2.149886 g / cm^3
# Si number density = 21.547903 Si / 1000 Ang^3
#
#
#
# Elastic Constant Matrix: (Units=GPa)
#
#
# Indices 1 2 3 4 5 6 
#
# 1 59.0748 -13.0951 17.8239 0.0000 0.0000 0.0000
# 2 -13.0951 55.5342 -18.0370 0.0000 0.0000 0.0000
# 3 17.8239 -18.0370 83.7739 0.0000 0.0000 0.0000
# 4 0.0000 0.0000 0.0000 30.6661 0.0000 0.0000
# 5 0.0000 0.0000 0.0000 0.0000 -892.6334 0.0000
# 6 0.0000 0.0000 0.0000 0.0000 0.0000 40.7134
#
#
#
# Elastic Compliance Matrix: (Units=1/GPa)
#
#
# Indices 1 2 3 4 5 6 
#
# 1 0.018649 0.003342 -0.003248 0.000000 0.000000 0.000000
# 2 0.003342 0.019960 0.003586 0.000000 0.000000 0.000000
# 3 -0.003248 0.003586 0.013400 0.000000 0.000000 0.000000
# 4 0.000000 0.000000 0.000000 0.032609 0.000000 0.000000
# 5 0.000000 0.000000 0.000000 0.000000 -0.001120 0.000000
# 6 0.000000 0.000000 0.000000 0.000000 0.000000 0.024562
#
#
# Mechanical properties :
#
#
# Convention : Reuss Voigt Hill
#
# Bulk Modulus (GPa) = 16.84353 19.08518 17.96435
# Shear Modulus (GPa) = 41.49786 -150.13805 -54.32010
#
# Velocity S-wave (km/s) = 4.39320 -8.35630 -5.02630
# Velocity P-wave (km/s) = 5.79374 9.17754 5.03288
#
# Compressibility (1/GPa) = 0.05936999
#
# Stress axis : x y z
#
# Youngs Moduli (GPa) = 53.62327 50.10052 74.62621
#
# Poissons Ratio (x) = -0.16746 0.24239
# Poissons Ratio (y) = -0.17923 -0.26763
# Poissons Ratio (z) = 0.17417 -0.17968
#
# Static dielectric constant tensor:
#      x y z
#    x 1.749930 0.000000 0.000000 
#    y 0.000000 1.734140 0.000000 
#    z 0.000000 0.000000 1.747460 
# 
# From -- ./inp_files/7631.got.cif
#   From: 2010.05.17/outbox.cif.g08.bks.cpg/sg18_4_cif.got.tgz:7631.got - 2010.06.03 22:40:56.
