data_PCOD9313214
_publ_section_title
;
Structure prediction by ZEFSAII (Michael W. Deem and Ramdas Pophale) SiO2 
 PCOD9313214
Probable space group: P 21 21 2
;
_chemical_formula_sum "Si O2"
_cell_formula_units_Z 22
_cell_length_a 23.379872
_cell_length_b 8.816386
_cell_length_c 4.804743
_cell_angle_alpha 90.000000
_cell_angle_beta 90.000000
_cell_angle_gamma 90.000000
_cell_volume 990.382341
_symmetry_space_group_name_H-M "P 21 21 2"
_symmetry_group_IT_number 18
_symmetry_cell_setting 'orthorhombic'
loop_
_space_group_symop_operation_xyz
x,y,z
-x,-y,z
1/2+x,1/2-y,-z
1/2-x,1/2+y,-z
loop_
_atom_site_type_symbol
_atom_site_label
_atom_site_fract_x
_atom_site_fract_y
_atom_site_fract_z
Si Si1 0.830256 0.252072 0.020143
Si Si2 0.500000 0.000000 0.750000
Si Si3 0.330256 0.752073 0.520140
Si Si4 0.398699 0.849706 0.066040
Si Si5 0.246354 0.000001 0.249999
Si Si6 0.398700 0.150294 0.433958
O O1 0.794839 0.099681 0.058376
O O2 0.857031 0.313611 0.308553
O O3 0.714833 0.123208 0.408557
O O4 0.882196 0.228419 0.801080
O O5 0.459819 0.109862 0.566234
O O6 0.540181 0.109863 0.933766
O O7 0.382196 0.728418 0.301077
O O8 0.357031 0.813612 0.808550
O O9 0.294839 0.599682 0.558377
O O10 0.285167 0.123209 0.091440
O O11 0.387430 1.000000 0.250000
#
# Coordination Sequence:
#
# PCOD9313214 Si02
#       6
#     4   2   4   4   4   4
#     4  12  27  44  69 108 151 191 249 284 359 442
#     4  12  22  44  78 110 134 192 242 326 366 410
#     4  12  27  44  69 108 151 191 249 284 359 442
#     4  12  24  41  70 111 135 180 247 313 343 429
#     4  12  28  46  72 104 156 210 224 298 356 430
#     4  12  24  41  70 111 135 180 247 313 343 429
#
# _framework density 22.213640999999999
#
# number of rings (size 3 to 8) (size 9 to 14) (size 15 to 20)
#    0.000    0.000    5.455    2.727    5.091    7.273 
#    0.000    0.000    0.000    1.091    9.455    0.000 
#    0.000    0.000    0.000    0.000    0.000    0.000 
#
# Total GULP energy -122870.018268 kJ/mol
# GULP energy per Si atom -5585.000830 kJ/mol
# Density = 2.216308 g / cm^3
# Si number density = 22.213641 Si / 1000 Ang^3
#
#
#
# Elastic Constant Matrix: (Units=GPa)
#
#
# Indices 1 2 3 4 5 6 
#
# 1 127.6058 48.3967 52.8666 0.0000 0.0000 0.0000
# 2 48.3967 89.2797 26.6355 0.0000 0.0000 0.0000
# 3 52.8666 26.6355 149.0172 0.0000 0.0000 0.0000
# 4 0.0000 0.0000 0.0000 37.7446 0.0000 0.0000
# 5 0.0000 0.0000 0.0000 0.0000 54.2581 0.0000
# 6 0.0000 0.0000 0.0000 0.0000 0.0000 16.8634
#
#
#
# Elastic Compliance Matrix: (Units=1/GPa)
#
#
# Indices 1 2 3 4 5 6 
#
# 1 0.011001 -0.005069 -0.002997 0.000000 0.000000 0.000000
# 2 -0.005069 0.014168 -0.000734 0.000000 0.000000 0.000000
# 3 -0.002997 -0.000734 0.007905 0.000000 0.000000 0.000000
# 4 0.000000 0.000000 0.000000 0.026494 0.000000 0.000000
# 5 0.000000 0.000000 0.000000 0.000000 0.018430 0.000000
# 6 0.000000 0.000000 0.000000 0.000000 0.000000 0.059300
#
#
# Mechanical properties :
#
#
# Convention : Reuss Voigt Hill
#
# Bulk Modulus (GPa) = 64.62590 69.07782 66.85186
# Shear Modulus (GPa) = 31.23920 37.64012 34.43966
#
# Velocity S-wave (km/s) = 3.75414 4.12085 3.94176
# Velocity P-wave (km/s) = 6.92441 7.33528 7.13281
#
# Compressibility (1/GPa) = 0.01547367
#
# Stress axis : x y z
#
# Youngs Moduli (GPa) = 90.90305 70.58333 126.50336
#
# Poissons Ratio (x) = 0.35781 0.37908
# Poissons Ratio (y) = 0.46081 0.09284
# Poissons Ratio (z) = 0.27240 0.05180
#
# Static dielectric constant tensor:
#      x y z
#    x 1.862450 0.000000 0.000000 
#    y 0.000000 1.866630 0.000000 
#    z 0.000000 0.000000 1.906300 
# 
# From -- ./inp_files/1825.got.cif
#   From: 2010.05.17/outbox.cif.g08.bks.cpg/sg18_1_cif.got.tgz:1825.got - 2010.06.03 22:40:56.
