data_PCOD9313875
_publ_section_title
;
Structure prediction by ZEFSAII (Michael W. Deem and Ramdas Pophale) SiO2 
 PCOD9313875
Probable space group: P 21 21 21
;
_chemical_formula_sum "Si O2"
_cell_formula_units_Z 32
_cell_length_a 7.130793
_cell_length_b 16.622899
_cell_length_c 10.073413
_cell_angle_alpha 90.000000
_cell_angle_beta 90.000000
_cell_angle_gamma 90.000000
_cell_volume 1194.046488
_symmetry_space_group_name_H-M "P 21 21 21"
_symmetry_group_IT_number 19
_symmetry_cell_setting 'orthorhombic'
loop_
_space_group_symop_operation_xyz
x,y,z
1/2-x,-y,1/2+z
1/2+x,1/2-y,-z
-x,1/2+y,1/2-z
loop_
_atom_site_type_symbol
_atom_site_label
_atom_site_fract_x
_atom_site_fract_y
_atom_site_fract_z
Si Si1 0.993961 0.210761 0.362307
Si Si2 0.026182 0.963483 0.426945
Si Si3 0.029058 0.991926 0.933520
Si Si4 0.969063 0.146914 0.098837
Si Si5 0.903832 0.302379 0.930482
Si Si6 0.037195 0.561056 0.831633
Si Si7 0.894794 0.231727 0.666861
Si Si8 0.595708 0.608936 0.836831
O O1 0.920496 0.146693 0.255569
O O2 0.961450 0.212604 0.518739
O O3 0.926709 0.297518 0.309062
O O4 0.216890 0.212487 0.353781
O O5 0.246931 0.988984 0.431737
O O6 0.999361 0.876850 0.496932
O O7 0.997750 0.948127 0.271826
O O8 0.924364 0.027308 0.521858
O O9 0.941769 0.065578 0.017319
O O10 0.012273 0.911520 0.019038
O O11 0.955044 0.994720 0.784129
O O12 0.193144 0.165359 0.093441
O O13 0.886608 0.223814 0.022290
O O14 0.995902 0.273628 0.791278
O O15 0.817437 0.589116 0.831533
O O16 0.148337 0.640432 0.787561
#
# Coordination Sequence:
#
# PCOD9313875 Si02
#       8
#     4   4   4   4   4   4   4   4
#     4  11  24  39  59  86 120 155 197 245 294 346
#     4   9  19  34  58  86 112 149 192 236 287 349
#     4   9  19  34  58  86 112 149 192 236 287 349
#     4  10  20  37  60  85 112 148 194 240 291 346
#     4  10  20  37  60  85 112 148 194 240 291 346
#     4  10  20  37  60  84 115 151 195 239 286 346
#     4  11  24  39  59  86 120 155 197 245 294 346
#     4  10  20  37  60  84 115 151 195 239 286 346
#
# _framework density 26.799624999999999
#
# number of rings (size 3 to 8) (size 9 to 14) (size 15 to 20)
#    0.000    2.000    2.500    0.750    3.500    1.000 
#    0.000    2.500    0.000    0.000    0.000    0.000 
#    0.000    0.000    0.000    0.000    0.000    0.000 
#
# Total GULP energy -179034.810839 kJ/mol
# GULP energy per Si atom -5594.837839 kJ/mol
# Density = 2.673863 g / cm^3
# Si number density = 26.799625 Si / 1000 Ang^3
#
#
#
# Elastic Constant Matrix: (Units=GPa)
#
#
# Indices 1 2 3 4 5 6 
#
# 1 61.3346 -2.8957 8.5413 0.0000 0.0000 0.0000
# 2 -2.8957 57.4798 -1.4097 0.0000 0.0000 0.0000
# 3 8.5413 -1.4097 149.1136 0.0000 0.0000 0.0000
# 4 0.0000 0.0000 0.0000 47.0379 0.0000 0.0000
# 5 0.0000 0.0000 0.0000 0.0000 14.2360 0.0000
# 6 0.0000 0.0000 0.0000 0.0000 0.0000 29.1254
#
#
#
# Elastic Compliance Matrix: (Units=1/GPa)
#
#
# Indices 1 2 3 4 5 6 
#
# 1 0.016472 0.000807 -0.000936 0.000000 0.000000 0.000000
# 2 0.000807 0.017441 0.000119 0.000000 0.000000 0.000000
# 3 -0.000936 0.000119 0.006761 0.000000 0.000000 0.000000
# 4 0.000000 0.000000 0.000000 0.021259 0.000000 0.000000
# 5 0.000000 0.000000 0.000000 0.000000 0.070245 0.000000
# 6 0.000000 0.000000 0.000000 0.000000 0.000000 0.034334
#
#
# Mechanical properties :
#
#
# Convention : Reuss Voigt Hill
#
# Bulk Modulus (GPa) = 24.59799 30.71110 27.65454
# Shear Modulus (GPa) = 27.76471 35.65933 31.71202
#
# Velocity S-wave (km/s) = 3.22220 3.65168 3.44365
# Velocity P-wave (km/s) = 4.80020 5.40963 5.11400
#
# Compressibility (1/GPa) = 0.04065372
#
# Stress axis : x y z
#
# Youngs Moduli (GPa) = 60.70744 57.33626 147.90653
#
# Poissons Ratio (x) = -0.04626 0.13843
# Poissons Ratio (y) = -0.04899 -0.01755
# Poissons Ratio (z) = 0.05682 -0.00680
#
# Static dielectric constant tensor:
#      x y z
#    x 2.170850 0.000000 0.000000 
#    y 0.000000 2.066180 0.000000 
#    z 0.000000 0.000000 2.120530 
# 
# From -- ./inp_files/3165.got.cif
#   From: 2010.05.17/outbox.cif.g08.bks.cpg/sg19_2_cif.got.tgz:3165.got - 2010.06.03 22:46:19.
