data_PCOD9313713
_publ_section_title
;
Structure prediction by ZEFSAII (Michael W. Deem and Ramdas Pophale) SiO2 
 PCOD9313713
Probable space group: P 21 21 21
;
_chemical_formula_sum "Si O2"
_cell_formula_units_Z 32
_cell_length_a 5.609723
_cell_length_b 14.381442
_cell_length_c 14.884718
_cell_angle_alpha 90.000000
_cell_angle_beta 90.000000
_cell_angle_gamma 90.000000
_cell_volume 1200.838110
_symmetry_space_group_name_H-M "P 21 21 21"
_symmetry_group_IT_number 19
_symmetry_cell_setting 'orthorhombic'
loop_
_space_group_symop_operation_xyz
x,y,z
1/2-x,-y,1/2+z
1/2+x,1/2-y,-z
-x,1/2+y,1/2-z
loop_
_atom_site_type_symbol
_atom_site_label
_atom_site_fract_x
_atom_site_fract_y
_atom_site_fract_z
Si Si1 0.730177 0.760635 0.315641
Si Si2 0.310759 0.133256 0.039543
Si Si3 0.086374 0.479813 0.479918
Si Si4 0.424302 0.703841 0.909424
Si Si5 0.578746 0.342495 0.311125
Si Si6 0.124254 0.462203 0.811907
Si Si7 0.498393 0.879608 0.817990
Si Si8 0.460242 0.569007 0.622028
O O1 0.763557 0.730265 0.418282
O O2 0.466960 0.781405 0.277924
O O3 0.843674 0.863746 0.305318
O O4 0.860811 0.681547 0.256657
O O5 0.496638 0.105875 0.117848
O O6 0.140559 0.044794 0.028792
O O7 0.390621 0.138328 0.938458
O O8 0.055819 0.369033 0.491711
O O9 0.183172 0.491147 0.378143
O O10 0.264657 0.523230 0.553770
O O11 0.151001 0.690214 0.872424
O O12 0.471731 0.814913 0.906472
O O13 0.663905 0.675524 0.853140
O O14 0.548564 0.451721 0.291650
O O15 0.250126 0.411027 0.728301
O O16 0.397434 0.980813 0.841535
#
# Coordination Sequence:
#
# PCOD9313713 Si02
#       8
#     4   4   4   4   4   4   4   4
#     4  11  24  43  76 107 148 200 266 325 402 472
#     4  11  23  42  71  99 144 199 243 308 399 473
#     4  10  22  45  65  99 143 197 239 308 391 468
#     4  10  22  42  75 102 145 196 253 309 386 460
#     4  10  20  41  69 110 141 190 251 320 372 452
#     4  10  19  40  71  95 145 186 250 310 387 437
#     4  11  23  46  72 109 144 198 266 332 385 465
#     4  11  27  47  67 111 152 192 260 332 396 483
#
# _framework density 26.648056
#
# number of rings (size 3 to 8) (size 9 to 14) (size 15 to 20)
#    0.000    1.500    3.750    0.750    1.750    0.000 
#   13.500    0.000    0.000    0.000    0.000    0.000 
#    0.000    0.000    0.000    0.000    0.000    0.000 
#
# Total GULP energy -178534.838529 kJ/mol
# GULP energy per Si atom -5579.213704 kJ/mol
# Density = 2.658740 g / cm^3
# Si number density = 26.648056 Si / 1000 Ang^3
#
#
#
# Elastic Constant Matrix: (Units=GPa)
#
#
# Indices 1 2 3 4 5 6 
#
# 1 81.6865 19.9683 33.9490 0.0000 0.0000 0.0000
# 2 19.9683 111.7230 21.1506 0.0000 0.0000 0.0000
# 3 33.9490 21.1506 57.3842 0.0000 0.0000 0.0000
# 4 0.0000 0.0000 0.0000 18.2577 0.0000 0.0000
# 5 0.0000 0.0000 0.0000 0.0000 49.8970 0.0000
# 6 0.0000 0.0000 0.0000 0.0000 0.0000 39.8145
#
#
#
# Elastic Compliance Matrix: (Units=1/GPa)
#
#
# Indices 1 2 3 4 5 6 
#
# 1 0.016375 -0.001175 -0.009255 0.000000 0.000000 0.000000
# 2 -0.001175 0.009706 -0.002883 0.000000 0.000000 0.000000
# 3 -0.009255 -0.002883 0.023964 0.000000 0.000000 0.000000
# 4 0.000000 0.000000 0.000000 0.054771 0.000000 0.000000
# 5 0.000000 0.000000 0.000000 0.000000 0.020041 0.000000
# 6 0.000000 0.000000 0.000000 0.000000 0.000000 0.025116
#
#
# Mechanical properties :
#
#
# Convention : Reuss Voigt Hill
#
# Bulk Modulus (GPa) = 42.69569 44.54772 43.62170
# Shear Modulus (GPa) = 27.11400 33.30889 30.21144
#
# Velocity S-wave (km/s) = 3.19326 3.53931 3.37073
# Velocity P-wave (km/s) = 5.44544 5.78408 5.61731
#
# Compressibility (1/GPa) = 0.02342157
#
# Stress axis : x y z
#
# Youngs Moduli (GPa) = 61.06722 103.02503 41.72913
#
# Poissons Ratio (x) = 0.12103 0.38620
# Poissons Ratio (y) = 0.07174 0.12029
# Poissons Ratio (z) = 0.56517 0.29698
#
# Static dielectric constant tensor:
#      x y z
#    x 2.134960 0.000000 0.000000 
#    y 0.000000 2.218010 0.000000 
#    z 0.000000 0.000000 2.154020 
# 
# From -- ./inp_files/6478.got.cif
#   From: 2010.05.17/outbox.cif.g08.bks.cpg/sg19_4_cif.got.tgz:6478.got - 2010.06.03 22:46:19.
