data_PCOD9313912
_publ_section_title
;
Structure prediction by ZEFSAII (Michael W. Deem and Ramdas Pophale) SiO2 
 PCOD9313912
Probable space group: P 21 21 21
;
_chemical_formula_sum "Si O2"
_cell_formula_units_Z 28
_cell_length_a 9.488833
_cell_length_b 5.356892
_cell_length_c 23.793102
_cell_angle_alpha 90.000000
_cell_angle_beta 90.000000
_cell_angle_gamma 90.000000
_cell_volume 1209.418926
_symmetry_space_group_name_H-M "P 21 21 21"
_symmetry_group_IT_number 19
_symmetry_cell_setting 'orthorhombic'
loop_
_space_group_symop_operation_xyz
x,y,z
1/2-x,-y,1/2+z
1/2+x,1/2-y,-z
-x,1/2+y,1/2-z
loop_
_atom_site_type_symbol
_atom_site_label
_atom_site_fract_x
_atom_site_fract_y
_atom_site_fract_z
Si Si1 0.379471 0.756142 0.480794
Si Si2 0.026643 0.102230 0.781887
Si Si3 0.211410 0.375522 0.419936
Si Si4 0.977956 0.779317 0.176640
Si Si5 0.503463 0.633204 0.105977
Si Si6 0.157320 0.777651 0.274785
Si Si7 0.651296 0.451721 0.472303
O O1 0.266138 0.650955 0.435239
O O2 0.500819 0.558567 0.494021
O O3 0.468233 0.967617 0.449126
O O4 0.279534 0.852836 0.530044
O O5 0.959652 0.029826 0.841290
O O6 0.182795 0.200132 0.791472
O O7 0.042048 0.838618 0.749022
O O8 0.065614 0.334282 0.387424
O O9 0.342671 0.259545 0.384740
O O10 0.202078 0.241273 0.480226
O O11 0.894594 0.005293 0.207029
O O12 0.128589 0.800623 0.207660
O O13 0.921873 0.504649 0.193526
O O14 0.388396 0.833075 0.087126
#
# Coordination Sequence:
#
# PCOD9313912 Si02
#       7
#     4   4   4   4   4   4   4
#     4  10  21  40  68  93 135 172 223 273 334 406
#     4  12  26  42  68  96 132 179 228 270 330 410
#     4  10  20  37  67  99 121 175 217 271 334 403
#     4  10  20  37  70  91 130 160 222 278 324 387
#     4  10  22  41  67  90 132 176 223 270 334 402
#     4  10  21  40  62  98 123 171 217 275 328 382
#     4  10  22  39  66 101 127 177 222 277 336 412
#
# _framework density 23.151615
#
# number of rings (size 3 to 8) (size 9 to 14) (size 15 to 20)
#    0.000    1.714    1.429    2.571    6.000    0.000 
#    0.000    7.143    6.286    0.000    0.000    0.000 
#    0.000    0.000    0.000    0.000    0.000    0.000 
#
# Total GULP energy -156221.684177 kJ/mol
# GULP energy per Si atom -5579.345863 kJ/mol
# Density = 2.309892 g / cm^3
# Si number density = 23.151615 Si / 1000 Ang^3
#
#
#
# Elastic Constant Matrix: (Units=GPa)
#
#
# Indices 1 2 3 4 5 6 
#
# 1 19.9989 9.8601 14.7463 0.0000 0.0000 0.0000
# 2 9.8601 67.4288 12.9266 0.0000 0.0000 0.0000
# 3 14.7463 12.9266 27.6224 0.0000 0.0000 0.0000
# 4 0.0000 0.0000 0.0000 29.4473 0.0000 0.0000
# 5 0.0000 0.0000 0.0000 0.0000 27.3923 0.0000
# 6 0.0000 0.0000 0.0000 0.0000 0.0000 41.2701
#
#
#
# Elastic Compliance Matrix: (Units=1/GPa)
#
#
# Indices 1 2 3 4 5 6 
#
# 1 0.083446 -0.004023 -0.042665 0.000000 0.000000 0.000000
# 2 -0.004023 0.016486 -0.005567 0.000000 0.000000 0.000000
# 3 -0.042665 -0.005567 0.061585 0.000000 0.000000 0.000000
# 4 0.000000 0.000000 0.000000 0.033959 0.000000 0.000000
# 5 0.000000 0.000000 0.000000 0.000000 0.036507 0.000000
# 6 0.000000 0.000000 0.000000 0.000000 0.000000 0.024231
#
#
# Mechanical properties :
#
#
# Convention : Reuss Voigt Hill
#
# Bulk Modulus (GPa) = 17.54216 21.12402 19.33309
# Shear Modulus (GPa) = 13.16742 24.78976 18.97859
#
# Velocity S-wave (km/s) = 2.38743 3.27579 2.86624
# Velocity P-wave (km/s) = 3.89786 4.84270 4.39574
#
# Compressibility (1/GPa) = 0.05700553
#
# Stress axis : x y z
#
# Youngs Moduli (GPa) = 11.98384 60.65738 16.23781
#
# Poissons Ratio (x) = 0.24403 0.69279
# Poissons Ratio (y) = 0.04821 0.09040
# Poissons Ratio (z) = 0.51129 0.33770
#
# Static dielectric constant tensor:
#      x y z
#    x 1.791660 0.000000 0.000000 
#    y 0.000000 1.936810 0.000000 
#    z 0.000000 0.000000 1.927370 
# 
# From -- ./inp_files/2137.got.cif
#   From: 2010.05.17/outbox.cif.g08.bks.cpg/sg19_2_cif.got.tgz:2137.got - 2010.06.03 22:46:19.
