data_PCOD9313735
_publ_section_title
;
Structure prediction by ZEFSAII (Michael W. Deem and Ramdas Pophale) SiO2 
 PCOD9313735
Probable space group: P 21 21 21
;
_chemical_formula_sum "Si O2"
_cell_formula_units_Z 24
_cell_length_a 11.838092
_cell_length_b 12.665213
_cell_length_c 6.120885
_cell_angle_alpha 90.000000
_cell_angle_beta 90.000000
_cell_angle_gamma 90.000000
_cell_volume 917.716265
_symmetry_space_group_name_H-M "P 21 21 21"
_symmetry_group_IT_number 19
_symmetry_cell_setting 'orthorhombic'
loop_
_space_group_symop_operation_xyz
x,y,z
1/2-x,-y,1/2+z
1/2+x,1/2-y,-z
-x,1/2+y,1/2-z
loop_
_atom_site_type_symbol
_atom_site_label
_atom_site_fract_x
_atom_site_fract_y
_atom_site_fract_z
Si Si1 0.472113 0.129335 0.811764
Si Si2 0.840327 0.862679 0.677035
Si Si3 0.522929 0.767444 0.079470
Si Si4 0.684152 0.599535 0.313332
Si Si5 0.141602 0.592715 0.649042
Si Si6 0.586057 0.438595 0.981806
O O1 0.486155 0.233997 0.671472
O O2 0.475370 0.033586 0.643361
O O3 0.563730 0.117138 0.997367
O O4 0.355629 0.114376 0.939226
O O5 0.731237 0.854668 0.516758
O O6 0.898238 0.767077 0.819358
O O7 0.830800 0.968438 0.826022
O O8 0.615099 0.686278 0.181980
O O9 0.602683 0.871491 0.105466
O O10 0.644228 0.491175 0.196950
O O11 0.818398 0.607552 0.325876
O O12 0.019145 0.628989 0.556773
#
# Coordination Sequence:
#
# PCOD9313735 Si02
#       6
#     4   4   4   4   4   4
#     4  10  19  45  65  93 138 171 232 300 342 430
#     4  11  25  49  70 103 145 191 242 293 365 437
#     4  10  25  46  66 106 138 185 242 294 356 430
#     4  10  20  38  67  97 136 176 232 296 348 424
#     4  12  25  46  73 104 144 196 235 297 365 427
#     4  11  20  38  69  99 131 181 233 284 360 412
#
# _framework density 26.151875
#
# number of rings (size 3 to 8) (size 9 to 14) (size 15 to 20)
#    0.000    1.333    6.667    1.000    2.333    0.000 
#   15.000    0.000    0.000    0.000    0.000    0.000 
#    0.000    0.000    0.000    0.000    0.000    0.000 
#
# Total GULP energy -133815.031230 kJ/mol
# GULP energy per Si atom -5575.626301 kJ/mol
# Density = 2.609235 g / cm^3
# Si number density = 26.151875 Si / 1000 Ang^3
#
#
#
# Elastic Constant Matrix: (Units=GPa)
#
#
# Indices 1 2 3 4 5 6 
#
# 1 140.8594 19.1323 11.0230 0.0000 0.0000 0.0000
# 2 19.1323 67.8501 5.0249 0.0000 0.0000 0.0000
# 3 11.0230 5.0249 71.0265 0.0000 0.0000 0.0000
# 4 0.0000 0.0000 0.0000 27.6312 0.0000 0.0000
# 5 0.0000 0.0000 0.0000 0.0000 27.1833 0.0000
# 6 0.0000 0.0000 0.0000 0.0000 0.0000 22.7496
#
#
#
# Elastic Compliance Matrix: (Units=1/GPa)
#
#
# Indices 1 2 3 4 5 6 
#
# 1 0.007454 -0.002027 -0.001013 0.000000 0.000000 0.000000
# 2 -0.002027 0.015367 -0.000773 0.000000 0.000000 0.000000
# 3 -0.001013 -0.000773 0.014291 0.000000 0.000000 0.000000
# 4 0.000000 0.000000 0.000000 0.036191 0.000000 0.000000
# 5 0.000000 0.000000 0.000000 0.000000 0.036787 0.000000
# 6 0.000000 0.000000 0.000000 0.000000 0.000000 0.043957
#
#
# Mechanical properties :
#
#
# Convention : Reuss Voigt Hill
#
# Bulk Modulus (GPa) = 33.91383 38.89961 36.40672
# Shear Modulus (GPa) = 29.15422 31.81653 30.48538
#
# Velocity S-wave (km/s) = 3.34249 3.49177 3.41795
# Velocity P-wave (km/s) = 5.28134 5.58242 5.43396
#
# Compressibility (1/GPa) = 0.02948650
#
# Stress axis : x y z
#
# Youngs Moduli (GPa) = 134.15848 65.07406 69.97315
#
# Poissons Ratio (x) = 0.13189 0.07091
# Poissons Ratio (y) = 0.27191 0.05406
# Poissons Ratio (z) = 0.13596 0.05028
#
# Static dielectric constant tensor:
#      x y z
#    x 2.050140 0.000000 0.000000 
#    y 0.000000 2.217710 0.000000 
#    z 0.000000 0.000000 2.438750 
# 
# From -- ./inp_files/941.got.cif
#   From: 2010.05.17/outbox.cif.g08.bks.cpg/sg19_1_cif.got.tgz:941.got - 2010.06.03 22:46:19.
