data_PCOD9313958
_publ_section_title
;
Structure prediction by ZEFSAII (Michael W. Deem and Ramdas Pophale) SiO2 
 PCOD9313958
Probable space group: P 21 21 21
;
_chemical_formula_sum "Si O2"
_cell_formula_units_Z 20
_cell_length_a 8.237563
_cell_length_b 9.188380
_cell_length_c 11.596074
_cell_angle_alpha 90.000000
_cell_angle_beta 90.000000
_cell_angle_gamma 90.000000
_cell_volume 877.705207
_symmetry_space_group_name_H-M "P 21 21 21"
_symmetry_group_IT_number 19
_symmetry_cell_setting 'orthorhombic'
loop_
_space_group_symop_operation_xyz
x,y,z
1/2-x,-y,1/2+z
1/2+x,1/2-y,-z
-x,1/2+y,1/2-z
loop_
_atom_site_type_symbol
_atom_site_label
_atom_site_fract_x
_atom_site_fract_y
_atom_site_fract_z
Si Si1 0.977946 0.973183 0.187782
Si Si2 0.410842 0.793979 0.977794
Si Si3 0.464935 0.328260 0.022072
Si Si4 0.764189 0.076481 0.389954
Si Si5 0.787596 0.419423 0.103319
O O1 0.919008 0.830245 0.120720
O O2 0.120535 0.931307 0.275388
O O3 0.837506 0.046020 0.265032
O O4 0.028651 0.092157 0.094043
O O5 0.583767 0.874487 0.969775
O O6 0.279255 0.916660 0.945979
O O7 0.363995 0.706742 0.092556
O O8 0.318421 0.428681 0.066688
O O9 0.614938 0.340719 0.108436
O O10 0.399055 0.173430 0.984046
#
# Coordination Sequence:
#
# PCOD9313958 Si02
#       5
#     4   4   4   4   4
#     4  10  22  42  63  88 126 166 204 257 316 367
#     4  10  20  38  65  91 122 166 206 253 309 370
#     4  11  24  41  62  93 128 165 208 262 312 371
#     4  10  21  40  64  91 125 164 210 255 310 370
#     4  11  21  39  64  91 125 165 208 255 311 370
#
# _framework density 22.786693
#
# number of rings (size 3 to 8) (size 9 to 14) (size 15 to 20)
#    0.000    1.600    0.000    7.200    0.000    0.000 
#    0.000   24.000    0.000    0.000    0.000    0.000 
#    0.000    0.000    0.000    0.000    0.000    0.000 
#
# Total GULP energy -111866.114440 kJ/mol
# GULP energy per Si atom -5593.305722 kJ/mol
# Density = 2.273483 g / cm^3
# Si number density = 22.786693 Si / 1000 Ang^3
#
#
#
# Elastic Constant Matrix: (Units=GPa)
#
#
# Indices 1 2 3 4 5 6 
#
# 1 84.5567 28.9066 27.7238 0.0000 0.0000 0.0000
# 2 28.9066 111.6087 29.7573 0.0000 0.0000 0.0000
# 3 27.7238 29.7573 80.3480 0.0000 0.0000 0.0000
# 4 0.0000 0.0000 0.0000 24.6734 0.0000 0.0000
# 5 0.0000 0.0000 0.0000 0.0000 35.5147 0.0000
# 6 0.0000 0.0000 0.0000 0.0000 0.0000 45.3502
#
#
#
# Elastic Compliance Matrix: (Units=1/GPa)
#
#
# Indices 1 2 3 4 5 6 
#
# 1 0.013979 -0.002590 -0.003864 0.000000 0.000000 0.000000
# 2 -0.002590 0.010422 -0.002966 0.000000 0.000000 0.000000
# 3 -0.003864 -0.002966 0.014878 0.000000 0.000000 0.000000
# 4 0.000000 0.000000 0.000000 0.040529 0.000000 0.000000
# 5 0.000000 0.000000 0.000000 0.000000 0.028157 0.000000
# 6 0.000000 0.000000 0.000000 0.000000 0.000000 0.022051
#
#
# Mechanical properties :
#
#
# Convention : Reuss Voigt Hill
#
# Bulk Modulus (GPa) = 48.92965 49.92099 49.42532
# Shear Modulus (GPa) = 32.11959 33.78271 32.95115
#
# Velocity S-wave (km/s) = 3.75851 3.85458 3.80685
# Velocity P-wave (km/s) = 6.35253 6.46266 6.40783
#
# Compressibility (1/GPa) = 0.02043751
#
# Stress axis : x y z
#
# Youngs Moduli (GPa) = 71.53686 95.95526 67.21534
#
# Poissons Ratio (x) = 0.24855 0.25972
# Poissons Ratio (y) = 0.18530 0.19935
# Poissons Ratio (z) = 0.27642 0.28459
#
# Static dielectric constant tensor:
#      x y z
#    x 1.949710 0.000000 0.000000 
#    y 0.000000 1.843100 0.000000 
#    z 0.000000 0.000000 1.826630 
# 
# From -- ./inp_files/2623.got.cif
#   From: 2010.05.17/outbox.cif.g08.bks.cpg/sg19_2_cif.got.tgz:2623.got - 2010.06.03 22:46:19.
