data_PCOD9313078
_publ_section_title
;
Structure prediction by ZEFSAII (Michael W. Deem and Ramdas Pophale) SiO2 
 PCOD9313078
Probable space group: P 21 21 2
;
_chemical_formula_sum "Si O2"
_cell_formula_units_Z 26
_cell_length_a 9.861418
_cell_length_b 11.705984
_cell_length_c 10.982649
_cell_angle_alpha 90.000000
_cell_angle_beta 90.000000
_cell_angle_gamma 90.000000
_cell_volume 1267.810657
_symmetry_space_group_name_H-M "P 21 21 2"
_symmetry_group_IT_number 18
_symmetry_cell_setting 'orthorhombic'
loop_
_space_group_symop_operation_xyz
x,y,z
-x,-y,z
1/2+x,1/2-y,-z
1/2-x,1/2+y,-z
loop_
_atom_site_type_symbol
_atom_site_label
_atom_site_fract_x
_atom_site_fract_y
_atom_site_fract_z
Si Si1 0.200198 0.842973 0.742013
Si Si2 0.000000 0.500000 0.969356
Si Si3 0.064296 0.273694 0.822441
Si Si4 0.602891 0.093856 0.412748
Si Si5 0.785010 0.412900 0.164143
Si Si6 0.990190 0.702436 0.333483
Si Si7 0.107204 0.905176 0.481554
O O1 0.352503 0.793144 0.745594
O O2 0.150721 0.835735 0.601678
O O3 0.085906 0.780406 0.819917
O O4 0.213102 0.975793 0.778477
O O5 0.122272 0.546262 0.052846
O O6 0.057130 0.392821 0.893504
O O7 0.106757 0.303461 0.683244
O O8 0.173940 0.182469 0.868926
O O9 0.548982 0.134162 0.543774
O O10 0.752825 0.044242 0.430378
O O11 0.500000 0.000000 0.364329
O O12 0.891109 0.361498 0.261878
O O13 0.041992 0.823973 0.380364
O O14 0.000000 0.000000 0.517911
#
# Coordination Sequence:
#
# PCOD9313078 Si02
#       7
#     4   2   4   4   4   4   4
#     4  11  24  42  72 102 139 183 224 281 341 419
#     4  12  30  48  72  98 136 180 244 304 344 392
#     4  12  26  45  73 101 136 177 236 284 346 404
#     4  11  23  39  64 102 141 174 214 281 347 410
#     4  12  25  50  70  97 137 188 234 285 346 413
#     4  11  22  41  69 102 144 182 215 275 350 427
#     4  11  23  36  64 107 144 177 219 269 345 429
#
# _framework density 20.507795000000002
#
# number of rings (size 3 to 8) (size 9 to 14) (size 15 to 20)
#    0.000    0.615    5.385    3.231    4.308    0.000 
#    0.000    0.000    0.000    0.000    0.000    0.000 
#    0.000    0.000    0.000    0.000    0.000    0.000 
#
# Total GULP energy -145393.065987 kJ/mol
# GULP energy per Si atom -5592.041000 kJ/mol
# Density = 2.046112 g / cm^3
# Si number density = 20.507795 Si / 1000 Ang^3
#
#
#
# Elastic Constant Matrix: (Units=GPa)
#
#
# Indices 1 2 3 4 5 6 
#
# 1 132.3553 65.9193 32.9465 0.0000 0.0000 0.0000
# 2 65.9193 69.4203 32.1203 0.0000 0.0000 0.0000
# 3 32.9465 32.1203 62.3410 0.0000 0.0000 0.0000
# 4 0.0000 0.0000 0.0000 20.6826 0.0000 0.0000
# 5 0.0000 0.0000 0.0000 0.0000 18.1439 0.0000
# 6 0.0000 0.0000 0.0000 0.0000 0.0000 43.9329
#
#
#
# Elastic Compliance Matrix: (Units=1/GPa)
#
#
# Indices 1 2 3 4 5 6 
#
# 1 0.014361 -0.013294 -0.000740 0.000000 0.000000 0.000000
# 2 -0.013294 0.031221 -0.009060 0.000000 0.000000 0.000000
# 3 -0.000740 -0.009060 0.021100 0.000000 0.000000 0.000000
# 4 0.000000 0.000000 0.000000 0.048350 0.000000 0.000000
# 5 0.000000 0.000000 0.000000 0.000000 0.055115 0.000000
# 6 0.000000 0.000000 0.000000 0.000000 0.000000 0.022762
#
#
# Mechanical properties :
#
#
# Convention : Reuss Voigt Hill
#
# Bulk Modulus (GPa) = 48.79722 58.45433 53.62577
# Shear Modulus (GPa) = 20.33116 25.42725 22.87921
#
# Velocity S-wave (km/s) = 3.15205 3.52502 3.34374
# Velocity P-wave (km/s) = 6.09043 6.71811 6.41195
#
# Compressibility (1/GPa) = 0.02049297
#
# Stress axis : x y z
#
# Youngs Moduli (GPa) = 69.63429 32.02982 47.39332
#
# Poissons Ratio (x) = 0.42581 0.03506
# Poissons Ratio (y) = 0.92573 0.42940
# Poissons Ratio (z) = 0.05152 0.29020
#
# Static dielectric constant tensor:
#      x y z
#    x 1.741300 0.000000 0.000000 
#    y 0.000000 1.727530 0.000000 
#    z 0.000000 0.000000 1.730000 
# 
# From -- ./inp_files/5550.got.cif
#   From: 2010.05.17/outbox.cif.g08.bks.cpg/sg18_3_cif.got.tgz:5550.got - 2010.06.03 22:40:56.
