data_PCOD9313379
_publ_section_title
;
Structure prediction by ZEFSAII (Michael W. Deem and Ramdas Pophale) SiO2 
 PCOD9313379
Probable space group: P 21 21 21
;
_chemical_formula_sum "Si O2"
_cell_formula_units_Z 32
_cell_length_a 6.983898
_cell_length_b 7.300638
_cell_length_c 22.090432
_cell_angle_alpha 90.000000
_cell_angle_beta 90.000000
_cell_angle_gamma 90.000000
_cell_volume 1126.322893
_symmetry_space_group_name_H-M "P 21 21 21"
_symmetry_group_IT_number 19
_symmetry_cell_setting 'orthorhombic'
loop_
_space_group_symop_operation_xyz
x,y,z
1/2-x,-y,1/2+z
1/2+x,1/2-y,-z
-x,1/2+y,1/2-z
loop_
_atom_site_type_symbol
_atom_site_label
_atom_site_fract_x
_atom_site_fract_y
_atom_site_fract_z
Si Si1 0.836711 0.468254 0.874826
Si Si2 0.148151 0.560011 0.655875
Si Si3 0.421448 0.606760 0.896836
Si Si4 0.536850 0.598012 0.502833
Si Si5 0.283050 0.995066 0.748400
Si Si6 0.110574 0.488454 0.529215
Si Si7 0.733887 0.067118 0.720992
Si Si8 0.590917 0.528608 0.630600
O O1 0.914237 0.266777 0.858880
O O2 0.606950 0.481468 0.887487
O O3 0.910928 0.511082 0.942130
O O4 0.836686 0.567187 0.809103
O O5 0.072782 0.437240 0.599312
O O6 0.139223 0.483066 0.724176
O O7 0.377955 0.591186 0.646944
O O8 0.416077 0.631579 0.969338
O O9 0.250939 0.534232 0.852002
O O10 0.439232 0.810120 0.871195
O O11 0.336192 0.525273 0.525709
O O12 0.526744 0.811788 0.486954
O O13 0.660789 0.583535 0.564104
O O14 0.246310 0.781373 0.761530
O O15 0.269890 0.086036 0.814586
O O16 0.510292 0.013110 0.732434
#
# Coordination Sequence:
#
# PCOD9313379 Si02
#       8
#     4   4   4   4   4   4   4   4
#     4   9  17  31  52  72  92 121 157 196 233 276
#     4   8  15  29  47  67  89 118 157 193 222 260
#     4  10  18  28  47  74  98 119 146 186 239 289
#     4  10  20  33  50  68  92 125 161 199 232 270
#     4   8  14  26  45  69  93 116 151 192 231 269
#     4  10  19  32  48  68  92 123 161 196 228 270
#     4   8  14  25  43  68  90 114 147 189 227 266
#     4   9  17  28  46  72  98 122 150 191 236 278
#
# _framework density 28.411037
#
# number of rings (size 3 to 8) (size 9 to 14) (size 15 to 20)
#    0.000    3.000    0.000    2.250    0.000    3.000 
#    0.000    0.000    0.000    7.500    0.000    1.750 
#    0.000    0.000    0.000    0.000    0.000    0.000 
#
# Total GULP energy -178590.802804 kJ/mol
# GULP energy per Si atom -5580.962588 kJ/mol
# Density = 2.834637 g / cm^3
# Si number density = 28.411037 Si / 1000 Ang^3
#
#
#
# Elastic Constant Matrix: (Units=GPa)
#
#
# Indices 1 2 3 4 5 6 
#
# 1 61.4027 16.5519 33.8226 0.0000 0.0000 0.0000
# 2 16.5519 55.4741 9.6103 0.0000 0.0000 0.0000
# 3 33.8226 9.6103 280.7227 0.0000 0.0000 0.0000
# 4 0.0000 0.0000 0.0000 35.4642 0.0000 0.0000
# 5 0.0000 0.0000 0.0000 0.0000 48.2860 0.0000
# 6 0.0000 0.0000 0.0000 0.0000 0.0000 41.1819
#
#
#
# Elastic Compliance Matrix: (Units=1/GPa)
#
#
# Indices 1 2 3 4 5 6 
#
# 1 0.018857 -0.005264 -0.002092 0.000000 0.000000 0.000000
# 2 -0.005264 0.019603 -0.000037 0.000000 0.000000 0.000000
# 3 -0.002092 -0.000037 0.003816 0.000000 0.000000 0.000000
# 4 0.000000 0.000000 0.000000 0.028197 0.000000 0.000000
# 5 0.000000 0.000000 0.000000 0.000000 0.020710 0.000000
# 6 0.000000 0.000000 0.000000 0.000000 0.000000 0.024283
#
#
# Mechanical properties :
#
#
# Convention : Reuss Voigt Hill
#
# Bulk Modulus (GPa) = 36.37592 57.50768 46.94180
# Shear Modulus (GPa) = 35.86416 47.49407 41.67911
#
# Velocity S-wave (km/s) = 3.55679 4.09305 3.83430
# Velocity P-wave (km/s) = 5.44967 6.52860 6.01338
#
# Compressibility (1/GPa) = 0.02749072
#
# Stress axis : x y z
#
# Youngs Moduli (GPa) = 53.03032 51.01145 262.08733
#
# Poissons Ratio (x) = 0.26853 0.54823
# Poissons Ratio (y) = 0.27915 0.00966
# Poissons Ratio (z) = 0.11093 0.00188
#
# Static dielectric constant tensor:
#      x y z
#    x 2.282390 0.000000 0.000000 
#    y 0.000000 2.145870 0.000000 
#    z 0.000000 0.000000 2.457660 
# 
# From -- ./inp_files/3229.got.cif
#   From: 2010.05.17/outbox.cif.g08.bks.cpg/sg19_2_cif.got.tgz:3229.got - 2010.06.03 22:46:19.
