data_PCOD9313517
_publ_section_title
;
Structure prediction by ZEFSAII (Michael W. Deem and Ramdas Pophale) SiO2 
 PCOD9313517
Probable space group: P 21 21 21
;
_chemical_formula_sum "Si O2"
_cell_formula_units_Z 28
_cell_length_a 5.323905
_cell_length_b 9.853384
_cell_length_c 19.918323
_cell_angle_alpha 90.000000
_cell_angle_beta 90.000000
_cell_angle_gamma 90.000000
_cell_volume 1044.884956
_symmetry_space_group_name_H-M "P 21 21 21"
_symmetry_group_IT_number 19
_symmetry_cell_setting 'orthorhombic'
loop_
_space_group_symop_operation_xyz
x,y,z
1/2-x,-y,1/2+z
1/2+x,1/2-y,-z
-x,1/2+y,1/2-z
loop_
_atom_site_type_symbol
_atom_site_label
_atom_site_fract_x
_atom_site_fract_y
_atom_site_fract_z
Si Si1 0.320686 0.953211 0.082658
Si Si2 0.882662 0.230993 0.731005
Si Si3 0.840088 0.820281 0.644752
Si Si4 0.647933 0.448909 0.647954
Si Si5 0.151555 0.174103 0.981952
Si Si6 0.482566 0.511129 0.787060
Si Si7 0.853596 0.843312 0.890481
O O1 0.561001 0.047697 0.102645
O O2 0.142115 0.947363 0.148085
O O3 0.372894 0.794881 0.066167
O O4 0.185257 0.037915 0.024496
O O5 0.938556 0.276428 0.805644
O O6 0.665048 0.303334 0.687840
O O7 0.110818 0.285004 0.685467
O O8 0.790833 0.078193 0.727125
O O9 0.769055 0.697767 0.595449
O O10 0.603723 0.862552 0.688739
O O11 0.627300 0.535703 0.716739
O O12 0.396259 0.433002 0.604751
O O13 0.903166 0.438887 0.605802
O O14 0.363785 0.274305 0.015118
#
# Coordination Sequence:
#
# PCOD9313517 Si02
#       7
#     4   4   4   4   4   4   4
#     4  11  19  33  55  77 116 155 195 228 279 346
#     4  10  21  31  52  80 110 154 185 227 285 345
#     4  11  20  35  50  81 123 152 187 241 278 345
#     4  10  20  33  47  75 110 146 181 225 284 323
#     4  10  22  34  53  81 113 161 191 220 287 343
#     4  12  19  33  54  79 117 159 185 236 288 349
#     4  10  19  33  49  77 105 145 192 223 273 333
#
# _framework density 26.797208000000001
#
# number of rings (size 3 to 8) (size 9 to 14) (size 15 to 20)
#    0.857    0.571    7.143    0.000    0.000    0.000 
#    0.000    0.000    0.000    0.000    0.000    0.000 
#    4.286    0.000    0.286    0.000    0.000    0.000 
#
# Total GULP energy -156190.466083 kJ/mol
# GULP energy per Si atom -5578.230932 kJ/mol
# Density = 2.673622 g / cm^3
# Si number density = 26.797208 Si / 1000 Ang^3
#
#
#
# Elastic Constant Matrix: (Units=GPa)
#
#
# Indices 1 2 3 4 5 6 
#
# 1 128.8817 -9.2549 -4.4523 0.0000 0.0000 0.0000
# 2 -9.2549 29.6041 -9.3873 0.0000 0.0000 0.0000
# 3 -4.4523 -9.3873 73.5755 0.0000 0.0000 0.0000
# 4 0.0000 0.0000 0.0000 34.5189 0.0000 0.0000
# 5 0.0000 0.0000 0.0000 0.0000 20.7260 0.0000
# 6 0.0000 0.0000 0.0000 0.0000 0.0000 6.1911
#
#
#
# Elastic Compliance Matrix: (Units=1/GPa)
#
#
# Indices 1 2 3 4 5 6 
#
# 1 0.007986 0.002762 0.000836 0.000000 0.000000 0.000000
# 2 0.002762 0.036158 0.004780 0.000000 0.000000 0.000000
# 3 0.000836 0.004780 0.014252 0.000000 0.000000 0.000000
# 4 0.000000 0.000000 0.000000 0.028970 0.000000 0.000000
# 5 0.000000 0.000000 0.000000 0.000000 0.048249 0.000000
# 6 0.000000 0.000000 0.000000 0.000000 0.000000 0.161521
#
#
# Mechanical properties :
#
#
# Convention : Reuss Voigt Hill
#
# Bulk Modulus (GPa) = 13.30635 20.65247 16.97941
# Shear Modulus (GPa) = 16.37031 29.29760 22.83395
#
# Velocity S-wave (km/s) = 2.47431 3.31011 2.92225
# Velocity P-wave (km/s) = 3.62482 4.72576 4.21142
#
# Compressibility (1/GPa) = 0.07515211
#
# Stress axis : x y z
#
# Youngs Moduli (GPa) = 125.21547 27.65610 70.16572
#
# Poissons Ratio (x) = -0.07638 -0.05863
# Poissons Ratio (y) = -0.34580 -0.33543
# Poissons Ratio (z) = -0.10463 -0.13221
#
# Static dielectric constant tensor:
#      x y z
#    x 2.090740 0.000000 0.000000 
#    y 0.000000 2.183420 0.000000 
#    z 0.000000 0.000000 2.136850 
# 
# From -- ./inp_files/7282.got.cif
#   From: 2010.05.17/outbox.cif.g08.bks.cpg/sg19_4_cif.got.tgz:7282.got - 2010.06.03 22:46:19.
