data_PCOD9313031
_publ_section_title
;
Structure prediction by ZEFSAII (Michael W. Deem and Ramdas Pophale) SiO2 
 PCOD9313031
Probable space group: P 21 21 2
;
_chemical_formula_sum "Si O2"
_cell_formula_units_Z 32
_cell_length_a 9.214830
_cell_length_b 10.198342
_cell_length_c 17.501518
_cell_angle_alpha 90.000000
_cell_angle_beta 90.000000
_cell_angle_gamma 90.000000
_cell_volume 1644.722442
_symmetry_space_group_name_H-M "P 21 21 2"
_symmetry_group_IT_number 18
_symmetry_cell_setting 'orthorhombic'
loop_
_space_group_symop_operation_xyz
x,y,z
-x,-y,z
1/2+x,1/2-y,-z
1/2-x,1/2+y,-z
loop_
_atom_site_type_symbol
_atom_site_label
_atom_site_fract_x
_atom_site_fract_y
_atom_site_fract_z
Si Si1 0.427530 0.643739 0.437590
Si Si2 0.325248 0.996326 0.936602
Si Si3 0.778262 0.771650 0.831453
Si Si4 0.519766 0.655243 0.264694
Si Si5 0.047734 0.650096 0.278816
Si Si6 0.422349 0.141298 0.545263
Si Si7 0.791708 0.736396 0.184305
Si Si8 0.325587 0.495439 0.899812
O O1 0.500000 0.500000 0.448002
O O2 0.459455 0.683180 0.349239
O O3 0.509139 0.750477 0.489695
O O4 0.254526 0.635353 0.456160
O O5 0.286938 0.878483 0.878828
O O6 0.500000 0.000000 0.943445
O O7 0.266347 0.129961 0.898650
O O8 0.249625 0.980327 0.017930
O O9 0.706363 0.831633 0.755089
O O10 0.721243 0.629264 0.850520
O O11 0.944753 0.773386 0.807396
O O12 0.500000 0.500000 0.252638
O O13 0.685402 0.697800 0.253568
O O14 0.948442 0.736415 0.224006
O O15 0.000000 0.500000 0.267759
O O16 0.039189 0.680035 0.367566
O O17 0.500000 0.000000 0.530952
O O18 0.771119 0.873263 0.141917
O O19 0.500000 0.500000 0.908352
#
# Coordination Sequence:
#
# PCOD9313031 Si02
#       8
#     4   4   4   4   4   4   4   4
#     4  11  25  46  69 104 139 177 226 272 335 401
#     4  12  24  43  68  91 128 176 226 270 330 398
#     4  12  22  45  66  95 131 170 225 274 323 392
#     4  11  24  42  74 100 128 171 229 273 317 390
#     4  11  20  42  72  94 124 176 229 265 318 390
#     4  11  25  44  72 102 140 178 222 276 334 399
#     4  12  24  43  67  97 130 176 223 272 329 395
#     4  12  28  43  62  97 136 172 214 278 340 393
#
# _framework density 19.456171000000001
#
# number of rings (size 3 to 8) (size 9 to 14) (size 15 to 20)
#    0.000    0.500    6.250    1.500   10.500    0.000 
#    4.500    0.000    0.000    0.000    0.000    0.000 
#    0.000    0.000    0.000    0.000    0.000    0.000 
#
# Total GULP energy -178772.523993 kJ/mol
# GULP energy per Si atom -5586.641375 kJ/mol
# Density = 1.941189 g / cm^3
# Si number density = 19.456171 Si / 1000 Ang^3
#
#
#
# Elastic Constant Matrix: (Units=GPa)
#
#
# Indices 1 2 3 4 5 6 
#
# 1 75.5095 34.2799 37.7578 0.0000 0.0000 0.0000
# 2 34.2799 100.7674 49.7993 0.0000 0.0000 0.0000
# 3 37.7578 49.7993 107.2625 0.0000 0.0000 0.0000
# 4 0.0000 0.0000 0.0000 20.1700 0.0000 0.0000
# 5 0.0000 0.0000 0.0000 0.0000 39.7619 0.0000
# 6 0.0000 0.0000 0.0000 0.0000 0.0000 26.4577
#
#
#
# Elastic Compliance Matrix: (Units=1/GPa)
#
#
# Indices 1 2 3 4 5 6 
#
# 1 0.017063 -0.003681 -0.004298 0.000000 0.000000 0.000000
# 2 -0.003681 0.013673 -0.005052 0.000000 0.000000 0.000000
# 3 -0.004298 -0.005052 0.013181 0.000000 0.000000 0.000000
# 4 0.000000 0.000000 0.000000 0.049579 0.000000 0.000000
# 5 0.000000 0.000000 0.000000 0.000000 0.025150 0.000000
# 6 0.000000 0.000000 0.000000 0.000000 0.000000 0.037796
#
#
# Mechanical properties :
#
#
# Convention : Reuss Voigt Hill
#
# Bulk Modulus (GPa) = 56.00310 58.57926 57.29118
# Shear Modulus (GPa) = 26.53145 28.05808 27.29477
#
# Velocity S-wave (km/s) = 3.69677 3.80164 3.74957
# Velocity P-wave (km/s) = 6.86063 7.03162 6.94665
#
# Compressibility (1/GPa) = 0.01785616
#
# Stress axis : x y z
#
# Youngs Moduli (GPa) = 58.60504 73.13763 75.86478
#
# Poissons Ratio (x) = 0.26921 0.32604
# Poissons Ratio (y) = 0.21572 0.38329
# Poissons Ratio (z) = 0.25186 0.36951
#
# Static dielectric constant tensor:
#      x y z
#    x 1.727240 0.000000 0.000000 
#    y 0.000000 1.652950 0.000000 
#    z 0.000000 0.000000 1.806680 
# 
# From -- ./inp_files/6770.got.cif
#   From: 2010.05.17/outbox.cif.g08.bks.cpg/sg18_4_cif.got.tgz:6770.got - 2010.06.03 22:40:56.
