data_PCOD9313540
_publ_section_title
;
Structure prediction by ZEFSAII (Michael W. Deem and Ramdas Pophale) SiO2 
 PCOD9313540
Probable space group: P 21 21 21
;
_chemical_formula_sum "Si O2"
_cell_formula_units_Z 32
_cell_length_a 22.207209
_cell_length_b 5.373754
_cell_length_c 13.070521
_cell_angle_alpha 90.000000
_cell_angle_beta 90.000000
_cell_angle_gamma 90.000000
_cell_volume 1559.784716
_symmetry_space_group_name_H-M "P 21 21 21"
_symmetry_group_IT_number 19
_symmetry_cell_setting 'orthorhombic'
loop_
_space_group_symop_operation_xyz
x,y,z
1/2-x,-y,1/2+z
1/2+x,1/2-y,-z
-x,1/2+y,1/2-z
loop_
_atom_site_type_symbol
_atom_site_label
_atom_site_fract_x
_atom_site_fract_y
_atom_site_fract_z
Si Si1 0.038908 0.247440 0.813371
Si Si2 0.212764 0.765374 0.312722
Si Si3 0.921005 0.256423 0.233357
Si Si4 0.330830 0.251391 0.044559
Si Si5 0.219398 0.735098 0.751604
Si Si6 0.920706 0.247113 0.688176
Si Si7 0.907165 0.748719 0.916232
Si Si8 0.030495 0.256261 0.376479
O O1 0.060736 0.494861 0.867524
O O2 0.071265 0.247950 0.701325
O O3 0.968345 0.247151 0.785027
O O4 0.061227 0.000312 0.867109
O O5 0.150292 0.758681 0.249733
O O6 0.192933 0.748937 0.430285
O O7 0.252776 0.525503 0.286638
O O8 0.247294 0.023704 0.295244
O O9 0.938720 0.506455 0.170319
O O10 0.962492 0.256172 0.334309
O O11 0.938665 0.006629 0.169948
O O12 0.278706 0.249920 0.129030
O O13 0.368035 0.504040 0.064521
O O14 0.369223 0.001206 0.063421
O O15 0.148626 0.745121 0.781595
O O16 0.958567 0.753921 0.002599
#
# Coordination Sequence:
#
# PCOD9313540 Si02
#       8
#     4   4   4   4   4   4   4   4
#     4  10  19  33  60  86 121 144 192 258 311 353
#     4  12  24  41  63  89 127 172 209 257 310 366
#     4  10  20  37  55  89 117 154 196 248 309 368
#     4  12  24  40  62  94 120 160 228 256 296 384
#     4  12  24  41  63  89 127 172 209 257 310 366
#     4  10  20  37  55  89 117 154 196 248 309 368
#     4  12  18  36  62  94 118 152 210 264 304 368
#     4  10  19  33  60  86 121 144 192 258 311 353
#
# _framework density 20.515651999999999
#
# number of rings (size 3 to 8) (size 9 to 14) (size 15 to 20)
#    0.000    1.000    5.000    3.000    0.000    0.000 
#    0.000    2.500    0.000    0.000    0.000    0.000 
#    0.000    0.000    0.000    0.000    0.000    0.000 
#
# Total GULP energy -178794.411814 kJ/mol
# GULP energy per Si atom -5587.325369 kJ/mol
# Density = 2.046896 g / cm^3
# Si number density = 20.515652 Si / 1000 Ang^3
#
#
#
# Elastic Constant Matrix: (Units=GPa)
#
#
# Indices 1 2 3 4 5 6 
#
# 1 88.6101 8.8390 -6.1259 0.0000 0.0000 0.0000
# 2 8.8390 143.8250 -4.4309 0.0000 0.0000 0.0000
# 3 -6.1259 -4.4309 62.0748 0.0000 0.0000 0.0000
# 4 0.0000 0.0000 0.0000 20.0619 0.0000 0.0000
# 5 0.0000 0.0000 0.0000 0.0000 25.9178 0.0000
# 6 0.0000 0.0000 0.0000 0.0000 0.0000 45.2363
#
#
#
# Elastic Compliance Matrix: (Units=1/GPa)
#
#
# Indices 1 2 3 4 5 6 
#
# 1 0.011427 -0.000669 0.001080 0.000000 0.000000 0.000000
# 2 -0.000669 0.007007 0.000434 0.000000 0.000000 0.000000
# 3 0.001080 0.000434 0.016247 0.000000 0.000000 0.000000
# 4 0.000000 0.000000 0.000000 0.049846 0.000000 0.000000
# 5 0.000000 0.000000 0.000000 0.000000 0.038583 0.000000
# 6 0.000000 0.000000 0.000000 0.000000 0.000000 0.022106
#
#
# Mechanical properties :
#
#
# Convention : Reuss Voigt Hill
#
# Bulk Modulus (GPa) = 27.49402 32.34157 29.91780
# Shear Modulus (GPa) = 32.12332 37.99173 35.05753
#
# Velocity S-wave (km/s) = 3.96131 4.30797 4.13827
# Velocity P-wave (km/s) = 5.86116 6.36737 6.11950
#
# Compressibility (1/GPa) = 0.03637154
#
# Stress axis : x y z
#
# Youngs Moduli (GPa) = 87.51365 142.70657 61.54921
#
# Poissons Ratio (x) = 0.09547 -0.06647
# Poissons Ratio (y) = 0.05855 -0.02672
# Poissons Ratio (z) = -0.09451 -0.06196
#
# Static dielectric constant tensor:
#      x y z
#    x 1.734900 0.000000 0.000000 
#    y 0.000000 1.838410 0.000000 
#    z 0.000000 0.000000 1.715790 
# 
# From -- ./inp_files/5475.got.cif
#   From: 2010.05.17/outbox.cif.g08.bks.cpg/sg19_3_cif.got.tgz:5475.got - 2010.06.03 22:46:19.
