data_PCOD9313669
_publ_section_title
;
Structure prediction by ZEFSAII (Michael W. Deem and Ramdas Pophale) SiO2 
 PCOD9313669
Probable space group: P 21 21 21
;
_chemical_formula_sum "Si O2"
_cell_formula_units_Z 28
_cell_length_a 12.593518
_cell_length_b 7.644515
_cell_length_c 11.508076
_cell_angle_alpha 90.000000
_cell_angle_beta 90.000000
_cell_angle_gamma 90.000000
_cell_volume 1107.897866
_symmetry_space_group_name_H-M "P 21 21 21"
_symmetry_group_IT_number 19
_symmetry_cell_setting 'orthorhombic'
loop_
_space_group_symop_operation_xyz
x,y,z
1/2-x,-y,1/2+z
1/2+x,1/2-y,-z
-x,1/2+y,1/2-z
loop_
_atom_site_type_symbol
_atom_site_label
_atom_site_fract_x
_atom_site_fract_y
_atom_site_fract_z
Si Si1 0.437615 0.560105 0.663316
Si Si2 0.642404 0.663256 0.521624
Si Si3 0.029421 0.052776 0.660226
Si Si4 0.673096 0.089464 0.070906
Si Si5 0.688224 0.224894 0.661540
Si Si6 0.468032 0.500570 0.921900
Si Si7 0.394898 0.090983 0.390330
O O1 0.556205 0.595905 0.617463
O O2 0.364577 0.506413 0.554060
O O3 0.366764 0.721987 0.713341
O O4 0.453681 0.456902 0.784750
O O5 0.626254 0.524330 0.418519
O O6 0.759153 0.733814 0.555439
O O7 0.589608 0.856400 0.499237
O O8 0.937865 0.907864 0.636599
O O9 0.066445 0.039525 0.791535
O O10 0.967306 0.233272 0.632203
O O11 0.745146 0.954763 0.143291
O O12 0.591762 0.188245 0.574162
O O13 0.771574 0.369841 0.631169
O O14 0.580391 0.531626 0.979111
#
# Coordination Sequence:
#
# PCOD9313669 Si02
#       7
#     4   4   4   4   4   4   4
#     4   9  19  35  57  90 114 147 206 243 294 345
#     4  10  19  38  62  83 118 155 199 249 300 353
#     4  10  22  35  63  86 113 162 198 252 289 368
#     4   9  18  36  60  84 110 158 209 226 296 364
#     4   8  19  36  56  84 110 161 186 245 280 360
#     4   9  21  38  59  88 117 160 196 251 296 354
#     4  11  20  40  57  85 120 153 206 242 307 348
#
# _framework density 25.27309
#
# number of rings (size 3 to 8) (size 9 to 14) (size 15 to 20)
#    0.857    1.714    0.000    1.714    0.000    6.857 
#    2.571    5.714    0.000    0.000    0.000    0.000 
#    0.000    0.000    0.000    0.000    0.000    0.000 
#
# Total GULP energy -155888.411780 kJ/mol
# GULP energy per Si atom -5567.443278 kJ/mol
# Density = 2.521557 g / cm^3
# Si number density = 25.273090 Si / 1000 Ang^3
#
#
#
# Elastic Constant Matrix: (Units=GPa)
#
#
# Indices 1 2 3 4 5 6 
#
# 1 97.1233 -9.9028 33.2007 0.0000 0.0000 0.0000
# 2 -9.9028 83.7951 19.6910 0.0000 0.0000 0.0000
# 3 33.2007 19.6910 105.9774 0.0000 0.0000 0.0000
# 4 0.0000 0.0000 0.0000 23.7556 0.0000 0.0000
# 5 0.0000 0.0000 0.0000 0.0000 36.8587 0.0000
# 6 0.0000 0.0000 0.0000 0.0000 0.0000 40.9135
#
#
#
# Elastic Compliance Matrix: (Units=1/GPa)
#
#
# Indices 1 2 3 4 5 6 
#
# 1 0.011976 0.002402 -0.004198 0.000000 0.000000 0.000000
# 2 0.002402 0.012960 -0.003161 0.000000 0.000000 0.000000
# 3 -0.004198 -0.003161 0.011338 0.000000 0.000000 0.000000
# 4 0.000000 0.000000 0.000000 0.042095 0.000000 0.000000
# 5 0.000000 0.000000 0.000000 0.000000 0.027131 0.000000
# 6 0.000000 0.000000 0.000000 0.000000 0.000000 0.024442
#
#
# Mechanical properties :
#
#
# Convention : Reuss Voigt Hill
#
# Bulk Modulus (GPa) = 37.93443 41.43042 39.68242
# Shear Modulus (GPa) = 33.63746 36.56600 35.10173
#
# Velocity S-wave (km/s) = 3.65219 3.80786 3.73083
# Velocity P-wave (km/s) = 5.72949 5.98011 5.85614
#
# Compressibility (1/GPa) = 0.02636128
#
# Stress axis : x y z
#
# Youngs Moduli (GPa) = 83.49892 77.15805 88.19567
#
# Poissons Ratio (x) = -0.18532 0.37026
# Poissons Ratio (y) = -0.20055 0.27875
# Poissons Ratio (z) = 0.35054 0.24386
#
# Static dielectric constant tensor:
#      x y z
#    x 2.037300 0.000000 0.000000 
#    y 0.000000 2.118360 0.000000 
#    z 0.000000 0.000000 1.983510 
# 
# From -- ./inp_files/5211.got.cif
#   From: 2010.05.17/outbox.cif.g08.bks.cpg/sg19_3_cif.got.tgz:5211.got - 2010.06.03 22:46:19.
