data_PCOD9313819
_publ_section_title
;
Structure prediction by ZEFSAII (Michael W. Deem and Ramdas Pophale) SiO2 
 PCOD9313819
Probable space group: P 21 21 21
;
_chemical_formula_sum "Si O2"
_cell_formula_units_Z 28
_cell_length_a 9.513038
_cell_length_b 8.814957
_cell_length_c 13.296430
_cell_angle_alpha 90.000000
_cell_angle_beta 90.000000
_cell_angle_gamma 90.000000
_cell_volume 1114.999009
_symmetry_space_group_name_H-M "P 21 21 21"
_symmetry_group_IT_number 19
_symmetry_cell_setting 'orthorhombic'
loop_
_space_group_symop_operation_xyz
x,y,z
1/2-x,-y,1/2+z
1/2+x,1/2-y,-z
-x,1/2+y,1/2-z
loop_
_atom_site_type_symbol
_atom_site_label
_atom_site_fract_x
_atom_site_fract_y
_atom_site_fract_z
Si Si1 0.464894 0.813221 0.467870
Si Si2 0.581896 0.096047 0.734561
Si Si3 0.739409 0.917380 0.576279
Si Si4 0.136628 0.956912 0.818874
Si Si5 0.641066 0.778598 0.019611
Si Si6 0.564532 0.414515 0.628533
Si Si7 0.704619 0.507118 0.877353
O O1 0.614736 0.822267 0.523557
O O2 0.389602 0.663679 0.426328
O O3 0.469777 0.927687 0.372026
O O4 0.354696 0.874584 0.552036
O O5 0.595432 0.272629 0.706790
O O6 0.430640 0.053155 0.688635
O O7 0.689862 0.976329 0.685941
O O8 0.555202 0.038939 0.846572
O O9 0.756169 0.079840 0.524109
O O10 0.287828 0.999392 0.870265
O O11 0.168825 0.970325 0.699993
O O12 0.110940 0.793165 0.870333
O O13 0.497371 0.829717 0.967384
O O14 0.713373 0.652348 0.949576
#
# Coordination Sequence:
#
# PCOD9313819 Si02
#       7
#     4   4   4   4   4   4   4
#     4  10  24  40  63  88 133 166 216 267 322 377
#     4   9  19  34  60  94 122 155 225 267 307 362
#     4  11  23  42  59  95 130 170 212 272 318 381
#     4  10  20  39  66  87 126 167 217 264 317 385
#     4  10  21  36  63  92 129 163 210 264 330 381
#     4  10  20  35  63  96 120 163 215 272 312 377
#     4   8  19  40  60  92 118 168 213 270 316 379
#
# _framework density 25.112131000000002
#
# number of rings (size 3 to 8) (size 9 to 14) (size 15 to 20)
#    0.000    2.286    1.429    0.857    8.000    2.286 
#    0.000    1.429    0.000    0.000    0.000    0.000 
#    0.000    0.000    0.000    0.000    0.000    0.000 
#
# Total GULP energy -156149.828969 kJ/mol
# GULP energy per Si atom -5576.779606 kJ/mol
# Density = 2.505497 g / cm^3
# Si number density = 25.112131 Si / 1000 Ang^3
#
#
#
# Elastic Constant Matrix: (Units=GPa)
#
#
# Indices 1 2 3 4 5 6 
#
# 1 46.4710 32.0296 7.8247 0.0000 0.0000 0.0000
# 2 32.0296 92.1571 -7.9869 0.0000 0.0000 0.0000
# 3 7.8247 -7.9869 19.1236 0.0000 0.0000 0.0000
# 4 0.0000 0.0000 0.0000 29.0578 0.0000 0.0000
# 5 0.0000 0.0000 0.0000 0.0000 30.5336 0.0000
# 6 0.0000 0.0000 0.0000 0.0000 0.0000 34.0199
#
#
#
# Elastic Compliance Matrix: (Units=1/GPa)
#
#
# Indices 1 2 3 4 5 6 
#
# 1 0.034197 -0.013590 -0.019668 0.000000 0.000000 0.000000
# 2 -0.013590 0.016659 0.012518 0.000000 0.000000 0.000000
# 3 -0.019668 0.012518 0.065567 0.000000 0.000000 0.000000
# 4 0.000000 0.000000 0.000000 0.034414 0.000000 0.000000
# 5 0.000000 0.000000 0.000000 0.000000 0.032751 0.000000
# 6 0.000000 0.000000 0.000000 0.000000 0.000000 0.029395
#
#
# Mechanical properties :
#
#
# Convention : Reuss Voigt Hill
#
# Bulk Modulus (GPa) = 13.34335 24.60962 18.97649
# Shear Modulus (GPa) = 17.89269 27.11456 22.50363
#
# Velocity S-wave (km/s) = 2.67219 3.28950 2.99678
# Velocity P-wave (km/s) = 3.85303 4.92432 4.42124
#
# Compressibility (1/GPa) = 0.07494371
#
# Stress axis : x y z
#
# Youngs Moduli (GPa) = 29.24223 60.02710 15.25155
#
# Poissons Ratio (x) = 0.81576 0.29997
# Poissons Ratio (y) = 0.39740 -0.19092
# Poissons Ratio (z) = 0.57514 -0.75143
#
# Static dielectric constant tensor:
#      x y z
#    x 1.988390 0.000000 0.000000 
#    y 0.000000 1.994650 0.000000 
#    z 0.000000 0.000000 2.171390 
# 
# From -- ./inp_files/6091.got.cif
#   From: 2010.05.17/outbox.cif.g08.bks.cpg/sg19_4_cif.got.tgz:6091.got - 2010.06.03 22:46:19.
