data_PCOD9313993
_publ_section_title
;
Structure prediction by ZEFSAII (Michael W. Deem and Ramdas Pophale) SiO2 
 PCOD9313993
Probable space group: P 21 21 21
;
_chemical_formula_sum "Si O2"
_cell_formula_units_Z 24
_cell_length_a 10.299566
_cell_length_b 17.561313
_cell_length_c 5.024003
_cell_angle_alpha 90.000000
_cell_angle_beta 90.000000
_cell_angle_gamma 90.000000
_cell_volume 908.711028
_symmetry_space_group_name_H-M "P 21 21 21"
_symmetry_group_IT_number 19
_symmetry_cell_setting 'orthorhombic'
loop_
_space_group_symop_operation_xyz
x,y,z
1/2-x,-y,1/2+z
1/2+x,1/2-y,-z
-x,1/2+y,1/2-z
loop_
_atom_site_type_symbol
_atom_site_label
_atom_site_fract_x
_atom_site_fract_y
_atom_site_fract_z
Si Si1 0.470365 0.260229 0.561066
Si Si2 0.605950 0.407193 0.614305
Si Si3 0.098633 0.371345 0.751477
Si Si4 0.070850 0.514923 0.485596
Si Si5 0.160640 0.679988 0.583427
Si Si6 0.354365 0.054915 0.182002
O O1 0.571624 0.327540 0.489103
O O2 0.536470 0.182880 0.470743
O O3 0.429896 0.277228 0.864232
O O4 0.349869 0.276103 0.361183
O O5 0.471588 0.446710 0.708420
O O6 0.724477 0.395535 0.821114
O O7 0.671632 0.473787 0.448194
O O8 0.159073 0.446080 0.599212
O O9 0.202487 0.330733 0.937668
O O10 0.977345 0.398895 0.935376
O O11 0.111256 0.592972 0.630283
O O12 0.934159 0.473743 0.557459
#
# Coordination Sequence:
#
# PCOD9313993 Si02
#       6
#     4   4   4   4   4   4
#     4  11  26  45  68 103 144 188 225 295 363 411
#     4  11  20  41  72  96 147 175 242 289 352 414
#     4  10  25  44  70 104 135 185 243 281 363 420
#     4   9  22  41  65 100 130 185 236 284 345 414
#     4  11  25  48  68 100 146 184 233 294 351 424
#     4  10  20  39  65 101 126 181 233 281 340 413
#
# _framework density 26.411034999999998
#
# number of rings (size 3 to 8) (size 9 to 14) (size 15 to 20)
#    1.000    0.667    3.333    0.000    2.333    8.000 
#    6.000    0.000    0.000    0.000    0.000    0.000 
#    0.000    0.000    0.000    0.000    0.000    0.000 
#
# Total GULP energy -133690.187301 kJ/mol
# GULP energy per Si atom -5570.424471 kJ/mol
# Density = 2.635092 g / cm^3
# Si number density = 26.411035 Si / 1000 Ang^3
#
#
#
# Elastic Constant Matrix: (Units=GPa)
#
#
# Indices 1 2 3 4 5 6 
#
# 1 95.8852 13.7241 5.1605 0.0000 0.0000 0.0000
# 2 13.7241 90.4422 8.1122 0.0000 0.0000 0.0000
# 3 5.1605 8.1122 72.5099 0.0000 0.0000 0.0000
# 4 0.0000 0.0000 0.0000 23.7573 0.0000 0.0000
# 5 0.0000 0.0000 0.0000 0.0000 22.6880 0.0000
# 6 0.0000 0.0000 0.0000 0.0000 0.0000 19.5478
#
#
#
# Elastic Compliance Matrix: (Units=1/GPa)
#
#
# Indices 1 2 3 4 5 6 
#
# 1 0.010685 -0.001569 -0.000585 0.000000 0.000000 0.000000
# 2 -0.001569 0.011399 -0.001164 0.000000 0.000000 0.000000
# 3 -0.000585 -0.001164 0.013963 0.000000 0.000000 0.000000
# 4 0.000000 0.000000 0.000000 0.042092 0.000000 0.000000
# 5 0.000000 0.000000 0.000000 0.000000 0.044076 0.000000
# 6 0.000000 0.000000 0.000000 0.000000 0.000000 0.051157
#
#
# Mechanical properties :
#
#
# Convention : Reuss Voigt Hill
#
# Bulk Modulus (GPa) = 33.99928 34.75899 34.37914
# Shear Modulus (GPa) = 26.34189 28.65466 27.49828
#
# Velocity S-wave (km/s) = 3.16156 3.29743 3.23021
# Velocity P-wave (km/s) = 5.12136 5.26182 5.19207
#
# Compressibility (1/GPa) = 0.02941239
#
# Stress axis : x y z
#
# Youngs Moduli (GPa) = 93.58753 87.72517 71.61768
#
# Poissons Ratio (x) = 0.13764 0.04189
# Poissons Ratio (y) = 0.14683 0.08334
# Poissons Ratio (z) = 0.05474 0.10208
#
# Static dielectric constant tensor:
#      x y z
#    x 2.492590 0.000000 0.000000 
#    y 0.000000 2.116800 0.000000 
#    z 0.000000 0.000000 2.331860 
# 
# From -- ./inp_files/1000.got.cif
#   From: 2010.05.17/outbox.cif.g08.bks.cpg/sg19_1_cif.got.tgz:1000.got - 2010.06.03 22:46:19.
