data_PCOD9313301
_publ_section_title
;
Structure prediction by ZEFSAII (Michael W. Deem and Ramdas Pophale) SiO2 
 PCOD9313301
Probable space group: P 21 21 21
;
_chemical_formula_sum "Si O2"
_cell_formula_units_Z 32
_cell_length_a 17.640051
_cell_length_b 11.825494
_cell_length_c 8.155089
_cell_angle_alpha 90.000000
_cell_angle_beta 90.000000
_cell_angle_gamma 90.000000
_cell_volume 1701.170463
_symmetry_space_group_name_H-M "P 21 21 21"
_symmetry_group_IT_number 19
_symmetry_cell_setting 'orthorhombic'
loop_
_space_group_symop_operation_xyz
x,y,z
1/2-x,-y,1/2+z
1/2+x,1/2-y,-z
-x,1/2+y,1/2-z
loop_
_atom_site_type_symbol
_atom_site_label
_atom_site_fract_x
_atom_site_fract_y
_atom_site_fract_z
Si Si1 0.939386 0.537622 0.284792
Si Si2 0.071490 0.580623 0.736002
Si Si3 0.871674 0.869218 0.971672
Si Si4 0.590711 0.078452 0.832519
Si Si5 0.692937 0.896097 0.982506
Si Si6 0.547415 0.341776 0.469661
Si Si7 0.999367 0.735669 0.484545
Si Si8 0.411511 0.213604 0.657077
O O1 0.904010 0.421490 0.348880
O O2 0.024342 0.506149 0.223670
O O3 0.948613 0.629730 0.425565
O O4 0.909245 0.594305 0.117492
O O5 0.085881 0.475075 0.614453
O O6 0.047704 0.693883 0.637650
O O7 0.997694 0.570384 0.854342
O O8 0.147392 0.597187 0.844565
O O9 0.782676 0.893277 0.976855
O O10 0.897047 0.750891 0.889637
O O11 0.893009 0.856219 0.164328
O O12 0.556852 0.157533 0.975177
O O13 0.661707 0.006211 0.888439
O O14 0.661364 0.784903 0.891343
O O15 0.478536 0.263982 0.542315
O O16 0.059224 0.760952 0.339783
#
# Coordination Sequence:
#
# PCOD9313301 Si02
#       8
#     4   4   4   4   4   4   4   4
#     4  10  15  35  61  79 105 152 203 240 284 357
#     4  11  22  34  56  91 122 147 200 263 299 340
#     4  12  22  37  60  85 128 165 191 254 311 366
#     4  11  19  37  57  86 114 160 195 239 300 374
#     4  11  23  37  54  93 127 153 196 250 321 362
#     4  10  20  34  57  90 114 151 208 244 293 350
#     4  10  18  32  60  83 108 150 202 244 289 350
#     4   9  17  34  59  79 114 152 197 242 285 367
#
# _framework density 18.810579000000001
#
# number of rings (size 3 to 8) (size 9 to 14) (size 15 to 20)
#    0.000    1.500    8.750    0.750    1.750    0.000 
#    0.000    0.000    0.000    7.500    0.000    0.000 
#    0.000    0.000    0.000    0.000    0.000    0.000 
#
# Total GULP energy -178257.315677 kJ/mol
# GULP energy per Si atom -5570.541115 kJ/mol
# Density = 1.876776 g / cm^3
# Si number density = 18.810579 Si / 1000 Ang^3
#
#
#
# Elastic Constant Matrix: (Units=GPa)
#
#
# Indices 1 2 3 4 5 6 
#
# 1 51.2745 23.4333 15.9660 0.0000 0.0000 0.0000
# 2 23.4333 106.8790 12.5813 0.0000 0.0000 0.0000
# 3 15.9660 12.5813 50.0044 0.0000 0.0000 0.0000
# 4 0.0000 0.0000 0.0000 27.9268 0.0000 0.0000
# 5 0.0000 0.0000 0.0000 0.0000 12.4612 0.0000
# 6 0.0000 0.0000 0.0000 0.0000 0.0000 21.6802
#
#
#
# Elastic Compliance Matrix: (Units=1/GPa)
#
#
# Indices 1 2 3 4 5 6 
#
# 1 0.023506 -0.004401 -0.006398 0.000000 0.000000 0.000000
# 2 -0.004401 0.010466 -0.001228 0.000000 0.000000 0.000000
# 3 -0.006398 -0.001228 0.022350 0.000000 0.000000 0.000000
# 4 0.000000 0.000000 0.000000 0.035808 0.000000 0.000000
# 5 0.000000 0.000000 0.000000 0.000000 0.080249 0.000000
# 6 0.000000 0.000000 0.000000 0.000000 0.000000 0.046125
#
#
# Mechanical properties :
#
#
# Convention : Reuss Voigt Hill
#
# Bulk Modulus (GPa) = 30.99008 34.67988 32.83498
# Shear Modulus (GPa) = 19.73834 22.82546 21.28190
#
# Velocity S-wave (km/s) = 3.24284 3.48722 3.36725
# Velocity P-wave (km/s) = 5.52557 5.88988 5.71063
#
# Compressibility (1/GPa) = 0.03226839
#
# Stress axis : x y z
#
# Youngs Moduli (GPa) = 42.54175 95.54941 44.74246
#
# Poissons Ratio (x) = 0.42048 0.28627
# Poissons Ratio (y) = 0.18721 0.05495
# Poissons Ratio (z) = 0.27219 0.11735
#
# Static dielectric constant tensor:
#      x y z
#    x 1.634570 0.000000 0.000000 
#    y 0.000000 1.710250 0.000000 
#    z 0.000000 0.000000 1.741540 
# 
# From -- ./inp_files/4261.got.cif
#   From: 2010.05.17/outbox.cif.g08.bks.cpg/sg19_3_cif.got.tgz:4261.got - 2010.06.03 22:46:19.
