data_PCOD9313317
_publ_section_title
;
Structure prediction by ZEFSAII (Michael W. Deem and Ramdas Pophale) SiO2 
 PCOD9313317
Probable space group: P 21 21 21
;
_chemical_formula_sum "Si O2"
_cell_formula_units_Z 16
_cell_length_a 19.705076
_cell_length_b 5.177367
_cell_length_c 6.328101
_cell_angle_alpha 90.000000
_cell_angle_beta 90.000000
_cell_angle_gamma 90.000000
_cell_volume 645.595460
_symmetry_space_group_name_H-M "P 21 21 21"
_symmetry_group_IT_number 19
_symmetry_cell_setting 'orthorhombic'
loop_
_space_group_symop_operation_xyz
x,y,z
1/2-x,-y,1/2+z
1/2+x,1/2-y,-z
-x,1/2+y,1/2-z
loop_
_atom_site_type_symbol
_atom_site_label
_atom_site_fract_x
_atom_site_fract_y
_atom_site_fract_z
Si Si1 0.152722 0.034664 0.395787
Si Si2 0.629560 0.226025 0.041143
Si Si3 0.297550 0.228938 0.509623
Si Si4 0.493111 0.092496 0.899274
O O1 0.159044 0.997464 0.894981
O O2 0.178779 0.795056 0.252672
O O3 0.081139 0.960804 0.496471
O O4 0.219293 0.153105 0.499451
O O5 0.680261 0.995258 0.093982
O O6 0.551306 0.152980 0.071712
O O7 0.867376 0.740279 0.286192
O O8 0.512645 0.837855 0.761023
#
# Coordination Sequence:
#
# PCOD9313317 Si02
#       4
#     4   4   4   4
#     4   9  21  31  55  74 104 126 168 205 250 293
#     4   9  19  31  50  75 100 129 164 207 241 293
#     4  10  20  31  50  76 104 129 161 207 252 290
#     4  10  16  31  51  75  94 128 173 209 233 280
#
# _framework density 24.783322999999999
#
# number of rings (size 3 to 8) (size 9 to 14) (size 15 to 20)
#    1.500    1.000    2.500    0.000    3.500    0.000 
#    0.000    0.000    0.000    3.000    0.000    0.000 
#    0.000    0.000    0.000    0.000    0.000    0.000 
#
# Total GULP energy -89165.415354 kJ/mol
# GULP energy per Si atom -5572.838460 kJ/mol
# Density = 2.472692 g / cm^3
# Si number density = 24.783323 Si / 1000 Ang^3
#
#
#
# Elastic Constant Matrix: (Units=GPa)
#
#
# Indices 1 2 3 4 5 6 
#
# 1 192.3944 10.7387 23.6079 0.0000 0.0000 0.0000
# 2 10.7387 132.9501 -0.8422 0.0000 0.0000 0.0000
# 3 23.6079 -0.8422 30.6970 0.0000 0.0000 0.0000
# 4 0.0000 0.0000 0.0000 8.0857 0.0000 0.0000
# 5 0.0000 0.0000 0.0000 0.0000 25.3189 0.0000
# 6 0.0000 0.0000 0.0000 0.0000 0.0000 28.8336
#
#
#
# Elastic Compliance Matrix: (Units=1/GPa)
#
#
# Indices 1 2 3 4 5 6 
#
# 1 0.005772 -0.000494 -0.004452 0.000000 0.000000 0.000000
# 2 -0.000494 0.007565 0.000588 0.000000 0.000000 0.000000
# 3 -0.004452 0.000588 0.036017 0.000000 0.000000 0.000000
# 4 0.000000 0.000000 0.000000 0.123676 0.000000 0.000000
# 5 0.000000 0.000000 0.000000 0.000000 0.039496 0.000000
# 6 0.000000 0.000000 0.000000 0.000000 0.000000 0.034682
#
#
# Mechanical properties :
#
#
# Convention : Reuss Voigt Hill
#
# Bulk Modulus (GPa) = 24.60885 47.00558 35.80722
# Shear Modulus (GPa) = 18.55494 33.95011 26.25252
#
# Velocity S-wave (km/s) = 2.73918 3.70520 3.25819
# Velocity P-wave (km/s) = 4.46714 6.10839 5.35106
#
# Compressibility (1/GPa) = 0.04063578
#
# Stress axis : x y z
#
# Youngs Moduli (GPa) = 173.26312 132.18294 27.76491
#
# Poissons Ratio (x) = 0.06535 0.12362
# Poissons Ratio (y) = 0.08566 -0.01632
# Poissons Ratio (z) = 0.77141 -0.07769
#
# Static dielectric constant tensor:
#      x y z
#    x 2.011220 0.000000 0.000000 
#    y 0.000000 1.958600 0.000000 
#    z 0.000000 0.000000 2.105320 
# 
# From -- ./inp_files/139.got.cif
#   From: 2010.05.17/outbox.cif.g08.bks.cpg/sg19_1_cif.got.tgz:139.got - 2010.06.03 22:46:19.
