data_PCOD9313244
_publ_section_title
;
Structure prediction by ZEFSAII (Michael W. Deem and Ramdas Pophale) SiO2 
 PCOD9313244
Probable space group: P 21 21 2
;
_chemical_formula_sum "Si O2"
_cell_formula_units_Z 22
_cell_length_a 10.990605
_cell_length_b 14.835842
_cell_length_c 5.237755
_cell_angle_alpha 90.000000
_cell_angle_beta 90.000000
_cell_angle_gamma 90.000000
_cell_volume 854.041509
_symmetry_space_group_name_H-M "P 21 21 2"
_symmetry_group_IT_number 18
_symmetry_cell_setting 'orthorhombic'
loop_
_space_group_symop_operation_xyz
x,y,z
-x,-y,z
1/2+x,1/2-y,-z
1/2-x,1/2+y,-z
loop_
_atom_site_type_symbol
_atom_site_label
_atom_site_fract_x
_atom_site_fract_y
_atom_site_fract_z
Si Si1 0.631920 0.905108 0.413038
Si Si2 0.475061 0.342412 0.207122
Si Si3 0.333674 0.747635 0.574253
Si Si4 0.712753 0.582632 0.570874
Si Si5 0.010932 0.666033 0.072127
Si Si6 0.500000 0.500000 0.912410
O O1 0.739341 0.831671 0.368110
O O2 0.573683 0.878780 0.683757
O O3 0.689357 0.003581 0.435370
O O4 0.538139 0.893577 0.177710
O O5 0.549080 0.296426 0.437053
O O6 0.359731 0.396294 0.310006
O O7 0.439547 0.263853 0.014564
O O8 0.556650 0.418659 0.076203
O O9 0.275050 0.820880 0.383379
O O10 0.379413 0.804555 0.818257
O O11 0.604995 0.547260 0.750927
#
# Coordination Sequence:
#
# PCOD9313244 Si02
#       6
#     4   4   4   4   4   2
#     4  12  28  51  81 119 164 214 275 338 409 492
#     4  12  25  51  80 119 169 210 277 344 398 501
#     4  12  26  52  82 117 169 216 269 340 418 481
#     4  12  28  52  81 121 161 224 268 341 417 478
#     4  12  27  52  76 119 165 207 276 338 405 500
#     4  12  26  48  82 124 162 202 292 334 398 496
#
# _framework density 25.759872999999999
#
# number of rings (size 3 to 8) (size 9 to 14) (size 15 to 20)
#    0.000    0.000    3.636    6.000    7.636    2.182 
#    3.273    0.000    0.000    0.000    0.000    0.000 
#    0.000    0.000    0.000    0.000    0.000    0.000 
#
# Total GULP energy -123280.222323 kJ/mol
# GULP energy per Si atom -5603.646469 kJ/mol
# Density = 2.570124 g / cm^3
# Si number density = 25.759873 Si / 1000 Ang^3
#
#
#
# Elastic Constant Matrix: (Units=GPa)
#
#
# Indices 1 2 3 4 5 6 
#
# 1 82.0976 56.5326 59.2294 0.0000 0.0000 0.0000
# 2 56.5326 171.7064 45.5900 0.0000 0.0000 0.0000
# 3 59.2294 45.5900 157.7722 0.0000 0.0000 0.0000
# 4 0.0000 0.0000 0.0000 37.6102 0.0000 0.0000
# 5 0.0000 0.0000 0.0000 0.0000 24.9277 0.0000
# 6 0.0000 0.0000 0.0000 0.0000 0.0000 59.9980
#
#
#
# Elastic Compliance Matrix: (Units=1/GPa)
#
#
# Indices 1 2 3 4 5 6 
#
# 1 0.019975 -0.004967 -0.006064 0.000000 0.000000 0.000000
# 2 -0.004967 0.007543 -0.000315 0.000000 0.000000 0.000000
# 3 -0.006064 -0.000315 0.008706 0.000000 0.000000 0.000000
# 4 0.000000 0.000000 0.000000 0.026589 0.000000 0.000000
# 5 0.000000 0.000000 0.000000 0.000000 0.040116 0.000000
# 6 0.000000 0.000000 0.000000 0.000000 0.000000 0.016667
#
#
# Mechanical properties :
#
#
# Convention : Reuss Voigt Hill
#
# Bulk Modulus (GPa) = 73.89420 81.58669 77.74045
# Shear Modulus (GPa) = 34.06046 41.18880 37.62463
#
# Velocity S-wave (km/s) = 3.64019 4.00303 3.82591
# Velocity P-wave (km/s) = 6.81293 7.28741 7.05416
#
# Compressibility (1/GPa) = 0.01353286
#
# Stress axis : x y z
#
# Youngs Moduli (GPa) = 50.06141 132.57724 114.86730
#
# Poissons Ratio (x) = 0.65847 0.69653
# Poissons Ratio (y) = 0.24864 0.03618
# Poissons Ratio (z) = 0.30356 0.04176
#
# Static dielectric constant tensor:
#      x y z
#    x 2.075720 0.000000 0.000000 
#    y 0.000000 2.006770 0.000000 
#    z 0.000000 0.000000 2.061030 
# 
# From -- ./inp_files/1045.got.cif
#   From: 2010.05.17/outbox.cif.g08.bks.cpg/sg18_1_cif.got.tgz:1045.got - 2010.06.03 22:40:56.
