data_PCOD9313780
_publ_section_title
;
Structure prediction by ZEFSAII (Michael W. Deem and Ramdas Pophale) SiO2 
 PCOD9313780
Probable space group: P 21 21 21
;
_chemical_formula_sum "Si O2"
_cell_formula_units_Z 32
_cell_length_a 11.175028
_cell_length_b 13.830719
_cell_length_c 11.363206
_cell_angle_alpha 90.000000
_cell_angle_beta 90.000000
_cell_angle_gamma 90.000000
_cell_volume 1756.282030
_symmetry_space_group_name_H-M "P 21 21 21"
_symmetry_group_IT_number 19
_symmetry_cell_setting 'orthorhombic'
loop_
_space_group_symop_operation_xyz
x,y,z
1/2-x,-y,1/2+z
1/2+x,1/2-y,-z
-x,1/2+y,1/2-z
loop_
_atom_site_type_symbol
_atom_site_label
_atom_site_fract_x
_atom_site_fract_y
_atom_site_fract_z
Si Si1 0.981090 0.179884 0.209937
Si Si2 0.087190 0.000218 0.075283
Si Si3 0.234868 0.680296 0.475838
Si Si4 0.121905 0.566087 0.091887
Si Si5 0.553246 0.049832 0.126183
Si Si6 0.490656 0.105694 0.792326
Si Si7 0.125702 0.504578 0.610833
Si Si8 0.317091 0.102119 0.014654
O O1 0.861022 0.179057 0.130696
O O2 0.940578 0.154042 0.341854
O O3 0.037627 0.285504 0.200321
O O4 0.060713 0.095266 0.155317
O O5 0.217993 0.019425 0.024868
O O6 0.068324 0.913610 0.166436
O O7 0.988194 0.992321 0.973794
O O8 0.355733 0.631458 0.425597
O O9 0.179664 0.609868 0.575716
O O10 0.241955 0.791395 0.515032
O O11 0.264842 0.568388 0.082356
O O12 0.089869 0.474870 0.178339
O O13 0.068283 0.538284 0.966066
O O14 0.418800 0.089692 0.114169
O O15 0.589263 0.014548 0.255009
O O16 0.390542 0.093609 0.892980
#
# Coordination Sequence:
#
# PCOD9313780 Si02
#       8
#     4   4   4   4   4   4   4   4
#     4   9  17  36  58  80 107 147 185 226 276 339
#     4  10  22  35  58  82 114 150 186 231 287 339
#     4   9  19  34  57  85 106 142 190 233 275 330
#     4   9  18  34  57  82 107 143 184 231 281 326
#     4  10  20  35  57  82 116 142 186 236 283 331
#     4   9  20  37  58  79 113 149 183 228 286 335
#     4  10  20  34  58  84 111 139 189 237 280 328
#     4  10  22  35  57  82 114 148 191 228 282 348
#
# _framework density 18.220307999999999
#
# number of rings (size 3 to 8) (size 9 to 14) (size 15 to 20)
#    0.000    2.500    1.250    0.000   12.250    0.000 
#    0.000    1.250    8.250    0.000    0.000    0.000 
#    0.000    0.000    0.000    0.000    0.000    0.000 
#
# Total GULP energy -178338.145259 kJ/mol
# GULP energy per Si atom -5573.067039 kJ/mol
# Density = 1.817884 g / cm^3
# Si number density = 18.220308 Si / 1000 Ang^3
#
#
#
# Elastic Constant Matrix: (Units=GPa)
#
#
# Indices 1 2 3 4 5 6 
#
# 1 70.6684 13.0760 15.7675 0.0000 0.0000 0.0000
# 2 13.0760 40.8908 26.3048 0.0000 0.0000 0.0000
# 3 15.7675 26.3048 93.2209 0.0000 0.0000 0.0000
# 4 0.0000 0.0000 0.0000 22.3216 0.0000 0.0000
# 5 0.0000 0.0000 0.0000 0.0000 11.0797 0.0000
# 6 0.0000 0.0000 0.0000 0.0000 0.0000 18.5136
#
#
#
# Elastic Compliance Matrix: (Units=1/GPa)
#
#
# Indices 1 2 3 4 5 6 
#
# 1 0.015203 -0.003919 -0.001466 0.000000 0.000000 0.000000
# 2 -0.003919 0.030889 -0.008053 0.000000 0.000000 0.000000
# 3 -0.001466 -0.008053 0.013248 0.000000 0.000000 0.000000
# 4 0.000000 0.000000 0.000000 0.044800 0.000000 0.000000
# 5 0.000000 0.000000 0.000000 0.000000 0.090255 0.000000
# 6 0.000000 0.000000 0.000000 0.000000 0.000000 0.054014
#
#
# Mechanical properties :
#
#
# Convention : Reuss Voigt Hill
#
# Bulk Modulus (GPa) = 30.80331 35.00852 32.90592
# Shear Modulus (GPa) = 17.47607 20.35844 18.91725
#
# Velocity S-wave (km/s) = 3.10038 3.34630 3.22569
# Velocity P-wave (km/s) = 5.45520 5.84688 5.65443
#
# Compressibility (1/GPa) = 0.03246404
#
# Stress axis : x y z
#
# Youngs Moduli (GPa) = 65.77787 32.37382 75.48537
#
# Poissons Ratio (x) = 0.12686 0.11064
# Poissons Ratio (y) = 0.25776 0.60791
# Poissons Ratio (z) = 0.09641 0.26072
#
# Static dielectric constant tensor:
#      x y z
#    x 1.641290 0.000000 0.000000 
#    y 0.000000 1.635800 0.000000 
#    z 0.000000 0.000000 1.624530 
# 
# From -- ./inp_files/5114.got.cif
#   From: 2010.05.17/outbox.cif.g08.bks.cpg/sg19_3_cif.got.tgz:5114.got - 2010.06.03 22:46:19.
