data_PCOD9313919
_publ_section_title
;
Structure prediction by ZEFSAII (Michael W. Deem and Ramdas Pophale) SiO2 
 PCOD9313919
Probable space group: P 21 21 21
;
_chemical_formula_sum "Si O2"
_cell_formula_units_Z 28
_cell_length_a 8.692853
_cell_length_b 9.148113
_cell_length_c 13.660317
_cell_angle_alpha 90.000000
_cell_angle_beta 90.000000
_cell_angle_gamma 90.000000
_cell_volume 1086.312142
_symmetry_space_group_name_H-M "P 21 21 21"
_symmetry_group_IT_number 19
_symmetry_cell_setting 'orthorhombic'
loop_
_space_group_symop_operation_xyz
x,y,z
1/2-x,-y,1/2+z
1/2+x,1/2-y,-z
-x,1/2+y,1/2-z
loop_
_atom_site_type_symbol
_atom_site_label
_atom_site_fract_x
_atom_site_fract_y
_atom_site_fract_z
Si Si1 0.594742 0.519380 0.916336
Si Si2 0.432133 0.954947 0.363962
Si Si3 0.866455 0.304541 0.147275
Si Si4 0.271240 0.702893 0.160437
Si Si5 0.597408 0.668420 0.429599
Si Si6 0.355867 0.555919 0.749288
Si Si7 0.455054 0.412324 0.341638
O O1 0.660526 0.681804 0.892995
O O2 0.737489 0.405433 0.905932
O O3 0.469714 0.487001 0.832395
O O4 0.536613 0.519421 0.028239
O O5 0.245811 0.946749 0.360870
O O6 0.520194 0.797584 0.368440
O O7 0.478325 0.000406 0.254028
O O8 0.764369 0.214876 0.223255
O O9 0.028085 0.335756 0.196033
O O10 0.885148 0.261054 0.036370
O O11 0.218723 0.535559 0.157263
O O12 0.438371 0.771105 0.141904
O O13 0.481619 0.529297 0.427514
O O14 0.218258 0.622913 0.813410
#
# Coordination Sequence:
#
# PCOD9313919 Si02
#       7
#     4   4   4   4   4   4   4
#     4   9  21  38  62  90 114 150 203 241 288 362
#     4  10  20  38  59  86 120 153 193 246 295 347
#     4   9  20  36  60  89 114 149 202 238 284 359
#     4   9  19  39  57  84 124 155 191 247 298 346
#     4  10  20  38  61  85 117 153 190 247 298 344
#     4  11  21  37  60  87 121 159 196 246 296 350
#     4  10  21  34  55  85 118 153 197 239 291 354
#
# _framework density 25.775279000000001
#
# number of rings (size 3 to 8) (size 9 to 14) (size 15 to 20)
#    0.000    2.286    0.000    3.429    0.000    6.857 
#    0.000   11.429    0.000    0.000    0.000    0.000 
#    0.000    0.000    0.000    0.000    0.000    0.000 
#
# Total GULP energy -156218.791502 kJ/mol
# GULP energy per Si atom -5579.242554 kJ/mol
# Density = 2.571661 g / cm^3
# Si number density = 25.775279 Si / 1000 Ang^3
#
#
#
# Elastic Constant Matrix: (Units=GPa)
#
#
# Indices 1 2 3 4 5 6 
#
# 1 146.6264 47.2801 21.8196 0.0000 0.0000 0.0000
# 2 47.2801 62.9194 2.8087 0.0000 0.0000 0.0000
# 3 21.8196 2.8087 62.1780 0.0000 0.0000 0.0000
# 4 0.0000 0.0000 0.0000 30.3366 0.0000 0.0000
# 5 0.0000 0.0000 0.0000 0.0000 27.3019 0.0000
# 6 0.0000 0.0000 0.0000 0.0000 0.0000 26.5408
#
#
#
# Elastic Compliance Matrix: (Units=1/GPa)
#
#
# Indices 1 2 3 4 5 6 
#
# 1 0.009538 -0.007032 -0.003030 0.000000 0.000000 0.000000
# 2 -0.007032 0.021110 0.001514 0.000000 0.000000 0.000000
# 3 -0.003030 0.001514 0.017078 0.000000 0.000000 0.000000
# 4 0.000000 0.000000 0.000000 0.032963 0.000000 0.000000
# 5 0.000000 0.000000 0.000000 0.000000 0.036627 0.000000
# 6 0.000000 0.000000 0.000000 0.000000 0.000000 0.037678
#
#
# Mechanical properties :
#
#
# Convention : Reuss Voigt Hill
#
# Bulk Modulus (GPa) = 32.64692 46.17119 39.40906
# Shear Modulus (GPa) = 27.42721 30.15690 28.79206
#
# Velocity S-wave (km/s) = 3.26558 3.42423 3.34584
# Velocity P-wave (km/s) = 5.18769 5.79531 5.49990
#
# Compressibility (1/GPa) = 0.03063076
#
# Stress axis : x y z
#
# Youngs Moduli (GPa) = 104.83838 47.37062 58.55622
#
# Poissons Ratio (x) = 0.33313 0.17740
# Poissons Ratio (y) = 0.73726 -0.08867
# Poissons Ratio (z) = 0.31762 -0.07173
#
# Static dielectric constant tensor:
#      x y z
#    x 2.100990 0.000000 0.000000 
#    y 0.000000 2.282190 0.000000 
#    z 0.000000 0.000000 1.987560 
# 
# From -- ./inp_files/5201.got.cif
#   From: 2010.05.17/outbox.cif.g08.bks.cpg/sg19_3_cif.got.tgz:5201.got - 2010.06.03 22:46:19.
