data_PCOD9313052
_publ_section_title
;
Structure prediction by ZEFSAII (Michael W. Deem and Ramdas Pophale) SiO2 
 PCOD9313052
Probable space group: P 21 21 2
;
_chemical_formula_sum "Si O2"
_cell_formula_units_Z 24
_cell_length_a 9.691901
_cell_length_b 14.883719
_cell_length_c 8.495749
_cell_angle_alpha 90.000000
_cell_angle_beta 90.000000
_cell_angle_gamma 90.000000
_cell_volume 1225.524801
_symmetry_space_group_name_H-M "P 21 21 2"
_symmetry_group_IT_number 18
_symmetry_cell_setting 'orthorhombic'
loop_
_space_group_symop_operation_xyz
x,y,z
-x,-y,z
1/2+x,1/2-y,-z
1/2-x,1/2+y,-z
loop_
_atom_site_type_symbol
_atom_site_label
_atom_site_fract_x
_atom_site_fract_y
_atom_site_fract_z
Si Si1 0.500000 0.500000 0.265768
Si Si2 0.091589 0.192035 0.651216
Si Si3 0.377636 0.752319 0.696116
Si Si4 0.240598 0.410360 0.091997
Si Si5 0.614241 0.824369 0.185945
Si Si6 0.341256 0.253924 0.861694
Si Si7 0.500000 0.000000 0.101120
O O1 0.553588 0.412994 0.361880
O O2 0.371529 0.463569 0.161645
O O3 0.136563 0.239070 0.489624
O O4 0.212896 0.206874 0.777669
O O5 0.959762 0.245501 0.718314
O O6 0.329064 0.847350 0.772265
O O7 0.275126 0.680665 0.776642
O O8 0.534924 0.732103 0.741026
O O9 0.291213 0.342317 0.954515
O O10 0.127867 0.473691 0.010581
O O11 0.542297 0.918097 0.212927
O O12 0.596280 0.806415 0.001072
#
# Coordination Sequence:
#
# PCOD9313052 Si02
#       7
#     2   4   4   4   4   4   2
#     4  12  26  44  70 104 136 178 234 284 344 404
#     4  12  24  46  68  97 143 179 221 288 342 408
#     4  11  24  44  69  96 138 180 222 276 356 400
#     4  11  25  43  73  99 133 179 234 281 339 401
#     4  11  22  44  67  99 131 178 230 276 331 405
#     4  11  21  43  73  94 128 184 223 277 335 402
#     4  12  22  44  70 106 130 174 242 280 326 412
#
# _framework density 19.583447
#
# number of rings (size 3 to 8) (size 9 to 14) (size 15 to 20)
#    0.000    0.667    6.667    3.000    2.333    0.000 
#    6.000    0.000    0.000    0.000    0.000    0.000 
#    0.000    0.000    0.000    0.000    0.000    0.000 
#
# Total GULP energy -134035.200848 kJ/mol
# GULP energy per Si atom -5584.800035 kJ/mol
# Density = 1.953887 g / cm^3
# Si number density = 19.583447 Si / 1000 Ang^3
#
#
#
# Elastic Constant Matrix: (Units=GPa)
#
#
# Indices 1 2 3 4 5 6 
#
# 1 83.8783 30.4755 -5.3157 0.0000 0.0000 0.0000
# 2 30.4755 110.8594 19.1074 0.0000 0.0000 0.0000
# 3 -5.3157 19.1074 56.9391 0.0000 0.0000 0.0000
# 4 0.0000 0.0000 0.0000 8.0052 0.0000 0.0000
# 5 0.0000 0.0000 0.0000 0.0000 20.4661 0.0000
# 6 0.0000 0.0000 0.0000 0.0000 0.0000 36.5338
#
#
#
# Elastic Compliance Matrix: (Units=1/GPa)
#
#
# Indices 1 2 3 4 5 6 
#
# 1 0.013621 -0.004207 0.002683 0.000000 0.000000 0.000000
# 2 -0.004207 0.010873 -0.004042 0.000000 0.000000 0.000000
# 3 0.002683 -0.004042 0.019169 0.000000 0.000000 0.000000
# 4 0.000000 0.000000 0.000000 0.124919 0.000000 0.000000
# 5 0.000000 0.000000 0.000000 0.000000 0.048861 0.000000
# 6 0.000000 0.000000 0.000000 0.000000 0.000000 0.027372
#
#
# Mechanical properties :
#
#
# Convention : Reuss Voigt Hill
#
# Bulk Modulus (GPa) = 30.73788 37.80126 34.26957
# Shear Modulus (GPa) = 18.74132 26.82832 22.78482
#
# Velocity S-wave (km/s) = 3.09689 3.70530 3.41467
# Velocity P-wave (km/s) = 5.34019 6.13598 5.75186
#
# Compressibility (1/GPa) = 0.03253315
#
# Stress axis : x y z
#
# Youngs Moduli (GPa) = 73.41853 91.96674 52.16648
#
# Poissons Ratio (x) = 0.38689 -0.13998
# Poissons Ratio (y) = 0.30886 0.21084
# Poissons Ratio (z) = -0.19700 0.37169
#
# Static dielectric constant tensor:
#      x y z
#    x 1.700290 0.000000 0.000000 
#    y 0.000000 1.720430 0.000000 
#    z 0.000000 0.000000 1.664250 
# 
# From -- ./inp_files/3187.got.cif
#   From: 2010.05.17/outbox.cif.g08.bks.cpg/sg18_2_cif.got.tgz:3187.got - 2010.06.03 22:40:56.
