data_PCOD9313593
_publ_section_title
;
Structure prediction by ZEFSAII (Michael W. Deem and Ramdas Pophale) SiO2 
 PCOD9313593
Probable space group: P 21 21 21
;
_chemical_formula_sum "Si O2"
_cell_formula_units_Z 24
_cell_length_a 5.451234
_cell_length_b 10.661640
_cell_length_c 16.002473
_cell_angle_alpha 90.000000
_cell_angle_beta 90.000000
_cell_angle_gamma 90.000000
_cell_volume 930.049240
_symmetry_space_group_name_H-M "P 21 21 21"
_symmetry_group_IT_number 19
_symmetry_cell_setting 'orthorhombic'
loop_
_space_group_symop_operation_xyz
x,y,z
1/2-x,-y,1/2+z
1/2+x,1/2-y,-z
-x,1/2+y,1/2-z
loop_
_atom_site_type_symbol
_atom_site_label
_atom_site_fract_x
_atom_site_fract_y
_atom_site_fract_z
Si Si1 0.894884 0.792441 0.275246
Si Si2 0.612187 0.234514 0.313225
Si Si3 0.391473 0.485872 0.852107
Si Si4 0.898978 0.828902 0.987731
Si Si5 0.888871 0.483603 0.892697
Si Si6 0.012123 0.318084 0.031101
O O1 0.632761 0.741574 0.241877
O O2 0.905205 0.925354 0.226340
O O3 0.129518 0.721807 0.233995
O O4 0.947709 0.827380 0.370834
O O5 0.592367 0.135924 0.389691
O O6 0.618312 0.373410 0.360094
O O7 0.645736 0.414898 0.860624
O O8 0.129395 0.424273 0.852978
O O9 0.399048 0.567907 0.938961
O O10 0.145855 0.747671 0.001100
O O11 0.928345 0.450801 0.989642
O O12 0.775472 0.230379 0.006640
#
# Coordination Sequence:
#
# PCOD9313593 Si02
#       6
#     4   4   4   4   4   4
#     4  10  20  37  61  84 115 161 202 239 310 352
#     4  10  19  35  65  88 125 157 185 257 307 373
#     4  10  19  35  65  89 125 156 183 258 308 374
#     4  12  16  30  58  97 122 155 188 226 330 377
#     4  10  20  37  61  83 113 161 205 244 306 350
#     4  12  26  44  66  83 120 176 219 254 297 368
#
# _framework density 25.805085999999999
#
# number of rings (size 3 to 8) (size 9 to 14) (size 15 to 20)
#    0.000    1.333    6.667    2.000    0.000    0.000 
#    0.000    0.000   58.667    0.000    0.000    0.000 
#    0.000    0.000    0.000    0.000    0.000    0.000 
#
# Total GULP energy -134143.940458 kJ/mol
# GULP energy per Si atom -5589.330852 kJ/mol
# Density = 2.574635 g / cm^3
# Si number density = 25.805086 Si / 1000 Ang^3
#
#
#
# Elastic Constant Matrix: (Units=GPa)
#
#
# Indices 1 2 3 4 5 6 
#
# 1 271.8040 21.6621 97.7380 0.0000 0.0000 0.0000
# 2 21.6621 56.4240 29.8318 0.0000 0.0000 0.0000
# 3 97.7380 29.8318 224.4578 0.0000 0.0000 0.0000
# 4 0.0000 0.0000 0.0000 38.1880 0.0000 0.0000
# 5 0.0000 0.0000 0.0000 0.0000 55.2988 0.0000
# 6 0.0000 0.0000 0.0000 0.0000 0.0000 39.7354
#
#
#
# Elastic Compliance Matrix: (Units=1/GPa)
#
#
# Indices 1 2 3 4 5 6 
#
# 1 0.004390 -0.000726 -0.001815 0.000000 0.000000 0.000000
# 2 -0.000726 0.019182 -0.002233 0.000000 0.000000 0.000000
# 3 -0.001815 -0.002233 0.005542 0.000000 0.000000 0.000000
# 4 0.000000 0.000000 0.000000 0.026186 0.000000 0.000000
# 5 0.000000 0.000000 0.000000 0.000000 0.018084 0.000000
# 6 0.000000 0.000000 0.000000 0.000000 0.000000 0.025166
#
#
# Mechanical properties :
#
#
# Convention : Reuss Voigt Hill
#
# Bulk Modulus (GPa) = 51.10873 94.57217 72.84045
# Shear Modulus (GPa) = 43.62210 53.54138 48.58174
#
# Velocity S-wave (km/s) = 4.11596 4.55998 4.34365
# Velocity P-wave (km/s) = 6.51436 8.02825 7.31060
#
# Compressibility (1/GPa) = 0.01956613
#
# Stress axis : x y z
#
# Youngs Moduli (GPa) = 227.81127 52.13117 180.42945
#
# Poissons Ratio (x) = 0.03783 0.32747
# Poissons Ratio (y) = 0.16531 0.40298
# Poissons Ratio (z) = 0.41347 0.11643
#
# Static dielectric constant tensor:
#      x y z
#    x 2.091750 0.000000 0.000000 
#    y 0.000000 2.127660 0.000000 
#    z 0.000000 0.000000 2.117230 
# 
# From -- ./inp_files/5666.got.cif
#   From: 2010.05.17/outbox.cif.g08.bks.cpg/sg19_3_cif.got.tgz:5666.got - 2010.06.03 22:46:19.
