data_PCOD9313741
_publ_section_title
;
Structure prediction by ZEFSAII (Michael W. Deem and Ramdas Pophale) SiO2 
 PCOD9313741
Probable space group: P 21 21 21
;
_chemical_formula_sum "Si O2"
_cell_formula_units_Z 32
_cell_length_a 9.599567
_cell_length_b 12.079769
_cell_length_c 11.778765
_cell_angle_alpha 90.000000
_cell_angle_beta 90.000000
_cell_angle_gamma 90.000000
_cell_volume 1365.872090
_symmetry_space_group_name_H-M "P 21 21 21"
_symmetry_group_IT_number 19
_symmetry_cell_setting 'orthorhombic'
loop_
_space_group_symop_operation_xyz
x,y,z
1/2-x,-y,1/2+z
1/2+x,1/2-y,-z
-x,1/2+y,1/2-z
loop_
_atom_site_type_symbol
_atom_site_label
_atom_site_fract_x
_atom_site_fract_y
_atom_site_fract_z
Si Si1 0.491706 0.769722 0.296908
Si Si2 0.415922 0.466226 0.356505
Si Si3 0.280016 0.328745 0.805804
Si Si4 0.959719 0.570727 0.412385
Si Si5 0.643096 0.622012 0.462381
Si Si6 0.630834 0.476615 0.664955
Si Si7 0.593483 0.815730 0.936264
Si Si8 0.433623 0.105142 0.407400
O O1 0.546277 0.882011 0.243152
O O2 0.331828 0.765312 0.335882
O O3 0.583432 0.730241 0.402147
O O4 0.501163 0.677368 0.195070
O O5 0.301713 0.556348 0.325504
O O6 0.559689 0.525154 0.393623
O O7 0.359440 0.397334 0.463535
O O8 0.421519 0.342763 0.876243
O O9 0.312808 0.313660 0.674117
O O10 0.807350 0.617478 0.441986
O O11 0.925306 0.508183 0.292367
O O12 0.002614 0.494057 0.519405
O O13 0.603282 0.585383 0.589492
O O14 0.549238 0.371401 0.609690
O O15 0.791677 0.444027 0.646405
O O16 0.588373 0.696770 0.994442
#
# Coordination Sequence:
#
# PCOD9313741 Si02
#       8
#     4   4   4   4   4   4   4   4
#     4  10  20  36  59  84 112 155 206 238 295 361
#     4   9  20  37  58  84 115 156 195 244 295 363
#     4  10  22  35  55  89 120 150 190 257 300 346
#     4  10  20  35  53  86 123 149 187 249 301 346
#     4   9  18  36  57  78 114 157 192 233 300 359
#     4   9  18  35  53  79 117 150 184 241 300 343
#     4   9  20  33  57  86 116 146 198 245 296 342
#     4  10  20  31  60  86 113 155 198 241 289 362
#
# _framework density 23.428255
#
# number of rings (size 3 to 8) (size 9 to 14) (size 15 to 20)
#    0.000    2.500    1.250    0.000    8.750    1.000 
#    0.000    0.000    2.750    1.500    0.000    0.000 
#    0.000    0.000    0.000    0.000    0.000    0.000 
#
# Total GULP energy -178783.783817 kJ/mol
# GULP energy per Si atom -5586.993244 kJ/mol
# Density = 2.337493 g / cm^3
# Si number density = 23.428255 Si / 1000 Ang^3
#
#
#
# Elastic Constant Matrix: (Units=GPa)
#
#
# Indices 1 2 3 4 5 6 
#
# 1 92.1809 16.7945 31.2566 0.0000 0.0000 0.0000
# 2 16.7945 56.5171 49.4075 0.0000 0.0000 0.0000
# 3 31.2566 49.4075 167.8394 0.0000 0.0000 0.0000
# 4 0.0000 0.0000 0.0000 52.2478 0.0000 0.0000
# 5 0.0000 0.0000 0.0000 0.0000 10.0460 0.0000
# 6 0.0000 0.0000 0.0000 0.0000 0.0000 11.8594
#
#
#
# Elastic Compliance Matrix: (Units=1/GPa)
#
#
# Indices 1 2 3 4 5 6 
#
# 1 0.011767 -0.002129 -0.001565 0.000000 0.000000 0.000000
# 2 -0.002129 0.024210 -0.006730 0.000000 0.000000 0.000000
# 3 -0.001565 -0.006730 0.008231 0.000000 0.000000 0.000000
# 4 0.000000 0.000000 0.000000 0.019140 0.000000 0.000000
# 5 0.000000 0.000000 0.000000 0.000000 0.099542 0.000000
# 6 0.000000 0.000000 0.000000 0.000000 0.000000 0.084321
#
#
# Mechanical properties :
#
#
# Convention : Reuss Voigt Hill
#
# Bulk Modulus (GPa) = 42.80841 56.82828 49.81834
# Shear Modulus (GPa) = 18.12619 29.43590 23.78104
#
# Velocity S-wave (km/s) = 2.78454 3.54846 3.18945
# Velocity P-wave (km/s) = 5.35257 6.41075 5.90541
#
# Compressibility (1/GPa) = 0.02335990
#
# Stress axis : x y z
#
# Youngs Moduli (GPa) = 84.98627 41.30515 121.49620
#
# Poissons Ratio (x) = 0.08793 0.19010
# Poissons Ratio (y) = 0.18091 0.81772
# Poissons Ratio (z) = 0.13297 0.27800
#
# Static dielectric constant tensor:
#      x y z
#    x 1.861070 0.000000 0.000000 
#    y 0.000000 1.926640 0.000000 
#    z 0.000000 0.000000 1.917690 
# 
# From -- ./inp_files/4678.got.cif
#   From: 2010.05.17/outbox.cif.g08.bks.cpg/sg19_3_cif.got.tgz:4678.got - 2010.06.03 22:46:19.
