data_PCOD9313594
_publ_section_title
;
Structure prediction by ZEFSAII (Michael W. Deem and Ramdas Pophale) SiO2 
 PCOD9313594
Probable space group: P 21 21 21
;
_chemical_formula_sum "Si O2"
_cell_formula_units_Z 32
_cell_length_a 9.931707
_cell_length_b 20.972279
_cell_length_c 7.590440
_cell_angle_alpha 90.000000
_cell_angle_beta 90.000000
_cell_angle_gamma 90.000000
_cell_volume 1581.016772
_symmetry_space_group_name_H-M "P 21 21 21"
_symmetry_group_IT_number 19
_symmetry_cell_setting 'orthorhombic'
loop_
_space_group_symop_operation_xyz
x,y,z
1/2-x,-y,1/2+z
1/2+x,1/2-y,-z
-x,1/2+y,1/2-z
loop_
_atom_site_type_symbol
_atom_site_label
_atom_site_fract_x
_atom_site_fract_y
_atom_site_fract_z
Si Si1 0.480126 0.563587 0.986545
Si Si2 0.326326 0.428712 0.595981
Si Si3 0.645727 0.792795 0.892486
Si Si4 0.391305 0.693466 0.376052
Si Si5 0.851764 0.323199 0.655094
Si Si6 0.860312 0.931278 0.400168
Si Si7 0.406856 0.807851 0.629174
Si Si8 0.433711 0.424289 0.999896
O O1 0.443909 0.573628 0.780387
O O2 0.516392 0.489679 0.021339
O O3 0.334333 0.571088 0.077916
O O4 0.583913 0.615198 0.059779
O O5 0.377231 0.361960 0.516688
O O6 0.377074 0.496879 0.525007
O O7 0.371325 0.428390 0.800923
O O8 0.775334 0.803230 0.769455
O O9 0.517730 0.782530 0.767372
O O10 0.672224 0.733732 0.017683
O O11 0.534983 0.703548 0.286931
O O12 0.398573 0.625316 0.470704
O O13 0.359137 0.748009 0.516540
O O14 0.716261 0.337424 0.761744
O O15 0.697930 0.923472 0.375410
O O16 0.477505 0.860892 0.505948
#
# Coordination Sequence:
#
# PCOD9313594 Si02
#       8
#     4   4   4   4   4   4   4   4
#     4  10  20  36  64  94 121 162 207 259 317 363
#     4   9  18  36  62  91 120 153 211 262 299 353
#     4  11  22  42  61  89 125 164 212 253 308 370
#     4  12  23  41  61  91 123 162 215 258 308 370
#     4  12  25  40  60  91 128 165 206 257 317 377
#     4  10  19  35  67  92 117 155 210 265 303 354
#     4  11  24  40  60  91 129 168 200 256 315 375
#     4   9  19  40  61  91 125 163 207 260 307 366
#
# _framework density 20.24014
#
# number of rings (size 3 to 8) (size 9 to 14) (size 15 to 20)
#    0.000    1.500    3.750    2.250    1.750    0.000 
#    0.000    5.000    0.000    0.000    0.000    0.000 
#    0.000    0.000    0.000    0.000    0.000    0.000 
#
# Total GULP energy -178682.367862 kJ/mol
# GULP energy per Si atom -5583.823996 kJ/mol
# Density = 2.019407 g / cm^3
# Si number density = 20.240140 Si / 1000 Ang^3
#
#
#
# Elastic Constant Matrix: (Units=GPa)
#
#
# Indices 1 2 3 4 5 6 
#
# 1 35.3829 -20.7378 -8.3860 0.0000 0.0000 0.0000
# 2 -20.7378 102.3648 10.4794 0.0000 0.0000 0.0000
# 3 -8.3860 10.4794 23.8549 0.0000 0.0000 0.0000
# 4 0.0000 0.0000 0.0000 19.8484 0.0000 0.0000
# 5 0.0000 0.0000 0.0000 0.0000 25.2090 0.0000
# 6 0.0000 0.0000 0.0000 0.0000 0.0000 10.3469
#
#
#
# Elastic Compliance Matrix: (Units=1/GPa)
#
#
# Indices 1 2 3 4 5 6 
#
# 1 0.033944 0.005921 0.009332 0.000000 0.000000 0.000000
# 2 0.005921 0.011262 -0.002866 0.000000 0.000000 0.000000
# 3 0.009332 -0.002866 0.046460 0.000000 0.000000 0.000000
# 4 0.000000 0.000000 0.000000 0.050382 0.000000 0.000000
# 5 0.000000 0.000000 0.000000 0.000000 0.039668 0.000000
# 6 0.000000 0.000000 0.000000 0.000000 0.000000 0.096647
#
#
# Mechanical properties :
#
#
# Convention : Reuss Voigt Hill
#
# Bulk Modulus (GPa) = 8.58806 13.81263 11.20035
# Shear Modulus (GPa) = 17.09974 23.09733 20.09854
#
# Velocity S-wave (km/s) = 2.90977 3.38178 3.15462
# Velocity P-wave (km/s) = 3.94225 4.69976 4.33757
#
# Compressibility (1/GPa) = 0.11644068
#
# Stress axis : x y z
#
# Youngs Moduli (GPa) = 29.45992 88.79453 21.52409
#
# Poissons Ratio (x) = -0.52579 -0.20086
# Poissons Ratio (y) = -0.17444 0.06168
# Poissons Ratio (z) = -0.27491 0.25446
#
# Static dielectric constant tensor:
#      x y z
#    x 1.688680 0.000000 0.000000 
#    y 0.000000 1.773210 0.000000 
#    z 0.000000 0.000000 1.753990 
# 
# From -- ./inp_files/3193.got.cif
#   From: 2010.05.17/outbox.cif.g08.bks.cpg/sg19_2_cif.got.tgz:3193.got - 2010.06.03 22:46:19.
