data_PCOD9313747
_publ_section_title
;
Structure prediction by ZEFSAII (Michael W. Deem and Ramdas Pophale) SiO2 
 PCOD9313747
Probable space group: P 21 21 21
;
_chemical_formula_sum "Si O2"
_cell_formula_units_Z 32
_cell_length_a 5.289277
_cell_length_b 12.366097
_cell_length_c 19.802214
_cell_angle_alpha 90.000000
_cell_angle_beta 90.000000
_cell_angle_gamma 90.000000
_cell_volume 1295.217519
_symmetry_space_group_name_H-M "P 21 21 21"
_symmetry_group_IT_number 19
_symmetry_cell_setting 'orthorhombic'
loop_
_space_group_symop_operation_xyz
x,y,z
1/2-x,-y,1/2+z
1/2+x,1/2-y,-z
-x,1/2+y,1/2-z
loop_
_atom_site_type_symbol
_atom_site_label
_atom_site_fract_x
_atom_site_fract_y
_atom_site_fract_z
Si Si1 0.711927 0.055619 0.906903
Si Si2 0.786463 0.317393 0.519212
Si Si3 0.658092 0.373121 0.859583
Si Si4 0.157516 0.358150 0.787743
Si Si5 0.663304 0.897458 0.252143
Si Si6 0.142031 0.323475 0.628100
Si Si7 0.656645 0.625373 0.816089
Si Si8 0.216357 0.071630 0.989100
O O1 0.749339 0.085818 0.828752
O O2 0.716110 0.923540 0.906948
O O3 0.460105 0.096444 0.943250
O O4 0.959112 0.090665 0.948134
O O5 0.543109 0.244154 0.505054
O O6 0.768104 0.441917 0.496603
O O7 0.858618 0.326556 0.599342
O O8 0.398534 0.323963 0.831462
O O9 0.649753 0.501066 0.839682
O O10 0.895574 0.322230 0.820719
O O11 0.702035 0.368251 0.939403
O O12 0.160235 0.488790 0.788256
O O13 0.160919 0.342008 0.707726
O O14 0.371531 0.864729 0.242564
O O15 0.886547 0.836681 0.212437
O O16 0.253008 0.203098 0.623744
#
# Coordination Sequence:
#
# PCOD9313747 Si02
#       8
#     4   4   4   4   4   4   4   4
#     4  10  21  36  55  78 109 140 180 222 260 321
#     4  11  23  35  50  77 117 150 172 208 257 324
#     4  10  20  35  52  78 106 136 178 219 266 310
#     4   9  20  35  53  73 106 140 176 227 259 305
#     4   9  19  35  51  75 103 138 177 219 266 304
#     4  10  22  36  55  82 111 146 182 213 266 320
#     4  10  20  32  53  77 107 138 170 216 262 319
#     4  11  21  34  55  78 103 144 183 216 262 321
#
# _framework density 24.706275999999999
#
# number of rings (size 3 to 8) (size 9 to 14) (size 15 to 20)
#    0.000    2.000    0.000    3.750    0.000   14.000 
#    0.000    0.000    0.000    0.000    0.000   17.500 
#    0.000    0.000    0.000    0.000    0.000    0.000 
#
# Total GULP energy -178956.747859 kJ/mol
# GULP energy per Si atom -5592.398371 kJ/mol
# Density = 2.465004 g / cm^3
# Si number density = 24.706276 Si / 1000 Ang^3
#
#
#
# Elastic Constant Matrix: (Units=GPa)
#
#
# Indices 1 2 3 4 5 6 
#
# 1 179.9887 9.7469 62.0812 0.0000 0.0000 0.0000
# 2 9.7469 48.9470 -6.6546 0.0000 0.0000 0.0000
# 3 62.0812 -6.6546 99.8448 0.0000 0.0000 0.0000
# 4 0.0000 0.0000 0.0000 18.2676 0.0000 0.0000
# 5 0.0000 0.0000 0.0000 0.0000 52.1257 0.0000
# 6 0.0000 0.0000 0.0000 0.0000 0.0000 18.4576
#
#
#
# Elastic Compliance Matrix: (Units=1/GPa)
#
#
# Indices 1 2 3 4 5 6 
#
# 1 0.007277 -0.002083 -0.004664 0.000000 0.000000 0.000000
# 2 -0.002083 0.021213 0.002709 0.000000 0.000000 0.000000
# 3 -0.004664 0.002709 0.013096 0.000000 0.000000 0.000000
# 4 0.000000 0.000000 0.000000 0.054742 0.000000 0.000000
# 5 0.000000 0.000000 0.000000 0.000000 0.019184 0.000000
# 6 0.000000 0.000000 0.000000 0.000000 0.000000 0.054178
#
#
# Mechanical properties :
#
#
# Convention : Reuss Voigt Hill
#
# Bulk Modulus (GPa) = 29.84085 51.01416 40.42750
# Shear Modulus (GPa) = 26.46386 35.34398 30.90392
#
# Velocity S-wave (km/s) = 3.27638 3.78639 3.54058
# Velocity P-wave (km/s) = 5.13978 6.30942 5.75439
#
# Compressibility (1/GPa) = 0.03351111
#
# Stress axis : x y z
#
# Youngs Moduli (GPa) = 137.41347 47.13994 76.35988
#
# Poissons Ratio (x) = 0.09820 0.35612
# Poissons Ratio (y) = 0.28626 -0.20687
# Poissons Ratio (z) = 0.64086 -0.12771
#
# Static dielectric constant tensor:
#      x y z
#    x 1.928770 0.000000 0.000000 
#    y 0.000000 2.061470 0.000000 
#    z 0.000000 0.000000 2.015210 
# 
# From -- ./inp_files/2069.got.cif
#   From: 2010.05.17/outbox.cif.g08.bks.cpg/sg19_2_cif.got.tgz:2069.got - 2010.06.03 22:46:19.
