data_PCOD9313794
_publ_section_title
;
Structure prediction by ZEFSAII (Michael W. Deem and Ramdas Pophale) SiO2 
 PCOD9313794
Probable space group: P 21 21 21
;
_chemical_formula_sum "Si O2"
_cell_formula_units_Z 24
_cell_length_a 5.049639
_cell_length_b 15.256063
_cell_length_c 15.499076
_cell_angle_alpha 90.000000
_cell_angle_beta 90.000000
_cell_angle_gamma 90.000000
_cell_volume 1194.011783
_symmetry_space_group_name_H-M "P 21 21 21"
_symmetry_group_IT_number 19
_symmetry_cell_setting 'orthorhombic'
loop_
_space_group_symop_operation_xyz
x,y,z
1/2-x,-y,1/2+z
1/2+x,1/2-y,-z
-x,1/2+y,1/2-z
loop_
_atom_site_type_symbol
_atom_site_label
_atom_site_fract_x
_atom_site_fract_y
_atom_site_fract_z
Si Si1 0.297438 0.056633 0.047472
Si Si2 0.795842 0.118815 0.148870
Si Si3 0.314330 0.780402 0.451399
Si Si4 0.722274 0.753694 0.110780
Si Si5 0.999025 0.882065 0.008295
Si Si6 0.741068 0.843537 0.836190
O O1 0.588452 0.068793 0.086723
O O2 0.089356 0.095657 0.117369
O O3 0.261208 0.118472 0.963034
O O4 0.195726 0.960125 0.028017
O O5 0.746445 0.222885 0.132307
O O6 0.744695 0.101769 0.248810
O O7 0.618793 0.765694 0.477987
O O8 0.668123 0.703735 0.019506
O O9 0.455840 0.735536 0.163045
O O10 0.954071 0.698811 0.155438
O O11 0.817105 0.850487 0.087258
O O12 0.822047 0.897288 0.922434
#
# Coordination Sequence:
#
# PCOD9313794 Si02
#       6
#     4   4   4   4   4   4
#     4  10  21  33  58  81 109 147 183 229 267 338
#     4  10  20  36  56  80 111 145 182 229 280 326
#     4   8  16  33  51  74 101 140 182 211 265 329
#     4  10  20  35  58  77 106 151 181 222 271 336
#     4  10  21  36  58  82 111 144 196 217 280 325
#     4  10  20  35  57  78 110 147 180 228 285 310
#
# _framework density 20.100301999999999
#
# number of rings (size 3 to 8) (size 9 to 14) (size 15 to 20)
#    1.000    1.333    1.667    1.000    2.333    0.000 
#    0.000    3.333    0.000    0.000    0.000    0.000 
#    0.000    0.000    0.000    0.000    0.000    0.000 
#
# Total GULP energy -133671.866667 kJ/mol
# GULP energy per Si atom -5569.661111 kJ/mol
# Density = 2.005455 g / cm^3
# Si number density = 20.100302 Si / 1000 Ang^3
#
#
#
# Elastic Constant Matrix: (Units=GPa)
#
#
# Indices 1 2 3 4 5 6 
#
# 1 83.2930 -12.5423 -1.1099 0.0000 0.0000 0.0000
# 2 -12.5423 35.5781 -7.8817 0.0000 0.0000 0.0000
# 3 -1.1099 -7.8817 40.6591 0.0000 0.0000 0.0000
# 4 0.0000 0.0000 0.0000 10.9876 0.0000 0.0000
# 5 0.0000 0.0000 0.0000 0.0000 18.0572 0.0000
# 6 0.0000 0.0000 0.0000 0.0000 0.0000 17.7022
#
#
#
# Elastic Compliance Matrix: (Units=1/GPa)
#
#
# Indices 1 2 3 4 5 6 
#
# 1 0.012742 0.004774 0.001273 0.000000 0.000000 0.000000
# 2 0.004774 0.031157 0.006170 0.000000 0.000000 0.000000
# 3 0.001273 0.006170 0.025826 0.000000 0.000000 0.000000
# 4 0.000000 0.000000 0.000000 0.091012 0.000000 0.000000
# 5 0.000000 0.000000 0.000000 0.000000 0.055380 0.000000
# 6 0.000000 0.000000 0.000000 0.000000 0.000000 0.056490
#
#
# Mechanical properties :
#
#
# Convention : Reuss Voigt Hill
#
# Bulk Modulus (GPa) = 10.62041 12.94027 11.78034
# Shear Modulus (GPa) = 17.88540 21.42034 19.65287
#
# Velocity S-wave (km/s) = 2.98620 3.26801 3.13028
# Velocity P-wave (km/s) = 4.14548 4.54881 4.35182
#
# Compressibility (1/GPa) = 0.09415830
#
# Stress axis : x y z
#
# Youngs Moduli (GPa) = 78.48291 32.09555 38.72135
#
# Poissons Ratio (x) = -0.15322 -0.04930
# Poissons Ratio (y) = -0.37467 -0.23891
# Poissons Ratio (z) = -0.09993 -0.19803
#
# Static dielectric constant tensor:
#      x y z
#    x 1.733790 0.000000 0.000000 
#    y 0.000000 1.751870 0.000000 
#    z 0.000000 0.000000 1.740460 
# 
# From -- ./inp_files/1440.got.cif
#   From: 2010.05.17/outbox.cif.g08.bks.cpg/sg19_1_cif.got.tgz:1440.got - 2010.06.03 22:46:19.
