data_PCOD9313321
_publ_section_title
;
Structure prediction by ZEFSAII (Michael W. Deem and Ramdas Pophale) SiO2 
 PCOD9313321
Probable space group: P 21 21 21
;
_chemical_formula_sum "Si O2"
_cell_formula_units_Z 28
_cell_length_a 10.918910
_cell_length_b 12.425503
_cell_length_c 8.150714
_cell_angle_alpha 90.000000
_cell_angle_beta 90.000000
_cell_angle_gamma 90.000000
_cell_volume 1105.831405
_symmetry_space_group_name_H-M "P 21 21 21"
_symmetry_group_IT_number 19
_symmetry_cell_setting 'orthorhombic'
loop_
_space_group_symop_operation_xyz
x,y,z
1/2-x,-y,1/2+z
1/2+x,1/2-y,-z
-x,1/2+y,1/2-z
loop_
_atom_site_type_symbol
_atom_site_label
_atom_site_fract_x
_atom_site_fract_y
_atom_site_fract_z
Si Si1 0.421697 0.296496 0.724320
Si Si2 0.906532 0.554154 0.607994
Si Si3 0.283308 0.842548 0.090956
Si Si4 0.602097 0.112905 0.404474
Si Si5 0.153658 0.691321 0.589861
Si Si6 0.317155 0.860303 0.733888
Si Si7 0.305288 0.511514 0.749381
O O1 0.347941 0.217522 0.606473
O O2 0.564843 0.280350 0.748270
O O3 0.404670 0.424472 0.685441
O O4 0.356219 0.281330 0.899331
O O5 0.815431 0.584413 0.753841
O O6 0.854748 0.571066 0.424902
O O7 0.970679 0.439028 0.618547
O O8 0.023510 0.636187 0.628377
O O9 0.376133 0.739686 0.093864
O O10 0.301722 0.902429 0.918541
O O11 0.684646 0.064307 0.256725
O O12 0.654669 0.061187 0.576233
O O13 0.196061 0.794667 0.688272
O O14 0.261173 0.606584 0.631669
#
# Coordination Sequence:
#
# PCOD9313321 Si02
#       7
#     4   4   4   4   4   4   4
#     4  10  21  36  54  88 118 149 190 247 298 352
#     4  10  22  40  55  89 123 155 193 248 299 347
#     4  11  23  36  60  89 117 156 202 242 289 362
#     4  10  20  34  57  87 120 149 191 254 300 347
#     4  10  19  35  57  82 117 154 186 247 304 344
#     4  11  21  35  57  85 116 156 187 241 292 354
#     4  10  16  32  54  84 113 143 187 249 310 340
#
# _framework density 25.320315999999998
#
# number of rings (size 3 to 8) (size 9 to 14) (size 15 to 20)
#    0.000    1.714    7.143    0.000    2.000    1.143 
#    0.000    0.000    0.000    3.429    0.000    0.000 
#    0.000    0.000    0.000    0.000    0.000    0.000 
#
# Total GULP energy -156543.484114 kJ/mol
# GULP energy per Si atom -5590.838718 kJ/mol
# Density = 2.526269 g / cm^3
# Si number density = 25.320316 Si / 1000 Ang^3
#
#
#
# Elastic Constant Matrix: (Units=GPa)
#
#
# Indices 1 2 3 4 5 6 
#
# 1 108.5894 52.6057 68.2230 0.0000 0.0000 0.0000
# 2 52.6057 93.9318 57.2077 0.0000 0.0000 0.0000
# 3 68.2230 57.2077 156.3336 0.0000 0.0000 0.0000
# 4 0.0000 0.0000 0.0000 54.2654 0.0000 0.0000
# 5 0.0000 0.0000 0.0000 0.0000 40.3608 0.0000
# 6 0.0000 0.0000 0.0000 0.0000 0.0000 43.4769
#
#
#
# Elastic Compliance Matrix: (Units=1/GPa)
#
#
# Indices 1 2 3 4 5 6 
#
# 1 0.014630 -0.005540 -0.004357 0.000000 0.000000 0.000000
# 2 -0.005540 0.015797 -0.003363 0.000000 0.000000 0.000000
# 3 -0.004357 -0.003363 0.009529 0.000000 0.000000 0.000000
# 4 0.000000 0.000000 0.000000 0.018428 0.000000 0.000000
# 5 0.000000 0.000000 0.000000 0.000000 0.024777 0.000000
# 6 0.000000 0.000000 0.000000 0.000000 0.000000 0.023001
#
#
# Mechanical properties :
#
#
# Convention : Reuss Voigt Hill
#
# Bulk Modulus (GPa) = 74.43017 79.43640 76.93328
# Shear Modulus (GPa) = 36.45383 39.67519 38.06451
#
# Velocity S-wave (km/s) = 3.79846 3.96274 3.88147
# Velocity P-wave (km/s) = 6.97832 7.23730 7.10899
#
# Compressibility (1/GPa) = 0.01343541
#
# Stress axis : x y z
#
# Youngs Moduli (GPa) = 68.35123 63.30426 104.94553
#
# Poissons Ratio (x) = 0.35069 0.45729
# Poissons Ratio (y) = 0.37865 0.35293
# Poissons Ratio (z) = 0.29783 0.21289
#
# Static dielectric constant tensor:
#      x y z
#    x 2.042890 0.000000 0.000000 
#    y 0.000000 2.038550 0.000000 
#    z 0.000000 0.000000 1.956650 
# 
# From -- ./inp_files/3541.got.cif
#   From: 2010.05.17/outbox.cif.g08.bks.cpg/sg19_2_cif.got.tgz:3541.got - 2010.06.03 22:46:19.
