data_PCOD9313583
_publ_section_title
;
Structure prediction by ZEFSAII (Michael W. Deem and Ramdas Pophale) SiO2 
 PCOD9313583
Probable space group: P 21 21 21
;
_chemical_formula_sum "Si O2"
_cell_formula_units_Z 32
_cell_length_a 7.339009
_cell_length_b 11.804532
_cell_length_c 14.524434
_cell_angle_alpha 90.000000
_cell_angle_beta 90.000000
_cell_angle_gamma 90.000000
_cell_volume 1258.303520
_symmetry_space_group_name_H-M "P 21 21 21"
_symmetry_group_IT_number 19
_symmetry_cell_setting 'orthorhombic'
loop_
_space_group_symop_operation_xyz
x,y,z
1/2-x,-y,1/2+z
1/2+x,1/2-y,-z
-x,1/2+y,1/2-z
loop_
_atom_site_type_symbol
_atom_site_label
_atom_site_fract_x
_atom_site_fract_y
_atom_site_fract_z
Si Si1 0.082704 0.973892 0.455491
Si Si2 0.067751 0.304955 0.651376
Si Si3 0.423202 0.327215 0.876632
Si Si4 0.817065 0.313238 0.488411
Si Si5 0.743314 0.359489 0.219294
Si Si6 0.717517 0.947783 0.334647
Si Si7 0.548857 0.078251 0.660350
Si Si8 0.175018 0.767309 0.560848
O O1 0.225996 0.927247 0.376637
O O2 0.068754 0.883001 0.538976
O O3 0.167845 0.087352 0.496998
O O4 0.890756 0.977875 0.401276
O O5 0.228797 0.278154 0.578657
O O6 0.080396 0.206254 0.728568
O O7 0.100511 0.436871 0.681354
O O8 0.886542 0.288118 0.590875
O O9 0.372290 0.252866 0.789539
O O10 0.385670 0.456918 0.871280
O O11 0.631848 0.303199 0.899280
O O12 0.302313 0.279162 0.958272
O O13 0.996127 0.351695 0.429772
O O14 0.849447 0.437302 0.292107
O O15 0.810565 0.897314 0.242547
O O16 0.611171 0.844778 0.385012
#
# Coordination Sequence:
#
# PCOD9313583 Si02
#       8
#     4   4   4   4   4   4   4   4
#     4  10  21  39  63  90 123 157 211 257 307 367
#     4  11  23  40  65  88 125 166 203 258 308 372
#     4  11  19  36  61  90 119 154 206 248 305 364
#     4  11  23  40  64  89 122 162 208 256 311 369
#     4   9  20  38  62  86 122 161 204 251 308 372
#     4  11  21  37  63  90 121 163 208 249 302 376
#     4  10  19  35  60  87 113 164 205 243 295 375
#     4  11  20  35  60  94 121 157 205 254 304 357
#
# _framework density 25.431066999999999
#
# number of rings (size 3 to 8) (size 9 to 14) (size 15 to 20)
#    0.000    1.500    6.250    1.500    0.000    0.000 
#    0.000    1.250   27.500    0.000    0.000    0.000 
#    0.000    0.000    0.000    0.000    0.000    0.000 
#
# Total GULP energy -178489.242194 kJ/mol
# GULP energy per Si atom -5577.788819 kJ/mol
# Density = 2.537318 g / cm^3
# Si number density = 25.431067 Si / 1000 Ang^3
#
#
#
# Elastic Constant Matrix: (Units=GPa)
#
#
# Indices 1 2 3 4 5 6 
#
# 1 64.4466 1.4824 10.3204 0.0000 0.0000 0.0000
# 2 1.4824 51.1345 26.2936 0.0000 0.0000 0.0000
# 3 10.3204 26.2936 83.0413 0.0000 0.0000 0.0000
# 4 0.0000 0.0000 0.0000 39.2556 0.0000 0.0000
# 5 0.0000 0.0000 0.0000 0.0000 45.9025 0.0000
# 6 0.0000 0.0000 0.0000 0.0000 0.0000 5.3059
#
#
#
# Elastic Compliance Matrix: (Units=1/GPa)
#
#
# Indices 1 2 3 4 5 6 
#
# 1 0.015850 0.000661 -0.002179 0.000000 0.000000 0.000000
# 2 0.000661 0.023387 -0.007487 0.000000 0.000000 0.000000
# 3 -0.002179 -0.007487 0.014684 0.000000 0.000000 0.000000
# 4 0.000000 0.000000 0.000000 0.025474 0.000000 0.000000
# 5 0.000000 0.000000 0.000000 0.000000 0.021785 0.000000
# 6 0.000000 0.000000 0.000000 0.000000 0.000000 0.188470
#
#
# Mechanical properties :
#
#
# Convention : Reuss Voigt Hill
#
# Bulk Modulus (GPa) = 27.84706 30.53505 29.19105
# Shear Modulus (GPa) = 15.64302 28.79452 22.21877
#
# Velocity S-wave (km/s) = 2.48284 3.36855 2.95903
# Velocity P-wave (km/s) = 4.38100 5.21177 4.81434
#
# Compressibility (1/GPa) = 0.03591043
#
# Stress axis : x y z
#
# Youngs Moduli (GPa) = 63.08954 42.75861 68.10250
#
# Poissons Ratio (x) = -0.02827 0.14841
# Poissons Ratio (y) = -0.04171 0.50990
# Poissons Ratio (z) = 0.13749 0.32015
#
# Static dielectric constant tensor:
#      x y z
#    x 2.069620 0.000000 0.000000 
#    y 0.000000 1.916490 0.000000 
#    z 0.000000 0.000000 1.944570 
# 
# From -- ./inp_files/5948.got.cif
#   From: 2010.05.17/outbox.cif.g08.bks.cpg/sg19_3_cif.got.tgz:5948.got - 2010.06.03 22:46:19.
