data_PCOD9313687
_publ_section_title
;
Structure prediction by ZEFSAII (Michael W. Deem and Ramdas Pophale) SiO2 
 PCOD9313687
Probable space group: P 21 21 21
;
_chemical_formula_sum "Si O2"
_cell_formula_units_Z 32
_cell_length_a 12.546037
_cell_length_b 10.968311
_cell_length_c 8.913507
_cell_angle_alpha 90.000000
_cell_angle_beta 90.000000
_cell_angle_gamma 90.000000
_cell_volume 1226.577320
_symmetry_space_group_name_H-M "P 21 21 21"
_symmetry_group_IT_number 19
_symmetry_cell_setting 'orthorhombic'
loop_
_space_group_symop_operation_xyz
x,y,z
1/2-x,-y,1/2+z
1/2+x,1/2-y,-z
-x,1/2+y,1/2-z
loop_
_atom_site_type_symbol
_atom_site_label
_atom_site_fract_x
_atom_site_fract_y
_atom_site_fract_z
Si Si1 0.372078 0.578560 0.091914
Si Si2 0.799764 0.496580 0.929987
Si Si3 0.981749 0.289500 0.392983
Si Si4 0.323229 0.848470 0.773345
Si Si5 0.703947 0.091154 0.026499
Si Si6 0.130411 0.662947 0.818233
Si Si7 0.502501 0.673964 0.379933
Si Si8 0.258642 0.217430 0.728242
O O1 0.450126 0.609373 0.231487
O O2 0.288046 0.689850 0.103916
O O3 0.445377 0.598101 0.947118
O O4 0.295096 0.461408 0.082315
O O5 0.696942 0.419698 0.880811
O O6 0.898402 0.406456 0.928681
O O7 0.813046 0.599298 0.800287
O O8 0.792393 0.564840 0.086440
O O9 0.933928 0.220972 0.539314
O O10 0.878422 0.323034 0.299722
O O11 0.059417 0.198455 0.306151
O O12 0.235034 0.742073 0.779137
O O13 0.589639 0.155250 0.994124
O O14 0.754945 0.197963 0.126795
O O15 0.670528 0.967680 0.117477
O O16 0.045838 0.696303 0.682120
#
# Coordination Sequence:
#
# PCOD9313687 Si02
#       8
#     4   4   4   4   4   4   4   4
#     4  10  20  38  63  90 119 169 220 268 316 400
#     4  11  22  44  63  99 132 172 225 271 329 401
#     4  11  17  36  66  90 118 170 218 263 323 388
#     4  11  22  39  70  92 130 174 218 277 326 397
#     4  11  20  36  63  92 124 157 218 274 322 384
#     4  10  19  39  63  94 119 165 232 263 319 408
#     4   9  23  34  67  93 120 173 211 277 327 389
#     4  11  23  36  63  94 126 166 216 275 324 399
#
# _framework density 26.088857999999998
#
# number of rings (size 3 to 8) (size 9 to 14) (size 15 to 20)
#    0.000    1.500    5.000    0.750    3.500    1.000 
#    0.000    5.000    2.750    0.000    0.000    0.000 
#    0.000    0.000    0.000    0.000    0.000    0.000 
#
# Total GULP energy -178738.200149 kJ/mol
# GULP energy per Si atom -5585.568755 kJ/mol
# Density = 2.602948 g / cm^3
# Si number density = 26.088858 Si / 1000 Ang^3
#
#
#
# Elastic Constant Matrix: (Units=GPa)
#
#
# Indices 1 2 3 4 5 6 
#
# 1 140.3078 39.2830 10.7068 0.0000 0.0000 0.0000
# 2 39.2830 96.1471 43.7404 0.0000 0.0000 0.0000
# 3 10.7068 43.7404 34.1482 0.0000 0.0000 0.0000
# 4 0.0000 0.0000 0.0000 55.8343 0.0000 0.0000
# 5 0.0000 0.0000 0.0000 0.0000 33.6861 0.0000
# 6 0.0000 0.0000 0.0000 0.0000 0.0000 51.2821
#
#
#
# Elastic Compliance Matrix: (Units=1/GPa)
#
#
# Indices 1 2 3 4 5 6 
#
# 1 0.008288 -0.005282 0.004167 0.000000 0.000000 0.000000
# 2 -0.005282 0.028291 -0.034582 0.000000 0.000000 0.000000
# 3 0.004167 -0.034582 0.072274 0.000000 0.000000 0.000000
# 4 0.000000 0.000000 0.000000 0.017910 0.000000 0.000000
# 5 0.000000 0.000000 0.000000 0.000000 0.029686 0.000000
# 6 0.000000 0.000000 0.000000 0.000000 0.000000 0.019500
#
#
# Mechanical properties :
#
#
# Convention : Reuss Voigt Hill
#
# Bulk Modulus (GPa) = 26.69581 50.89593 38.79587
# Shear Modulus (GPa) = 19.24332 39.95203 29.59767
#
# Velocity S-wave (km/s) = 2.71884 3.91753 3.37188
# Velocity P-wave (km/s) = 4.48453 6.32565 5.48292
#
# Compressibility (1/GPa) = 0.03745906
#
# Stress axis : x y z
#
# Youngs Moduli (GPa) = 120.65575 35.34640 13.83621
#
# Poissons Ratio (x) = 0.18670 -0.05766
# Poissons Ratio (y) = 0.63730 0.47849
# Poissons Ratio (z) = -0.50278 1.22236
#
# Static dielectric constant tensor:
#      x y z
#    x 2.023670 0.000000 0.000000 
#    y 0.000000 2.055240 0.000000 
#    z 0.000000 0.000000 2.292250 
# 
# From -- ./inp_files/5026.got.cif
#   From: 2010.05.17/outbox.cif.g08.bks.cpg/sg19_3_cif.got.tgz:5026.got - 2010.06.03 22:46:19.
