data_PCOD9313344
_publ_section_title
;
Structure prediction by ZEFSAII (Michael W. Deem and Ramdas Pophale) SiO2 
 PCOD9313344
Probable space group: P 21 21 21
;
_chemical_formula_sum "Si O2"
_cell_formula_units_Z 32
_cell_length_a 8.632983
_cell_length_b 8.922106
_cell_length_c 19.143616
_cell_angle_alpha 90.000000
_cell_angle_beta 90.000000
_cell_angle_gamma 90.000000
_cell_volume 1474.525334
_symmetry_space_group_name_H-M "P 21 21 21"
_symmetry_group_IT_number 19
_symmetry_cell_setting 'orthorhombic'
loop_
_space_group_symop_operation_xyz
x,y,z
1/2-x,-y,1/2+z
1/2+x,1/2-y,-z
-x,1/2+y,1/2-z
loop_
_atom_site_type_symbol
_atom_site_label
_atom_site_fract_x
_atom_site_fract_y
_atom_site_fract_z
Si Si1 0.829311 0.425065 0.555649
Si Si2 0.978648 0.276549 0.686888
Si Si3 0.056231 0.301712 0.229444
Si Si4 0.260310 0.479907 0.332474
Si Si5 0.309313 0.233026 0.648936
Si Si6 0.300957 0.040012 0.215776
Si Si7 0.229426 0.831989 0.347920
Si Si8 0.429534 0.695960 0.952962
O O1 0.863050 0.347597 0.630340
O O2 0.783612 0.590722 0.580441
O O3 0.686874 0.328233 0.523909
O O4 0.985826 0.402929 0.511692
O O5 0.935481 0.343810 0.761985
O O6 0.150901 0.318999 0.663708
O O7 0.926276 0.102732 0.679233
O O8 0.162557 0.428218 0.264502
O O9 0.155454 0.153259 0.218983
O O10 0.926791 0.261361 0.286626
O O11 0.956074 0.351572 0.163123
O O12 0.264391 0.656280 0.344077
O O13 0.165474 0.406726 0.397893
O O14 0.421281 0.269067 0.585400
O O15 0.241949 0.061660 0.648776
O O16 0.301479 0.918321 0.279965
#
# Coordination Sequence:
#
# PCOD9313344 Si02
#       8
#     4   4   4   4   4   4   4   4
#     4  10  21  37  58  76 102 138 182 222 259 317
#     4   9  19  35  52  78 109 139 174 214 260 314
#     4   9  17  32  53  79 109 142 173 205 254 320
#     4   9  19  33  54  78 108 136 166 214 268 313
#     4  10  18  30  55  79 103 135 176 218 257 300
#     4   9  19  33  52  80 111 142 174 208 257 321
#     4  10  17  31  55  81 104 135 173 214 258 307
#     4  10  20  37  55  75  98 137 178 219 263 310
#
# _framework density 21.701899999999998
#
# number of rings (size 3 to 8) (size 9 to 14) (size 15 to 20)
#    0.000    2.500    0.000    5.250    0.000    3.000 
#    0.000    5.000    0.000   15.000    0.000    0.000 
#    0.000    0.000    0.000    0.000    0.000    0.000 
#
# Total GULP energy -178232.349250 kJ/mol
# GULP energy per Si atom -5569.760914 kJ/mol
# Density = 2.165251 g / cm^3
# Si number density = 21.701900 Si / 1000 Ang^3
#
#
#
# Elastic Constant Matrix: (Units=GPa)
#
#
# Indices 1 2 3 4 5 6 
#
# 1 99.1538 18.2988 10.0492 0.0000 0.0000 0.0000
# 2 18.2988 113.2360 7.7193 0.0000 0.0000 0.0000
# 3 10.0492 7.7193 31.6670 0.0000 0.0000 0.0000
# 4 0.0000 0.0000 0.0000 19.4645 0.0000 0.0000
# 5 0.0000 0.0000 0.0000 0.0000 31.4086 0.0000
# 6 0.0000 0.0000 0.0000 0.0000 0.0000 25.7439
#
#
#
# Elastic Compliance Matrix: (Units=1/GPa)
#
#
# Indices 1 2 3 4 5 6 
#
# 1 0.010671 -0.001519 -0.003016 0.000000 0.000000 0.000000
# 2 -0.001519 0.009197 -0.001760 0.000000 0.000000 0.000000
# 3 -0.003016 -0.001760 0.032965 0.000000 0.000000 0.000000
# 4 0.000000 0.000000 0.000000 0.051376 0.000000 0.000000
# 5 0.000000 0.000000 0.000000 0.000000 0.031838 0.000000
# 6 0.000000 0.000000 0.000000 0.000000 0.000000 0.038844
#
#
# Mechanical properties :
#
#
# Convention : Reuss Voigt Hill
#
# Bulk Modulus (GPa) = 24.84912 35.13239 29.99075
# Shear Modulus (GPa) = 24.88865 29.18937 27.03901
#
# Velocity S-wave (km/s) = 3.39018 3.67142 3.53360
# Velocity P-wave (km/s) = 5.17682 5.84775 5.52249
#
# Compressibility (1/GPa) = 0.04024287
#
# Stress axis : x y z
#
# Youngs Moduli (GPa) = 93.70895 108.73675 30.33545
#
# Poissons Ratio (x) = 0.16516 0.09150
# Poissons Ratio (y) = 0.14233 0.05338
# Poissons Ratio (z) = 0.28265 0.19136
#
# Static dielectric constant tensor:
#      x y z
#    x 1.870490 0.000000 0.000000 
#    y 0.000000 1.850280 0.000000 
#    z 0.000000 0.000000 1.863100 
# 
# From -- ./inp_files/3167.got.cif
#   From: 2010.05.17/outbox.cif.g08.bks.cpg/sg19_2_cif.got.tgz:3167.got - 2010.06.03 22:46:19.
