data_PCOD9313130
_publ_section_title
;
Structure prediction by ZEFSAII (Michael W. Deem and Ramdas Pophale) SiO2 
 PCOD9313130
Probable space group: P 21 21 2
;
_chemical_formula_sum "Si O2"
_cell_formula_units_Z 18
_cell_length_a 12.478851
_cell_length_b 5.749907
_cell_length_c 10.238255
_cell_angle_alpha 90.000000
_cell_angle_beta 90.000000
_cell_angle_gamma 90.000000
_cell_volume 734.617655
_symmetry_space_group_name_H-M "P 21 21 2"
_symmetry_group_IT_number 18
_symmetry_cell_setting 'orthorhombic'
loop_
_space_group_symop_operation_xyz
x,y,z
-x,-y,z
1/2+x,1/2-y,-z
1/2-x,1/2+y,-z
loop_
_atom_site_type_symbol
_atom_site_label
_atom_site_fract_x
_atom_site_fract_y
_atom_site_fract_z
Si Si1 0.719169 0.501868 0.319634
Si Si2 0.500000 0.500000 0.686444
Si Si3 0.391835 0.155647 0.875816
Si Si4 0.894441 0.649693 0.516508
Si Si5 0.561923 0.752772 0.164138
O O1 0.791986 0.466355 0.192483
O O2 0.796545 0.523570 0.444182
O O3 0.644699 0.283969 0.355834
O O4 0.642249 0.716639 0.285710
O O5 0.418451 0.369218 0.781180
O O6 0.432999 0.664365 0.591876
O O7 0.500000 0.000000 0.869376
O O8 0.376867 0.226139 0.025123
O O9 0.000000 0.500000 0.536008
O O10 0.500000 0.500000 0.155065
O O11 0.500000 0.000000 0.171757
#
# Coordination Sequence:
#
# PCOD9313130 Si02
#       5
#     4   2   4   4   4
#     4  12  27  50  81 116 154 219 268 320 409 489
#     4  12  20  46  82 102 162 206 256 324 408 470
#     4  11  23  49  81 114 160 209 264 334 401 478
#     4  12  28  50  75 118 160 206 265 335 399 477
#     4  11  29  52  79 118 165 210 271 345 398 468
#
# _framework density 24.502542999999999
#
# number of rings (size 3 to 8) (size 9 to 14) (size 15 to 20)
#    0.000    0.444    5.556    1.333    1.556    9.778 
#    0.000    0.000    0.000    0.000    0.000    0.000 
#    0.000    0.000    0.000    0.000    0.000    0.000 
#
# Total GULP energy -100835.604724 kJ/mol
# GULP energy per Si atom -5601.978040 kJ/mol
# Density = 2.444677 g / cm^3
# Si number density = 24.502543 Si / 1000 Ang^3
#
#
#
# Elastic Constant Matrix: (Units=GPa)
#
#
# Indices 1 2 3 4 5 6 
#
# 1 120.4441 78.5259 65.5978 0.0000 0.0000 0.0000
# 2 78.5259 122.7687 43.8890 0.0000 0.0000 0.0000
# 3 65.5978 43.8890 131.0929 0.0000 0.0000 0.0000
# 4 0.0000 0.0000 0.0000 51.2919 0.0000 0.0000
# 5 0.0000 0.0000 0.0000 0.0000 25.5976 0.0000
# 6 0.0000 0.0000 0.0000 0.0000 0.0000 53.1331
#
#
#
# Elastic Compliance Matrix: (Units=1/GPa)
#
#
# Indices 1 2 3 4 5 6 
#
# 1 0.017237 -0.009021 -0.005605 0.000000 0.000000 0.000000
# 2 -0.009021 0.013974 -0.000164 0.000000 0.000000 0.000000
# 3 -0.005605 -0.000164 0.010488 0.000000 0.000000 0.000000
# 4 0.000000 0.000000 0.000000 0.019496 0.000000 0.000000
# 5 0.000000 0.000000 0.000000 0.000000 0.039066 0.000000
# 6 0.000000 0.000000 0.000000 0.000000 0.000000 0.018821
#
#
# Mechanical properties :
#
#
# Convention : Reuss Voigt Hill
#
# Bulk Modulus (GPa) = 82.52225 83.37010 82.94617
# Shear Modulus (GPa) = 32.74331 38.42405 35.58368
#
# Velocity S-wave (km/s) = 3.65954 3.96430 3.81497
# Velocity P-wave (km/s) = 7.18390 7.41979 7.30280
#
# Compressibility (1/GPa) = 0.01211794
#
# Stress axis : x y z
#
# Youngs Moduli (GPa) = 58.01499 71.55900 95.34866
#
# Poissons Ratio (x) = 0.64557 0.53442
# Poissons Ratio (y) = 0.52338 0.01567
# Poissons Ratio (z) = 0.32517 0.01176
#
# Static dielectric constant tensor:
#      x y z
#    x 1.981580 0.000000 0.000000 
#    y 0.000000 2.028990 0.000000 
#    z 0.000000 0.000000 1.885370 
# 
# From -- ./inp_files/5809.got.cif
#   From: 2010.05.17/outbox.cif.g08.bks.cpg/sg18_3_cif.got.tgz:5809.got - 2010.06.03 22:40:56.
