data_PCOD9313325
_publ_section_title
;
Structure prediction by ZEFSAII (Michael W. Deem and Ramdas Pophale) SiO2 
 PCOD9313325
Probable space group: P 21 21 21
;
_chemical_formula_sum "Si O2"
_cell_formula_units_Z 32
_cell_length_a 8.385588
_cell_length_b 20.861478
_cell_length_c 8.275179
_cell_angle_alpha 90.000000
_cell_angle_beta 90.000000
_cell_angle_gamma 90.000000
_cell_volume 1447.624724
_symmetry_space_group_name_H-M "P 21 21 21"
_symmetry_group_IT_number 19
_symmetry_cell_setting 'orthorhombic'
loop_
_space_group_symop_operation_xyz
x,y,z
1/2-x,-y,1/2+z
1/2+x,1/2-y,-z
-x,1/2+y,1/2-z
loop_
_atom_site_type_symbol
_atom_site_label
_atom_site_fract_x
_atom_site_fract_y
_atom_site_fract_z
Si Si1 0.372720 0.379304 0.912508
Si Si2 0.634315 0.692874 0.102917
Si Si3 0.442341 0.618537 0.863427
Si Si4 0.671580 0.009305 0.415078
Si Si5 0.016978 0.410649 0.836100
Si Si6 0.382441 0.333799 0.254727
Si Si7 0.548518 0.519865 0.633640
Si Si8 0.551781 0.378546 0.573392
O O1 0.181741 0.376217 0.887891
O O2 0.447107 0.366557 0.736304
O O3 0.397319 0.452657 0.975164
O O4 0.436102 0.339830 0.067776
O O5 0.577207 0.638251 0.226478
O O6 0.611128 0.762057 0.178273
O O7 0.815814 0.676167 0.066530
O O8 0.531886 0.677857 0.943192
O O9 0.301838 0.642781 0.748817
O O10 0.563298 0.566732 0.786361
O O11 0.348725 0.576826 0.996523
O O12 0.574263 0.023776 0.252903
O O13 0.855894 0.994351 0.378066
O O14 0.912625 0.434312 0.984575
O O15 0.468443 0.375201 0.396533
O O16 0.622310 0.449920 0.610272
#
# Coordination Sequence:
#
# PCOD9313325 Si02
#       8
#     4   4   4   4   4   4   4   4
#     4  11  22  39  74 100 116 169 224 281 318 377
#     4  11  28  43  56  94 141 186 208 257 348 404
#     4  11  20  40  69  91 130 170 217 277 327 385
#     4  10  16  34  66 101 121 146 219 281 320 372
#     4  10  20  39  64  95 127 165 217 270 327 386
#     4  12  24  45  69  92 127 181 236 270 308 393
#     4  11  18  35  70  99 121 157 220 277 333 371
#     4  12  24  43  66 102 135 164 219 281 333 402
#
# _framework density 22.105176
#
# number of rings (size 3 to 8) (size 9 to 14) (size 15 to 20)
#    0.000    1.000    6.250    3.000    0.000    2.000 
#    4.500    0.000    0.000    0.000    0.000    0.000 
#    0.000    0.000    0.000    0.000    0.000    0.000 
#
# Total GULP energy -178561.585472 kJ/mol
# GULP energy per Si atom -5580.049546 kJ/mol
# Density = 2.205486 g / cm^3
# Si number density = 22.105176 Si / 1000 Ang^3
#
#
#
# Elastic Constant Matrix: (Units=GPa)
#
#
# Indices 1 2 3 4 5 6 
#
# 1 21.7504 7.2931 14.7745 0.0000 0.0000 0.0000
# 2 7.2931 60.4894 -10.5502 0.0000 0.0000 0.0000
# 3 14.7745 -10.5502 92.8813 0.0000 0.0000 0.0000
# 4 0.0000 0.0000 0.0000 22.8413 0.0000 0.0000
# 5 0.0000 0.0000 0.0000 0.0000 12.7823 0.0000
# 6 0.0000 0.0000 0.0000 0.0000 0.0000 17.0190
#
#
#
# Elastic Compliance Matrix: (Units=1/GPa)
#
#
# Indices 1 2 3 4 5 6 
#
# 1 0.055424 -0.008386 -0.009769 0.000000 0.000000 0.000000
# 2 -0.008386 0.018135 0.003394 0.000000 0.000000 0.000000
# 3 -0.009769 0.003394 0.012706 0.000000 0.000000 0.000000
# 4 0.000000 0.000000 0.000000 0.043780 0.000000 0.000000
# 5 0.000000 0.000000 0.000000 0.000000 0.078233 0.000000
# 6 0.000000 0.000000 0.000000 0.000000 0.000000 0.058758
#
#
# Mechanical properties :
#
#
# Convention : Reuss Voigt Hill
#
# Bulk Modulus (GPa) = 17.62350 22.01731 19.82041
# Shear Modulus (GPa) = 15.84929 21.43545 18.64237
#
# Velocity S-wave (km/s) = 2.68058 3.11738 2.90720
# Velocity P-wave (km/s) = 4.19172 4.78950 4.50055
#
# Compressibility (1/GPa) = 0.05674243
#
# Stress axis : x y z
#
# Youngs Moduli (GPa) = 18.04286 55.14244 78.70412
#
# Poissons Ratio (x) = 0.46243 0.76884
# Poissons Ratio (y) = 0.15131 -0.26711
# Poissons Ratio (z) = 0.17625 -0.18715
#
# Static dielectric constant tensor:
#      x y z
#    x 1.824710 0.000000 0.000000 
#    y 0.000000 1.801670 0.000000 
#    z 0.000000 0.000000 1.893900 
# 
# From -- ./inp_files/3171.got.cif
#   From: 2010.05.17/outbox.cif.g08.bks.cpg/sg19_2_cif.got.tgz:3171.got - 2010.06.03 22:46:19.
