data_PCOD9313223
_publ_section_title
;
Structure prediction by ZEFSAII (Michael W. Deem and Ramdas Pophale) SiO2 
 PCOD9313223
Probable space group: P 21 21 2
;
_chemical_formula_sum "Si O2"
_cell_formula_units_Z 12
_cell_length_a 10.209429
_cell_length_b 10.028006
_cell_length_c 4.759713
_cell_angle_alpha 90.000000
_cell_angle_beta 90.000000
_cell_angle_gamma 90.000000
_cell_volume 487.300442
_symmetry_space_group_name_H-M "P 21 21 2"
_symmetry_group_IT_number 18
_symmetry_cell_setting 'orthorhombic'
loop_
_space_group_symop_operation_xyz
x,y,z
-x,-y,z
1/2+x,1/2-y,-z
1/2-x,1/2+y,-z
loop_
_atom_site_type_symbol
_atom_site_label
_atom_site_fract_x
_atom_site_fract_y
_atom_site_fract_z
Si Si1 0.959605 0.363556 0.275848
Si Si2 0.385609 0.392779 0.065484
Si Si3 0.790334 0.562763 0.565498
O O1 0.931940 0.245574 0.067115
O O2 0.837313 0.416776 0.460104
O O3 0.833802 0.109631 0.618275
O O4 0.000000 0.500000 0.113171
O O5 0.500000 0.500000 0.037297
O O6 0.260062 0.435029 0.879901
O O7 0.584780 0.154367 0.517534
#
# Coordination Sequence:
#
# PCOD9313223 Si02
#       3
#     4   4   4
#     4   8  24  42  65  89 126 166 196 261 308 351
#     4  12  24  40  68  91 123 161 210 249 304 367
#     4   9  25  41  62  91 127 157 206 248 311 360
#
# _framework density 24.625461999999999
#
# number of rings (size 3 to 8) (size 9 to 14) (size 15 to 20)
#    2.000    0.000    0.000    1.000    9.333    8.000 
#    0.000    0.000    0.000    0.000    0.000    0.000 
#    0.000    0.000    0.000    0.000    0.000    0.000 
#
# Total GULP energy -67105.400745 kJ/mol
# GULP energy per Si atom -5592.116729 kJ/mol
# Density = 2.456941 g / cm^3
# Si number density = 24.625462 Si / 1000 Ang^3
#
#
#
# Elastic Constant Matrix: (Units=GPa)
#
#
# Indices 1 2 3 4 5 6 
#
# 1 106.4516 27.0035 15.7567 0.0000 0.0000 0.0000
# 2 27.0035 104.7333 6.2983 0.0000 0.0000 0.0000
# 3 15.7567 6.2983 80.0777 0.0000 0.0000 0.0000
# 4 0.0000 0.0000 0.0000 15.0222 0.0000 0.0000
# 5 0.0000 0.0000 0.0000 0.0000 35.6944 0.0000
# 6 0.0000 0.0000 0.0000 0.0000 0.0000 39.5546
#
#
#
# Elastic Compliance Matrix: (Units=1/GPa)
#
#
# Indices 1 2 3 4 5 6 
#
# 1 0.010311 -0.002549 -0.001828 0.000000 0.000000 0.000000
# 2 -0.002549 0.010223 -0.000303 0.000000 0.000000 0.000000
# 3 -0.001828 -0.000303 0.012871 0.000000 0.000000 0.000000
# 4 0.000000 0.000000 0.000000 0.066568 0.000000 0.000000
# 5 0.000000 0.000000 0.000000 0.000000 0.028016 0.000000
# 6 0.000000 0.000000 0.000000 0.000000 0.000000 0.025282
#
#
# Mechanical properties :
#
#
# Convention : Reuss Voigt Hill
#
# Bulk Modulus (GPa) = 41.58580 43.26437 42.42509
# Shear Modulus (GPa) = 29.30041 34.20118 31.75079
#
# Velocity S-wave (km/s) = 3.45315 3.73078 3.59464
# Velocity P-wave (km/s) = 5.72913 6.01376 5.87317
#
# Compressibility (1/GPa) = 0.02404667
#
# Stress axis : x y z
#
# Youngs Moduli (GPa) = 96.98314 97.81525 77.69136
#
# Poissons Ratio (x) = 0.24929 0.14205
# Poissons Ratio (y) = 0.24717 0.02351
# Poissons Ratio (z) = 0.17733 0.02960
#
# Static dielectric constant tensor:
#      x y z
#    x 1.948820 0.000000 0.000000 
#    y 0.000000 1.992840 0.000000 
#    z 0.000000 0.000000 1.898650 
# 
# From -- ./inp_files/372.got.cif
#   From: 2010.05.17/outbox.cif.g08.bks.cpg/sg18_1_cif.got.tgz:372.got - 2010.06.03 22:40:56.
