data_PCOD9313853
_publ_section_title
;
Structure prediction by ZEFSAII (Michael W. Deem and Ramdas Pophale) SiO2 
 PCOD9313853
Probable space group: P 21 21 21
;
_chemical_formula_sum "Si O2"
_cell_formula_units_Z 32
_cell_length_a 5.029222
_cell_length_b 9.471197
_cell_length_c 30.779014
_cell_angle_alpha 90.000000
_cell_angle_beta 90.000000
_cell_angle_gamma 90.000000
_cell_volume 1466.089150
_symmetry_space_group_name_H-M "P 21 21 21"
_symmetry_group_IT_number 19
_symmetry_cell_setting 'orthorhombic'
loop_
_space_group_symop_operation_xyz
x,y,z
1/2-x,-y,1/2+z
1/2+x,1/2-y,-z
-x,1/2+y,1/2-z
loop_
_atom_site_type_symbol
_atom_site_label
_atom_site_fract_x
_atom_site_fract_y
_atom_site_fract_z
Si Si1 0.980275 0.207213 0.336919
Si Si2 0.250988 0.341067 0.008175
Si Si3 0.705957 0.092666 0.819566
Si Si4 0.960699 0.125162 0.644273
Si Si5 0.375366 0.260274 0.097658
Si Si6 0.673302 0.699523 0.742955
Si Si7 0.364789 0.423570 0.919195
Si Si8 0.501359 0.035787 0.235383
O O1 0.762688 0.315268 0.358234
O O2 0.965238 0.240492 0.285550
O O3 0.280559 0.236886 0.349678
O O4 0.910662 0.044904 0.343128
O O5 0.287825 0.367097 0.059239
O O6 0.448710 0.206786 0.000180
O O7 0.348054 0.449239 0.971236
O O8 0.873869 0.174112 0.854986
O O9 0.488080 0.200985 0.801168
O O10 0.845679 0.031637 0.776548
O O11 0.799176 0.041146 0.607235
O O12 0.935543 0.029653 0.688105
O O13 0.671829 0.210310 0.087783
O O14 0.159606 0.129452 0.094763
O O15 0.931289 0.799908 0.737367
O O16 0.717698 0.534234 0.754492
#
# Coordination Sequence:
#
# PCOD9313853 Si02
#       8
#     4   4   4   4   4   4   4   4
#     4  10  24  38  54  77 111 151 185 237 278 326
#     4   8  16  33  54  84 117 139 174 232 292 337
#     4  11  23  36  56  77 113 150 193 231 288 339
#     4  11  21  40  54  80 110 149 193 228 280 337
#     4  10  21  34  58  91 114 143 185 234 291 344
#     4  10  22  38  55  78 109 151 195 236 283 336
#     4  10  20  36  61  86 113 146 184 236 288 340
#     4  10  23  35  54  79 111 151 189 244 274 337
#
# _framework density 21.826777
#
# number of rings (size 3 to 8) (size 9 to 14) (size 15 to 20)
#    0.000    2.000    1.250    1.500    8.750    0.000 
#    0.000    0.000    0.000    1.500    0.000    0.000 
#    0.000    0.000    0.000    0.000    0.000    0.000 
#
# Total GULP energy -178392.062946 kJ/mol
# GULP energy per Si atom -5574.751967 kJ/mol
# Density = 2.177710 g / cm^3
# Si number density = 21.826777 Si / 1000 Ang^3
#
#
#
# Elastic Constant Matrix: (Units=GPa)
#
#
# Indices 1 2 3 4 5 6 
#
# 1 68.1698 4.4565 11.9229 0.0000 0.0000 0.0000
# 2 4.4565 42.2488 2.3092 0.0000 0.0000 0.0000
# 3 11.9229 2.3092 50.3786 0.0000 0.0000 0.0000
# 4 0.0000 0.0000 0.0000 17.2326 0.0000 0.0000
# 5 0.0000 0.0000 0.0000 0.0000 21.0590 0.0000
# 6 0.0000 0.0000 0.0000 0.0000 0.0000 24.8199
#
#
#
# Elastic Compliance Matrix: (Units=1/GPa)
#
#
# Indices 1 2 3 4 5 6 
#
# 1 0.015388 -0.001428 -0.003576 0.000000 0.000000 0.000000
# 2 -0.001428 0.023861 -0.000756 0.000000 0.000000 0.000000
# 3 -0.003576 -0.000756 0.020731 0.000000 0.000000 0.000000
# 4 0.000000 0.000000 0.000000 0.058029 0.000000 0.000000
# 5 0.000000 0.000000 0.000000 0.000000 0.047486 0.000000
# 6 0.000000 0.000000 0.000000 0.000000 0.000000 0.040290
#
#
# Mechanical properties :
#
#
# Convention : Reuss Voigt Hill
#
# Bulk Modulus (GPa) = 20.63550 22.01938 21.32744
# Shear Modulus (GPa) = 21.41707 22.09621 21.75664
#
# Velocity S-wave (km/s) = 3.13586 3.18519 3.16062
# Velocity P-wave (km/s) = 4.75249 4.86183 4.80747
#
# Compressibility (1/GPa) = 0.04846017
#
# Stress axis : x y z
#
# Youngs Moduli (GPa) = 64.98526 41.90905 48.23752
#
# Poissons Ratio (x) = 0.05983 0.17252
# Poissons Ratio (y) = 0.09278 0.03646
# Poissons Ratio (z) = 0.23241 0.03168
#
# Static dielectric constant tensor:
#      x y z
#    x 1.871140 0.000000 0.000000 
#    y 0.000000 1.801980 0.000000 
#    z 0.000000 0.000000 1.863900 
# 
# From -- ./inp_files/682.got.cif
#   From: 2010.05.17/outbox.cif.g08.bks.cpg/sg19_1_cif.got.tgz:682.got - 2010.06.03 22:46:19.
