data_PCOD9313227
_publ_section_title
;
Structure prediction by ZEFSAII (Michael W. Deem and Ramdas Pophale) SiO2 
 PCOD9313227
Probable space group: P 21 21 2
;
_chemical_formula_sum "Si O2"
_cell_formula_units_Z 22
_cell_length_a 14.193818
_cell_length_b 5.474457
_cell_length_c 11.056190
_cell_angle_alpha 90.000000
_cell_angle_beta 90.000000
_cell_angle_gamma 90.000000
_cell_volume 859.104066
_symmetry_space_group_name_H-M "P 21 21 2"
_symmetry_group_IT_number 18
_symmetry_cell_setting 'orthorhombic'
loop_
_space_group_symop_operation_xyz
x,y,z
-x,-y,z
1/2+x,1/2-y,-z
1/2-x,1/2+y,-z
loop_
_atom_site_type_symbol
_atom_site_label
_atom_site_fract_x
_atom_site_fract_y
_atom_site_fract_z
Si Si1 0.802064 0.700680 0.010475
Si Si2 0.891877 0.531202 0.238397
Si Si3 0.604905 0.901974 0.204970
Si Si4 0.121710 0.208163 0.485059
Si Si5 0.000000 0.000000 0.685169
Si Si6 0.723190 0.645071 0.661077
O O1 0.868622 0.548153 0.917714
O O2 0.778262 0.984143 0.978319
O O3 0.849063 0.719514 0.143094
O O4 0.889593 0.593032 0.381148
O O5 0.820529 0.303465 0.231968
O O6 0.000000 0.500000 0.204662
O O7 0.581977 0.616390 0.232242
O O8 0.500000 0.000000 0.229738
O O9 0.694209 0.967034 0.289872
O O10 0.044697 0.187927 0.588218
O O11 0.219914 0.214294 0.557122
O O12 0.132230 0.970689 0.402040
#
# Coordination Sequence:
#
# PCOD9313227 Si02
#       6
#     4   4   4   4   2   4
#     4  12  29  55  85 117 164 221 284 353 431 506
#     4  12  28  50  75 114 160 213 277 342 417 508
#     4  12  27  48  79 118 157 215 283 351 421 514
#     4  12  25  43  72 110 158 206 261 338 412 510
#     4  12  28  44  78 122 160 210 282 346 426 518
#     4  12  24  45  72 109 156 206 259 333 423 488
#
# _framework density 25.608073999999998
#
# number of rings (size 3 to 8) (size 9 to 14) (size 15 to 20)
#    0.000    0.000    5.455    3.818    7.636    0.000 
#    0.000    0.000    0.000    0.000    0.000    0.000 
#    0.000    0.000    0.000    0.000    0.000    0.000 
#
# Total GULP energy -122667.594658 kJ/mol
# GULP energy per Si atom -5575.799757 kJ/mol
# Density = 2.554979 g / cm^3
# Si number density = 25.608074 Si / 1000 Ang^3
#
#
#
# Elastic Constant Matrix: (Units=GPa)
#
#
# Indices 1 2 3 4 5 6 
#
# 1 95.5598 4.8992 35.2714 0.0000 0.0000 0.0000
# 2 4.8992 40.4471 6.0738 0.0000 0.0000 0.0000
# 3 35.2714 6.0738 81.6250 0.0000 0.0000 0.0000
# 4 0.0000 0.0000 0.0000 35.7644 0.0000 0.0000
# 5 0.0000 0.0000 0.0000 0.0000 50.6401 0.0000
# 6 0.0000 0.0000 0.0000 0.0000 0.0000 36.4356
#
#
#
# Elastic Compliance Matrix: (Units=1/GPa)
#
#
# Indices 1 2 3 4 5 6 
#
# 1 0.012471 -0.000709 -0.005336 0.000000 0.000000 0.000000
# 2 -0.000709 0.025043 -0.001557 0.000000 0.000000 0.000000
# 3 -0.005336 -0.001557 0.014673 0.000000 0.000000 0.000000
# 4 0.000000 0.000000 0.000000 0.027961 0.000000 0.000000
# 5 0.000000 0.000000 0.000000 0.000000 0.019747 0.000000
# 6 0.000000 0.000000 0.000000 0.000000 0.000000 0.027446
#
#
# Mechanical properties :
#
#
# Convention : Reuss Voigt Hill
#
# Bulk Modulus (GPa) = 27.03999 34.45785 30.74892
# Shear Modulus (GPa) = 32.28470 35.99385 34.13928
#
# Velocity S-wave (km/s) = 3.55452 3.75316 3.65519
# Velocity P-wave (km/s) = 5.23720 5.68037 5.46328
#
# Compressibility (1/GPa) = 0.03698226
#
# Stress axis : x y z
#
# Youngs Moduli (GPa) = 80.18909 39.93069 68.15352
#
# Poissons Ratio (x) = 0.02832 0.36366
# Poissons Ratio (y) = 0.05687 0.10612
# Poissons Ratio (z) = 0.42788 0.06217
#
# Static dielectric constant tensor:
#      x y z
#    x 2.011150 0.000000 0.000000 
#    y 0.000000 2.459710 0.000000 
#    z 0.000000 0.000000 2.009430 
# 
# From -- ./inp_files/6012.got.cif
#   From: 2010.05.17/outbox.cif.g08.bks.cpg/sg18_4_cif.got.tgz:6012.got - 2010.06.03 22:40:56.
