data_PCOD9313983
_publ_section_title
;
Structure prediction by ZEFSAII (Michael W. Deem and Ramdas Pophale) SiO2 
 PCOD9313983
Probable space group: P 21 21 21
;
_chemical_formula_sum "Si O2"
_cell_formula_units_Z 28
_cell_length_a 6.750560
_cell_length_b 8.202101
_cell_length_c 22.828868
_cell_angle_alpha 90.000000
_cell_angle_beta 90.000000
_cell_angle_gamma 90.000000
_cell_volume 1264.006454
_symmetry_space_group_name_H-M "P 21 21 21"
_symmetry_group_IT_number 19
_symmetry_cell_setting 'orthorhombic'
loop_
_space_group_symop_operation_xyz
x,y,z
1/2-x,-y,1/2+z
1/2+x,1/2-y,-z
-x,1/2+y,1/2-z
loop_
_atom_site_type_symbol
_atom_site_label
_atom_site_fract_x
_atom_site_fract_y
_atom_site_fract_z
Si Si1 0.701699 0.845660 0.389738
Si Si2 0.579597 0.468975 0.611987
Si Si3 0.847418 0.481606 0.826438
Si Si4 0.569537 0.332319 0.739636
Si Si5 0.758734 0.297419 0.426977
Si Si6 0.955972 0.459422 0.528291
Si Si7 0.807758 0.000937 0.767609
O O1 0.622812 0.672511 0.369148
O O2 0.640292 0.967232 0.335723
O O3 0.606965 0.900224 0.451062
O O4 0.940265 0.869807 0.390159
O O5 0.628495 0.416239 0.678274
O O6 0.431321 0.330310 0.587685
O O7 0.773526 0.474774 0.573034
O O8 0.644341 0.442259 0.793247
O O9 0.833589 0.636194 0.867472
O O10 0.010865 0.489792 0.776149
O O11 0.677036 0.160156 0.749450
O O12 0.332039 0.343068 0.739203
O O13 0.858860 0.442127 0.464615
O O14 0.585611 0.204702 0.461964
#
# Coordination Sequence:
#
# PCOD9313983 Si02
#       7
#     4   4   4   4   4   4   4
#     4   9  23  39  59  90 126 162 199 247 311 369
#     4  10  20  39  63  88 121 160 204 250 308 368
#     4  11  23  40  60  97 125 159 205 256 313 372
#     4  10  21  37  62  92 124 163 199 256 309 374
#     4  11  23  39  65  92 117 161 219 254 306 372
#     4  11  21  42  62  86 119 165 206 261 300 361
#     4  10  21  38  61  91 126 160 204 246 311 370
#
# _framework density 22.151786999999999
#
# number of rings (size 3 to 8) (size 9 to 14) (size 15 to 20)
#    0.000    1.714    1.429    2.571    0.000   11.429 
#    2.571    0.000    0.000    0.000    0.000    0.000 
#    0.000    0.000    0.000    0.000    0.000    0.000 
#
# Total GULP energy -156440.358193 kJ/mol
# GULP energy per Si atom -5587.155650 kJ/mol
# Density = 2.210137 g / cm^3
# Si number density = 22.151787 Si / 1000 Ang^3
#
#
#
# Elastic Constant Matrix: (Units=GPa)
#
#
# Indices 1 2 3 4 5 6 
#
# 1 53.4083 4.2160 2.4358 0.0000 0.0000 0.0000
# 2 4.2160 36.8354 -15.3675 0.0000 0.0000 0.0000
# 3 2.4358 -15.3675 41.8902 0.0000 0.0000 0.0000
# 4 0.0000 0.0000 0.0000 24.9822 0.0000 0.0000
# 5 0.0000 0.0000 0.0000 0.0000 43.5387 0.0000
# 6 0.0000 0.0000 0.0000 0.0000 0.0000 19.5987
#
#
#
# Elastic Compliance Matrix: (Units=1/GPa)
#
#
# Indices 1 2 3 4 5 6 
#
# 1 0.019073 -0.003124 -0.002255 0.000000 0.000000 0.000000
# 2 -0.003124 0.032565 0.012128 0.000000 0.000000 0.000000
# 3 -0.002255 0.012128 0.028452 0.000000 0.000000 0.000000
# 4 0.000000 0.000000 0.000000 0.040029 0.000000 0.000000
# 5 0.000000 0.000000 0.000000 0.000000 0.022968 0.000000
# 6 0.000000 0.000000 0.000000 0.000000 0.000000 0.051024
#
#
# Mechanical properties :
#
#
# Convention : Reuss Voigt Hill
#
# Bulk Modulus (GPa) = 10.68497 12.74472 11.71484
# Shear Modulus (GPa) = 23.60622 27.01389 25.31005
#
# Velocity S-wave (km/s) = 3.26798 3.49591 3.38387
# Velocity P-wave (km/s) = 4.36733 4.69692 4.53512
#
# Compressibility (1/GPa) = 0.09358944
#
# Stress axis : x y z
#
# Youngs Moduli (GPa) = 52.42979 30.70768 35.14651
#
# Poissons Ratio (x) = 0.09592 0.07926
# Poissons Ratio (y) = 0.16378 -0.42627
# Poissons Ratio (z) = 0.11823 -0.37243
#
# Static dielectric constant tensor:
#      x y z
#    x 1.803420 0.000000 0.000000 
#    y 0.000000 1.889940 0.000000 
#    z 0.000000 0.000000 1.805260 
# 
# From -- ./inp_files/549.got.cif
#   From: 2010.05.17/outbox.cif.g08.bks.cpg/sg19_1_cif.got.tgz:549.got - 2010.06.03 22:46:19.
