data_PCOD9313650
_publ_section_title
;
Structure prediction by ZEFSAII (Michael W. Deem and Ramdas Pophale) SiO2 
 PCOD9313650
Probable space group: P 21 21 21
;
_chemical_formula_sum "Si O2"
_cell_formula_units_Z 28
_cell_length_a 16.009594
_cell_length_b 17.502057
_cell_length_c 5.001993
_cell_angle_alpha 90.000000
_cell_angle_beta 90.000000
_cell_angle_gamma 90.000000
_cell_volume 1401.562574
_symmetry_space_group_name_H-M "P 21 21 21"
_symmetry_group_IT_number 19
_symmetry_cell_setting 'orthorhombic'
loop_
_space_group_symop_operation_xyz
x,y,z
1/2-x,-y,1/2+z
1/2+x,1/2-y,-z
-x,1/2+y,1/2-z
loop_
_atom_site_type_symbol
_atom_site_label
_atom_site_fract_x
_atom_site_fract_y
_atom_site_fract_z
Si Si1 0.074203 0.466342 0.878902
Si Si2 0.470601 0.065946 0.622043
Si Si3 0.801709 0.528417 0.427272
Si Si4 0.633957 0.704880 0.063756
Si Si5 0.247803 0.808006 0.439052
Si Si6 0.732773 0.135748 0.978002
Si Si7 0.846216 0.123381 0.480122
O O1 0.001839 0.436058 0.074993
O O2 0.156523 0.417189 0.939753
O O3 0.094272 0.553261 0.956514
O O4 0.044821 0.458943 0.574900
O O5 0.438425 0.148499 0.527131
O O6 0.392320 0.009286 0.587269
O O7 0.746591 0.485797 0.651191
O O8 0.802356 0.617760 0.501149
O O9 0.668366 0.688625 0.359534
O O10 0.612961 0.794128 0.034183
O O11 0.711323 0.690901 0.859719
O O12 0.288742 0.725683 0.494493
O O13 0.809342 0.121447 0.182240
O O14 0.767193 0.119394 0.682597
#
# Coordination Sequence:
#
# PCOD9313650 Si02
#       7
#     4   4   4   4   4   4   4
#     4  12  24  40  57  92 122 154 196 239 310 348
#     4  12  24  38  58  86 127 159 184 243 306 352
#     4  12  21  38  63  82 114 156 201 241 276 348
#     4  10  20  38  61  83 114 150 194 241 290 343
#     4  10  19  37  62  88 106 146 207 241 284 336
#     4  10  21  39  65  87 114 153 201 255 281 347
#     4  10  21  40  66  86 111 158 205 240 285 352
#
# _framework density 19.977703999999999
#
# number of rings (size 3 to 8) (size 9 to 14) (size 15 to 20)
#    0.000    1.143    2.857    4.286    0.000    0.000 
#    5.143    0.000    0.000    0.000    0.000    0.000 
#    0.000    0.000    0.000    0.000    0.000    0.000 
#
# Total GULP energy -156584.613263 kJ/mol
# GULP energy per Si atom -5592.307617 kJ/mol
# Density = 1.993223 g / cm^3
# Si number density = 19.977704 Si / 1000 Ang^3
#
#
#
# Elastic Constant Matrix: (Units=GPa)
#
#
# Indices 1 2 3 4 5 6 
#
# 1 18.6299 12.6209 -13.5502 0.0000 0.0000 0.0000
# 2 12.6209 76.9994 -11.9322 0.0000 0.0000 0.0000
# 3 -13.5502 -11.9322 59.6265 0.0000 0.0000 0.0000
# 4 0.0000 0.0000 0.0000 19.9458 0.0000 0.0000
# 5 0.0000 0.0000 0.0000 0.0000 24.7250 0.0000
# 6 0.0000 0.0000 0.0000 0.0000 0.0000 14.9706
#
#
#
# Elastic Compliance Matrix: (Units=1/GPa)
#
#
# Indices 1 2 3 4 5 6 
#
# 1 0.070252 -0.009330 0.014098 0.000000 0.000000 0.000000
# 2 -0.009330 0.014642 0.000810 0.000000 0.000000 0.000000
# 3 0.014098 0.000810 0.020137 0.000000 0.000000 0.000000
# 4 0.000000 0.000000 0.000000 0.050136 0.000000 0.000000
# 5 0.000000 0.000000 0.000000 0.000000 0.040445 0.000000
# 6 0.000000 0.000000 0.000000 0.000000 0.000000 0.066798
#
#
# Mechanical properties :
#
#
# Convention : Reuss Voigt Hill
#
# Bulk Modulus (GPa) = 8.60698 14.39253 11.49975
# Shear Modulus (GPa) = 17.24239 23.13608 20.18923
#
# Velocity S-wave (km/s) = 2.94101 3.40677 3.18242
# Velocity P-wave (km/s) = 3.98125 4.76390 4.39005
#
# Compressibility (1/GPa) = 0.11618480
#
# Stress axis : x y z
#
# Youngs Moduli (GPa) = 14.23452 68.29707 49.66027
#
# Poissons Ratio (x) = 0.63723 -0.70009
# Poissons Ratio (y) = 0.13281 -0.04021
# Poissons Ratio (z) = -0.20067 -0.05530
#
# Static dielectric constant tensor:
#      x y z
#    x 1.656100 0.000000 0.000000 
#    y 0.000000 1.718490 0.000000 
#    z 0.000000 0.000000 1.683820 
# 
# From -- ./inp_files/1496.got.cif
#   From: 2010.05.17/outbox.cif.g08.bks.cpg/sg19_1_cif.got.tgz:1496.got - 2010.06.03 22:46:19.
