data_PCOD9313967
_publ_section_title
;
Structure prediction by ZEFSAII (Michael W. Deem and Ramdas Pophale) SiO2 
 PCOD9313967
Probable space group: P 21 21 21
;
_chemical_formula_sum "Si O2"
_cell_formula_units_Z 32
_cell_length_a 9.666398
_cell_length_b 9.338842
_cell_length_c 13.780986
_cell_angle_alpha 90.000000
_cell_angle_beta 90.000000
_cell_angle_gamma 90.000000
_cell_volume 1244.050448
_symmetry_space_group_name_H-M "P 21 21 21"
_symmetry_group_IT_number 19
_symmetry_cell_setting 'orthorhombic'
loop_
_space_group_symop_operation_xyz
x,y,z
1/2-x,-y,1/2+z
1/2+x,1/2-y,-z
-x,1/2+y,1/2-z
loop_
_atom_site_type_symbol
_atom_site_label
_atom_site_fract_x
_atom_site_fract_y
_atom_site_fract_z
Si Si1 0.789965 0.784206 0.813398
Si Si2 0.161699 0.124085 0.146028
Si Si3 0.490695 0.125554 0.635525
Si Si4 0.331161 0.889533 0.879470
Si Si5 0.611192 0.667809 0.495082
Si Si6 0.091310 0.683219 0.861353
Si Si7 0.712131 0.083876 0.799777
Si Si8 0.671724 0.132235 0.088642
O O1 0.653075 0.688927 0.822829
O O2 0.749800 0.940639 0.855220
O O3 0.816750 0.822870 0.701115
O O4 0.929203 0.716295 0.856112
O O5 0.153806 0.096892 0.262190
O O6 0.136405 0.293169 0.140480
O O7 0.062475 0.019060 0.087430
O O8 0.311418 0.106415 0.100682
O O9 0.565937 0.260868 0.588192
O O10 0.603170 0.064713 0.712134
O O11 0.179307 0.821004 0.897312
O O12 0.370082 0.037515 0.928880
O O13 0.694954 0.803062 0.536223
O O14 0.462144 0.706001 0.456134
O O15 0.152124 0.649868 0.752637
O O16 0.137296 0.537889 0.916347
#
# Coordination Sequence:
#
# PCOD9313967 Si02
#       8
#     4   4   4   4   4   4   4   4
#     4  11  21  40  73 103 136 185 234 298 362 425
#     4  10  21  41  67  98 134 178 230 286 345 411
#     4  10  20  38  69 100 140 183 234 292 353 426
#     4  10  24  45  70 104 142 188 241 292 358 438
#     4  12  27  44  68  99 142 188 241 302 356 424
#     4   9  21  43  68  97 140 180 229 292 358 419
#     4   9  20  37  64 102 135 178 235 284 345 427
#     4  11  26  44  65 103 141 182 238 296 359 428
#
# _framework density 25.722427
#
# number of rings (size 3 to 8) (size 9 to 14) (size 15 to 20)
#    0.000    2.000    0.000    4.500    0.000   14.000 
#    0.000    1.250    0.000    3.000    0.000    0.000 
#    0.000    0.000    0.000    0.000    0.000    0.000 
#
# Total GULP energy -178961.744307 kJ/mol
# GULP energy per Si atom -5592.554510 kJ/mol
# Density = 2.566388 g / cm^3
# Si number density = 25.722427 Si / 1000 Ang^3
#
#
#
# Elastic Constant Matrix: (Units=GPa)
#
#
# Indices 1 2 3 4 5 6 
#
# 1 172.9730 61.8976 22.5648 0.0000 0.0000 0.0000
# 2 61.8976 169.1053 23.2815 0.0000 0.0000 0.0000
# 3 22.5648 23.2815 82.3985 0.0000 0.0000 0.0000
# 4 0.0000 0.0000 0.0000 24.7649 0.0000 0.0000
# 5 0.0000 0.0000 0.0000 0.0000 31.6588 0.0000
# 6 0.0000 0.0000 0.0000 0.0000 0.0000 49.7364
#
#
#
# Elastic Compliance Matrix: (Units=1/GPa)
#
#
# Indices 1 2 3 4 5 6 
#
# 1 0.006765 -0.002311 -0.001200 0.000000 0.000000 0.000000
# 2 -0.002311 0.006942 -0.001329 0.000000 0.000000 0.000000
# 3 -0.001200 -0.001329 0.012840 0.000000 0.000000 0.000000
# 4 0.000000 0.000000 0.000000 0.040380 0.000000 0.000000
# 5 0.000000 0.000000 0.000000 0.000000 0.031587 0.000000
# 6 0.000000 0.000000 0.000000 0.000000 0.000000 0.020106
#
#
# Mechanical properties :
#
#
# Convention : Reuss Voigt Hill
#
# Bulk Modulus (GPa) = 59.28143 71.10718 65.19430
# Shear Modulus (GPa) = 37.33552 42.34755 39.84153
#
# Velocity S-wave (km/s) = 3.81396 4.06190 3.93988
# Velocity P-wave (km/s) = 6.51856 7.05002 6.78949
#
# Compressibility (1/GPa) = 0.01686869
#
# Stress axis : x y z
#
# Youngs Moduli (GPa) = 147.82643 144.04516 77.88127
#
# Poissons Ratio (x) = 0.33288 0.09342
# Poissons Ratio (y) = 0.34162 0.10348
# Poissons Ratio (z) = 0.17733 0.19139
#
# Static dielectric constant tensor:
#      x y z
#    x 2.020110 0.000000 0.000000 
#    y 0.000000 2.095120 0.000000 
#    z 0.000000 0.000000 2.081500 
# 
# From -- ./inp_files/3727.got.cif
#   From: 2010.05.17/outbox.cif.g08.bks.cpg/sg19_2_cif.got.tgz:3727.got - 2010.06.03 22:46:19.
