data_PCOD9313889
_publ_section_title
;
Structure prediction by ZEFSAII (Michael W. Deem and Ramdas Pophale) SiO2 
 PCOD9313889
Probable space group: P 21 21 21
;
_chemical_formula_sum "Si O2"
_cell_formula_units_Z 32
_cell_length_a 11.210974
_cell_length_b 9.213915
_cell_length_c 14.342457
_cell_angle_alpha 90.000000
_cell_angle_beta 90.000000
_cell_angle_gamma 90.000000
_cell_volume 1481.532229
_symmetry_space_group_name_H-M "P 21 21 21"
_symmetry_group_IT_number 19
_symmetry_cell_setting 'orthorhombic'
loop_
_space_group_symop_operation_xyz
x,y,z
1/2-x,-y,1/2+z
1/2+x,1/2-y,-z
-x,1/2+y,1/2-z
loop_
_atom_site_type_symbol
_atom_site_label
_atom_site_fract_x
_atom_site_fract_y
_atom_site_fract_z
Si Si1 0.882983 0.249814 0.573801
Si Si2 0.161347 0.081491 0.433510
Si Si3 0.675052 0.774831 0.728362
Si Si4 0.227803 0.497371 0.516990
Si Si5 0.367147 0.748672 0.126126
Si Si6 0.530193 0.493053 0.945349
Si Si7 0.209969 0.208579 0.965132
Si Si8 0.010034 0.997192 0.264722
O O1 0.774751 0.343024 0.615566
O O2 0.829523 0.102506 0.530524
O O3 0.925933 0.353828 0.488042
O O4 0.992666 0.234958 0.645120
O O5 0.140885 0.173509 0.525933
O O6 0.060385 0.075606 0.356626
O O7 0.195504 0.922375 0.470245
O O8 0.765360 0.703849 0.803461
O O9 0.758811 0.772988 0.636525
O O10 0.622279 0.932982 0.755208
O O11 0.558339 0.668663 0.719443
O O12 0.170769 0.416612 0.605209
O O13 0.274437 0.657657 0.534362
O O14 0.112078 0.507519 0.450676
O O15 0.564222 0.470046 0.838062
O O16 0.585834 0.369919 0.011907
#
# Coordination Sequence:
#
# PCOD9313889 Si02
#       8
#     4   4   4   4   4   4   4   4
#     4   9  20  39  64  88 123 171 221 260 318 396
#     4   9  21  36  61  93 127 169 213 268 327 383
#     4  11  24  41  64  99 128 172 218 277 330 394
#     4  10  20  37  62  93 120 168 219 260 321 391
#     4  10  22  41  67  90 130 175 221 266 326 394
#     4  10  21  41  62  89 134 171 208 280 321 386
#     4  10  21  40  58  91 136 161 209 273 335 377
#     4  11  23  37  66  93 130 165 225 266 324 391
#
# _framework density 21.599262
#
# number of rings (size 3 to 8) (size 9 to 14) (size 15 to 20)
#    0.000    2.000    1.250    2.250    8.750    2.000 
#    0.000    6.250    0.000    0.000    0.000    0.000 
#    0.000    0.000    0.000    0.000    0.000    0.000 
#
# Total GULP energy -178159.832008 kJ/mol
# GULP energy per Si atom -5567.494750 kJ/mol
# Density = 2.155010 g / cm^3
# Si number density = 21.599262 Si / 1000 Ang^3
#
#
#
# Elastic Constant Matrix: (Units=GPa)
#
#
# Indices 1 2 3 4 5 6 
#
# 1 77.7724 52.4230 21.8717 0.0000 0.0000 0.0000
# 2 52.4230 73.4576 -2.9523 0.0000 0.0000 0.0000
# 3 21.8717 -2.9523 50.2291 0.0000 0.0000 0.0000
# 4 0.0000 0.0000 0.0000 14.0268 0.0000 0.0000
# 5 0.0000 0.0000 0.0000 0.0000 21.7003 0.0000
# 6 0.0000 0.0000 0.0000 0.0000 0.0000 23.7427
#
#
#
# Elastic Compliance Matrix: (Units=1/GPa)
#
#
# Indices 1 2 3 4 5 6 
#
# 1 0.034618 -0.025371 -0.016565 0.000000 0.000000 0.000000
# 2 -0.025371 0.032239 0.012942 0.000000 0.000000 0.000000
# 3 -0.016565 0.012942 0.027883 0.000000 0.000000 0.000000
# 4 0.000000 0.000000 0.000000 0.071292 0.000000 0.000000
# 5 0.000000 0.000000 0.000000 0.000000 0.046082 0.000000
# 6 0.000000 0.000000 0.000000 0.000000 0.000000 0.042118
#
#
# Mechanical properties :
#
#
# Convention : Reuss Voigt Hill
#
# Bulk Modulus (GPa) = 27.20901 38.23820 32.72360
# Shear Modulus (GPa) = 15.40970 20.56840 17.98905
#
# Velocity S-wave (km/s) = 2.67392 3.08924 2.88905
# Velocity P-wave (km/s) = 4.70719 5.51964 5.12953
#
# Compressibility (1/GPa) = 0.03675253
#
# Stress axis : x y z
#
# Youngs Moduli (GPa) = 28.88668 31.01793 35.86467
#
# Poissons Ratio (x) = 0.78695 0.59411
# Poissons Ratio (y) = 0.73288 -0.46417
# Poissons Ratio (z) = 0.47851 -0.40145
#
# Static dielectric constant tensor:
#      x y z
#    x 1.868790 0.000000 0.000000 
#    y 0.000000 1.830320 0.000000 
#    z 0.000000 0.000000 1.814520 
# 
# From -- ./inp_files/6095.got.cif
#   From: 2010.05.17/outbox.cif.g08.bks.cpg/sg19_4_cif.got.tgz:6095.got - 2010.06.03 22:46:19.
