data_PCOD9313141
_publ_section_title
;
Structure prediction by ZEFSAII (Michael W. Deem and Ramdas Pophale) SiO2 
 PCOD9313141
Probable space group: P 21 21 2
;
_chemical_formula_sum "Si O2"
_cell_formula_units_Z 18
_cell_length_a 15.356751
_cell_length_b 4.921681
_cell_length_c 8.877143
_cell_angle_alpha 90.000000
_cell_angle_beta 90.000000
_cell_angle_gamma 90.000000
_cell_volume 670.943608
_symmetry_space_group_name_H-M "P 21 21 2"
_symmetry_group_IT_number 18
_symmetry_cell_setting 'orthorhombic'
loop_
_space_group_symop_operation_xyz
x,y,z
-x,-y,z
1/2+x,1/2-y,-z
1/2-x,1/2+y,-z
loop_
_atom_site_type_symbol
_atom_site_label
_atom_site_fract_x
_atom_site_fract_y
_atom_site_fract_z
Si Si1 0.184684 0.005139 0.519363
Si Si2 0.698871 0.987628 0.976186
Si Si3 0.914938 0.105134 0.810977
Si Si4 0.000000 0.500000 0.581953
Si Si5 0.092656 0.588431 0.315922
O O1 0.250509 0.742558 0.534406
O O2 0.147420 0.052333 0.690193
O O3 0.117223 0.880553 0.391368
O O4 0.661958 0.968849 0.809746
O O5 0.786120 0.802232 0.985754
O O6 0.637282 0.826527 0.091494
O O7 0.968527 0.268698 0.686148
O O8 0.000000 0.000000 0.905147
O O9 0.077508 0.416626 0.469533
O O10 0.000000 0.500000 0.241215
#
# Coordination Sequence:
#
# PCOD9313141 Si02
#       5
#     4   4   4   2   4
#     4  11  24  43  71 105 147 187 238 304 368 433
#     4  12  28  49  73 110 154 198 245 308 383 441
#     4  11  26  44  76 109 147 196 255 300 374 444
#     4   8  22  44  72 106 140 182 254 302 360 420
#     4   9  22  46  69 106 141 194 243 298 359 444
#
# _framework density 26.827885999999999
#
# number of rings (size 3 to 8) (size 9 to 14) (size 15 to 20)
#    0.667    0.889    0.000    2.667   10.889    0.000 
#    4.000    3.333    0.000    0.000    0.000    0.000 
#    0.000    0.000    0.000    0.000    0.000    0.000 
#
# Total GULP energy -100351.377164 kJ/mol
# GULP energy per Si atom -5575.076509 kJ/mol
# Density = 2.676682 g / cm^3
# Si number density = 26.827886 Si / 1000 Ang^3
#
#
#
# Elastic Constant Matrix: (Units=GPa)
#
#
# Indices 1 2 3 4 5 6 
#
# 1 101.7745 -15.1471 17.4235 0.0000 0.0000 0.0000
# 2 -15.1471 74.1875 35.7599 0.0000 0.0000 0.0000
# 3 17.4235 35.7599 83.2342 0.0000 0.0000 0.0000
# 4 0.0000 0.0000 0.0000 35.7123 0.0000 0.0000
# 5 0.0000 0.0000 0.0000 0.0000 174.0207 0.0000
# 6 0.0000 0.0000 0.0000 0.0000 0.0000 30.2414
#
#
#
# Elastic Compliance Matrix: (Units=1/GPa)
#
#
# Indices 1 2 3 4 5 6 
#
# 1 0.011183 0.004303 -0.004190 0.000000 0.000000 0.000000
# 2 0.004303 0.018655 -0.008916 0.000000 0.000000 0.000000
# 3 -0.004190 -0.008916 0.016722 0.000000 0.000000 0.000000
# 4 0.000000 0.000000 0.000000 0.028002 0.000000 0.000000
# 5 0.000000 0.000000 0.000000 0.000000 0.005746 0.000000
# 6 0.000000 0.000000 0.000000 0.000000 0.000000 0.033067
#
#
# Mechanical properties :
#
#
# Convention : Reuss Voigt Hill
#
# Bulk Modulus (GPa) = 34.53573 37.25211 35.89392
# Shear Modulus (GPa) = 35.55367 62.73885 49.14626
#
# Velocity S-wave (km/s) = 3.64435 4.84112 4.28472
# Velocity P-wave (km/s) = 5.53257 6.72044 6.15523
#
# Compressibility (1/GPa) = 0.02895552
#
# Stress axis : x y z
#
# Youngs Moduli (GPa) = 89.41913 53.60378 59.80238
#
# Poissons Ratio (x) = -0.23065 0.25055
# Poissons Ratio (y) = -0.38475 0.53318
# Poissons Ratio (z) = 0.37463 0.47791
#
# Static dielectric constant tensor:
#      x y z
#    x 2.947940 0.000000 0.000000 
#    y 0.000000 1.738610 0.000000 
#    z 0.000000 0.000000 2.041450 
# 
# From -- ./inp_files/4407.got.cif
#   From: 2010.05.17/outbox.cif.g08.bks.cpg/sg18_3_cif.got.tgz:4407.got - 2010.06.03 22:40:56.
