data_PCOD9313577
_publ_section_title
;
Structure prediction by ZEFSAII (Michael W. Deem and Ramdas Pophale) SiO2 
 PCOD9313577
Probable space group: P 21 21 21
;
_chemical_formula_sum "Si O2"
_cell_formula_units_Z 32
_cell_length_a 10.499114
_cell_length_b 21.528374
_cell_length_c 5.636126
_cell_angle_alpha 90.000000
_cell_angle_beta 90.000000
_cell_angle_gamma 90.000000
_cell_volume 1273.927094
_symmetry_space_group_name_H-M "P 21 21 21"
_symmetry_group_IT_number 19
_symmetry_cell_setting 'orthorhombic'
loop_
_space_group_symop_operation_xyz
x,y,z
1/2-x,-y,1/2+z
1/2+x,1/2-y,-z
-x,1/2+y,1/2-z
loop_
_atom_site_type_symbol
_atom_site_label
_atom_site_fract_x
_atom_site_fract_y
_atom_site_fract_z
Si Si1 0.399921 0.863532 0.250002
Si Si2 0.864078 0.054982 0.750002
Si Si3 0.590497 0.360061 0.749998
Si Si4 0.481634 0.580809 0.250002
Si Si5 0.235194 0.754429 0.250001
Si Si6 0.537349 0.632732 0.750001
Si Si7 0.201352 0.279246 0.250001
Si Si8 0.705085 0.899955 0.750002
O O1 0.544489 0.884870 0.250002
O O2 0.353927 0.887162 0.505772
O O3 0.138846 0.811793 0.250000
O O4 0.353927 0.887162 0.994232
O O5 0.794750 0.061914 0.498123
O O6 0.943816 0.991575 0.750000
O O7 0.794751 0.061913 0.001882
O O8 0.629271 0.287572 0.749998
O O9 0.437296 0.369409 0.749998
O O10 0.547686 0.596262 0.501107
O O11 0.351919 0.623166 0.250001
O O12 0.547686 0.596263 0.998898
O O13 0.222154 0.720192 0.501774
O O14 0.372558 0.789723 0.250002
O O15 0.222154 0.720192 0.998229
O O16 0.399879 0.666088 0.750001
#
# Coordination Sequence:
#
# PCOD9313577 Si02
#       8
#     4   4   4   4   4   4   4   4
#     4   8  16  32  57  82 106 141 193 236 276 336
#     4  10  19  36  60  86 116 158 197 233 285 348
#     4   8  16  30  54  83 105 136 189 240 280 332
#     4  12  24  38  54  86 127 157 190 238 290 346
#     4  10  21  42  62  81 114 151 188 244 295 337
#     4  12  26  40  57  87 120 152 190 238 292 344
#     4  10  21  39  61  81 107 150 193 233 287 352
#     4  10  19  35  59  86 115 151 194 244 291 335
#
# _framework density 25.119177000000001
#
# number of rings (size 3 to 8) (size 9 to 14) (size 15 to 20)
#    0.000    2.000    0.000    3.750    0.000    2.000 
#    0.000    6.250    0.000    0.000    0.000    0.000 
#    0.000    0.000    0.000    0.000    0.000    0.000 
#
# Total GULP energy -178450.452294 kJ/mol
# GULP energy per Si atom -5576.576634 kJ/mol
# Density = 2.506200 g / cm^3
# Si number density = 25.119177 Si / 1000 Ang^3
#
#
#
# Elastic Constant Matrix: (Units=GPa)
#
#
# Indices 1 2 3 4 5 6 
#
# 1 71.2422 29.6879 40.7971 0.0000 0.0000 0.0000
# 2 29.6879 61.0127 26.8316 0.0000 0.0000 0.0000
# 3 40.7971 26.8316 314.6933 0.0000 0.0000 0.0000
# 4 0.0000 0.0000 0.0000 205.2338 0.0000 0.0000
# 5 0.0000 0.0000 0.0000 0.0000 25.5233 0.0000
# 6 0.0000 0.0000 0.0000 0.0000 0.0000 28.9032
#
#
#
# Elastic Compliance Matrix: (Units=1/GPa)
#
#
# Indices 1 2 3 4 5 6 
#
# 1 0.018431 -0.008226 -0.001688 0.000000 0.000000 0.000000
# 2 -0.008226 0.020700 -0.000698 0.000000 0.000000 0.000000
# 3 -0.001688 -0.000698 0.003456 0.000000 0.000000 0.000000
# 4 0.000000 0.000000 0.000000 0.004872 0.000000 0.000000
# 5 0.000000 0.000000 0.000000 0.000000 0.039180 0.000000
# 6 0.000000 0.000000 0.000000 0.000000 0.000000 0.034598
#
#
# Mechanical properties :
#
#
# Convention : Reuss Voigt Hill
#
# Bulk Modulus (GPa) = 46.81202 71.28683 59.04942
# Shear Modulus (GPa) = 33.42613 75.24084 54.33348
#
# Velocity S-wave (km/s) = 3.65184 5.47892 4.65588
# Velocity P-wave (km/s) = 6.03802 8.27441 7.24305
#
# Compressibility (1/GPa) = 0.02136204
#
# Stress axis : x y z
#
# Youngs Moduli (GPa) = 54.25577 48.30953 289.34381
#
# Poissons Ratio (x) = 0.39739 0.48843
# Poissons Ratio (y) = 0.44631 0.20211
# Poissons Ratio (z) = 0.09159 0.03374
#
# Static dielectric constant tensor:
#      x y z
#    x 1.995570 0.000000 0.000000 
#    y 0.000000 2.018630 0.000000 
#    z 0.000000 0.000000 2.055790 
# 
# From -- ./inp_files/1900.got.cif
#   From: 2010.05.17/outbox.cif.g08.bks.cpg/sg19_1_cif.got.tgz:1900.got - 2010.06.03 22:46:19.
