data_PCOD9313646
_publ_section_title
;
Structure prediction by ZEFSAII (Michael W. Deem and Ramdas Pophale) SiO2 
 PCOD9313646
Probable space group: P 21 21 21
;
_chemical_formula_sum "Si O2"
_cell_formula_units_Z 32
_cell_length_a 10.872452
_cell_length_b 8.646279
_cell_length_c 17.215793
_cell_angle_alpha 90.000000
_cell_angle_beta 90.000000
_cell_angle_gamma 90.000000
_cell_volume 1618.392199
_symmetry_space_group_name_H-M "P 21 21 21"
_symmetry_group_IT_number 19
_symmetry_cell_setting 'orthorhombic'
loop_
_space_group_symop_operation_xyz
x,y,z
1/2-x,-y,1/2+z
1/2+x,1/2-y,-z
-x,1/2+y,1/2-z
loop_
_atom_site_type_symbol
_atom_site_label
_atom_site_fract_x
_atom_site_fract_y
_atom_site_fract_z
Si Si1 0.931911 0.667117 0.787653
Si Si2 0.631820 0.699118 0.616581
Si Si3 0.165682 0.967260 0.851613
Si Si4 0.286349 0.489096 0.969277
Si Si5 0.799591 0.127973 0.268864
Si Si6 0.718181 0.844690 0.188726
Si Si7 0.533014 0.228949 0.450041
Si Si8 0.421562 0.457678 0.576900
O O1 0.888434 0.534355 0.728881
O O2 0.842228 0.811731 0.767778
O O3 0.916091 0.660082 0.881096
O O4 0.079346 0.676356 0.779128
O O5 0.760287 0.605534 0.608761
O O6 0.634194 0.842832 0.557633
O O7 0.632711 0.772610 0.702936
O O8 0.524782 0.577117 0.603665
O O9 0.259535 0.828505 0.830266
O O10 0.063659 0.886388 0.906370
O O11 0.222429 0.557920 0.891435
O O12 0.365963 0.623223 0.009024
O O13 0.183901 0.447330 0.031986
O O14 0.862120 0.136142 0.351935
O O15 0.796867 0.947513 0.246428
O O16 0.471928 0.334481 0.515022
#
# Coordination Sequence:
#
# PCOD9313646 Si02
#       8
#     4   4   4   4   4   4   4   4
#     4  10  19  37  61  93 125 164 216 269 317 386
#     4  10  26  42  62  97 135 172 218 274 324 396
#     4  10  21  40  65  91 128 172 214 270 330 383
#     4  11  23  42  65  95 132 167 212 279 326 389
#     4  10  23  42  65  92 133 173 227 258 331 401
#     4  10  19  39  63  93 127 171 212 266 324 380
#     4  11  23  41  66  96 129 171 220 271 333 387
#     4  12  24  43  69  95 133 176 219 271 335 396
#
# _framework density 19.772711000000001
#
# number of rings (size 3 to 8) (size 9 to 14) (size 15 to 20)
#    0.000    1.500    3.750    2.250    1.750    3.000 
#    2.250    1.250    0.000    0.000    0.000    0.000 
#    0.000    0.000    0.000    0.000    0.000    0.000 
#
# Total GULP energy -178425.086284 kJ/mol
# GULP energy per Si atom -5575.783946 kJ/mol
# Density = 1.972771 g / cm^3
# Si number density = 19.772711 Si / 1000 Ang^3
#
#
#
# Elastic Constant Matrix: (Units=GPa)
#
#
# Indices 1 2 3 4 5 6 
#
# 1 52.5008 21.9129 31.8013 0.0000 0.0000 0.0000
# 2 21.9129 72.7731 30.4258 0.0000 0.0000 0.0000
# 3 31.8013 30.4258 102.1036 0.0000 0.0000 0.0000
# 4 0.0000 0.0000 0.0000 29.0183 0.0000 0.0000
# 5 0.0000 0.0000 0.0000 0.0000 28.3562 0.0000
# 6 0.0000 0.0000 0.0000 0.0000 0.0000 29.2919
#
#
#
# Elastic Compliance Matrix: (Units=1/GPa)
#
#
# Indices 1 2 3 4 5 6 
#
# 1 0.024895 -0.004860 -0.006306 0.000000 0.000000 0.000000
# 2 -0.004860 0.016646 -0.003447 0.000000 0.000000 0.000000
# 3 -0.006306 -0.003447 0.012785 0.000000 0.000000 0.000000
# 4 0.000000 0.000000 0.000000 0.034461 0.000000 0.000000
# 5 0.000000 0.000000 0.000000 0.000000 0.035266 0.000000
# 6 0.000000 0.000000 0.000000 0.000000 0.000000 0.034139
#
#
# Mechanical properties :
#
#
# Convention : Reuss Voigt Hill
#
# Bulk Modulus (GPa) = 39.83807 43.96193 41.90000
# Shear Modulus (GPa) = 25.53842 26.88244 26.21043
#
# Velocity S-wave (km/s) = 3.59778 3.69124 3.64481
# Velocity P-wave (km/s) = 6.11968 6.35994 6.24097
#
# Compressibility (1/GPa) = 0.02510162
#
# Stress axis : x y z
#
# Youngs Moduli (GPa) = 40.16820 60.07550 78.21667
#
# Poissons Ratio (x) = 0.29196 0.49321
# Poissons Ratio (y) = 0.19521 0.26958
# Poissons Ratio (z) = 0.25329 0.20705
#
# Static dielectric constant tensor:
#      x y z
#    x 1.721280 0.000000 0.000000 
#    y 0.000000 1.703820 0.000000 
#    z 0.000000 0.000000 1.698270 
# 
# From -- ./inp_files/6144.got.cif
#   From: 2010.05.17/outbox.cif.g08.bks.cpg/sg19_4_cif.got.tgz:6144.got - 2010.06.03 22:46:19.
