data_PCOD9313543
_publ_section_title
;
Structure prediction by ZEFSAII (Michael W. Deem and Ramdas Pophale) SiO2 
 PCOD9313543
Probable space group: P 21 21 21
;
_chemical_formula_sum "Si O2"
_cell_formula_units_Z 24
_cell_length_a 18.117931
_cell_length_b 12.835673
_cell_length_c 5.153117
_cell_angle_alpha 90.000000
_cell_angle_beta 90.000000
_cell_angle_gamma 90.000000
_cell_volume 1198.387441
_symmetry_space_group_name_H-M "P 21 21 21"
_symmetry_group_IT_number 19
_symmetry_cell_setting 'orthorhombic'
loop_
_space_group_symop_operation_xyz
x,y,z
1/2-x,-y,1/2+z
1/2+x,1/2-y,-z
-x,1/2+y,1/2-z
loop_
_atom_site_type_symbol
_atom_site_label
_atom_site_fract_x
_atom_site_fract_y
_atom_site_fract_z
Si Si1 0.645441 0.918614 0.888286
Si Si2 0.265779 0.613180 0.748190
Si Si3 0.047843 0.126844 0.712384
Si Si4 0.154245 0.297613 0.748751
Si Si5 0.980591 0.926692 0.541996
Si Si6 0.531902 0.779036 0.706823
O O1 0.615814 0.813894 0.759628
O O2 0.705045 0.993736 0.755209
O O3 0.680204 0.892762 0.169575
O O4 0.574305 0.993241 0.899005
O O5 0.294317 0.669394 0.489774
O O6 0.305920 0.672056 0.984829
O O7 0.127618 0.178235 0.757295
O O8 0.015313 0.184748 0.456642
O O9 0.039238 0.003145 0.676024
O O10 0.998113 0.159298 0.956902
O O11 0.077936 0.364001 0.778959
O O12 0.017970 0.841462 0.358314
#
# Coordination Sequence:
#
# PCOD9313543 Si02
#       6
#     4   4   4   4   4   4
#     4  10  20  35  55  84 117 154 190 231 291 339
#     4  11  21  33  53  80 117 153 189 235 277 344
#     4  10  19  34  54  79 116 153 184 232 288 343
#     4  10  20  34  51  81 114 148 190 231 284 339
#     4   9  19  34  55  82 114 148 186 236 287 340
#     4  10  21  34  54  84 118 150 189 237 285 343
#
# _framework density 20.026911999999999
#
# number of rings (size 3 to 8) (size 9 to 14) (size 15 to 20)
#    0.000    2.000    0.000    6.000    0.000    8.000 
#    0.000    0.000    0.000    0.000    0.000   28.000 
#    0.000    5.333    0.000    0.000    0.000    0.000 
#
# Total GULP energy -133896.308284 kJ/mol
# GULP energy per Si atom -5579.012845 kJ/mol
# Density = 1.998133 g / cm^3
# Si number density = 20.026912 Si / 1000 Ang^3
#
#
#
# Elastic Constant Matrix: (Units=GPa)
#
#
# Indices 1 2 3 4 5 6 
#
# 1 59.9056 37.7861 25.4989 0.0000 0.0000 0.0000
# 2 37.7861 79.4548 32.4831 0.0000 0.0000 0.0000
# 3 25.4989 32.4831 111.0749 0.0000 0.0000 0.0000
# 4 0.0000 0.0000 0.0000 29.0423 0.0000 0.0000
# 5 0.0000 0.0000 0.0000 0.0000 29.4933 0.0000
# 6 0.0000 0.0000 0.0000 0.0000 0.0000 41.8163
#
#
#
# Elastic Compliance Matrix: (Units=1/GPa)
#
#
# Indices 1 2 3 4 5 6 
#
# 1 0.024448 -0.010600 -0.002513 0.000000 0.000000 0.000000
# 2 -0.010600 0.018890 -0.003091 0.000000 0.000000 0.000000
# 3 -0.002513 -0.003091 0.010484 0.000000 0.000000 0.000000
# 4 0.000000 0.000000 0.000000 0.034432 0.000000 0.000000
# 5 0.000000 0.000000 0.000000 0.000000 0.033906 0.000000
# 6 0.000000 0.000000 0.000000 0.000000 0.000000 0.023914
#
#
# Mechanical properties :
#
#
# Convention : Reuss Voigt Hill
#
# Bulk Modulus (GPa) = 46.69478 49.10793 47.90136
# Shear Modulus (GPa) = 26.93677 30.38154 28.65915
#
# Velocity S-wave (km/s) = 3.67144 3.89914 3.78700
# Velocity P-wave (km/s) = 6.42956 6.69666 6.56447
#
# Compressibility (1/GPa) = 0.02141567
#
# Stress axis : x y z
#
# Youngs Moduli (GPa) = 40.90274 52.93733 95.38606
#
# Poissons Ratio (x) = 0.56111 0.23968
# Poissons Ratio (y) = 0.43355 0.29484
# Poissons Ratio (z) = 0.10278 0.16363
#
# Static dielectric constant tensor:
#      x y z
#    x 1.763590 0.000000 0.000000 
#    y 0.000000 1.749200 0.000000 
#    z 0.000000 0.000000 1.769330 
# 
# From -- ./inp_files/1911.got.cif
#   From: 2010.05.17/outbox.cif.g08.bks.cpg/sg19_1_cif.got.tgz:1911.got - 2010.06.03 22:46:19.
