data_PCOD9313837
_publ_section_title
;
Structure prediction by ZEFSAII (Michael W. Deem and Ramdas Pophale) SiO2 
 PCOD9313837
Probable space group: P 21 21 21
;
_chemical_formula_sum "Si O2"
_cell_formula_units_Z 28
_cell_length_a 8.138221
_cell_length_b 7.448193
_cell_length_c 17.255877
_cell_angle_alpha 90.000000
_cell_angle_beta 90.000000
_cell_angle_gamma 90.000000
_cell_volume 1045.965686
_symmetry_space_group_name_H-M "P 21 21 21"
_symmetry_group_IT_number 19
_symmetry_cell_setting 'orthorhombic'
loop_
_space_group_symop_operation_xyz
x,y,z
1/2-x,-y,1/2+z
1/2+x,1/2-y,-z
-x,1/2+y,1/2-z
loop_
_atom_site_type_symbol
_atom_site_label
_atom_site_fract_x
_atom_site_fract_y
_atom_site_fract_z
Si Si1 0.147924 0.984558 0.096553
Si Si2 0.785389 0.958272 0.028386
Si Si3 0.488699 0.938479 0.245775
Si Si4 0.321326 0.654419 0.676233
Si Si5 0.813857 0.785554 0.653133
Si Si6 0.439978 0.304345 0.715264
Si Si7 0.953092 0.730404 0.914579
O O1 0.144426 0.864824 0.174730
O O2 0.316904 0.917491 0.057626
O O3 0.967085 0.934993 0.066019
O O4 0.165773 0.195453 0.111342
O O5 0.722466 0.148118 0.066015
O O6 0.632586 0.825339 0.050780
O O7 0.852493 0.909247 0.942475
O O8 0.648747 0.915798 0.297086
O O9 0.529567 0.101419 0.186250
O O10 0.351535 0.911854 0.313104
O O11 0.473005 0.784997 0.178212
O O12 0.435746 0.481213 0.663321
O O13 0.384351 0.750435 0.754747
O O14 0.658626 0.844658 0.705129
#
# Coordination Sequence:
#
# PCOD9313837 Si02
#       7
#     4   4   4   4   4   4   4
#     4  12  22  41  66  90 134 172 210 280 326 376
#     4  11  22  39  63  99 123 175 233 254 331 415
#     4  10  21  36  58  93 122 161 216 273 325 385
#     4  11  21  35  61  94 131 160 218 269 328 395
#     4  10  20  36  57  91 125 156 219 268 324 389
#     4  11  20  35  58  93 127 163 210 269 328 382
#     4  11  22  38  65  92 130 175 222 271 326 402
#
# _framework density 26.769521000000001
#
# number of rings (size 3 to 8) (size 9 to 14) (size 15 to 20)
#    0.000    1.143    5.714    3.429    0.000    0.000 
#    0.000    0.000    0.000    3.429    0.000    0.000 
#    0.000    0.000    0.000    0.000    0.000    0.000 
#
# Total GULP energy -155945.840440 kJ/mol
# GULP energy per Si atom -5569.494301 kJ/mol
# Density = 2.670859 g / cm^3
# Si number density = 26.769521 Si / 1000 Ang^3
#
#
#
# Elastic Constant Matrix: (Units=GPa)
#
#
# Indices 1 2 3 4 5 6 
#
# 1 141.8647 6.2016 26.5772 0.0000 0.0000 0.0000
# 2 6.2016 74.4600 -4.3312 0.0000 0.0000 0.0000
# 3 26.5772 -4.3312 84.1176 0.0000 0.0000 0.0000
# 4 0.0000 0.0000 0.0000 27.6595 0.0000 0.0000
# 5 0.0000 0.0000 0.0000 0.0000 43.8221 0.0000
# 6 0.0000 0.0000 0.0000 0.0000 0.0000 22.1305
#
#
#
# Elastic Compliance Matrix: (Units=1/GPa)
#
#
# Indices 1 2 3 4 5 6 
#
# 1 0.007536 -0.000768 -0.002421 0.000000 0.000000 0.000000
# 2 -0.000768 0.013549 0.000940 0.000000 0.000000 0.000000
# 3 -0.002421 0.000940 0.012701 0.000000 0.000000 0.000000
# 4 0.000000 0.000000 0.000000 0.036154 0.000000 0.000000
# 5 0.000000 0.000000 0.000000 0.000000 0.022820 0.000000
# 6 0.000000 0.000000 0.000000 0.000000 0.000000 0.045186
#
#
# Mechanical properties :
#
#
# Convention : Reuss Voigt Hill
#
# Bulk Modulus (GPa) = 34.14270 39.70416 36.92343
# Shear Modulus (GPa) = 32.85015 36.85539 34.85277
#
# Velocity S-wave (km/s) = 3.50687 3.71451 3.61218
# Velocity P-wave (km/s) = 5.40180 5.76722 5.58750
#
# Compressibility (1/GPa) = 0.02928884
#
# Stress axis : x y z
#
# Youngs Moduli (GPa) = 132.69559 73.80761 78.73184
#
# Poissons Ratio (x) = 0.05672 0.19058
# Poissons Ratio (y) = 0.10197 -0.07404
# Poissons Ratio (z) = 0.32120 -0.06941
#
# Static dielectric constant tensor:
#      x y z
#    x 2.148180 0.000000 0.000000 
#    y 0.000000 2.324870 0.000000 
#    z 0.000000 0.000000 2.155960 
# 
# From -- ./inp_files/4297.got.cif
#   From: 2010.05.17/outbox.cif.g08.bks.cpg/sg19_3_cif.got.tgz:4297.got - 2010.06.03 22:46:19.
