data_PCOD9313097
_publ_section_title
;
Structure prediction by ZEFSAII (Michael W. Deem and Ramdas Pophale) SiO2 
 PCOD9313097
Probable space group: P 21 21 2
;
_chemical_formula_sum "Si O2"
_cell_formula_units_Z 32
_cell_length_a 13.164473
_cell_length_b 9.138434
_cell_length_c 12.179019
_cell_angle_alpha 90.000000
_cell_angle_beta 90.000000
_cell_angle_gamma 90.000000
_cell_volume 1465.168475
_symmetry_space_group_name_H-M "P 21 21 2"
_symmetry_group_IT_number 18
_symmetry_cell_setting 'orthorhombic'
loop_
_space_group_symop_operation_xyz
x,y,z
-x,-y,z
1/2+x,1/2-y,-z
1/2-x,1/2+y,-z
loop_
_atom_site_type_symbol
_atom_site_label
_atom_site_fract_x
_atom_site_fract_y
_atom_site_fract_z
Si Si1 0.386550 0.070643 0.750000
Si Si2 0.480533 0.670463 0.750000
Si Si3 0.609969 0.298510 0.511547
Si Si4 0.061476 0.654109 0.625903
Si Si5 0.219887 0.499366 0.479117
Si Si6 0.390031 0.701490 0.988453
Si Si7 0.780113 0.500633 0.020882
Si Si8 0.561475 0.845891 0.125904
O O1 0.413618 0.241851 0.750000
O O2 0.326736 0.026916 0.641178
O O3 0.326736 0.026916 0.858822
O O4 0.500000 0.000000 0.750000
O O5 0.500000 0.500000 0.750001
O O6 0.420354 0.708400 0.639157
O O7 0.420354 0.708401 0.860844
O O8 0.509847 0.264092 0.441068
O O9 0.663766 0.451401 0.483856
O O10 0.687950 0.164383 0.487622
O O11 0.162669 0.610143 0.561994
O O12 0.080744 0.703051 0.750000
O O13 0.000000 0.500000 0.629025
O O14 0.312050 0.835618 0.012378
O O15 0.336234 0.548600 0.016144
O O16 0.490153 0.735909 0.058933
O O17 0.837331 0.389857 0.938006
O O18 0.500000 0.000000 0.129026
#
# Coordination Sequence:
#
# PCOD9313097 Si02
#       8
#     4   4   4   4   4   4   4   4
#     4  12  20  46  70  87 124 183 221 274 333 394
#     4  12  26  44  70  95 130 171 234 285 323 386
#     4  11  24  41  64  98 130 169 216 273 329 390
#     4   9  19  39  61  88 126 168 209 258 319 386
#     4  11  23  39  66  93 129 171 218 267 333 391
#     4  11  24  41  64  98 130 169 216 273 329 390
#     4  11  23  39  66  93 129 171 218 267 333 391
#     4   9  19  39  61  88 126 168 209 258 319 386
#
# _framework density 21.840491
#
# number of rings (size 3 to 8) (size 9 to 14) (size 15 to 20)
#    0.000    1.250    5.000    0.750    7.000    0.000 
#    0.000    0.000    0.000    2.250    0.000    0.000 
#    0.000    0.000    0.000    0.000    0.000    0.000 
#
# Total GULP energy -178947.146331 kJ/mol
# GULP energy per Si atom -5592.098323 kJ/mol
# Density = 2.179078 g / cm^3
# Si number density = 21.840491 Si / 1000 Ang^3
#
#
#
# Elastic Constant Matrix: (Units=GPa)
#
#
# Indices 1 2 3 4 5 6 
#
# 1 38.6009 14.5640 24.4485 0.0000 0.0000 0.0000
# 2 14.5640 68.2806 -1.6886 0.0000 0.0000 0.0000
# 3 24.4485 -1.6886 150.7809 0.0000 0.0000 0.0000
# 4 0.0000 0.0000 0.0000 494.0892 0.0000 0.0000
# 5 0.0000 0.0000 0.0000 0.0000 1.0171 0.0000
# 6 0.0000 0.0000 0.0000 0.0000 0.0000 54.5791
#
#
#
# Elastic Compliance Matrix: (Units=1/GPa)
#
#
# Indices 1 2 3 4 5 6 
#
# 1 0.031836 -0.006920 -0.005240 0.000000 0.000000 0.000000
# 2 -0.006920 0.016154 0.001303 0.000000 0.000000 0.000000
# 3 -0.005240 0.001303 0.007496 0.000000 0.000000 0.000000
# 4 0.000000 0.000000 0.000000 0.002024 0.000000 0.000000
# 5 0.000000 0.000000 0.000000 0.000000 0.983185 0.000000
# 6 0.000000 0.000000 0.000000 0.000000 0.000000 0.018322
#
#
# Mechanical properties :
#
#
# Convention : Reuss Voigt Hill
#
# Bulk Modulus (GPa) = 29.60990 36.92334 33.26662
# Shear Modulus (GPa) = 4.57881 124.62632 64.60257
#
# Velocity S-wave (km/s) = 1.44949 7.56214 5.44458
# Velocity P-wave (km/s) = 4.04823 9.65352 7.40198
#
# Compressibility (1/GPa) = 0.03377249
#
# Stress axis : x y z
#
# Youngs Moduli (GPa) = 31.41139 61.90539 133.39915
#
# Poissons Ratio (x) = 0.42838 0.69895
# Poissons Ratio (y) = 0.21737 -0.17381
# Poissons Ratio (z) = 0.16458 -0.08066
#
# Static dielectric constant tensor:
#      x y z
#    x 1.767380 0.000000 0.000000 
#    y 0.000000 1.836920 0.000000 
#    z 0.000000 0.000000 1.756430 
# 
# From -- ./inp_files/6138.got.cif
#   From: 2010.05.17/outbox.cif.g08.bks.cpg/sg18_4_cif.got.tgz:6138.got - 2010.06.03 22:40:56.
