data_PCOD9313346
_publ_section_title
;
Structure prediction by ZEFSAII (Michael W. Deem and Ramdas Pophale) SiO2 
 PCOD9313346
Probable space group: P 21 21 21
;
_chemical_formula_sum "Si O2"
_cell_formula_units_Z 28
_cell_length_a 11.302940
_cell_length_b 16.825900
_cell_length_c 5.829198
_cell_angle_alpha 90.000000
_cell_angle_beta 90.000000
_cell_angle_gamma 90.000000
_cell_volume 1108.609339
_symmetry_space_group_name_H-M "P 21 21 21"
_symmetry_group_IT_number 19
_symmetry_cell_setting 'orthorhombic'
loop_
_space_group_symop_operation_xyz
x,y,z
1/2-x,-y,1/2+z
1/2+x,1/2-y,-z
-x,1/2+y,1/2-z
loop_
_atom_site_type_symbol
_atom_site_label
_atom_site_fract_x
_atom_site_fract_y
_atom_site_fract_z
Si Si1 0.224516 0.631514 0.844022
Si Si2 0.046329 0.677941 0.219170
Si Si3 0.928845 0.812595 0.912735
Si Si4 0.703537 0.534321 0.034566
Si Si5 0.511633 0.936991 0.410742
Si Si6 0.808528 0.665527 0.769447
Si Si7 0.350719 0.209723 0.112511
O O1 0.148461 0.573808 0.672677
O O2 0.218878 0.722445 0.752960
O O3 0.145847 0.635680 0.070209
O O4 0.358964 0.622300 0.934630
O O5 0.987726 0.604815 0.346551
O O6 0.089883 0.733435 0.423500
O O7 0.975387 0.741772 0.074316
O O8 0.833383 0.759590 0.771306
O O9 0.038569 0.829039 0.744940
O O10 0.740921 0.497307 0.779112
O O11 0.738576 0.626229 0.982135
O O12 0.564397 0.516638 0.071887
O O13 0.432567 0.881157 0.242996
O O14 0.732621 0.652959 0.537523
#
# Coordination Sequence:
#
# PCOD9313346 Si02
#       7
#     4   4   4   4   4   4   4
#     4  10  20  31  55  81 121 173 201 263 318 384
#     4  10  17  32  52  77 121 152 206 252 315 385
#     4  11  20  32  52  84 125 163 206 254 325 394
#     4  10  23  38  59  89 124 174 215 261 323 378
#     4  10  20  35  55  83 121 165 214 257 319 383
#     4  11  19  36  55  83 130 168 207 268 317 396
#     4  10  21  32  50  87 120 171 203 251 331 382
#
# _framework density 25.256867
#
# number of rings (size 3 to 8) (size 9 to 14) (size 15 to 20)
#    0.000    1.714    5.714    1.714    2.000    1.143 
#    0.000    0.000    0.000    0.000    0.000    0.000 
#    8.571   19.143    0.000    0.000    0.000    0.000 
#
# Total GULP energy -155988.780586 kJ/mol
# GULP energy per Si atom -5571.027878 kJ/mol
# Density = 2.519938 g / cm^3
# Si number density = 25.256867 Si / 1000 Ang^3
#
#
#
# Elastic Constant Matrix: (Units=GPa)
#
#
# Indices 1 2 3 4 5 6 
#
# 1 97.1280 9.3030 33.1192 0.0000 0.0000 0.0000
# 2 9.3030 43.5143 27.0459 0.0000 0.0000 0.0000
# 3 33.1192 27.0459 97.6229 0.0000 0.0000 0.0000
# 4 0.0000 0.0000 0.0000 23.2038 0.0000 0.0000
# 5 0.0000 0.0000 0.0000 0.0000 57.0361 0.0000
# 6 0.0000 0.0000 0.0000 0.0000 0.0000 27.2584
#
#
#
# Elastic Compliance Matrix: (Units=1/GPa)
#
#
# Indices 1 2 3 4 5 6 
#
# 1 0.011643 -0.000041 -0.003938 0.000000 0.000000 0.000000
# 2 -0.000041 0.027761 -0.007677 0.000000 0.000000 0.000000
# 3 -0.003938 -0.007677 0.013707 0.000000 0.000000 0.000000
# 4 0.000000 0.000000 0.000000 0.043096 0.000000 0.000000
# 5 0.000000 0.000000 0.000000 0.000000 0.017533 0.000000
# 6 0.000000 0.000000 0.000000 0.000000 0.000000 0.036686
#
#
# Mechanical properties :
#
#
# Convention : Reuss Voigt Hill
#
# Bulk Modulus (GPa) = 33.56044 41.91127 37.73585
# Shear Modulus (GPa) = 27.22252 32.75282 29.98767
#
# Velocity S-wave (km/s) = 3.28659 3.60500 3.44947
# Velocity P-wave (km/s) = 5.26486 5.82736 5.55323
#
# Compressibility (1/GPa) = 0.02979699
#
# Stress axis : x y z
#
# Youngs Moduli (GPa) = 85.89161 36.02116 72.95785
#
# Poissons Ratio (x) = 0.00148 0.28734
# Poissons Ratio (y) = 0.00354 0.56011
# Poissons Ratio (z) = 0.33828 0.27654
#
# Static dielectric constant tensor:
#      x y z
#    x 2.077810 0.000000 0.000000 
#    y 0.000000 2.028050 0.000000 
#    z 0.000000 0.000000 2.207950 
# 
# From -- ./inp_files/1126.got.cif
#   From: 2010.05.17/outbox.cif.g08.bks.cpg/sg19_1_cif.got.tgz:1126.got - 2010.06.03 22:46:19.
