data_PCOD9313348
_publ_section_title
;
Structure prediction by ZEFSAII (Michael W. Deem and Ramdas Pophale) SiO2 
 PCOD9313348
Probable space group: P 21 21 21
;
_chemical_formula_sum "Si O2"
_cell_formula_units_Z 32
_cell_length_a 7.132650
_cell_length_b 21.897307
_cell_length_c 7.911776
_cell_angle_alpha 90.000000
_cell_angle_beta 90.000000
_cell_angle_gamma 90.000000
_cell_volume 1235.707276
_symmetry_space_group_name_H-M "P 21 21 21"
_symmetry_group_IT_number 19
_symmetry_cell_setting 'orthorhombic'
loop_
_space_group_symop_operation_xyz
x,y,z
1/2-x,-y,1/2+z
1/2+x,1/2-y,-z
-x,1/2+y,1/2-z
loop_
_atom_site_type_symbol
_atom_site_label
_atom_site_fract_x
_atom_site_fract_y
_atom_site_fract_z
Si Si1 0.295051 0.407655 0.525445
Si Si2 0.058502 0.090995 0.015109
Si Si3 0.616771 0.338655 0.326513
Si Si4 0.041455 0.315003 0.406316
Si Si5 0.370697 0.722137 0.367331
Si Si6 0.616999 0.111770 0.934451
Si Si7 0.433461 0.793966 0.706795
Si Si8 0.566401 0.005292 0.721733
O O1 0.475779 0.373727 0.449187
O O2 0.210893 0.455520 0.389897
O O3 0.337605 0.447675 0.688220
O O4 0.143814 0.353424 0.549973
O O5 0.833449 0.096079 0.975334
O O6 0.113819 0.136552 0.167918
O O7 0.083045 0.022925 0.089880
O O8 0.141183 0.118420 0.841555
O O9 0.821740 0.327760 0.402973
O O10 0.541030 0.272641 0.257547
O O11 0.099492 0.245073 0.375494
O O12 0.113522 0.347406 0.234508
O O13 0.458537 0.657237 0.420896
O O14 0.352882 0.758782 0.544364
O O15 0.157755 0.711350 0.312748
O O16 0.511976 0.050200 0.876575
#
# Coordination Sequence:
#
# PCOD9313348 Si02
#       8
#     4   4   4   4   4   4   4   4
#     4  11  21  37  58  83 113 153 198 234 287 346
#     4  10  17  32  58  82 111 150 185 234 291 338
#     4  10  18  34  58  87 115 143 183 243 297 335
#     4   9  18  33  57  86 112 145 189 237 282 340
#     4   8  15  25  49  80 102 138 173 238 276 322
#     4   9  16  32  52  81 107 138 195 230 272 338
#     4   8  15  26  48  80 110 135 181 233 279 330
#     4  11  20  35  60  81 114 158 194 235 286 345
#
# _framework density 25.896103
#
# number of rings (size 3 to 8) (size 9 to 14) (size 15 to 20)
#    0.000    2.500    3.750    0.000    1.750    0.000 
#    0.000    7.500   11.000    0.000    0.000    0.000 
#    0.000    0.000    0.000    0.000    0.000    0.000 
#
# Total GULP energy -178796.871763 kJ/mol
# GULP energy per Si atom -5587.402243 kJ/mol
# Density = 2.583716 g / cm^3
# Si number density = 25.896103 Si / 1000 Ang^3
#
#
#
# Elastic Constant Matrix: (Units=GPa)
#
#
# Indices 1 2 3 4 5 6 
#
# 1 84.4000 30.9447 31.8845 0.0000 0.0000 0.0000
# 2 30.9447 90.9230 35.7472 0.0000 0.0000 0.0000
# 3 31.8845 35.7472 119.1721 0.0000 0.0000 0.0000
# 4 0.0000 0.0000 0.0000 52.2188 0.0000 0.0000
# 5 0.0000 0.0000 0.0000 0.0000 -0.1916 0.0000
# 6 0.0000 0.0000 0.0000 0.0000 0.0000 16.4493
#
#
#
# Elastic Compliance Matrix: (Units=1/GPa)
#
#
# Indices 1 2 3 4 5 6 
#
# 1 0.014251 -0.003799 -0.002673 0.000000 0.000000 0.000000
# 2 -0.003799 0.013482 -0.003028 0.000000 0.000000 0.000000
# 3 -0.002673 -0.003028 0.010015 0.000000 0.000000 0.000000
# 4 0.000000 0.000000 0.000000 0.019150 0.000000 0.000000
# 5 0.000000 0.000000 0.000000 0.000000 -5.218418 0.000000
# 6 0.000000 0.000000 0.000000 0.000000 0.000000 0.060793
#
#
# Mechanical properties :
#
#
# Convention : Reuss Voigt Hill
#
# Bulk Modulus (GPa) = 53.34071 54.62756 53.98413
# Shear Modulus (GPa) = -0.98513 26.75655 12.88571
#
# Velocity S-wave (km/s) = -0.61745 3.21787 2.23310
# Velocity P-wave (km/s) = 4.48713 5.91159 5.24792
#
# Compressibility (1/GPa) = 0.01874741
#
# Stress axis : x y z
#
# Youngs Moduli (GPa) = 70.16946 74.17499 99.85417
#
# Poissons Ratio (x) = 0.28181 0.26694
# Poissons Ratio (y) = 0.26659 0.30231
# Poissons Ratio (z) = 0.18758 0.22457
#
# Static dielectric constant tensor:
#      x y z
#    x 2.025220 0.000000 0.000000 
#    y 0.000000 2.099210 0.000000 
#    z 0.000000 0.000000 2.095490 
# 
# From -- ./inp_files/3263.got.cif
#   From: 2010.05.17/outbox.cif.g08.bks.cpg/sg19_2_cif.got.tgz:3263.got - 2010.06.03 22:46:19.
