data_PCOD9313999
_publ_section_title
;
Structure prediction by ZEFSAII (Michael W. Deem and Ramdas Pophale) SiO2 
 PCOD9313999
Probable space group: P 21 21 21
;
_chemical_formula_sum "Si O2"
_cell_formula_units_Z 32
_cell_length_a 14.777619
_cell_length_b 8.755185
_cell_length_c 10.334492
_cell_angle_alpha 90.000000
_cell_angle_beta 90.000000
_cell_angle_gamma 90.000000
_cell_volume 1337.084721
_symmetry_space_group_name_H-M "P 21 21 21"
_symmetry_group_IT_number 19
_symmetry_cell_setting 'orthorhombic'
loop_
_space_group_symop_operation_xyz
x,y,z
1/2-x,-y,1/2+z
1/2+x,1/2-y,-z
-x,1/2+y,1/2-z
loop_
_atom_site_type_symbol
_atom_site_label
_atom_site_fract_x
_atom_site_fract_y
_atom_site_fract_z
Si Si1 0.582272 0.686129 0.481042
Si Si2 0.857349 0.000964 0.058697
Si Si3 0.513352 0.638046 0.074186
Si Si4 0.174468 0.975725 0.767904
Si Si5 0.507162 0.907963 0.886855
Si Si6 0.183377 0.453556 0.055484
Si Si7 0.344386 0.779783 0.753704
Si Si8 0.596025 0.197923 0.176849
O O1 0.638103 0.597730 0.367670
O O2 0.542470 0.564327 0.580068
O O3 0.492447 0.750266 0.406859
O O4 0.637973 0.814986 0.557808
O O5 0.825702 0.870516 0.158467
O O6 0.961662 0.958556 0.033559
O O7 0.783192 0.980084 0.944209
O O8 0.613401 0.596243 0.117033
O O9 0.450949 0.622135 0.199836
O O10 0.506072 0.807583 0.017379
O O11 0.276450 0.917101 0.785059
O O12 0.154507 0.156034 0.778855
O O13 0.447573 0.826728 0.778876
O O14 0.611949 0.943975 0.865968
O O15 0.175532 0.283679 0.112535
O O16 0.150074 0.425862 0.908303
#
# Coordination Sequence:
#
# PCOD9313999 Si02
#       8
#     4   4   4   4   4   4   4   4
#     4  10  20  39  67  93 126 161 213 273 327 381
#     4  11  23  41  64  95 132 170 220 268 327 396
#     4  10  21  40  68 100 124 165 214 272 332 378
#     4  11  20  38  66  97 129 157 218 280 320 381
#     4  10  23  44  63  90 131 174 214 264 321 408
#     4  11  25  42  65  96 135 176 221 268 335 397
#     4  11  26  41  64  93 133 176 220 264 334 404
#     4  10  22  37  67  98 126 163 212 273 332 371
#
# _framework density 23.932665
#
# number of rings (size 3 to 8) (size 9 to 14) (size 15 to 20)
#    0.000    1.500    3.750    0.750    3.500    2.000 
#    0.000    1.250    0.000    0.000    0.000    0.000 
#    0.000    0.000    0.000    0.000    0.000    0.000 
#
# Total GULP energy -178634.213714 kJ/mol
# GULP energy per Si atom -5582.319179 kJ/mol
# Density = 2.387819 g / cm^3
# Si number density = 23.932665 Si / 1000 Ang^3
#
#
#
# Elastic Constant Matrix: (Units=GPa)
#
#
# Indices 1 2 3 4 5 6 
#
# 1 88.0498 5.9478 1.7948 0.0000 0.0000 0.0000
# 2 5.9478 60.5402 -1.1016 0.0000 0.0000 0.0000
# 3 1.7948 -1.1016 15.1489 0.0000 0.0000 0.0000
# 4 0.0000 0.0000 0.0000 30.5243 0.0000 0.0000
# 5 0.0000 0.0000 0.0000 0.0000 25.1129 0.0000
# 6 0.0000 0.0000 0.0000 0.0000 0.0000 48.4835
#
#
#
# Elastic Compliance Matrix: (Units=1/GPa)
#
#
# Indices 1 2 3 4 5 6 
#
# 1 0.011464 -0.001153 -0.001442 0.000000 0.000000 0.000000
# 2 -0.001153 0.016656 0.001348 0.000000 0.000000 0.000000
# 3 -0.001442 0.001348 0.066280 0.000000 0.000000 0.000000
# 4 0.000000 0.000000 0.000000 0.032761 0.000000 0.000000
# 5 0.000000 0.000000 0.000000 0.000000 0.039820 0.000000
# 6 0.000000 0.000000 0.000000 0.000000 0.000000 0.020626
#
#
# Mechanical properties :
#
#
# Convention : Reuss Voigt Hill
#
# Bulk Modulus (GPa) = 10.88060 19.66896 15.27478
# Shear Modulus (GPa) = 22.65147 31.29734 26.97441
#
# Velocity S-wave (km/s) = 3.07981 3.62017 3.36087
# Velocity P-wave (km/s) = 4.14767 5.07055 4.63215
#
# Compressibility (1/GPa) = 0.09190666
#
# Stress axis : x y z
#
# Youngs Moduli (GPa) = 87.22605 60.03942 15.08745
#
# Poissons Ratio (x) = 0.06920 0.02176
# Poissons Ratio (y) = 0.10053 -0.02033
# Poissons Ratio (z) = 0.12579 -0.08092
#
# Static dielectric constant tensor:
#      x y z
#    x 1.921360 0.000000 0.000000 
#    y 0.000000 1.915840 0.000000 
#    z 0.000000 0.000000 1.990100 
# 
# From -- ./inp_files/3972.got.cif
#   From: 2010.05.17/outbox.cif.g08.bks.cpg/sg19_2_cif.got.tgz:3972.got - 2010.06.03 22:46:19.
