data_PCOD9313345
_publ_section_title
;
Structure prediction by ZEFSAII (Michael W. Deem and Ramdas Pophale) SiO2 
 PCOD9313345
Probable space group: P 21 21 21
;
_chemical_formula_sum "Si O2"
_cell_formula_units_Z 28
_cell_length_a 19.121217
_cell_length_b 8.442406
_cell_length_c 7.668360
_cell_angle_alpha 90.000000
_cell_angle_beta 90.000000
_cell_angle_gamma 90.000000
_cell_volume 1237.896278
_symmetry_space_group_name_H-M "P 21 21 21"
_symmetry_group_IT_number 19
_symmetry_cell_setting 'orthorhombic'
loop_
_space_group_symop_operation_xyz
x,y,z
1/2-x,-y,1/2+z
1/2+x,1/2-y,-z
-x,1/2+y,1/2-z
loop_
_atom_site_type_symbol
_atom_site_label
_atom_site_fract_x
_atom_site_fract_y
_atom_site_fract_z
Si Si1 0.625851 0.198273 0.883967
Si Si2 0.710902 0.473226 0.716523
Si Si3 0.234856 0.565949 0.441925
Si Si4 0.202486 0.719548 0.069146
Si Si5 0.519959 0.648626 0.522293
Si Si6 0.062382 0.614076 0.168797
Si Si7 0.661053 0.670839 0.376988
O O1 0.653408 0.346242 0.776932
O O2 0.690474 0.139502 0.000155
O O3 0.557458 0.221703 0.005828
O O4 0.597457 0.052197 0.764773
O O5 0.714179 0.604573 0.867633
O O6 0.685305 0.567570 0.546500
O O7 0.788524 0.392564 0.723925
O O8 0.217692 0.625588 0.251232
O O9 0.244589 0.377895 0.448282
O O10 0.180877 0.648584 0.574499
O O11 0.120366 0.685081 0.036580
O O12 0.504796 0.465532 0.577225
O O13 0.548398 0.755296 0.684728
O O14 0.577877 0.655200 0.372530
#
# Coordination Sequence:
#
# PCOD9313345 Si02
#       7
#     4   4   4   4   4   4   4
#     4   8  19  30  51  77 107 142 170 228 273 312
#     4  10  19  35  54  83 108 146 181 228 271 331
#     4   9  18  35  50  78 109 143 180 225 270 324
#     4  10  19  34  55  79 109 143 187 228 276 321
#     4  10  17  32  51  80 107 142 177 230 270 318
#     4   9  18  28  51  77 104 137 172 229 269 315
#     4  10  20  34  54  80 112 141 185 224 275 323
#
# _framework density 22.619019999999999
#
# number of rings (size 3 to 8) (size 9 to 14) (size 15 to 20)
#    0.857    1.714    2.857    0.857    0.000    3.429 
#    0.000    0.000    0.000    5.143    0.000    0.000 
#    0.000    0.000    0.000    0.000    0.000    0.000 
#
# Total GULP energy -155925.383959 kJ/mol
# GULP energy per Si atom -5568.763713 kJ/mol
# Density = 2.256754 g / cm^3
# Si number density = 22.619020 Si / 1000 Ang^3
#
#
#
# Elastic Constant Matrix: (Units=GPa)
#
#
# Indices 1 2 3 4 5 6 
#
# 1 98.6823 11.3951 -24.2192 0.0000 0.0000 0.0000
# 2 11.3951 92.4597 -14.3041 0.0000 0.0000 0.0000
# 3 -24.2192 -14.3041 24.5370 0.0000 0.0000 0.0000
# 4 0.0000 0.0000 0.0000 15.6830 0.0000 0.0000
# 5 0.0000 0.0000 0.0000 0.0000 27.4171 0.0000
# 6 0.0000 0.0000 0.0000 0.0000 0.0000 39.1375
#
#
#
# Elastic Compliance Matrix: (Units=1/GPa)
#
#
# Indices 1 2 3 4 5 6 
#
# 1 0.013389 0.000434 0.013468 0.000000 0.000000 0.000000
# 2 0.000434 0.011902 0.007366 0.000000 0.000000 0.000000
# 3 0.013468 0.007366 0.058343 0.000000 0.000000 0.000000
# 4 0.000000 0.000000 0.000000 0.063763 0.000000 0.000000
# 5 0.000000 0.000000 0.000000 0.000000 0.036474 0.000000
# 6 0.000000 0.000000 0.000000 0.000000 0.000000 0.025551
#
#
# Mechanical properties :
#
#
# Convention : Reuss Voigt Hill
#
# Bulk Modulus (GPa) = 7.92588 17.93584 12.93086
# Shear Modulus (GPa) = 23.93013 32.63467 28.28240
#
# Velocity S-wave (km/s) = 3.25617 3.80254 3.53991
# Velocity P-wave (km/s) = 4.20101 5.21784 4.73679
#
# Compressibility (1/GPa) = 0.12616903
#
# Stress axis : x y z
#
# Youngs Moduli (GPa) = 74.68858 84.02178 17.14011
#
# Poissons Ratio (x) = -0.03643 -0.23085
# Poissons Ratio (y) = -0.03238 -0.12626
# Poissons Ratio (z) = -1.00592 -0.61891
#
# Static dielectric constant tensor:
#      x y z
#    x 1.938150 0.000000 0.000000 
#    y 0.000000 1.932590 0.000000 
#    z 0.000000 0.000000 1.928910 
# 
# From -- ./inp_files/4287.got.cif
#   From: 2010.05.17/outbox.cif.g08.bks.cpg/sg19_3_cif.got.tgz:4287.got - 2010.06.03 22:46:19.
