data_PCOD9313743
_publ_section_title
;
Structure prediction by ZEFSAII (Michael W. Deem and Ramdas Pophale) SiO2 
 PCOD9313743
Probable space group: P 21 21 21
;
_chemical_formula_sum "Si O2"
_cell_formula_units_Z 24
_cell_length_a 7.885056
_cell_length_b 16.679692
_cell_length_c 7.789746
_cell_angle_alpha 90.000000
_cell_angle_beta 90.000000
_cell_angle_gamma 90.000000
_cell_volume 1024.509774
_symmetry_space_group_name_H-M "P 21 21 21"
_symmetry_group_IT_number 19
_symmetry_cell_setting 'orthorhombic'
loop_
_space_group_symop_operation_xyz
x,y,z
1/2-x,-y,1/2+z
1/2+x,1/2-y,-z
-x,1/2+y,1/2-z
loop_
_atom_site_type_symbol
_atom_site_label
_atom_site_fract_x
_atom_site_fract_y
_atom_site_fract_z
Si Si1 0.750326 0.868584 0.413750
Si Si2 0.940881 0.622275 0.070511
Si Si3 0.059904 0.877888 0.929655
Si Si4 0.556363 0.728373 0.720922
Si Si5 0.444424 0.771476 0.278918
Si Si6 0.249680 0.473083 0.436797
O O1 0.581530 0.815373 0.397234
O O2 0.919386 0.815544 0.397512
O O3 0.750032 0.931210 0.568637
O O4 0.750316 0.925563 0.242790
O O5 0.750438 0.590938 0.098912
O O6 0.991726 0.684717 0.218549
O O7 0.082386 0.555752 0.038011
O O8 0.941292 0.675609 0.896701
O O9 0.008814 0.815465 0.781659
O O10 0.918544 0.944487 0.962158
O O11 0.059456 0.824573 0.103500
O O12 0.750412 0.729984 0.661541
#
# Coordination Sequence:
#
# PCOD9313743 Si02
#       6
#     4   4   4   4   4   4
#     4  10  20  32  48  72 101 126 152 194 241 282
#     4   9  15  26  47  73  94 117 158 204 235 265
#     4   9  15  26  47  73  94 117 158 204 235 265
#     4   9  15  26  47  73  94 117 158 204 235 265
#     4   9  15  26  47  73  94 117 158 204 235 265
#     4  10  20  32  48  72 101 126 152 194 241 282
#
# _framework density 23.425837000000001
#
# number of rings (size 3 to 8) (size 9 to 14) (size 15 to 20)
#    0.000    2.667    3.333    0.000    0.000    1.333 
#    0.000    0.000    0.000    2.000    0.000    0.000 
#    0.000    0.000    0.000    0.000    0.000    0.000 
#
# Total GULP energy -134332.215234 kJ/mol
# GULP energy per Si atom -5597.175635 kJ/mol
# Density = 2.337252 g / cm^3
# Si number density = 23.425837 Si / 1000 Ang^3
#
#
#
# Elastic Constant Matrix: (Units=GPa)
#
#
# Indices 1 2 3 4 5 6 
#
# 1 227.2005 60.8694 44.7028 0.0000 0.0000 0.0000
# 2 60.8694 64.3599 25.4308 0.0000 0.0000 0.0000
# 3 44.7028 25.4308 88.2381 0.0000 0.0000 0.0000
# 4 0.0000 0.0000 0.0000 35.2866 0.0000 0.0000
# 5 0.0000 0.0000 0.0000 0.0000 33.8929 0.0000
# 6 0.0000 0.0000 0.0000 0.0000 0.0000 40.5660
#
#
#
# Elastic Compliance Matrix: (Units=1/GPa)
#
#
# Indices 1 2 3 4 5 6 
#
# 1 0.006091 -0.005125 -0.001609 0.000000 0.000000 0.000000
# 2 -0.005125 0.021847 -0.003700 0.000000 0.000000 0.000000
# 3 -0.001609 -0.003700 0.013214 0.000000 0.000000 0.000000
# 4 0.000000 0.000000 0.000000 0.028339 0.000000 0.000000
# 5 0.000000 0.000000 0.000000 0.000000 0.029505 0.000000
# 6 0.000000 0.000000 0.000000 0.000000 0.000000 0.024651
#
#
# Mechanical properties :
#
#
# Convention : Reuss Voigt Hill
#
# Bulk Modulus (GPa) = 49.29845 71.31161 60.30503
# Shear Modulus (GPa) = 33.05216 38.53545 35.79381
#
# Velocity S-wave (km/s) = 3.76031 4.06026 3.91316
# Velocity P-wave (km/s) = 6.32008 7.24489 6.79823
#
# Compressibility (1/GPa) = 0.02028461
#
# Stress axis : x y z
#
# Youngs Moduli (GPa) = 164.17807 45.77370 75.67543
#
# Poissons Ratio (x) = 0.23459 0.12174
# Poissons Ratio (y) = 0.84140 0.28000
# Poissons Ratio (z) = 0.26412 0.16936
#
# Static dielectric constant tensor:
#      x y z
#    x 1.846370 0.000000 0.000000 
#    y 0.000000 1.821700 0.000000 
#    z 0.000000 0.000000 1.946210 
# 
# From -- ./inp_files/2815.got.cif
#   From: 2010.05.17/outbox.cif.g08.bks.cpg/sg19_2_cif.got.tgz:2815.got - 2010.06.03 22:46:19.
