data_PCOD9313450
_publ_section_title
;
Structure prediction by ZEFSAII (Michael W. Deem and Ramdas Pophale) SiO2 
 PCOD9313450
Probable space group: P 21 21 21
;
_chemical_formula_sum "Si O2"
_cell_formula_units_Z 32
_cell_length_a 11.643989
_cell_length_b 19.751605
_cell_length_c 5.703994
_cell_angle_alpha 90.000000
_cell_angle_beta 90.000000
_cell_angle_gamma 90.000000
_cell_volume 1311.847157
_symmetry_space_group_name_H-M "P 21 21 21"
_symmetry_group_IT_number 19
_symmetry_cell_setting 'orthorhombic'
loop_
_space_group_symop_operation_xyz
x,y,z
1/2-x,-y,1/2+z
1/2+x,1/2-y,-z
-x,1/2+y,1/2-z
loop_
_atom_site_type_symbol
_atom_site_label
_atom_site_fract_x
_atom_site_fract_y
_atom_site_fract_z
Si Si1 0.449357 0.262806 0.116394
Si Si2 0.520330 0.530594 0.498111
Si Si3 0.042506 0.603526 0.820967
Si Si4 0.801220 0.172711 0.295407
Si Si5 0.918989 0.800959 0.250992
Si Si6 0.226621 0.417397 0.072713
Si Si7 0.739811 0.295131 0.574559
Si Si8 0.911141 0.400266 0.491330
O O1 0.514916 0.328841 0.214436
O O2 0.348005 0.232461 0.273659
O O3 0.380456 0.296221 0.903819
O O4 0.522763 0.203055 0.004839
O O5 0.539109 0.452882 0.426372
O O6 0.382891 0.533671 0.567744
O O7 0.576822 0.555844 0.746297
O O8 0.553884 0.568497 0.248172
O O9 0.142079 0.568578 0.652837
O O10 0.116377 0.638034 0.021980
O O11 0.729134 0.112126 0.187777
O O12 0.730880 0.238049 0.374318
O O13 0.814936 0.853813 0.268819
O O14 0.875681 0.724600 0.209794
O O15 0.006430 0.835797 0.072951
O O16 0.782804 0.368787 0.506726
#
# Coordination Sequence:
#
# PCOD9313450 Si02
#       8
#     4   4   4   4   4   4   4   4
#     4  10  21  38  60  95 130 172 216 272 327 409
#     4  11  26  39  60  88 133 181 219 266 317 405
#     4  10  23  38  57  89 131 179 218 266 326 393
#     4  10  18  36  57  84 129 161 204 272 322 390
#     4  11  20  39  64  97 131 169 210 270 346 390
#     4  10  21  33  57  90 129 166 212 261 326 400
#     4  11  20  38  59  91 135 164 212 279 327 396
#     4  11  25  41  60  98 130 172 223 266 331 399
#
# _framework density 24.393083000000001
#
# number of rings (size 3 to 8) (size 9 to 14) (size 15 to 20)
#    0.000    1.500    5.000    2.250    7.000    0.000 
#    0.000    0.000    0.000    0.000    3.250    0.000 
#    0.000    0.000    0.000    0.000    0.000    0.000 
#
# Total GULP energy -178241.087319 kJ/mol
# GULP energy per Si atom -5570.033979 kJ/mol
# Density = 2.433756 g / cm^3
# Si number density = 24.393083 Si / 1000 Ang^3
#
#
#
# Elastic Constant Matrix: (Units=GPa)
#
#
# Indices 1 2 3 4 5 6 
#
# 1 39.3623 24.4100 8.6095 0.0000 0.0000 0.0000
# 2 24.4100 61.8776 32.6330 0.0000 0.0000 0.0000
# 3 8.6095 32.6330 102.5427 0.0000 0.0000 0.0000
# 4 0.0000 0.0000 0.0000 40.7191 0.0000 0.0000
# 5 0.0000 0.0000 0.0000 0.0000 28.9323 0.0000
# 6 0.0000 0.0000 0.0000 0.0000 0.0000 18.8107
#
#
#
# Elastic Compliance Matrix: (Units=1/GPa)
#
#
# Indices 1 2 3 4 5 6 
#
# 1 0.033876 -0.014256 0.001693 0.000000 0.000000 0.000000
# 2 -0.014256 0.025420 -0.006893 0.000000 0.000000 0.000000
# 3 0.001693 -0.006893 0.011803 0.000000 0.000000 0.000000
# 4 0.000000 0.000000 0.000000 0.024558 0.000000 0.000000
# 5 0.000000 0.000000 0.000000 0.000000 0.034563 0.000000
# 6 0.000000 0.000000 0.000000 0.000000 0.000000 0.053161
#
#
# Mechanical properties :
#
#
# Convention : Reuss Voigt Hill
#
# Bulk Modulus (GPa) = 31.06887 37.23195 34.15041
# Shear Modulus (GPa) = 21.45711 26.90110 24.17910
#
# Velocity S-wave (km/s) = 2.96909 3.32447 3.15179
# Velocity P-wave (km/s) = 4.95160 5.48020 5.22259
#
# Compressibility (1/GPa) = 0.03218656
#
# Stress axis : x y z
#
# Youngs Moduli (GPa) = 29.51981 39.33937 84.72130
#
# Poissons Ratio (x) = 0.56083 -0.14340
# Poissons Ratio (y) = 0.42084 0.58395
# Poissons Ratio (z) = -0.04997 0.27115
#
# Static dielectric constant tensor:
#      x y z
#    x 1.980860 0.000000 0.000000 
#    y 0.000000 1.988830 0.000000 
#    z 0.000000 0.000000 2.209220 
# 
# From -- ./inp_files/1256.got.cif
#   From: 2010.05.17/outbox.cif.g08.bks.cpg/sg19_1_cif.got.tgz:1256.got - 2010.06.03 22:46:19.
