data_PCOD9313246
_publ_section_title
;
Structure prediction by ZEFSAII (Michael W. Deem and Ramdas Pophale) SiO2 
 PCOD9313246
Probable space group: P 21 21 2
;
_chemical_formula_sum "Si O2"
_cell_formula_units_Z 16
_cell_length_a 4.977075
_cell_length_b 21.665759
_cell_length_c 5.170281
_cell_angle_alpha 90.000000
_cell_angle_beta 90.000000
_cell_angle_gamma 90.000000
_cell_volume 557.522296
_symmetry_space_group_name_H-M "P 21 21 2"
_symmetry_group_IT_number 18
_symmetry_cell_setting 'orthorhombic'
loop_
_space_group_symop_operation_xyz
x,y,z
-x,-y,z
1/2+x,1/2-y,-z
1/2-x,1/2+y,-z
loop_
_atom_site_type_symbol
_atom_site_label
_atom_site_fract_x
_atom_site_fract_y
_atom_site_fract_z
Si Si1 0.376485 0.934047 0.673930
Si Si2 0.515469 0.634606 0.968052
Si Si3 0.105887 0.209657 0.535486
Si Si4 0.713205 0.464310 0.645535
O O1 0.629772 0.910450 0.513603
O O2 0.500000 0.000000 0.757194
O O3 0.119923 0.958430 0.489498
O O4 0.285710 0.887702 0.889417
O O5 0.527185 0.668435 0.694310
O O6 0.380897 0.567582 0.912773
O O7 0.388032 0.679180 0.180783
O O8 0.394618 0.233780 0.447769
O O9 0.000000 0.500000 0.717305
#
# Coordination Sequence:
#
# PCOD9313246 Si02
#       4
#     4   4   4   4
#     4   8  23  48  73 129 175 210 271 327 415 542
#     4  12  25  53  88 115 170 227 276 355 441 491
#     4  12  31  58  81 124 159 221 305 378 418 498
#     4   9  21  47  74 123 171 208 266 323 410 534
#
# _framework density 28.698405999999999
#
# number of rings (size 3 to 8) (size 9 to 14) (size 15 to 20)
#    1.500    0.000    0.000    3.000    3.500    3.000 
#   22.500    0.000    0.000    0.000    0.000    0.000 
#    0.000    0.000    0.000    0.000    0.000    0.000 
#
# Total GULP energy -89088.685639 kJ/mol
# GULP energy per Si atom -5568.042852 kJ/mol
# Density = 2.863309 g / cm^3
# Si number density = 28.698406 Si / 1000 Ang^3
#
#
#
# Elastic Constant Matrix: (Units=GPa)
#
#
# Indices 1 2 3 4 5 6 
#
# 1 159.7422 46.6132 63.3292 0.0000 0.0000 0.0000
# 2 46.6132 99.8042 49.9521 0.0000 0.0000 0.0000
# 3 63.3292 49.9521 177.9491 0.0000 0.0000 0.0000
# 4 0.0000 0.0000 0.0000 -273.6188 0.0000 0.0000
# 5 0.0000 0.0000 0.0000 0.0000 31.9708 0.0000
# 6 0.0000 0.0000 0.0000 0.0000 0.0000 61.6288
#
#
#
# Elastic Compliance Matrix: (Units=1/GPa)
#
#
# Indices 1 2 3 4 5 6 
#
# 1 0.007842 -0.002636 -0.002051 0.000000 0.000000 0.000000
# 2 -0.002636 0.012544 -0.002583 0.000000 0.000000 0.000000
# 3 -0.002051 -0.002583 0.007075 0.000000 0.000000 0.000000
# 4 0.000000 0.000000 0.000000 -0.003655 0.000000 0.000000
# 5 0.000000 0.000000 0.000000 0.000000 0.031279 0.000000
# 6 0.000000 0.000000 0.000000 0.000000 0.000000 0.016226
#
#
# Mechanical properties :
#
#
# Convention : Reuss Voigt Hill
#
# Bulk Modulus (GPa) = 77.39758 84.14274 80.77016
# Shear Modulus (GPa) = 55.45835 -17.49711 18.98062
#
# Velocity S-wave (km/s) = 4.40074 -2.47187 2.57453
# Velocity P-wave (km/s) = 7.26979 4.60830 6.08631
#
# Compressibility (1/GPa) = 0.01292030
#
# Stress axis : x y z
#
# Youngs Moduli (GPa) = 127.51097 79.72165 141.35187
#
# Poissons Ratio (x) = 0.21017 0.28991
# Poissons Ratio (y) = 0.33615 0.36510
# Poissons Ratio (z) = 0.26152 0.20591
#
# Static dielectric constant tensor:
#      x y z
#    x 5.281000 0.000000 0.000000 
#    y 0.000000 1.976050 0.000000 
#    z 0.000000 0.000000 2.482660 
# 
# From -- ./inp_files/195.got.cif
#   From: 2010.05.17/outbox.cif.g08.bks.cpg/sg18_1_cif.got.tgz:195.got - 2010.06.03 22:40:56.
