data_PCOD9313093
_publ_section_title
;
Structure prediction by ZEFSAII (Michael W. Deem and Ramdas Pophale) SiO2 
 PCOD9313093
Probable space group: P 21 21 2
;
_chemical_formula_sum "Si O2"
_cell_formula_units_Z 22
_cell_length_a 12.801291
_cell_length_b 5.433774
_cell_length_c 13.071963
_cell_angle_alpha 90.000000
_cell_angle_beta 90.000000
_cell_angle_gamma 90.000000
_cell_volume 909.276886
_symmetry_space_group_name_H-M "P 21 21 2"
_symmetry_group_IT_number 18
_symmetry_cell_setting 'orthorhombic'
loop_
_space_group_symop_operation_xyz
x,y,z
-x,-y,z
1/2+x,1/2-y,-z
1/2-x,1/2+y,-z
loop_
_atom_site_type_symbol
_atom_site_label
_atom_site_fract_x
_atom_site_fract_y
_atom_site_fract_z
Si Si1 0.088991 0.680887 0.854804
Si Si2 0.247388 0.767900 0.439499
Si Si3 0.381574 0.074601 0.730474
Si Si4 0.500000 0.500000 0.983327
Si Si5 0.470169 0.749764 0.363553
Si Si6 0.174924 0.088097 0.166000
O O1 0.203348 0.569025 0.862063
O O2 0.000000 0.500000 0.895171
O O3 0.041834 0.746665 0.740993
O O4 0.084174 0.896797 0.935741
O O5 0.265798 0.546529 0.520752
O O6 0.146922 0.673374 0.380680
O O7 0.344765 0.758467 0.358680
O O8 0.356074 0.313382 0.798858
O O9 0.500000 0.000000 0.737419
O O10 0.321281 0.821870 0.756906
O O11 0.579517 0.346997 0.911033
O O12 0.500000 0.500000 0.418410
O O13 0.500000 0.000000 0.418943
#
# Coordination Sequence:
#
# PCOD9313093 Si02
#       6
#     4   4   4   2   4   4
#     4  11  27  45  75 111 153 205 261 319 382 454
#     4  12  27  46  77 113 147 193 257 323 386 468
#     4  12  25  51  75 107 151 207 245 313 400 467
#     4  12  28  46  74 120 146 210 262 330 374 464
#     4  11  22  45  71 107 147 198 248 311 385 448
#     4  12  28  49  77 109 160 202 261 314 392 463
#
# _framework density 24.195049999999998
#
# number of rings (size 3 to 8) (size 9 to 14) (size 15 to 20)
#    0.000    0.364    2.727    5.455    7.636    2.182 
#    0.000    0.000    0.000    0.000    0.000    0.000 
#    0.000    0.000    0.000    0.000    0.000    0.000 
#
# Total GULP energy -122684.761868 kJ/mol
# GULP energy per Si atom -5576.580085 kJ/mol
# Density = 2.413998 g / cm^3
# Si number density = 24.195050 Si / 1000 Ang^3
#
#
#
# Elastic Constant Matrix: (Units=GPa)
#
#
# Indices 1 2 3 4 5 6 
#
# 1 140.8398 40.1873 50.6639 0.0000 0.0000 0.0000
# 2 40.1873 132.8119 15.5183 0.0000 0.0000 0.0000
# 3 50.6639 15.5183 57.6855 0.0000 0.0000 0.0000
# 4 0.0000 0.0000 0.0000 -56.1055 0.0000 0.0000
# 5 0.0000 0.0000 0.0000 0.0000 39.8004 0.0000
# 6 0.0000 0.0000 0.0000 0.0000 0.0000 39.7811
#
#
#
# Elastic Compliance Matrix: (Units=1/GPa)
#
#
# Indices 1 2 3 4 5 6 
#
# 1 0.011006 -0.002272 -0.009055 0.000000 0.000000 0.000000
# 2 -0.002272 0.008243 -0.000222 0.000000 0.000000 0.000000
# 3 -0.009055 -0.000222 0.025348 0.000000 0.000000 0.000000
# 4 0.000000 0.000000 0.000000 -0.017824 0.000000 0.000000
# 5 0.000000 0.000000 0.000000 0.000000 0.025125 0.000000
# 6 0.000000 0.000000 0.000000 0.000000 0.000000 0.025138
#
#
# Mechanical properties :
#
#
# Convention : Reuss Voigt Hill
#
# Bulk Modulus (GPa) = 46.51467 60.45290 53.48379
# Shear Modulus (GPa) = 46.59810 19.69305 33.14557
#
# Velocity S-wave (km/s) = 4.39331 2.85604 3.70527
# Velocity P-wave (km/s) = 6.70832 5.99298 6.36071
#
# Compressibility (1/GPa) = 0.02149859
#
# Stress axis : x y z
#
# Youngs Moduli (GPa) = 90.85977 121.31633 39.45105
#
# Poissons Ratio (x) = 0.27566 0.35723
# Poissons Ratio (y) = 0.20646 0.00875
# Poissons Ratio (z) = 0.82274 0.02691
#
# Static dielectric constant tensor:
#      x y z
#    x 2.110640 0.000000 0.000000 
#    y 0.000000 2.329650 0.000000 
#    z 0.000000 0.000000 1.972480 
# 
# From -- ./inp_files/6865.got.cif
#   From: 2010.05.17/outbox.cif.g08.bks.cpg/sg18_4_cif.got.tgz:6865.got - 2010.06.03 22:40:56.
