data_PCOD9313039
_publ_section_title
;
Structure prediction by ZEFSAII (Michael W. Deem and Ramdas Pophale) SiO2 
 PCOD9313039
Probable space group: P 21 21 2
;
_chemical_formula_sum "Si O2"
_cell_formula_units_Z 26
_cell_length_a 11.979434
_cell_length_b 11.965454
_cell_length_c 9.208291
_cell_angle_alpha 90.000000
_cell_angle_beta 90.000000
_cell_angle_gamma 90.000000
_cell_volume 1319.910598
_symmetry_space_group_name_H-M "P 21 21 2"
_symmetry_group_IT_number 18
_symmetry_cell_setting 'orthorhombic'
loop_
_space_group_symop_operation_xyz
x,y,z
-x,-y,z
1/2+x,1/2-y,-z
1/2-x,1/2+y,-z
loop_
_atom_site_type_symbol
_atom_site_label
_atom_site_fract_x
_atom_site_fract_y
_atom_site_fract_z
Si Si1 0.500000 0.500000 0.762859
Si Si2 0.152263 0.612796 0.169795
Si Si3 0.097571 0.645740 0.639432
Si Si4 0.710673 0.362895 0.877606
Si Si5 0.101627 0.364570 0.220745
Si Si6 0.620556 0.093442 0.453561
Si Si7 0.858303 0.187166 0.395622
O O1 0.607386 0.449115 0.849867
O O2 0.452033 0.395945 0.668388
O O3 0.164887 0.482707 0.211906
O O4 0.169204 0.709333 0.288909
O O5 0.018646 0.624927 0.144225
O O6 0.233191 0.630702 0.034527
O O7 0.186703 0.623687 0.764178
O O8 0.110816 0.539778 0.531579
O O9 0.116682 0.759415 0.552732
O O10 0.965649 0.634766 0.670549
O O11 0.664332 0.239237 0.847252
O O12 0.087898 0.347503 0.394743
O O13 0.745400 0.118814 0.412289
#
# Coordination Sequence:
#
# PCOD9313039 Si02
#       7
#     2   4   4   4   4   4   4
#     4  12  26  46  64 104 140 178 214 292 342 398
#     4  11  25  42  67  95 132 180 220 267 334 404
#     4  11  22  40  64 103 128 172 226 270 323 407
#     4  12  26  41  70  96 141 175 220 279 344 401
#     4  11  22  44  66  93 132 176 223 275 335 392
#     4  11  21  39  71  96 131 172 227 278 327 398
#     4  12  23  43  72  96 136 176 221 278 346 389
#
# _framework density 19.698302000000002
#
# number of rings (size 3 to 8) (size 9 to 14) (size 15 to 20)
#    0.000    0.615    7.692    0.923    2.154    3.692 
#    0.000    0.000    0.000    1.846    0.000    0.000 
#    0.000    0.000    0.000    0.000    0.000    0.000 
#
# Total GULP energy -144984.198738 kJ/mol
# GULP energy per Si atom -5576.315336 kJ/mol
# Density = 1.965347 g / cm^3
# Si number density = 19.698302 Si / 1000 Ang^3
#
#
#
# Elastic Constant Matrix: (Units=GPa)
#
#
# Indices 1 2 3 4 5 6 
#
# 1 87.5706 0.7817 15.1079 0.0000 0.0000 0.0000
# 2 0.7817 77.1935 0.9847 0.0000 0.0000 0.0000
# 3 15.1079 0.9847 39.7575 0.0000 0.0000 0.0000
# 4 0.0000 0.0000 0.0000 19.2963 0.0000 0.0000
# 5 0.0000 0.0000 0.0000 0.0000 33.8792 0.0000
# 6 0.0000 0.0000 0.0000 0.0000 0.0000 29.1642
#
#
#
# Elastic Compliance Matrix: (Units=1/GPa)
#
#
# Indices 1 2 3 4 5 6 
#
# 1 0.012221 -0.000065 -0.004642 0.000000 0.000000 0.000000
# 2 -0.000065 0.012959 -0.000296 0.000000 0.000000 0.000000
# 3 -0.004642 -0.000296 0.026924 0.000000 0.000000 0.000000
# 4 0.000000 0.000000 0.000000 0.051823 0.000000 0.000000
# 5 0.000000 0.000000 0.000000 0.000000 0.029517 0.000000
# 6 0.000000 0.000000 0.000000 0.000000 0.000000 0.034289
#
#
# Mechanical properties :
#
#
# Convention : Reuss Voigt Hill
#
# Bulk Modulus (GPa) = 23.75464 26.47446 25.11455
# Shear Modulus (GPa) = 26.07274 28.97776 27.52525
#
# Velocity S-wave (km/s) = 3.64208 3.83963 3.74216
# Velocity P-wave (km/s) = 5.45635 5.75553 5.60794
#
# Compressibility (1/GPa) = 0.04209704
#
# Stress axis : x y z
#
# Youngs Moduli (GPa) = 81.82744 77.16704 37.14170
#
# Poissons Ratio (x) = 0.00498 0.17242
# Poissons Ratio (y) = 0.00528 0.01101
# Poissons Ratio (z) = 0.37987 0.02287
#
# Static dielectric constant tensor:
#      x y z
#    x 1.733550 0.000000 0.000000 
#    y 0.000000 1.707010 0.000000 
#    z 0.000000 0.000000 1.698730 
# 
# From -- ./inp_files/3786.got.cif
#   From: 2010.05.17/outbox.cif.g08.bks.cpg/sg18_2_cif.got.tgz:3786.got - 2010.06.03 22:40:56.
