data_PCOD9313230
_publ_section_title
;
Structure prediction by ZEFSAII (Michael W. Deem and Ramdas Pophale) SiO2 
 PCOD9313230
Probable space group: P 21 21 2
;
_chemical_formula_sum "Si O2"
_cell_formula_units_Z 18
_cell_length_a 24.021242
_cell_length_b 6.122443
_cell_length_c 4.865250
_cell_angle_alpha 90.000000
_cell_angle_beta 90.000000
_cell_angle_gamma 90.000000
_cell_volume 715.525919
_symmetry_space_group_name_H-M "P 21 21 2"
_symmetry_group_IT_number 18
_symmetry_cell_setting 'orthorhombic'
loop_
_space_group_symop_operation_xyz
x,y,z
-x,-y,z
1/2+x,1/2-y,-z
1/2-x,1/2+y,-z
loop_
_atom_site_type_symbol
_atom_site_label
_atom_site_fract_x
_atom_site_fract_y
_atom_site_fract_z
Si Si1 0.191983 0.658392 0.676997
Si Si2 0.423602 0.368617 0.191596
Si Si3 0.000000 0.500000 0.980859
Si Si4 0.190987 0.374331 0.177835
Si Si5 0.574984 0.340183 0.689106
O O1 0.140198 0.811708 0.744948
O O2 0.191044 0.595353 0.358281
O O3 0.250847 0.758413 0.761893
O O4 0.184746 0.440192 0.860821
O O5 0.438735 0.571674 0.387459
O O6 0.459820 0.149502 0.206646
O O7 0.431177 0.448801 0.882081
O O8 0.037732 0.348562 0.177890
O O9 0.138602 0.236596 0.279931
#
# Coordination Sequence:
#
# PCOD9313230 Si02
#       5
#     4   4   2   4   4
#     4  12  24  46  76 112 154 195 249 320 382 459
#     4  12  28  51  78 113 153 205 260 316 388 455
#     4  12  30  54  76 116 160 206 266 324 376 468
#     4  12  24  46  76 112 154 195 249 320 382 459
#     4  12  28  51  78 113 153 205 260 316 388 455
#
# _framework density 25.156323
#
# number of rings (size 3 to 8) (size 9 to 14) (size 15 to 20)
#    0.000    0.000    2.222    7.333    0.000    5.333 
#    0.000    0.000    0.000    0.000    0.000    0.000 
#    0.000    0.000    0.000    0.000    0.000    0.000 
#
# Total GULP energy -101083.195884 kJ/mol
# GULP energy per Si atom -5615.733105 kJ/mol
# Density = 2.509907 g / cm^3
# Si number density = 25.156323 Si / 1000 Ang^3
#
#
#
# Elastic Constant Matrix: (Units=GPa)
#
#
# Indices 1 2 3 4 5 6 
#
# 1 189.8648 60.1596 11.0104 0.0000 0.0000 0.0000
# 2 60.1596 79.7710 -0.1692 0.0000 0.0000 0.0000
# 3 11.0104 -0.1692 74.9004 0.0000 0.0000 0.0000
# 4 0.0000 0.0000 0.0000 50.4320 0.0000 0.0000
# 5 0.0000 0.0000 0.0000 0.0000 21.3210 0.0000
# 6 0.0000 0.0000 0.0000 0.0000 0.0000 77.5639
#
#
#
# Elastic Compliance Matrix: (Units=1/GPa)
#
#
# Indices 1 2 3 4 5 6 
#
# 1 0.007001 -0.005282 -0.001041 0.000000 0.000000 0.000000
# 2 -0.005282 0.016521 0.000814 0.000000 0.000000 0.000000
# 3 -0.001041 0.000814 0.013506 0.000000 0.000000 0.000000
# 4 0.000000 0.000000 0.000000 0.019829 0.000000 0.000000
# 5 0.000000 0.000000 0.000000 0.000000 0.046902 0.000000
# 6 0.000000 0.000000 0.000000 0.000000 0.000000 0.012893
#
#
# Mechanical properties :
#
#
# Convention : Reuss Voigt Hill
#
# Bulk Modulus (GPa) = 38.44770 54.05976 46.25373
# Shear Modulus (GPa) = 36.67317 48.09907 42.38612
#
# Velocity S-wave (km/s) = 3.82227 4.37739 4.10922
# Velocity P-wave (km/s) = 5.89885 6.86185 6.39849
#
# Compressibility (1/GPa) = 0.02600936
#
# Stress axis : x y z
#
# Youngs Moduli (GPa) = 142.83884 60.52893 74.04149
#
# Poissons Ratio (x) = 0.31971 0.07708
# Poissons Ratio (y) = 0.75447 -0.06025
# Poissons Ratio (z) = 0.14871 -0.04926
#
# Static dielectric constant tensor:
#      x y z
#    x 1.974110 0.000000 0.000000 
#    y 0.000000 1.983240 0.000000 
#    z 0.000000 0.000000 1.896830 
# 
# From -- ./inp_files/2053.got.cif
#   From: 2010.05.17/outbox.cif.g08.bks.cpg/sg18_2_cif.got.tgz:2053.got - 2010.06.03 22:40:56.
