data_PCOD9313004
_publ_section_title
;
Structure prediction by ZEFSAII (Michael W. Deem and Ramdas Pophale) SiO2 
 PCOD9313004
Probable space group: P 21 21 2
;
_chemical_formula_sum "Si O2"
_cell_formula_units_Z 16
_cell_length_a 22.804958
_cell_length_b 5.158701
_cell_length_c 4.972065
_cell_angle_alpha 90.000000
_cell_angle_beta 90.000000
_cell_angle_gamma 90.000000
_cell_volume 584.933414
_symmetry_space_group_name_H-M "P 21 21 2"
_symmetry_group_IT_number 18
_symmetry_cell_setting 'orthorhombic'
loop_
_space_group_symop_operation_xyz
x,y,z
-x,-y,z
1/2+x,1/2-y,-z
1/2-x,1/2+y,-z
loop_
_atom_site_type_symbol
_atom_site_label
_atom_site_fract_x
_atom_site_fract_y
_atom_site_fract_z
Si Si1 0.461677 0.740089 0.448403
Si Si2 0.259042 0.572025 0.819976
Si Si3 0.887811 0.052594 0.163277
Si Si4 0.133536 0.597787 0.645284
O O1 0.500000 0.500000 0.335047
O O2 0.439637 0.635355 0.739122
O O3 0.500000 0.000000 0.451478
O O4 0.402185 0.834436 0.295314
O O5 0.326853 0.583981 0.745201
O O6 0.204019 0.574868 0.618584
O O7 0.251676 0.307118 0.980161
O O8 0.891123 0.294595 0.367852
O O9 0.880510 0.191429 0.876633
#
# Coordination Sequence:
#
# PCOD9313004 Si02
#       4
#     4   4   4   4
#     4  12  28  56  80 118 162 222 274 332 394 480
#     4  10  26  46  82 118 158 198 254 328 406 482
#     4  11  28  52  82 119 161 207 266 332 405 478
#     4  11  28  52  82 119 161 207 266 332 405 478
#
# _framework density 27.353538
#
# number of rings (size 3 to 8) (size 9 to 14) (size 15 to 20)
#    0.000    1.000    2.500    0.000   17.500    2.000 
#    9.000    0.000    0.000    0.000    0.000    0.000 
#    0.000    0.000    0.000    0.000    0.000    0.000 
#
# Total GULP energy -89630.184104 kJ/mol
# GULP energy per Si atom -5601.886507 kJ/mol
# Density = 2.729128 g / cm^3
# Si number density = 27.353538 Si / 1000 Ang^3
#
#
#
# Elastic Constant Matrix: (Units=GPa)
#
#
# Indices 1 2 3 4 5 6 
#
# 1 169.7583 45.7342 11.3710 0.0000 0.0000 0.0000
# 2 45.7342 191.7823 18.0203 0.0000 0.0000 0.0000
# 3 11.3710 18.0203 56.8298 0.0000 0.0000 0.0000
# 4 0.0000 0.0000 0.0000 31.9308 0.0000 0.0000
# 5 0.0000 0.0000 0.0000 0.0000 38.4400 0.0000
# 6 0.0000 0.0000 0.0000 0.0000 0.0000 63.6845
#
#
#
# Elastic Compliance Matrix: (Units=1/GPa)
#
#
# Indices 1 2 3 4 5 6 
#
# 1 0.006331 -0.001434 -0.000812 0.000000 0.000000 0.000000
# 2 -0.001434 0.005699 -0.001520 0.000000 0.000000 0.000000
# 3 -0.000812 -0.001520 0.018241 0.000000 0.000000 0.000000
# 4 0.000000 0.000000 0.000000 0.031318 0.000000 0.000000
# 5 0.000000 0.000000 0.000000 0.000000 0.026015 0.000000
# 6 0.000000 0.000000 0.000000 0.000000 0.000000 0.015702
#
#
# Mechanical properties :
#
#
# Convention : Reuss Voigt Hill
#
# Bulk Modulus (GPa) = 43.97696 63.18015 53.57856
# Shear Modulus (GPa) = 42.22341 49.69407 45.95874
#
# Velocity S-wave (km/s) = 3.93315 4.26694 4.10344
# Velocity P-wave (km/s) = 6.06122 6.88647 6.48698
#
# Compressibility (1/GPa) = 0.02273918
#
# Stress axis : x y z
#
# Youngs Moduli (GPa) = 157.94464 175.47128 54.82161
#
# Poissons Ratio (x) = 0.25154 0.04453
# Poissons Ratio (y) = 0.22641 0.08334
# Poissons Ratio (z) = 0.12829 0.26676
#
# Static dielectric constant tensor:
#      x y z
#    x 2.289520 0.000000 0.000000 
#    y 0.000000 2.106550 0.000000 
#    z 0.000000 0.000000 2.111950 
# 
# From -- ./inp_files/2047.got.cif
#   From: 2010.05.17/outbox.cif.g08.bks.cpg/sg18_2_cif.got.tgz:2047.got - 2010.06.03 22:40:56.
