data_PCOD9313667
_publ_section_title
;
Structure prediction by ZEFSAII (Michael W. Deem and Ramdas Pophale) SiO2 
 PCOD9313667
Probable space group: P 21 21 21
;
_chemical_formula_sum "Si O2"
_cell_formula_units_Z 32
_cell_length_a 9.864772
_cell_length_b 28.189648
_cell_length_c 5.319061
_cell_angle_alpha 90.000000
_cell_angle_beta 90.000000
_cell_angle_gamma 90.000000
_cell_volume 1479.148154
_symmetry_space_group_name_H-M "P 21 21 21"
_symmetry_group_IT_number 19
_symmetry_cell_setting 'orthorhombic'
loop_
_space_group_symop_operation_xyz
x,y,z
1/2-x,-y,1/2+z
1/2+x,1/2-y,-z
-x,1/2+y,1/2-z
loop_
_atom_site_type_symbol
_atom_site_label
_atom_site_fract_x
_atom_site_fract_y
_atom_site_fract_z
Si Si1 0.142269 0.801907 0.247348
Si Si2 0.893553 0.149496 0.748600
Si Si3 0.578118 0.023015 0.249825
Si Si4 0.819207 0.602494 0.752012
Si Si5 0.214854 0.438537 0.250213
Si Si6 0.999782 0.333289 0.752550
Si Si7 0.695068 0.804756 0.748646
Si Si8 0.818966 0.429319 0.751919
O O1 0.051177 0.807373 0.495669
O O2 0.243488 0.846408 0.247607
O O3 0.216679 0.751567 0.249746
O O4 0.052594 0.806957 0.997070
O O5 0.024089 0.115921 0.749380
O O6 0.763108 0.115129 0.748938
O O7 0.886833 0.180134 0.496400
O O8 0.886235 0.180458 0.999671
O O9 0.630332 0.048684 0.502201
O O10 0.416243 0.025071 0.248924
O O11 0.653036 0.972537 0.249487
O O12 0.631057 0.048846 0.998413
O O13 0.769992 0.575905 0.501486
O O14 0.770831 0.575983 0.003363
O O15 0.161706 0.332056 0.751099
O O16 0.925720 0.384686 0.751645
#
# Coordination Sequence:
#
# PCOD9313667 Si02
#       8
#     4   4   4   4   4   4   4   4
#     4  10  23  38  57  80 112 149 195 241 284 339
#     4  12  24  41  58  89 119 157 193 239 303 354
#     4  10  20  37  65  91 120 152 195 245 298 341
#     4  10  23  39  57  81 121 157 191 241 291 346
#     4  10  21  37  61  94 124 150 189 254 294 346
#     4  10  21  39  56  84 109 143 198 243 278 340
#     4  12  25  37  63  83 112 159 191 247 292 346
#     4  10  19  38  61  82 113 159 196 234 284 350
#
# _framework density 21.634073000000001
#
# number of rings (size 3 to 8) (size 9 to 14) (size 15 to 20)
#    0.000    1.500    0.000    5.250    3.500    2.000 
#    0.000    1.250    0.000    0.000    0.000    0.000 
#    0.000    0.000    0.000    0.000    0.000    0.000 
#
# Total GULP energy -179071.254140 kJ/mol
# GULP energy per Si atom -5595.976692 kJ/mol
# Density = 2.158483 g / cm^3
# Si number density = 21.634073 Si / 1000 Ang^3
#
#
#
# Elastic Constant Matrix: (Units=GPa)
#
#
# Indices 1 2 3 4 5 6 
#
# 1 78.9821 0.0451 37.9546 0.0000 0.0000 0.0000
# 2 0.0451 46.1768 33.9457 0.0000 0.0000 0.0000
# 3 37.9546 33.9457 196.4091 0.0000 0.0000 0.0000
# 4 0.0000 0.0000 0.0000 6.1461 0.0000 0.0000
# 5 0.0000 0.0000 0.0000 0.0000 17.9737 0.0000
# 6 0.0000 0.0000 0.0000 0.0000 0.0000 26.5236
#
#
#
# Elastic Compliance Matrix: (Units=1/GPa)
#
#
# Indices 1 2 3 4 5 6 
#
# 1 0.014165 0.002289 -0.003133 0.000000 0.000000 0.000000
# 2 0.002289 0.025178 -0.004794 0.000000 0.000000 0.000000
# 3 -0.003133 -0.004794 0.006525 0.000000 0.000000 0.000000
# 4 0.000000 0.000000 0.000000 0.162704 0.000000 0.000000
# 5 0.000000 0.000000 0.000000 0.000000 0.055637 0.000000
# 6 0.000000 0.000000 0.000000 0.000000 0.000000 0.037702
#
#
# Mechanical properties :
#
#
# Convention : Reuss Voigt Hill
#
# Bulk Modulus (GPa) = 28.90731 51.71765 40.31248
# Shear Modulus (GPa) = 15.39799 26.77019 21.08409
#
# Velocity S-wave (km/s) = 2.67075 3.52150 3.12521
# Velocity P-wave (km/s) = 4.78555 6.36334 5.62999
#
# Compressibility (1/GPa) = 0.03459333
#
# Stress axis : x y z
#
# Youngs Moduli (GPa) = 70.59479 39.71751 153.24751
#
# Poissons Ratio (x) = -0.09093 0.48013
# Poissons Ratio (y) = -0.16162 0.73466
# Poissons Ratio (z) = 0.22117 0.19040
#
# Static dielectric constant tensor:
#      x y z
#    x 1.757620 0.000000 0.000000 
#    y 0.000000 1.782810 0.000000 
#    z 0.000000 0.000000 1.636050 
# 
# From -- ./inp_files/710.got.cif
#   From: 2010.05.17/outbox.cif.g08.bks.cpg/sg19_1_cif.got.tgz:710.got - 2010.06.03 22:46:19.
