data_PCOD9313017
_publ_section_title
;
Structure prediction by ZEFSAII (Michael W. Deem and Ramdas Pophale) SiO2 
 PCOD9313017
Probable space group: P 21 21 2
;
_chemical_formula_sum "Si O2"
_cell_formula_units_Z 14
_cell_length_a 4.999848
_cell_length_b 21.102161
_cell_length_c 4.856661
_cell_angle_alpha 90.000000
_cell_angle_beta 90.000000
_cell_angle_gamma 90.000000
_cell_volume 512.414634
_symmetry_space_group_name_H-M "P 21 21 2"
_symmetry_group_IT_number 18
_symmetry_cell_setting 'orthorhombic'
loop_
_space_group_symop_operation_xyz
x,y,z
-x,-y,z
1/2+x,1/2-y,-z
1/2-x,1/2+y,-z
loop_
_atom_site_type_symbol
_atom_site_label
_atom_site_fract_x
_atom_site_fract_y
_atom_site_fract_z
Si Si1 0.185303 0.848744 0.493292
Si Si2 0.306114 0.072889 0.618259
Si Si3 0.500000 0.000000 0.148212
Si Si4 0.634413 0.265237 0.848949
O O1 0.468942 0.882139 0.478821
O O2 0.234697 0.779069 0.617462
O O3 0.975584 0.892500 0.653308
O O4 0.019205 0.829504 0.223611
O O5 0.280605 0.016999 0.387778
O O6 0.426724 0.052601 0.913784
O O7 0.393458 0.222392 0.966993
#
# Coordination Sequence:
#
# PCOD9313017 Si02
#       4
#     4   4   2   4
#     4  12  27  47  73 114 147 203 245 310 386 458
#     4  11  27  48  81 104 155 196 257 319 388 438
#     4  10  28  52  72 116 140 200 268 324 368 458
#     4  12  26  46  74 112 160 196 250 310 370 486
#
# _framework density 27.321622000000001
#
# number of rings (size 3 to 8) (size 9 to 14) (size 15 to 20)
#    0.000    0.571    0.000    6.857   12.000    6.857 
#    0.000    0.000    0.000    0.000    0.000    0.000 
#    0.000    0.000    0.000    0.000    0.000    0.000 
#
# Total GULP energy -78085.797949 kJ/mol
# GULP energy per Si atom -5577.556996 kJ/mol
# Density = 2.725944 g / cm^3
# Si number density = 27.321622 Si / 1000 Ang^3
#
#
#
# Elastic Constant Matrix: (Units=GPa)
#
#
# Indices 1 2 3 4 5 6 
#
# 1 198.1581 28.0809 33.5942 0.0000 0.0000 0.0000
# 2 28.0809 47.9567 24.3934 0.0000 0.0000 0.0000
# 3 33.5942 24.3934 158.2244 0.0000 0.0000 0.0000
# 4 0.0000 0.0000 0.0000 40.8240 0.0000 0.0000
# 5 0.0000 0.0000 0.0000 0.0000 24.6306 0.0000
# 6 0.0000 0.0000 0.0000 0.0000 0.0000 37.9645
#
#
#
# Elastic Compliance Matrix: (Units=1/GPa)
#
#
# Indices 1 2 3 4 5 6 
#
# 1 0.005582 -0.002892 -0.000739 0.000000 0.000000 0.000000
# 2 -0.002892 0.024125 -0.003105 0.000000 0.000000 0.000000
# 3 -0.000739 -0.003105 0.006956 0.000000 0.000000 0.000000
# 4 0.000000 0.000000 0.000000 0.024495 0.000000 0.000000
# 5 0.000000 0.000000 0.000000 0.000000 0.040600 0.000000
# 6 0.000000 0.000000 0.000000 0.000000 0.000000 0.026340
#
#
# Mechanical properties :
#
#
# Convention : Reuss Voigt Hill
#
# Bulk Modulus (GPa) = 43.12365 64.05290 53.58827
# Shear Modulus (GPa) = 33.48922 41.90186 37.69554
#
# Velocity S-wave (km/s) = 3.50486 3.92044 3.71846
# Velocity P-wave (km/s) = 5.67421 6.63235 6.17190
#
# Compressibility (1/GPa) = 0.02318913
#
# Stress axis : x y z
#
# Youngs Moduli (GPa) = 179.15815 41.45036 143.76442
#
# Poissons Ratio (x) = 0.11989 0.10627
# Poissons Ratio (y) = 0.51818 0.44643
# Poissons Ratio (z) = 0.13243 0.12872
#
# Static dielectric constant tensor:
#      x y z
#    x 2.041240 0.000000 0.000000 
#    y 0.000000 2.341790 0.000000 
#    z 0.000000 0.000000 2.196160 
# 
# From -- ./inp_files/140.got.cif
#   From: 2010.05.17/outbox.cif.g08.bks.cpg/sg18_1_cif.got.tgz:140.got - 2010.06.03 22:40:56.
