data_PCOD9313471
_publ_section_title
;
Structure prediction by ZEFSAII (Michael W. Deem and Ramdas Pophale) SiO2 
 PCOD9313471
Probable space group: P 21 21 21
;
_chemical_formula_sum "Si O2"
_cell_formula_units_Z 16
_cell_length_a 4.762927
_cell_length_b 10.700520
_cell_length_c 12.472323
_cell_angle_alpha 90.000000
_cell_angle_beta 90.000000
_cell_angle_gamma 90.000000
_cell_volume 635.661865
_symmetry_space_group_name_H-M "P 21 21 21"
_symmetry_group_IT_number 19
_symmetry_cell_setting 'orthorhombic'
loop_
_space_group_symop_operation_xyz
x,y,z
1/2-x,-y,1/2+z
1/2+x,1/2-y,-z
-x,1/2+y,1/2-z
loop_
_atom_site_type_symbol
_atom_site_label
_atom_site_fract_x
_atom_site_fract_y
_atom_site_fract_z
Si Si1 0.773549 0.804406 0.058748
Si Si2 0.465495 0.971654 0.672972
Si Si3 0.225703 0.760197 0.429658
Si Si4 0.440218 0.404842 0.240456
O O1 0.923881 0.938835 0.075659
O O2 0.630945 0.791214 0.176691
O O3 0.022640 0.711173 0.025730
O O4 0.145879 0.002276 0.695323
O O5 0.647697 0.024645 0.772463
O O6 0.558133 0.833313 0.647328
O O7 0.477016 0.691605 0.494169
O O8 0.398780 0.860228 0.362714
#
# Coordination Sequence:
#
# PCOD9313471 Si02
#       4
#     4   4   4   4
#     4  10  18  38  63  95 129 165 220 276 327 390
#     4  10  22  43  62  95 133 168 229 264 328 402
#     4  12  26  46  67 100 142 177 222 278 338 404
#     4  10  22  43  64  94 134 174 223 270 321 406
#
# _framework density 25.170615000000002
#
# number of rings (size 3 to 8) (size 9 to 14) (size 15 to 20)
#    1.500    0.000    2.500    3.000    0.000    0.000 
#   13.500    0.000    0.000    0.000    0.000    0.000 
#    0.000    0.000    0.000    0.000    0.000    0.000 
#
# Total GULP energy -89343.766649 kJ/mol
# GULP energy per Si atom -5583.985416 kJ/mol
# Density = 2.511333 g / cm^3
# Si number density = 25.170615 Si / 1000 Ang^3
#
#
#
# Elastic Constant Matrix: (Units=GPa)
#
#
# Indices 1 2 3 4 5 6 
#
# 1 118.1186 -6.0751 25.8305 0.0000 0.0000 0.0000
# 2 -6.0751 32.4283 19.3350 0.0000 0.0000 0.0000
# 3 25.8305 19.3350 61.4172 0.0000 0.0000 0.0000
# 4 0.0000 0.0000 0.0000 31.7776 0.0000 0.0000
# 5 0.0000 0.0000 0.0000 0.0000 -679.5442 0.0000
# 6 0.0000 0.0000 0.0000 0.0000 0.0000 26.2864
#
#
#
# Elastic Compliance Matrix: (Units=1/GPa)
#
#
# Indices 1 2 3 4 5 6 
#
# 1 0.010041 0.005415 -0.005928 0.000000 0.000000 0.000000
# 2 0.005415 0.040884 -0.015148 0.000000 0.000000 0.000000
# 3 -0.005928 -0.015148 0.023544 0.000000 0.000000 0.000000
# 4 0.000000 0.000000 0.000000 0.031469 0.000000 0.000000
# 5 0.000000 0.000000 0.000000 0.000000 -0.001472 0.000000
# 6 0.000000 0.000000 0.000000 0.000000 0.000000 0.038043
#
#
# Mechanical properties :
#
#
# Convention : Reuss Voigt Hill
#
# Bulk Modulus (GPa) = 23.17639 32.23831 27.70735
# Shear Modulus (GPa) = 26.56568 -112.77114 -43.10273
#
# Velocity S-wave (km/s) = 3.25225 -6.70074 -4.14263
# Velocity P-wave (km/s) = 4.83017 6.85791 3.44241
#
# Compressibility (1/GPa) = 0.04314736
#
# Stress axis : x y z
#
# Youngs Moduli (GPa) = 99.59266 24.45947 42.47342
#
# Poissons Ratio (x) = -0.13246 0.25177
# Poissons Ratio (y) = -0.53934 0.64341
# Poissons Ratio (z) = 0.59037 0.37052
#
# Static dielectric constant tensor:
#      x y z
#    x 1.920030 0.000000 0.000000 
#    y 0.000000 2.042760 0.000000 
#    z 0.000000 0.000000 2.052420 
# 
# From -- ./inp_files/754.got.cif
#   From: 2010.05.17/outbox.cif.g08.bks.cpg/sg19_1_cif.got.tgz:754.got - 2010.06.03 22:46:19.
