data_PCOD9313966
_publ_section_title
;
Structure prediction by ZEFSAII (Michael W. Deem and Ramdas Pophale) SiO2 
 PCOD9313966
Probable space group: P 21 21 21
;
_chemical_formula_sum "Si O2"
_cell_formula_units_Z 32
_cell_length_a 8.844382
_cell_length_b 10.467223
_cell_length_c 15.441805
_cell_angle_alpha 90.000000
_cell_angle_beta 90.000000
_cell_angle_gamma 90.000000
_cell_volume 1429.542372
_symmetry_space_group_name_H-M "P 21 21 21"
_symmetry_group_IT_number 19
_symmetry_cell_setting 'orthorhombic'
loop_
_space_group_symop_operation_xyz
x,y,z
1/2-x,-y,1/2+z
1/2+x,1/2-y,-z
-x,1/2+y,1/2-z
loop_
_atom_site_type_symbol
_atom_site_label
_atom_site_fract_x
_atom_site_fract_y
_atom_site_fract_z
Si Si1 0.783212 0.418954 0.124731
Si Si2 0.398024 0.485837 0.023055
Si Si3 0.480696 0.747159 0.371558
Si Si4 0.893827 0.616533 0.375939
Si Si5 0.424356 0.245735 0.447343
Si Si6 0.711996 0.663081 0.225679
Si Si7 0.288491 0.910359 0.047097
Si Si8 0.586264 0.122690 0.958170
O O1 0.695934 0.285868 0.138285
O O2 0.718048 0.517874 0.193247
O O3 0.963367 0.401957 0.116511
O O4 0.757092 0.495733 0.034631
O O5 0.453069 0.379831 0.091820
O O6 0.466828 0.620561 0.050456
O O7 0.218269 0.477722 0.029030
O O8 0.460439 0.438850 0.928187
O O9 0.574208 0.699734 0.289479
O O10 0.492943 0.647212 0.449787
O O11 0.869496 0.673762 0.279537
O O12 0.779120 0.496501 0.377341
O O13 0.845345 0.737869 0.434514
O O14 0.318620 0.244520 0.361686
O O15 0.315626 0.213569 0.527997
O O16 0.540359 0.362717 0.449514
#
# Coordination Sequence:
#
# PCOD9313966 Si02
#       8
#     4   4   4   4   4   4   4   4
#     4  11  23  41  64 101 137 177 238 295 353 423
#     4  10  20  40  64  96 127 177 244 281 331 442
#     4  11  19  40  67  95 131 178 229 291 343 422
#     4  10  20  38  68  98 132 172 236 292 346 420
#     4  10  23  40  62  92 134 182 231 285 360 427
#     4  11  23  40  62 101 140 174 225 302 372 405
#     4  10  21  41  63  93 129 183 237 281 349 439
#     4  11  21  40  72 100 124 181 242 291 340 422
#
# _framework density 22.384785000000001
#
# number of rings (size 3 to 8) (size 9 to 14) (size 15 to 20)
#    0.000    1.500    6.250    2.250    3.500    0.000 
#    0.000    7.500    0.000    0.000    0.000    0.000 
#    0.000    0.000    0.000    0.000    0.000    0.000 
#
# Total GULP energy -178276.172574 kJ/mol
# GULP energy per Si atom -5571.130393 kJ/mol
# Density = 2.233384 g / cm^3
# Si number density = 22.384785 Si / 1000 Ang^3
#
#
#
# Elastic Constant Matrix: (Units=GPa)
#
#
# Indices 1 2 3 4 5 6 
#
# 1 122.0178 35.0288 12.0167 0.0000 0.0000 0.0000
# 2 35.0288 84.2062 9.2357 0.0000 0.0000 0.0000
# 3 12.0167 9.2357 53.1007 0.0000 0.0000 0.0000
# 4 0.0000 0.0000 0.0000 25.6859 0.0000 0.0000
# 5 0.0000 0.0000 0.0000 0.0000 34.7511 0.0000
# 6 0.0000 0.0000 0.0000 0.0000 0.0000 46.2311
#
#
#
# Elastic Compliance Matrix: (Units=1/GPa)
#
#
# Indices 1 2 3 4 5 6 
#
# 1 0.009419 -0.003756 -0.001478 0.000000 0.000000 0.000000
# 2 -0.003756 0.013604 -0.001516 0.000000 0.000000 0.000000
# 3 -0.001478 -0.001516 0.019430 0.000000 0.000000 0.000000
# 4 0.000000 0.000000 0.000000 0.038932 0.000000 0.000000
# 5 0.000000 0.000000 0.000000 0.000000 0.028776 0.000000
# 6 0.000000 0.000000 0.000000 0.000000 0.000000 0.021630
#
#
# Mechanical properties :
#
#
# Convention : Reuss Voigt Hill
#
# Bulk Modulus (GPa) = 34.53887 41.32079 37.92983
# Shear Modulus (GPa) = 32.26952 34.86987 33.56969
#
# Velocity S-wave (km/s) = 3.80094 3.95111 3.87675
# Velocity P-wave (km/s) = 5.89287 6.27012 6.08442
#
# Compressibility (1/GPa) = 0.02895289
#
# Stress axis : x y z
#
# Youngs Moduli (GPa) = 106.16334 73.50538 51.46574
#
# Poissons Ratio (x) = 0.27610 0.07608
# Poissons Ratio (y) = 0.39877 0.07803
# Poissons Ratio (z) = 0.15694 0.11145
#
# Static dielectric constant tensor:
#      x y z
#    x 1.986450 0.000000 0.000000 
#    y 0.000000 1.851060 0.000000 
#    z 0.000000 0.000000 1.880510 
# 
# From -- ./inp_files/5935.got.cif
#   From: 2010.05.17/outbox.cif.g08.bks.cpg/sg19_3_cif.got.tgz:5935.got - 2010.06.03 22:46:19.
