data_PCOD9313020
_publ_section_title
;
Structure prediction by ZEFSAII (Michael W. Deem and Ramdas Pophale) SiO2 
 PCOD9313020
Probable space group: P 21 21 2
;
_chemical_formula_sum "Si O2"
_cell_formula_units_Z 26
_cell_length_a 19.392111
_cell_length_b 7.304597
_cell_length_c 7.705168
_cell_angle_alpha 90.000000
_cell_angle_beta 90.000000
_cell_angle_gamma 90.000000
_cell_volume 1091.449035
_symmetry_space_group_name_H-M "P 21 21 2"
_symmetry_group_IT_number 18
_symmetry_cell_setting 'orthorhombic'
loop_
_space_group_symop_operation_xyz
x,y,z
-x,-y,z
1/2+x,1/2-y,-z
1/2-x,1/2+y,-z
loop_
_atom_site_type_symbol
_atom_site_label
_atom_site_fract_x
_atom_site_fract_y
_atom_site_fract_z
Si Si1 0.074764 0.919793 0.445305
Si Si2 0.791675 0.667683 0.661045
Si Si3 0.350099 0.481394 0.217284
Si Si4 0.734655 0.290454 0.739204
Si Si5 0.000000 0.000000 0.960717
Si Si6 0.083043 0.227090 0.192055
Si Si7 0.927930 0.501401 0.511207
O O1 0.130071 0.991141 0.579850
O O2 0.082989 0.703891 0.445801
O O3 0.085717 0.018708 0.264687
O O4 0.000000 0.000000 0.502115
O O5 0.744049 0.508413 0.737223
O O6 0.767983 0.729300 0.466285
O O7 0.865423 0.572057 0.624667
O O8 0.804429 0.834719 0.792737
O O9 0.300867 0.311009 0.182129
O O10 0.425859 0.466838 0.132792
O O11 0.663661 0.229996 0.832891
O O12 0.977334 0.806429 0.054297
O O13 0.062719 0.362017 0.348235
O O14 0.000000 0.500000 0.612384
#
# Coordination Sequence:
#
# PCOD9313020 Si02
#       7
#     4   4   4   4   2   4   4
#     4  12  19  38  71  98 130 178 240 303 348 399
#     4  11  21  37  68 109 134 169 228 306 369 409
#     4  12  24  42  70 106 141 180 232 314 357 419
#     4  11  22  39  70 102 140 173 237 302 365 412
#     4  12  28  50  68  96 158 200 234 276 362 438
#     4  11  24  45  67  95 138 194 239 279 346 440
#     4  11  20  34  68 102 130 170 240 289 346 412
#
# _framework density 23.821543999999999
#
# number of rings (size 3 to 8) (size 9 to 14) (size 15 to 20)
#    0.000    0.615    9.231    0.000    0.000    0.000 
#    2.769    4.615    0.000    0.000    0.000    0.000 
#    0.000    0.000    0.000    0.000    0.000    0.000 
#
# Total GULP energy -145065.704192 kJ/mol
# GULP energy per Si atom -5579.450161 kJ/mol
# Density = 2.376733 g / cm^3
# Si number density = 23.821544 Si / 1000 Ang^3
#
#
#
# Elastic Constant Matrix: (Units=GPa)
#
#
# Indices 1 2 3 4 5 6 
#
# 1 120.7273 8.1524 -3.1931 0.0000 0.0000 0.0000
# 2 8.1524 117.4236 -2.7917 0.0000 0.0000 0.0000
# 3 -3.1931 -2.7917 23.8393 0.0000 0.0000 0.0000
# 4 0.0000 0.0000 0.0000 7.6658 0.0000 0.0000
# 5 0.0000 0.0000 0.0000 0.0000 13.6600 0.0000
# 6 0.0000 0.0000 0.0000 0.0000 0.0000 39.7541
#
#
#
# Elastic Compliance Matrix: (Units=1/GPa)
#
#
# Indices 1 2 3 4 5 6 
#
# 1 0.008348 -0.000555 0.001053 0.000000 0.000000 0.000000
# 2 -0.000555 0.008577 0.000930 0.000000 0.000000 0.000000
# 3 0.001053 0.000930 0.042198 0.000000 0.000000 0.000000
# 4 0.000000 0.000000 0.000000 0.130449 0.000000 0.000000
# 5 0.000000 0.000000 0.000000 0.000000 0.073207 0.000000
# 6 0.000000 0.000000 0.000000 0.000000 0.000000 0.025155
#
#
# Mechanical properties :
#
#
# Convention : Reuss Voigt Hill
#
# Bulk Modulus (GPa) = 16.13411 29.59169 22.86290
# Shear Modulus (GPa) = 16.35399 29.53748 22.94574
#
# Velocity S-wave (km/s) = 2.62300 3.52511 3.10697
# Velocity P-wave (km/s) = 3.99513 5.38681 4.74230
#
# Compressibility (1/GPa) = 0.06198048
#
# Stress axis : x y z
#
# Youngs Moduli (GPa) = 119.78288 116.59372 23.69802
#
# Poissons Ratio (x) = 0.06466 -0.02496
# Poissons Ratio (y) = 0.06643 -0.02204
# Poissons Ratio (z) = -0.12616 -0.10845
#
# Static dielectric constant tensor:
#      x y z
#    x 1.982020 0.000000 0.000000 
#    y 0.000000 1.930560 0.000000 
#    z 0.000000 0.000000 2.011830 
# 
# From -- ./inp_files/4503.got.cif
#   From: 2010.05.17/outbox.cif.g08.bks.cpg/sg18_3_cif.got.tgz:4503.got - 2010.06.03 22:40:56.
