data_PCOD9313824
_publ_section_title
;
Structure prediction by ZEFSAII (Michael W. Deem and Ramdas Pophale) SiO2 
 PCOD9313824
Probable space group: P 21 21 21
;
_chemical_formula_sum "Si O2"
_cell_formula_units_Z 20
_cell_length_a 5.049499
_cell_length_b 19.099511
_cell_length_c 8.191413
_cell_angle_alpha 90.000000
_cell_angle_beta 90.000000
_cell_angle_gamma 90.000000
_cell_volume 790.004130
_symmetry_space_group_name_H-M "P 21 21 21"
_symmetry_group_IT_number 19
_symmetry_cell_setting 'orthorhombic'
loop_
_space_group_symop_operation_xyz
x,y,z
1/2-x,-y,1/2+z
1/2+x,1/2-y,-z
-x,1/2+y,1/2-z
loop_
_atom_site_type_symbol
_atom_site_label
_atom_site_fract_x
_atom_site_fract_y
_atom_site_fract_z
Si Si1 0.052987 0.506585 0.356134
Si Si2 0.246118 0.240801 0.218032
Si Si3 0.767119 0.692952 0.841399
Si Si4 0.531216 0.436449 0.494711
Si Si5 0.493090 0.356537 0.020851
O O1 0.267263 0.445705 0.385457
O O2 0.135997 0.570895 0.473456
O O3 0.766470 0.482517 0.418233
O O4 0.036015 0.535874 0.174051
O O5 0.524213 0.244584 0.310011
O O6 0.022745 0.276475 0.328413
O O7 0.159298 0.169767 0.134265
O O8 0.285995 0.295419 0.065878
O O9 0.858545 0.642881 0.987035
O O10 0.820686 0.643625 0.680731
#
# Coordination Sequence:
#
# PCOD9313824 Si02
#       5
#     4   4   4   4   4
#     4  12  27  42  69  93 136 171 224 276 330 396
#     4  10  20  35  66  94 124 172 212 264 314 401
#     4  10  20  37  63  87 130 164 216 259 323 379
#     4  12  26  46  62 101 127 181 217 277 336 391
#     4  10  21  38  64  97 127 168 223 254 327 387
#
# _framework density 25.316324999999999
#
# number of rings (size 3 to 8) (size 9 to 14) (size 15 to 20)
#    1.200    0.000    2.000    4.800    5.600    0.000 
#    0.000    2.000    0.000    0.000    0.000    0.000 
#    0.000    0.000    0.000    0.000    0.000    0.000 
#
# Total GULP energy -111991.270817 kJ/mol
# GULP energy per Si atom -5599.563541 kJ/mol
# Density = 2.525870 g / cm^3
# Si number density = 25.316325 Si / 1000 Ang^3
#
#
#
# Elastic Constant Matrix: (Units=GPa)
#
#
# Indices 1 2 3 4 5 6 
#
# 1 91.3664 -15.5413 15.0012 0.0000 0.0000 0.0000
# 2 -15.5413 59.0453 9.2909 0.0000 0.0000 0.0000
# 3 15.0012 9.2909 137.1639 0.0000 0.0000 0.0000
# 4 0.0000 0.0000 0.0000 41.0517 0.0000 0.0000
# 5 0.0000 0.0000 0.0000 0.0000 19.9090 0.0000
# 6 0.0000 0.0000 0.0000 0.0000 0.0000 35.5595
#
#
#
# Elastic Compliance Matrix: (Units=1/GPa)
#
#
# Indices 1 2 3 4 5 6 
#
# 1 0.011760 0.003333 -0.001512 0.000000 0.000000 0.000000
# 2 0.003333 0.018063 -0.001588 0.000000 0.000000 0.000000
# 3 -0.001512 -0.001588 0.007563 0.000000 0.000000 0.000000
# 4 0.000000 0.000000 0.000000 0.024360 0.000000 0.000000
# 5 0.000000 0.000000 0.000000 0.000000 0.050228 0.000000
# 6 0.000000 0.000000 0.000000 0.000000 0.000000 0.028122
#
#
# Mechanical properties :
#
#
# Convention : Reuss Voigt Hill
#
# Bulk Modulus (GPa) = 26.41758 33.89747 30.15752
# Shear Modulus (GPa) = 32.84110 37.89238 35.36674
#
# Velocity S-wave (km/s) = 3.60562 3.87299 3.74169
# Velocity P-wave (km/s) = 5.27177 5.78089 5.53219
#
# Compressibility (1/GPa) = 0.03785358
#
# Stress axis : x y z
#
# Youngs Moduli (GPa) = 85.03269 55.36054 132.21433
#
# Poissons Ratio (x) = -0.18453 0.19990
# Poissons Ratio (y) = -0.28344 0.20997
# Poissons Ratio (z) = 0.12857 0.08792
#
# Static dielectric constant tensor:
#      x y z
#    x 1.919040 0.000000 0.000000 
#    y 0.000000 1.960280 0.000000 
#    z 0.000000 0.000000 2.085890 
# 
# From -- ./inp_files/2397.got.cif
#   From: 2010.05.17/outbox.cif.g08.bks.cpg/sg19_2_cif.got.tgz:2397.got - 2010.06.03 22:46:19.
