data_PCOD9313008
_publ_section_title
;
Structure prediction by ZEFSAII (Michael W. Deem and Ramdas Pophale) SiO2 
 PCOD9313008
Probable space group: P 21 21 2
;
_chemical_formula_sum "Si O2"
_cell_formula_units_Z 18
_cell_length_a 8.267818
_cell_length_b 18.344497
_cell_length_c 5.101381
_cell_angle_alpha 90.000000
_cell_angle_beta 90.000000
_cell_angle_gamma 90.000000
_cell_volume 773.721164
_symmetry_space_group_name_H-M "P 21 21 2"
_symmetry_group_IT_number 18
_symmetry_cell_setting 'orthorhombic'
loop_
_space_group_symop_operation_xyz
x,y,z
-x,-y,z
1/2+x,1/2-y,-z
1/2-x,1/2+y,-z
loop_
_atom_site_type_symbol
_atom_site_label
_atom_site_fract_x
_atom_site_fract_y
_atom_site_fract_z
Si Si1 0.694310 0.130594 0.155028
Si Si2 0.000000 0.500000 0.022286
Si Si3 0.056155 0.125785 0.199623
Si Si4 0.739657 0.901766 0.687736
Si Si5 0.065584 0.295190 0.346187
O O1 0.642475 0.188483 0.373135
O O2 0.871938 0.099643 0.202257
O O3 0.563134 0.066359 0.150979
O O4 0.680860 0.168746 0.872737
O O5 0.143735 0.528021 0.207689
O O6 0.170849 0.088157 0.413200
O O7 0.048730 0.210671 0.283292
O O8 0.132394 0.118413 0.913021
O O9 0.605319 0.837673 0.667758
#
# Coordination Sequence:
#
# PCOD9313008 Si02
#       5
#     4   2   4   4   4
#     4  11  25  42  69  94 135 174 212 270 318 391
#     4  10  26  50  62  92 132 184 222 250 332 386
#     4  12  23  41  68 104 125 163 221 274 324 374
#     4  11  25  42  69  94 135 174 212 269 317 392
#     4  11  22  42  67  99 133 169 206 264 339 390
#
# _framework density 23.264192999999999
#
# number of rings (size 3 to 8) (size 9 to 14) (size 15 to 20)
#    0.000    0.889    0.000    8.000    0.000    8.889 
#    0.000    4.444    0.000    0.000    0.000    0.000 
#    0.000    0.000    0.000    0.000    0.000    0.000 
#
# Total GULP energy -100960.442235 kJ/mol
# GULP energy per Si atom -5608.913457 kJ/mol
# Density = 2.321124 g / cm^3
# Si number density = 23.264193 Si / 1000 Ang^3
#
#
#
# Elastic Constant Matrix: (Units=GPa)
#
#
# Indices 1 2 3 4 5 6 
#
# 1 93.3062 -10.4899 39.5197 0.0000 0.0000 0.0000
# 2 -10.4899 51.5666 2.1945 0.0000 0.0000 0.0000
# 3 39.5197 2.1945 58.9671 0.0000 0.0000 0.0000
# 4 0.0000 0.0000 0.0000 23.0407 0.0000 0.0000
# 5 0.0000 0.0000 0.0000 0.0000 33.9426 0.0000
# 6 0.0000 0.0000 0.0000 0.0000 0.0000 11.7806
#
#
#
# Elastic Compliance Matrix: (Units=1/GPa)
#
#
# Indices 1 2 3 4 5 6 
#
# 1 0.015615 0.003628 -0.010600 0.000000 0.000000 0.000000
# 2 0.003628 0.020266 -0.003185 0.000000 0.000000 0.000000
# 3 -0.010600 -0.003185 0.024181 0.000000 0.000000 0.000000
# 4 0.000000 0.000000 0.000000 0.043401 0.000000 0.000000
# 5 0.000000 0.000000 0.000000 0.000000 0.029462 0.000000
# 6 0.000000 0.000000 0.000000 0.000000 0.000000 0.084885
#
#
# Mechanical properties :
#
#
# Convention : Reuss Voigt Hill
#
# Bulk Modulus (GPa) = 25.15963 29.58762 27.37363
# Shear Modulus (GPa) = 19.89060 25.26048 22.57554
#
# Velocity S-wave (km/s) = 2.92719 3.29874 3.11850
# Velocity P-wave (km/s) = 4.71835 5.22059 4.97581
#
# Compressibility (1/GPa) = 0.03974622
#
# Stress axis : x y z
#
# Youngs Moduli (GPa) = 64.04153 49.34401 41.35421
#
# Poissons Ratio (x) = -0.17900 0.43836
# Poissons Ratio (y) = -0.23231 0.13173
# Poissons Ratio (z) = 0.67885 0.15718
#
# Static dielectric constant tensor:
#      x y z
#    x 1.858560 0.000000 0.000000 
#    y 0.000000 1.873260 0.000000 
#    z 0.000000 0.000000 1.832400 
# 
# From -- ./inp_files/524.got.cif
#   From: 2010.05.17/outbox.cif.g08.bks.cpg/sg18_1_cif.got.tgz:524.got - 2010.06.03 22:40:56.
