data_PCOD9313142
_publ_section_title
;
Structure prediction by ZEFSAII (Michael W. Deem and Ramdas Pophale) SiO2 
 PCOD9313142
Probable space group: P 21 21 2
;
_chemical_formula_sum "Si O2"
_cell_formula_units_Z 12
_cell_length_a 5.369997
_cell_length_b 8.832864
_cell_length_c 9.908802
_cell_angle_alpha 90.000000
_cell_angle_beta 90.000000
_cell_angle_gamma 90.000000
_cell_volume 469.998787
_symmetry_space_group_name_H-M "P 21 21 2"
_symmetry_group_IT_number 18
_symmetry_cell_setting 'orthorhombic'
loop_
_space_group_symop_operation_xyz
x,y,z
-x,-y,z
1/2+x,1/2-y,-z
1/2-x,1/2+y,-z
loop_
_atom_site_type_symbol
_atom_site_label
_atom_site_fract_x
_atom_site_fract_y
_atom_site_fract_z
Si Si1 0.742171 0.421305 0.090370
Si Si2 0.270395 0.915867 0.189011
Si Si3 0.482245 0.334090 0.539343
O O1 0.500000 0.500000 0.152559
O O2 0.701098 0.243256 0.110403
O O3 0.000000 0.500000 0.138905
O O4 0.734115 0.461264 0.930454
O O5 0.078563 0.861378 0.302989
O O6 0.500000 0.000000 0.265032
O O7 0.500000 0.500000 0.475812
O O8 0.742576 0.251387 0.518345
#
# Coordination Sequence:
#
# PCOD9313142 Si02
#       3
#     4   4   4
#     4  11  24  43  71 111 152 196 240 301 375 445
#     4  11  25  48  77 112 153 194 246 310 377 450
#     4  12  28  51  77 109 150 202 255 311 369 441
#
# _framework density 25.531981999999999
#
# number of rings (size 3 to 8) (size 9 to 14) (size 15 to 20)
#    0.000    0.667    0.000    8.000    0.000   12.000 
#    0.000    0.000    0.000    0.000    0.000    0.000 
#    0.000    0.000    0.000    0.000    0.000    0.000 
#
# Total GULP energy -67064.831108 kJ/mol
# GULP energy per Si atom -5588.735926 kJ/mol
# Density = 2.547387 g / cm^3
# Si number density = 25.531982 Si / 1000 Ang^3
#
#
#
# Elastic Constant Matrix: (Units=GPa)
#
#
# Indices 1 2 3 4 5 6 
#
# 1 202.8023 96.2519 15.5874 0.0000 0.0000 0.0000
# 2 96.2519 221.7109 70.2118 0.0000 0.0000 0.0000
# 3 15.5874 70.2118 97.2918 0.0000 0.0000 0.0000
# 4 0.0000 0.0000 0.0000 -8.3677 0.0000 0.0000
# 5 0.0000 0.0000 0.0000 0.0000 15.1703 0.0000
# 6 0.0000 0.0000 0.0000 0.0000 0.0000 70.6282
#
#
#
# Elastic Compliance Matrix: (Units=1/GPa)
#
#
# Indices 1 2 3 4 5 6 
#
# 1 0.006327 -0.003144 0.001255 0.000000 0.000000 0.000000
# 2 -0.003144 0.007409 -0.004843 0.000000 0.000000 0.000000
# 3 0.001255 -0.004843 0.013572 0.000000 0.000000 0.000000
# 4 0.000000 0.000000 0.000000 -0.119507 0.000000 0.000000
# 5 0.000000 0.000000 0.000000 0.000000 0.065918 0.000000
# 6 0.000000 0.000000 0.000000 0.000000 0.000000 0.014159
#
#
# Mechanical properties :
#
#
# Convention : Reuss Voigt Hill
#
# Bulk Modulus (GPa) = 72.23174 98.43414 85.33294
# Shear Modulus (GPa) = 839.42515 38.13641 438.78078
#
# Velocity S-wave (km/s) = 18.15180 3.86900 13.12358
# Velocity P-wave (km/s) = 21.62566 7.65479 16.22136
#
# Compressibility (1/GPa) = 0.01384433
#
# Stress axis : x y z
#
# Youngs Moduli (GPa) = 158.06077 134.96903 73.67930
#
# Poissons Ratio (x) = 0.42437 -0.09250
# Poissons Ratio (y) = 0.49697 0.35684
# Poissons Ratio (z) = -0.19843 0.65367
#
# Static dielectric constant tensor:
#      x y z
#    x 2.746140 0.000000 0.000000 
#    y 0.000000 1.968520 0.000000 
#    z 0.000000 0.000000 2.005450 
# 
# From -- ./inp_files/4906.got.cif
#   From: 2010.05.17/outbox.cif.g08.bks.cpg/sg18_3_cif.got.tgz:4906.got - 2010.06.03 22:40:56.
