data_PCOD9313498
_publ_section_title
;
Structure prediction by ZEFSAII (Michael W. Deem and Ramdas Pophale) SiO2 
 PCOD9313498
Probable space group: P 21 21 21
;
_chemical_formula_sum "Si O2"
_cell_formula_units_Z 32
_cell_length_a 12.747039
_cell_length_b 12.679048
_cell_length_c 7.109794
_cell_angle_alpha 90.000000
_cell_angle_beta 90.000000
_cell_angle_gamma 90.000000
_cell_volume 1149.087177
_symmetry_space_group_name_H-M "P 21 21 21"
_symmetry_group_IT_number 19
_symmetry_cell_setting 'orthorhombic'
loop_
_space_group_symop_operation_xyz
x,y,z
1/2-x,-y,1/2+z
1/2+x,1/2-y,-z
-x,1/2+y,1/2-z
loop_
_atom_site_type_symbol
_atom_site_label
_atom_site_fract_x
_atom_site_fract_y
_atom_site_fract_z
Si Si1 0.865878 0.795672 0.777959
Si Si2 0.154974 0.610843 0.714837
Si Si3 0.349574 0.338828 0.796690
Si Si4 0.400027 0.155922 0.350238
Si Si5 0.872689 0.843345 0.329073
Si Si6 0.081678 0.112589 0.228164
Si Si7 0.573069 0.436718 0.224726
Si Si8 0.388097 0.108510 0.771617
O O1 0.753616 0.844836 0.830903
O O2 0.869736 0.823517 0.554243
O O3 0.874205 0.669133 0.802545
O O4 0.972547 0.838952 0.865248
O O5 0.152432 0.598627 0.489787
O O6 0.134273 0.732836 0.769628
O O7 0.276869 0.588889 0.750476
O O8 0.049302 0.556304 0.786539
O O9 0.461634 0.364868 0.706351
O O10 0.350650 0.215593 0.868767
O O11 0.358471 0.134803 0.557416
O O12 0.377169 0.049965 0.233718
O O13 0.864196 0.724887 0.247093
O O14 0.985724 0.889460 0.286391
O O15 0.137107 0.011798 0.319590
O O16 0.075942 0.084814 0.003181
#
# Coordination Sequence:
#
# PCOD9313498 Si02
#       8
#     4   4   4   4   4   4   4   4
#     4   9  18  34  53  70  93 128 165 196 230 281
#     4   9  18  34  53  70  93 128 165 196 230 281
#     4   9  18  34  53  70  93 128 165 196 230 281
#     4  10  19  31  48  71 100 127 153 196 246 284
#     4   9  18  34  53  70  93 128 165 196 230 281
#     4   8  16  31  48  69  98 127 155 194 242 280
#     4   8  16  31  48  69  98 127 155 194 242 280
#     4  10  19  31  48  71 100 127 153 196 246 284
#
# _framework density 27.848191
#
# number of rings (size 3 to 8) (size 9 to 14) (size 15 to 20)
#    0.000    3.000    0.000    2.250    0.000    3.000 
#    0.000   10.000    0.000    0.000    0.000    0.000 
#    0.000    0.000    0.000    0.000    0.000    0.000 
#
# Total GULP energy -179041.926379 kJ/mol
# GULP energy per Si atom -5595.060199 kJ/mol
# Density = 2.778481 g / cm^3
# Si number density = 27.848191 Si / 1000 Ang^3
#
#
#
# Elastic Constant Matrix: (Units=GPa)
#
#
# Indices 1 2 3 4 5 6 
#
# 1 134.2191 -8.0941 5.4776 0.0000 0.0000 0.0000
# 2 -8.0941 155.3711 10.0748 0.0000 0.0000 0.0000
# 3 5.4776 10.0748 77.6834 0.0000 0.0000 0.0000
# 4 0.0000 0.0000 0.0000 19.7750 0.0000 0.0000
# 5 0.0000 0.0000 0.0000 0.0000 14.9688 0.0000
# 6 0.0000 0.0000 0.0000 0.0000 0.0000 -7.5528
#
#
#
# Elastic Compliance Matrix: (Units=1/GPa)
#
#
# Indices 1 2 3 4 5 6 
#
# 1 0.007500 0.000429 -0.000584 0.000000 0.000000 0.000000
# 2 0.000429 0.006515 -0.000875 0.000000 0.000000 0.000000
# 3 -0.000584 -0.000875 0.013027 0.000000 0.000000 0.000000
# 4 0.000000 0.000000 0.000000 0.050569 0.000000 0.000000
# 5 0.000000 0.000000 0.000000 0.000000 0.066806 0.000000
# 6 0.000000 0.000000 0.000000 0.000000 0.000000 -0.132401
#
#
# Mechanical properties :
#
#
# Convention : Reuss Voigt Hill
#
# Bulk Modulus (GPa) = 40.03051 42.46557 41.24804
# Shear Modulus (GPa) = 223.15851 29.42589 126.29220
#
# Velocity S-wave (km/s) = 8.96147 3.25415 6.74156
# Velocity P-wave (km/s) = 11.02193 5.42230 8.68574
#
# Compressibility (1/GPa) = 0.02498095
#
# Stress axis : x y z
#
# Youngs Moduli (GPa) = 133.32975 153.48523 76.76081
#
# Poissons Ratio (x) = -0.06579 0.04486
# Poissons Ratio (y) = -0.05715 0.06718
# Poissons Ratio (z) = 0.07792 0.13433
#
# Static dielectric constant tensor:
#      x y z
#    x 2.174650 0.000000 0.000000 
#    y 0.000000 2.160820 0.000000 
#    z 0.000000 0.000000 2.119720 
# 
# From -- ./inp_files/4034.got.cif
#   From: 2010.05.17/outbox.cif.g08.bks.cpg/sg19_3_cif.got.tgz:4034.got - 2010.06.03 22:46:19.
