data_PCOD9313131
_publ_section_title
;
Structure prediction by ZEFSAII (Michael W. Deem and Ramdas Pophale) SiO2 
 PCOD9313131
Probable space group: P 21 21 2
;
_chemical_formula_sum "Si O2"
_cell_formula_units_Z 14
_cell_length_a 5.169268
_cell_length_b 7.910020
_cell_length_c 15.834124
_cell_angle_alpha 90.000000
_cell_angle_beta 90.000000
_cell_angle_gamma 90.000000
_cell_volume 647.441706
_symmetry_space_group_name_H-M "P 21 21 2"
_symmetry_group_IT_number 18
_symmetry_cell_setting 'orthorhombic'
loop_
_space_group_symop_operation_xyz
x,y,z
-x,-y,z
1/2+x,1/2-y,-z
1/2-x,1/2+y,-z
loop_
_atom_site_type_symbol
_atom_site_label
_atom_site_fract_x
_atom_site_fract_y
_atom_site_fract_z
Si Si1 0.762624 0.109285 0.199998
Si Si2 0.197008 0.342041 0.613210
Si Si3 0.874543 0.816780 0.956352
Si Si4 0.000000 0.000000 0.541444
O O1 0.838016 0.158100 0.296188
O O2 0.706251 0.263245 0.137951
O O3 0.500000 0.000000 0.201589
O O4 0.000000 0.000000 0.164734
O O5 0.110175 0.149387 0.599111
O O6 0.331536 0.392710 0.525477
O O7 0.000000 0.500000 0.621466
O O8 0.610802 0.800696 0.010367
O O9 0.000000 0.000000 0.958833
#
# Coordination Sequence:
#
# PCOD9313131 Si02
#       4
#     4   4   4   2
#     4  11  24  44  69 101 140 178 225 286 345 402
#     4  11  24  40  67  99 138 181 230 290 345 405
#     4  12  25  44  71 102 137 181 227 279 345 416
#     4  12  22  42  66  98 134 184 234 284 346 414
#
# _framework density 21.623567999999999
#
# number of rings (size 3 to 8) (size 9 to 14) (size 15 to 20)
#    0.000    0.571    4.286    5.143    2.000    0.000 
#    0.000    0.000    6.286    0.000    0.000    0.000 
#    0.000    0.000    0.000    0.000    0.000    0.000 
#
# Total GULP energy -78108.155888 kJ/mol
# GULP energy per Si atom -5579.153992 kJ/mol
# Density = 2.157435 g / cm^3
# Si number density = 21.623568 Si / 1000 Ang^3
#
#
#
# Elastic Constant Matrix: (Units=GPa)
#
#
# Indices 1 2 3 4 5 6 
#
# 1 82.7735 29.5666 15.0366 0.0000 0.0000 0.0000
# 2 29.5666 160.8105 41.1018 0.0000 0.0000 0.0000
# 3 15.0366 41.1018 121.9456 0.0000 0.0000 0.0000
# 4 0.0000 0.0000 0.0000 -6.5048 0.0000 0.0000
# 5 0.0000 0.0000 0.0000 0.0000 58.0398 0.0000
# 6 0.0000 0.0000 0.0000 0.0000 0.0000 40.7444
#
#
#
# Elastic Compliance Matrix: (Units=1/GPa)
#
#
# Indices 1 2 3 4 5 6 
#
# 1 0.013015 -0.002170 -0.000874 0.000000 0.000000 0.000000
# 2 -0.002170 0.007166 -0.002148 0.000000 0.000000 0.000000
# 3 -0.000874 -0.002148 0.009032 0.000000 0.000000 0.000000
# 4 0.000000 0.000000 0.000000 -0.153734 0.000000 0.000000
# 5 0.000000 0.000000 0.000000 0.000000 0.017230 0.000000
# 6 0.000000 0.000000 0.000000 0.000000 0.000000 0.024543
#
#
# Mechanical properties :
#
#
# Convention : Reuss Voigt Hill
#
# Bulk Modulus (GPa) = 53.10354 59.65993 56.38174
# Shear Modulus (GPa) = -75.65631 37.11086 -19.27272
#
# Velocity S-wave (km/s) = -5.92147 4.14723 -2.98868
# Velocity P-wave (km/s) = 4.70535 7.11216 3.77111
#
# Compressibility (1/GPa) = 0.01883113
#
# Stress axis : x y z
#
# Youngs Moduli (GPa) = 76.83538 139.54014 110.71696
#
# Poissons Ratio (x) = 0.30275 0.09671
# Poissons Ratio (y) = 0.16671 0.23781
# Poissons Ratio (z) = 0.06712 0.29972
#
# Static dielectric constant tensor:
#      x y z
#    x 2.455070 0.000000 0.000000 
#    y 0.000000 1.721100 0.000000 
#    z 0.000000 0.000000 1.800720 
# 
# From -- ./inp_files/6363.got.cif
#   From: 2010.05.17/outbox.cif.g08.bks.cpg/sg18_4_cif.got.tgz:6363.got - 2010.06.03 22:40:56.
