data_PCOD9313516
_publ_section_title
;
Structure prediction by ZEFSAII (Michael W. Deem and Ramdas Pophale) SiO2 
 PCOD9313516
Probable space group: P 21 21 21
;
_chemical_formula_sum "Si O2"
_cell_formula_units_Z 32
_cell_length_a 7.718181
_cell_length_b 17.978291
_cell_length_c 7.755779
_cell_angle_alpha 90.000000
_cell_angle_beta 90.000000
_cell_angle_gamma 90.000000
_cell_volume 1076.189598
_symmetry_space_group_name_H-M "P 21 21 21"
_symmetry_group_IT_number 19
_symmetry_cell_setting 'orthorhombic'
loop_
_space_group_symop_operation_xyz
x,y,z
1/2-x,-y,1/2+z
1/2+x,1/2-y,-z
-x,1/2+y,1/2-z
loop_
_atom_site_type_symbol
_atom_site_label
_atom_site_fract_x
_atom_site_fract_y
_atom_site_fract_z
Si Si1 0.302665 0.153510 0.336926
Si Si2 0.133335 0.162181 0.806421
Si Si3 0.853776 0.248186 0.981235
Si Si4 0.511211 0.486837 0.077123
Si Si5 0.925224 0.515981 0.177500
Si Si6 0.831481 0.895478 0.364170
Si Si7 0.965023 0.228070 0.460497
Si Si8 0.766806 0.896758 0.951052
O O1 0.375638 0.185859 0.159294
O O2 0.417194 0.187764 0.491786
O O3 0.238617 0.068694 0.366343
O O4 0.123123 0.202617 0.344345
O O5 0.017352 0.192863 0.965638
O O6 0.027000 0.188830 0.640912
O O7 0.123755 0.072410 0.812633
O O8 0.308383 0.207390 0.844737
O O9 0.704666 0.187087 0.931132
O O10 0.581577 0.489192 0.883598
O O11 0.429426 0.564924 0.144338
O O12 0.324042 0.444272 0.055512
O O13 0.985514 0.436259 0.103875
O O14 0.091471 0.563275 0.113237
O O15 0.798111 0.902370 0.156919
O O16 0.785331 0.187326 0.413174
#
# Coordination Sequence:
#
# PCOD9313516 Si02
#       8
#     4   4   4   4   4   4   4   4
#     4  10  19  33  51  73  98 131 168 202 245 299
#     4  10  19  33  49  74 102 132 160 207 244 294
#     4  10  19  33  51  72 102 128 168 201 250 295
#     4   9  15  26  46  73  96 119 161 201 247 285
#     4   9  17  26  49  72  95 130 164 201 244 292
#     4   9  16  30  46  69 101 128 159 207 248 285
#     4  10  20  34  50  71 104 131 165 206 250 288
#     4   9  15  27  46  70  96 125 155 205 248 280
#
# _framework density 29.734535999999999
#
# number of rings (size 3 to 8) (size 9 to 14) (size 15 to 20)
#    0.000    2.500    5.000    0.000    0.000    1.000 
#    2.250    0.000    0.000    4.500    0.000    1.750 
#    0.000    0.000    0.000    0.000    0.000    0.000 
#
# Total GULP energy -179117.015097 kJ/mol
# GULP energy per Si atom -5597.406722 kJ/mol
# Density = 2.966686 g / cm^3
# Si number density = 29.734536 Si / 1000 Ang^3
#
#
#
# Elastic Constant Matrix: (Units=GPa)
#
#
# Indices 1 2 3 4 5 6 
#
# 1 71.3795 -51.1448 9.1717 0.0000 0.0000 0.0000
# 2 -51.1448 145.1399 43.4143 0.0000 0.0000 0.0000
# 3 9.1717 43.4143 125.2393 0.0000 0.0000 0.0000
# 4 0.0000 0.0000 0.0000 42.1880 0.0000 0.0000
# 5 0.0000 0.0000 0.0000 0.0000 28.7118 0.0000
# 6 0.0000 0.0000 0.0000 0.0000 0.0000 53.4961
#
#
#
# Elastic Compliance Matrix: (Units=1/GPa)
#
#
# Indices 1 2 3 4 5 6 
#
# 1 0.020823 0.008696 -0.004539 0.000000 0.000000 0.000000
# 2 0.008696 0.011318 -0.004560 0.000000 0.000000 0.000000
# 3 -0.004539 -0.004560 0.009898 0.000000 0.000000 0.000000
# 4 0.000000 0.000000 0.000000 0.023703 0.000000 0.000000
# 5 0.000000 0.000000 0.000000 0.000000 0.034829 0.000000
# 6 0.000000 0.000000 0.000000 0.000000 0.000000 0.018693
#
#
# Mechanical properties :
#
#
# Convention : Reuss Voigt Hill
#
# Bulk Modulus (GPa) = 24.25317 38.29347 31.27332
# Shear Modulus (GPa) = 37.36453 47.56700 42.46577
#
# Velocity S-wave (km/s) = 3.54871 4.00399 3.78320
# Velocity P-wave (km/s) = 4.99653 5.85511 5.44278
#
# Compressibility (1/GPa) = 0.04123173
#
# Stress axis : x y z
#
# Youngs Moduli (GPa) = 48.02269 88.35347 101.03084
#
# Poissons Ratio (x) = -0.76829 0.45861
# Poissons Ratio (y) = -0.41759 0.46073
# Poissons Ratio (z) = 0.21799 0.40292
#
# Static dielectric constant tensor:
#      x y z
#    x 2.468740 0.000000 0.000000 
#    y 0.000000 2.362910 0.000000 
#    z 0.000000 0.000000 2.238330 
# 
# From -- ./inp_files/3185.got.cif
#   From: 2010.05.17/outbox.cif.g08.bks.cpg/sg19_2_cif.got.tgz:3185.got - 2010.06.03 22:46:19.
