data_PCOD9313829
_publ_section_title
;
Structure prediction by ZEFSAII (Michael W. Deem and Ramdas Pophale) SiO2 
 PCOD9313829
Probable space group: P 21 21 21
;
_chemical_formula_sum "Si O2"
_cell_formula_units_Z 32
_cell_length_a 23.341952
_cell_length_b 13.938360
_cell_length_c 5.469038
_cell_angle_alpha 90.000000
_cell_angle_beta 90.000000
_cell_angle_gamma 90.000000
_cell_volume 1779.343474
_symmetry_space_group_name_H-M "P 21 21 21"
_symmetry_group_IT_number 19
_symmetry_cell_setting 'orthorhombic'
loop_
_space_group_symop_operation_xyz
x,y,z
1/2-x,-y,1/2+z
1/2+x,1/2-y,-z
-x,1/2+y,1/2-z
loop_
_atom_site_type_symbol
_atom_site_label
_atom_site_fract_x
_atom_site_fract_y
_atom_site_fract_z
Si Si1 0.249922 0.436299 0.618477
Si Si2 0.065286 0.153237 0.444347
Si Si3 0.086195 0.419063 0.012341
Si Si4 0.125652 0.620927 0.066767
Si Si5 0.477568 0.377318 0.940034
Si Si6 0.524079 0.524936 0.303150
Si Si7 0.368717 0.669309 0.023751
Si Si8 0.543530 0.733678 0.171586
O O1 0.247177 0.496584 0.873173
O O2 0.308265 0.374048 0.634952
O O3 0.194727 0.369143 0.577516
O O4 0.067297 0.055339 0.598355
O O5 0.120613 0.218730 0.464994
O O6 0.040058 0.123371 0.183599
O O7 0.010996 0.220545 0.529422
O O8 0.097150 0.351287 0.777709
O O9 0.018334 0.440387 0.019780
O O10 0.119168 0.517007 0.941424
O O11 0.108142 0.381863 0.274761
O O12 0.078798 0.607722 0.280255
O O13 0.100065 0.710436 0.919062
O O14 0.482072 0.462686 0.132815
O O15 0.468156 0.273640 0.058618
O O16 0.546752 0.619652 0.171841
#
# Coordination Sequence:
#
# PCOD9313829 Si02
#       8
#     4   4   4   4   4   4   4   4
#     4  12  25  39  61  88 118 157 196 240 301 355
#     4  10  22  32  55  85 115 159 194 241 296 354
#     4  12  21  35  62  82 125 153 187 240 291 351
#     4  11  22  36  54  88 114 159 193 244 291 357
#     4  10  20  36  55  82 125 149 200 240 294 361
#     4  11  21  35  56  89 121 162 194 240 299 364
#     4  12  24  39  57  90 121 155 195 242 295 353
#     4  10  21  34  54  82 119 156 195 241 297 353
#
# _framework density 17.984162000000001
#
# number of rings (size 3 to 8) (size 9 to 14) (size 15 to 20)
#    0.000    1.000    7.500    1.500    3.500    2.000 
#    0.000    0.000    0.000    0.000    6.500    0.000 
#    0.000    0.000    0.000    0.000    0.000    0.000 
#
# Total GULP energy -178241.362106 kJ/mol
# GULP energy per Si atom -5570.042566 kJ/mol
# Density = 1.794323 g / cm^3
# Si number density = 17.984162 Si / 1000 Ang^3
#
#
#
# Elastic Constant Matrix: (Units=GPa)
#
#
# Indices 1 2 3 4 5 6 
#
# 1 45.3924 18.7455 5.0184 0.0000 0.0000 0.0000
# 2 18.7455 109.5062 13.5688 0.0000 0.0000 0.0000
# 3 5.0184 13.5688 61.1782 0.0000 0.0000 0.0000
# 4 0.0000 0.0000 0.0000 18.3946 0.0000 0.0000
# 5 0.0000 0.0000 0.0000 0.0000 14.4323 0.0000
# 6 0.0000 0.0000 0.0000 0.0000 0.0000 28.5270
#
#
#
# Elastic Compliance Matrix: (Units=1/GPa)
#
#
# Indices 1 2 3 4 5 6 
#
# 1 0.023775 -0.003936 -0.001077 0.000000 0.000000 0.000000
# 2 -0.003936 0.010042 -0.001904 0.000000 0.000000 0.000000
# 3 -0.001077 -0.001904 0.016856 0.000000 0.000000 0.000000
# 4 0.000000 0.000000 0.000000 0.054364 0.000000 0.000000
# 5 0.000000 0.000000 0.000000 0.000000 0.069289 0.000000
# 6 0.000000 0.000000 0.000000 0.000000 0.000000 0.035055
#
#
# Mechanical properties :
#
#
# Convention : Reuss Voigt Hill
#
# Bulk Modulus (GPa) = 27.14638 32.30467 29.72553
# Shear Modulus (GPa) = 21.23187 24.18704 22.70946
#
# Velocity S-wave (km/s) = 3.43970 3.67128 3.55737
# Velocity P-wave (km/s) = 5.55902 5.99774 5.78254
#
# Compressibility (1/GPa) = 0.03683732
#
# Stress axis : x y z
#
# Youngs Moduli (GPa) = 42.06141 99.58484 59.32461
#
# Poissons Ratio (x) = 0.39200 0.06390
# Poissons Ratio (y) = 0.16557 0.11297
# Poissons Ratio (z) = 0.04531 0.18964
#
# Static dielectric constant tensor:
#      x y z
#    x 1.618600 0.000000 0.000000 
#    y 0.000000 1.670720 0.000000 
#    z 0.000000 0.000000 1.741840 
# 
# From -- ./inp_files/1300.got.cif
#   From: 2010.05.17/outbox.cif.g08.bks.cpg/sg19_1_cif.got.tgz:1300.got - 2010.06.03 22:46:19.
