data_PCOD9313049
_publ_section_title
;
Structure prediction by ZEFSAII (Michael W. Deem and Ramdas Pophale) SiO2 
 PCOD9313049
Probable space group: P 21 21 2
;
_chemical_formula_sum "Si O2"
_cell_formula_units_Z 30
_cell_length_a 9.365402
_cell_length_b 12.266633
_cell_length_c 13.486609
_cell_angle_alpha 90.000000
_cell_angle_beta 90.000000
_cell_angle_gamma 90.000000
_cell_volume 1549.367930
_symmetry_space_group_name_H-M "P 21 21 2"
_symmetry_group_IT_number 18
_symmetry_cell_setting 'orthorhombic'
loop_
_space_group_symop_operation_xyz
x,y,z
-x,-y,z
1/2+x,1/2-y,-z
1/2-x,1/2+y,-z
loop_
_atom_site_type_symbol
_atom_site_label
_atom_site_fract_x
_atom_site_fract_y
_atom_site_fract_z
Si Si1 0.957430 0.725109 0.590087
Si Si2 0.618559 0.801799 0.226489
Si Si3 0.000000 0.500000 0.300431
Si Si4 0.783867 0.513133 0.653600
Si Si5 0.391740 0.405395 0.824960
Si Si6 0.410772 0.888360 0.066875
Si Si7 0.308822 0.122671 0.542432
Si Si8 0.587978 0.196655 0.843162
O O1 0.892998 0.609612 0.627531
O O2 0.825403 0.803910 0.571656
O O3 0.057019 0.764310 0.680022
O O4 0.060203 0.697951 0.497809
O O5 0.658520 0.921454 0.270097
O O6 0.498179 0.812666 0.143122
O O7 0.761130 0.749504 0.184940
O O8 0.124302 0.548126 0.371461
O O9 0.054920 0.403124 0.230144
O O10 0.653318 0.567608 0.711807
O O11 0.759510 0.450821 0.550860
O O12 0.500000 0.500000 0.858630
O O13 0.247434 0.404989 0.889530
O O14 0.468498 0.289605 0.830736
O O15 0.500000 0.000000 0.063852
O O16 0.407353 0.841200 0.956753
#
# Coordination Sequence:
#
# PCOD9313049 Si02
#       8
#     4   4   2   4   4   4   4   4
#     4  11  23  43  69 101 129 180 223 284 342 399
#     4  11  22  44  72  95 136 176 230 285 335 403
#     4  12  26  46  64  92 148 188 214 278 358 412
#     4  11  21  42  69  98 133 176 224 283 333 397
#     4  12  24  42  75 108 131 173 242 285 332 408
#     4  12  22  45  71 103 140 178 224 285 354 402
#     4  11  25  42  68  98 138 178 227 275 345 413
#     4  12  27  45  67 100 139 186 227 282 345 412
#
# _framework density 19.362734
#
# number of rings (size 3 to 8) (size 9 to 14) (size 15 to 20)
#    0.000    0.533    6.000    2.800    3.733    1.067 
#    0.000    3.333    0.000    0.000    0.000    0.000 
#    0.000    0.000    0.000    0.000    0.000    0.000 
#
# Total GULP energy -167732.609132 kJ/mol
# GULP energy per Si atom -5591.086971 kJ/mol
# Density = 1.931866 g / cm^3
# Si number density = 19.362734 Si / 1000 Ang^3
#
#
#
# Elastic Constant Matrix: (Units=GPa)
#
#
# Indices 1 2 3 4 5 6 
#
# 1 152.5812 68.5222 60.6214 0.0000 0.0000 0.0000
# 2 68.5222 90.2935 56.3429 0.0000 0.0000 0.0000
# 3 60.6214 56.3429 132.0139 0.0000 0.0000 0.0000
# 4 0.0000 0.0000 0.0000 18.2313 0.0000 0.0000
# 5 0.0000 0.0000 0.0000 0.0000 25.7119 0.0000
# 6 0.0000 0.0000 0.0000 0.0000 0.0000 27.7892
#
#
#
# Elastic Compliance Matrix: (Units=1/GPa)
#
#
# Indices 1 2 3 4 5 6 
#
# 1 0.010279 -0.006618 -0.001896 0.000000 0.000000 0.000000
# 2 -0.006618 0.019355 -0.005222 0.000000 0.000000 0.000000
# 3 -0.001896 -0.005222 0.010674 0.000000 0.000000 0.000000
# 4 0.000000 0.000000 0.000000 0.054851 0.000000 0.000000
# 5 0.000000 0.000000 0.000000 0.000000 0.038892 0.000000
# 6 0.000000 0.000000 0.000000 0.000000 0.000000 0.035985
#
#
# Mechanical properties :
#
#
# Convention : Reuss Voigt Hill
#
# Bulk Modulus (GPa) = 77.89412 82.87350 80.38381
# Shear Modulus (GPa) = 24.77858 26.97329 25.87594
#
# Velocity S-wave (km/s) = 3.58118 3.73641 3.65962
# Velocity P-wave (km/s) = 7.57733 7.84269 7.71115
#
# Compressibility (1/GPa) = 0.01283794
#
# Stress axis : x y z
#
# Youngs Moduli (GPa) = 97.28624 51.66503 93.68332
#
# Poissons Ratio (x) = 0.34190 0.17761
# Poissons Ratio (y) = 0.64380 0.48922
# Poissons Ratio (z) = 0.18444 0.26980
#
# Static dielectric constant tensor:
#      x y z
#    x 1.674730 0.000000 0.000000 
#    y 0.000000 1.673510 0.000000 
#    z 0.000000 0.000000 1.676210 
# 
# From -- ./inp_files/6730.got.cif
#   From: 2010.05.17/outbox.cif.g08.bks.cpg/sg18_4_cif.got.tgz:6730.got - 2010.06.03 22:40:56.
