data_PCOD9313073
_publ_section_title
;
Structure prediction by ZEFSAII (Michael W. Deem and Ramdas Pophale) SiO2 
 PCOD9313073
Probable space group: P 21 21 2
;
_chemical_formula_sum "Si O2"
_cell_formula_units_Z 20
_cell_length_a 13.536946
_cell_length_b 11.203610
_cell_length_c 4.963339
_cell_angle_alpha 90.000000
_cell_angle_beta 90.000000
_cell_angle_gamma 90.000000
_cell_volume 752.753213
_symmetry_space_group_name_H-M "P 21 21 2"
_symmetry_group_IT_number 18
_symmetry_cell_setting 'orthorhombic'
loop_
_space_group_symop_operation_xyz
x,y,z
-x,-y,z
1/2+x,1/2-y,-z
1/2-x,1/2+y,-z
loop_
_atom_site_type_symbol
_atom_site_label
_atom_site_fract_x
_atom_site_fract_y
_atom_site_fract_z
Si Si1 0.349908 0.787540 0.482508
Si Si2 0.104964 0.032517 0.349979
Si Si3 0.035947 0.369407 0.050731
Si Si4 0.711408 0.544661 0.141080
Si Si5 0.316039 0.204254 0.894665
O O1 0.388427 0.673245 0.642736
O O2 0.387302 0.887250 0.696786
O O3 0.243456 0.745803 0.370352
O O4 0.410500 0.811244 0.206418
O O5 0.188257 0.980990 0.548596
O O6 0.118153 0.982112 0.053725
O O7 0.000000 0.000000 0.467133
O O8 0.934192 0.302352 0.129867
O O9 0.000000 0.500000 0.964353
O O10 0.778746 0.431050 0.039519
O O11 0.717772 0.687886 0.092749
#
# Coordination Sequence:
#
# PCOD9313073 Si02
#       5
#     4   4   4   4   4
#     4  11  25  43  68 102 139 187 243 297 365 432
#     4  11  22  41  66  97 134 177 236 298 358 430
#     4  12  26  46  73 107 147 196 247 303 371 444
#     4  11  25  41  69 100 137 190 235 295 369 426
#     4  11  26  47  72 104 148 190 244 307 364 440
#
# _framework density 26.569133999999998
#
# number of rings (size 3 to 8) (size 9 to 14) (size 15 to 20)
#    0.000    0.800    0.000    7.200    0.000   12.800 
#    0.000    0.000    0.000    0.000    0.000    0.000 
#    0.000    0.000    0.000    0.000    0.000    0.000 
#
# Total GULP energy -111748.625377 kJ/mol
# GULP energy per Si atom -5587.431269 kJ/mol
# Density = 2.650866 g / cm^3
# Si number density = 26.569134 Si / 1000 Ang^3
#
#
#
# Elastic Constant Matrix: (Units=GPa)
#
#
# Indices 1 2 3 4 5 6 
#
# 1 94.4596 47.3120 18.0977 0.0000 0.0000 0.0000
# 2 47.3120 178.0867 34.3460 0.0000 0.0000 0.0000
# 3 18.0977 34.3460 121.1937 0.0000 0.0000 0.0000
# 4 0.0000 0.0000 0.0000 397.5786 0.0000 0.0000
# 5 0.0000 0.0000 0.0000 0.0000 37.0159 0.0000
# 6 0.0000 0.0000 0.0000 0.0000 0.0000 33.6218
#
#
#
# Elastic Compliance Matrix: (Units=1/GPa)
#
#
# Indices 1 2 3 4 5 6 
#
# 1 0.012317 -0.003086 -0.000965 0.000000 0.000000 0.000000
# 2 -0.003086 0.006713 -0.001442 0.000000 0.000000 0.000000
# 3 -0.000965 -0.001442 0.008804 0.000000 0.000000 0.000000
# 4 0.000000 0.000000 0.000000 0.002515 0.000000 0.000000
# 5 0.000000 0.000000 0.000000 0.000000 0.027015 0.000000
# 6 0.000000 0.000000 0.000000 0.000000 0.000000 0.029743
#
#
# Mechanical properties :
#
#
# Convention : Reuss Voigt Hill
#
# Bulk Modulus (GPa) = 59.35026 65.91681 62.63354
# Shear Modulus (GPa) = 48.21185 113.24222 80.72703
#
# Velocity S-wave (km/s) = 4.26441 6.53561 5.51813
# Velocity P-wave (km/s) = 6.82887 9.04521 8.01403
#
# Compressibility (1/GPa) = 0.01684913
#
# Stress axis : x y z
#
# Youngs Moduli (GPa) = 81.18753 148.96045 113.58650
#
# Poissons Ratio (x) = 0.45973 0.10957
# Poissons Ratio (y) = 0.25056 0.16375
# Poissons Ratio (z) = 0.07832 0.21475
#
# Static dielectric constant tensor:
#      x y z
#    x -0.102640 0.000000 0.000000 
#    y 0.000000 2.187040 0.000000 
#    z 0.000000 0.000000 1.996590 
# 
# From -- ./inp_files/1039.got.cif
#   From: 2010.05.17/outbox.cif.g08.bks.cpg/sg18_1_cif.got.tgz:1039.got - 2010.06.03 22:40:56.
