data_PCOD9313157
_publ_section_title
;
Structure prediction by ZEFSAII (Michael W. Deem and Ramdas Pophale) SiO2 
 PCOD9313157
Probable space group: P 21 21 2
;
_chemical_formula_sum "Si O2"
_cell_formula_units_Z 20
_cell_length_a 13.163936
_cell_length_b 5.613929
_cell_length_c 11.189278
_cell_angle_alpha 90.000000
_cell_angle_beta 90.000000
_cell_angle_gamma 90.000000
_cell_volume 826.903332
_symmetry_space_group_name_H-M "P 21 21 2"
_symmetry_group_IT_number 18
_symmetry_cell_setting 'orthorhombic'
loop_
_space_group_symop_operation_xyz
x,y,z
-x,-y,z
1/2+x,1/2-y,-z
1/2-x,1/2+y,-z
loop_
_atom_site_type_symbol
_atom_site_label
_atom_site_fract_x
_atom_site_fract_y
_atom_site_fract_z
Si Si1 0.734154 0.555636 0.611680
Si Si2 0.108780 0.596944 0.023222
Si Si3 0.943924 0.242368 0.260972
Si Si4 0.884892 0.912083 0.624458
Si Si5 0.734786 0.684483 0.186133
O O1 0.500000 0.500000 0.695947
O O2 0.661271 0.757662 0.667738
O O3 0.852051 0.634861 0.613401
O O4 0.685308 0.512096 0.483243
O O5 0.171165 0.662091 0.907661
O O6 0.000000 0.500000 0.986180
O O7 0.175592 0.422550 0.105984
O O8 0.083683 0.799264 0.121501
O O9 0.343115 0.499892 0.247753
O O10 0.223668 0.159325 0.295383
O O11 0.000000 0.500000 0.271834
O O12 0.000000 0.000000 0.609264
#
# Coordination Sequence:
#
# PCOD9313157 Si02
#       5
#     4   4   4   4   4
#     4  12  25  51  73 109 156 204 264 328 397 477
#     4  11  26  46  78 116 151 214 257 324 397 474
#     4  11  24  45  79 114 154 208 266 323 391 478
#     4  12  29  47  79 115 151 207 261 335 410 475
#     4  12  27  50  75 113 161 198 267 328 396 485
#
# _framework density 24.186624999999999
#
# number of rings (size 3 to 8) (size 9 to 14) (size 15 to 20)
#    0.000    0.400    4.000    4.200    2.800    2.400 
#    0.000    0.000    0.000    0.000    0.000    0.000 
#    0.000    0.000    0.000    0.000    0.000    0.000 
#
# Total GULP energy -111798.259020 kJ/mol
# GULP energy per Si atom -5589.912951 kJ/mol
# Density = 2.413158 g / cm^3
# Si number density = 24.186625 Si / 1000 Ang^3
#
#
#
# Elastic Constant Matrix: (Units=GPa)
#
#
# Indices 1 2 3 4 5 6 
#
# 1 174.7681 54.0134 52.5832 0.0000 0.0000 0.0000
# 2 54.0134 76.0852 42.5743 0.0000 0.0000 0.0000
# 3 52.5832 42.5743 111.6458 0.0000 0.0000 0.0000
# 4 0.0000 0.0000 0.0000 48.5336 0.0000 0.0000
# 5 0.0000 0.0000 0.0000 0.0000 36.5424 0.0000
# 6 0.0000 0.0000 0.0000 0.0000 0.0000 30.6024
#
#
#
# Elastic Compliance Matrix: (Units=1/GPa)
#
#
# Indices 1 2 3 4 5 6 
#
# 1 0.007649 -0.004341 -0.001947 0.000000 0.000000 0.000000
# 2 -0.004341 0.019171 -0.005266 0.000000 0.000000 0.000000
# 3 -0.001947 -0.005266 0.011882 0.000000 0.000000 0.000000
# 4 0.000000 0.000000 0.000000 0.020604 0.000000 0.000000
# 5 0.000000 0.000000 0.000000 0.000000 0.027365 0.000000
# 6 0.000000 0.000000 0.000000 0.000000 0.000000 0.032677
#
#
# Mechanical properties :
#
#
# Convention : Reuss Voigt Hill
#
# Bulk Modulus (GPa) = 64.12623 73.42677 68.77650
# Shear Modulus (GPa) = 33.86227 37.35755 35.60991
#
# Velocity S-wave (km/s) = 3.74577 3.93434 3.84122
# Velocity P-wave (km/s) = 6.72892 7.14584 6.94051
#
# Compressibility (1/GPa) = 0.01559424
#
# Stress axis : x y z
#
# Youngs Moduli (GPa) = 130.73098 52.16103 84.15826
#
# Poissons Ratio (x) = 0.22641 0.16390
# Poissons Ratio (y) = 0.56744 0.44321
# Poissons Ratio (z) = 0.25460 0.27470
#
# Static dielectric constant tensor:
#      x y z
#    x 1.998290 0.000000 0.000000 
#    y 0.000000 2.168510 0.000000 
#    z 0.000000 0.000000 1.887000 
# 
# From -- ./inp_files/6616.got.cif
#   From: 2010.05.17/outbox.cif.g08.bks.cpg/sg18_4_cif.got.tgz:6616.got - 2010.06.03 22:40:56.
