data_PCOD9313129
_publ_section_title
;
Structure prediction by ZEFSAII (Michael W. Deem and Ramdas Pophale) SiO2 
 PCOD9313129
Probable space group: P 21 21 2
;
_chemical_formula_sum "Si O2"
_cell_formula_units_Z 24
_cell_length_a 8.194060
_cell_length_b 20.289457
_cell_length_c 6.575214
_cell_angle_alpha 90.000000
_cell_angle_beta 90.000000
_cell_angle_gamma 90.000000
_cell_volume 1093.149237
_symmetry_space_group_name_H-M "P 21 21 2"
_symmetry_group_IT_number 18
_symmetry_cell_setting 'orthorhombic'
loop_
_space_group_symop_operation_xyz
x,y,z
-x,-y,z
1/2+x,1/2-y,-z
1/2-x,1/2+y,-z
loop_
_atom_site_type_symbol
_atom_site_label
_atom_site_fract_x
_atom_site_fract_y
_atom_site_fract_z
Si Si1 0.062946 0.710656 0.231588
Si Si2 0.500000 0.000000 0.358916
Si Si3 0.201109 0.794755 0.891480
Si Si4 0.050537 0.838220 0.498864
Si Si5 0.000000 0.000000 0.899719
Si Si6 0.263425 0.414250 0.814449
Si Si7 0.744218 0.414015 0.388071
O O1 0.098456 0.769463 0.391738
O O2 0.139230 0.640247 0.282804
O O3 0.867659 0.713408 0.229194
O O4 0.130960 0.732811 0.011874
O O5 0.591520 0.052045 0.217799
O O6 0.361463 0.035855 0.492688
O O7 0.069913 0.824560 0.737196
O O8 0.246677 0.847236 0.062302
O O9 0.167134 0.894362 0.406695
O O10 0.871243 0.868873 0.466627
O O11 0.120439 0.044861 0.758638
O O12 0.885153 0.041644 0.051673
#
# Coordination Sequence:
#
# PCOD9313129 Si02
#       7
#     4   2   4   4   2   4   4
#     4  11  26  41  75 103 141 187 247 307 372 435
#     4  12  28  44  72 112 146 190 250 304 364 452
#     4  11  24  45  70 103 141 185 246 304 368 433
#     4  11  23  49  71 102 142 189 240 312 367 441
#     4  12  26  46  76 100 152 202 240 296 376 456
#     4  11  26  45  71 102 139 191 242 295 366 442
#     4  12  26  46  75 106 148 196 244 307 375 446
#
# _framework density 21.954916000000001
#
# number of rings (size 3 to 8) (size 9 to 14) (size 15 to 20)
#    0.000    0.667    1.667    5.000    7.000    5.333 
#    0.000    0.000    0.000    0.000    0.000    0.000 
#    0.000    0.000    0.000    0.000    0.000    0.000 
#
# Total GULP energy -134111.203779 kJ/mol
# GULP energy per Si atom -5587.966824 kJ/mol
# Density = 2.190495 g / cm^3
# Si number density = 21.954916 Si / 1000 Ang^3
#
#
#
# Elastic Constant Matrix: (Units=GPa)
#
#
# Indices 1 2 3 4 5 6 
#
# 1 60.3005 10.8671 -5.0232 0.0000 0.0000 0.0000
# 2 10.8671 81.2837 15.7606 0.0000 0.0000 0.0000
# 3 -5.0232 15.7606 54.4358 0.0000 0.0000 0.0000
# 4 0.0000 0.0000 0.0000 2.8378 0.0000 0.0000
# 5 0.0000 0.0000 0.0000 0.0000 44.1339 0.0000
# 6 0.0000 0.0000 0.0000 0.0000 0.0000 45.4295
#
#
#
# Elastic Compliance Matrix: (Units=1/GPa)
#
#
# Indices 1 2 3 4 5 6 
#
# 1 0.017284 -0.002776 0.002399 0.000000 0.000000 0.000000
# 2 -0.002776 0.013480 -0.004159 0.000000 0.000000 0.000000
# 3 0.002399 -0.004159 0.019796 0.000000 0.000000 0.000000
# 4 0.000000 0.000000 0.000000 0.352381 0.000000 0.000000
# 5 0.000000 0.000000 0.000000 0.000000 0.022658 0.000000
# 6 0.000000 0.000000 0.000000 0.000000 0.000000 0.022012
#
#
# Mechanical properties :
#
#
# Convention : Reuss Voigt Hill
#
# Bulk Modulus (GPa) = 24.10389 26.58100 25.34244
# Shear Modulus (GPa) = 10.62671 30.10795 20.36733
#
# Velocity S-wave (km/s) = 2.20244 3.70720 3.04910
# Velocity P-wave (km/s) = 4.17975 5.51886 4.89531
#
# Compressibility (1/GPa) = 0.04148708
#
# Stress axis : x y z
#
# Youngs Moduli (GPa) = 57.85807 74.18341 50.51594
#
# Poissons Ratio (x) = 0.20592 -0.12117
# Poissons Ratio (y) = 0.16060 0.21010
# Poissons Ratio (z) = -0.13878 0.30853
#
# Static dielectric constant tensor:
#      x y z
#    x 1.856500 0.000000 0.000000 
#    y 0.000000 1.828950 0.000000 
#    z 0.000000 0.000000 1.827060 
# 
# From -- ./inp_files/658.got.cif
#   From: 2010.05.17/outbox.cif.g08.bks.cpg/sg18_1_cif.got.tgz:658.got - 2010.06.03 22:40:56.
