data_PCOD9313183
_publ_section_title
;
Structure prediction by ZEFSAII (Michael W. Deem and Ramdas Pophale) SiO2 
 PCOD9313183
Probable space group: P 21 21 2
;
_chemical_formula_sum "Si O2"
_cell_formula_units_Z 18
_cell_length_a 4.999867
_cell_length_b 25.525222
_cell_length_c 5.296676
_cell_angle_alpha 90.000000
_cell_angle_beta 90.000000
_cell_angle_gamma 90.000000
_cell_volume 675.976172
_symmetry_space_group_name_H-M "P 21 21 2"
_symmetry_group_IT_number 18
_symmetry_cell_setting 'orthorhombic'
loop_
_space_group_symop_operation_xyz
x,y,z
-x,-y,z
1/2+x,1/2-y,-z
1/2-x,1/2+y,-z
loop_
_atom_site_type_symbol
_atom_site_label
_atom_site_fract_x
_atom_site_fract_y
_atom_site_fract_z
Si Si1 0.090172 0.689373 0.312753
Si Si2 0.803701 0.696954 0.818806
Si Si3 0.877104 0.425127 0.359485
Si Si4 0.500000 0.500000 0.050054
Si Si5 0.397731 0.413694 0.677181
O O1 0.230302 0.743476 0.244274
O O2 0.198543 0.631975 0.244476
O O3 0.040367 0.688614 0.612727
O O4 0.841625 0.693132 0.118862
O O5 0.623736 0.647197 0.747190
O O6 0.731729 0.469597 0.201425
O O7 0.702346 0.426698 0.613206
O O8 0.185846 0.423617 0.448194
O O9 0.340679 0.455595 0.892695
#
# Coordination Sequence:
#
# PCOD9313183 Si02
#       5
#     4   4   4   2   4
#     4  11  25  46  79 117 161 206 263 333 409 487
#     4  11  25  46  79 117 161 206 263 333 409 487
#     4  11  29  52  77 118 158 211 274 336 407 487
#     4  12  30  50  88 108 168 222 278 340 406 494
#     4  11  29  52  77 118 158 211 274 336 407 487
#
# _framework density 26.628156000000001
#
# number of rings (size 3 to 8) (size 9 to 14) (size 15 to 20)
#    0.000    0.889    0.000    3.333   15.556    5.333 
#    0.000    0.000    0.000    0.000    0.000    0.000 
#    0.000    0.000    0.000    0.000    0.000    0.000 
#
# Total GULP energy -100607.737271 kJ/mol
# GULP energy per Si atom -5589.318737 kJ/mol
# Density = 2.656755 g / cm^3
# Si number density = 26.628156 Si / 1000 Ang^3
#
#
#
# Elastic Constant Matrix: (Units=GPa)
#
#
# Indices 1 2 3 4 5 6 
#
# 1 73.1258 15.7036 14.7722 0.0000 0.0000 0.0000
# 2 15.7036 187.1099 39.5889 0.0000 0.0000 0.0000
# 3 14.7722 39.5889 59.2695 0.0000 0.0000 0.0000
# 4 0.0000 0.0000 0.0000 37.5068 0.0000 0.0000
# 5 0.0000 0.0000 0.0000 0.0000 23.7864 0.0000
# 6 0.0000 0.0000 0.0000 0.0000 0.0000 43.0853
#
#
#
# Elastic Compliance Matrix: (Units=1/GPa)
#
#
# Indices 1 2 3 4 5 6 
#
# 1 0.014444 -0.000525 -0.003250 0.000000 0.000000 0.000000
# 2 -0.000525 0.006243 -0.004039 0.000000 0.000000 0.000000
# 3 -0.003250 -0.004039 0.020380 0.000000 0.000000 0.000000
# 4 0.000000 0.000000 0.000000 0.026662 0.000000 0.000000
# 5 0.000000 0.000000 0.000000 0.000000 0.042041 0.000000
# 6 0.000000 0.000000 0.000000 0.000000 0.000000 0.023210
#
#
# Mechanical properties :
#
#
# Convention : Reuss Voigt Hill
#
# Bulk Modulus (GPa) = 39.30785 51.07051 45.18918
# Shear Modulus (GPa) = 31.82948 37.50505 34.66727
#
# Velocity S-wave (km/s) = 3.46111 3.75704 3.61210
# Velocity P-wave (km/s) = 5.54673 6.16775 5.86546
#
# Compressibility (1/GPa) = 0.02544021
#
# Stress axis : x y z
#
# Youngs Moduli (GPa) = 69.23201 160.17604 49.06766
#
# Poissons Ratio (x) = 0.08405 0.15945
# Poissons Ratio (y) = 0.03633 0.19820
# Poissons Ratio (z) = 0.22497 0.64700
#
# Static dielectric constant tensor:
#      x y z
#    x 2.155040 0.000000 0.000000 
#    y 0.000000 2.118280 0.000000 
#    z 0.000000 0.000000 2.189340 
# 
# From -- ./inp_files/213.got.cif
#   From: 2010.05.17/outbox.cif.g08.bks.cpg/sg18_1_cif.got.tgz:213.got - 2010.06.03 22:40:56.
