data_PCOD9313252
_publ_section_title
;
Structure prediction by ZEFSAII (Michael W. Deem and Ramdas Pophale) SiO2 
 PCOD9313252
Probable space group: P 21 21 2
;
_chemical_formula_sum "Si O2"
_cell_formula_units_Z 10
_cell_length_a 5.574516
_cell_length_b 7.644814
_cell_length_c 9.009576
_cell_angle_alpha 90.000000
_cell_angle_beta 90.000000
_cell_angle_gamma 90.000000
_cell_volume 383.953334
_symmetry_space_group_name_H-M "P 21 21 2"
_symmetry_group_IT_number 18
_symmetry_cell_setting 'orthorhombic'
loop_
_space_group_symop_operation_xyz
x,y,z
-x,-y,z
1/2+x,1/2-y,-z
1/2-x,1/2+y,-z
loop_
_atom_site_type_symbol
_atom_site_label
_atom_site_fract_x
_atom_site_fract_y
_atom_site_fract_z
Si Si1 0.933228 0.315108 0.871388
Si Si2 0.397067 0.695725 0.431394
Si Si3 0.500000 0.500000 0.904390
O O1 0.104556 0.266897 0.737528
O O2 0.679099 0.382324 0.807340
O O3 0.000000 0.500000 0.947998
O O4 0.914986 0.154548 0.982394
O O5 0.500000 0.500000 0.426761
O O6 0.123788 0.705095 0.490389
#
# Coordination Sequence:
#
# PCOD9313252 Si02
#       3
#     4   4   2
#     4  12  26  47  75 108 153 192 250 310 375 449
#     4  12  28  51  78 112 150 201 254 314 379 447
#     4  12  26  46  74 108 148 200 244 310 380 444
#
# _framework density 26.044834000000002
#
# number of rings (size 3 to 8) (size 9 to 14) (size 15 to 20)
#    0.000    0.000    6.000    3.600    8.400    0.000 
#    7.200    0.000    0.000    0.000    0.000    0.000 
#    0.000    0.000    0.000    0.000    0.000    0.000 
#
# Total GULP energy -55762.429285 kJ/mol
# GULP energy per Si atom -5576.242928 kJ/mol
# Density = 2.598555 g / cm^3
# Si number density = 26.044834 Si / 1000 Ang^3
#
#
#
# Elastic Constant Matrix: (Units=GPa)
#
#
# Indices 1 2 3 4 5 6 
#
# 1 86.0288 15.7087 11.2439 0.0000 0.0000 0.0000
# 2 15.7087 190.6102 15.2948 0.0000 0.0000 0.0000
# 3 11.2439 15.2948 67.5668 0.0000 0.0000 0.0000
# 4 0.0000 0.0000 0.0000 21.2044 0.0000 0.0000
# 5 0.0000 0.0000 0.0000 0.0000 36.9814 0.0000
# 6 0.0000 0.0000 0.0000 0.0000 0.0000 63.5744
#
#
#
# Elastic Compliance Matrix: (Units=1/GPa)
#
#
# Indices 1 2 3 4 5 6 
#
# 1 0.012015 -0.000845 -0.001808 0.000000 0.000000 0.000000
# 2 -0.000845 0.005403 -0.001082 0.000000 0.000000 0.000000
# 3 -0.001808 -0.001082 0.015346 0.000000 0.000000 0.000000
# 4 0.000000 0.000000 0.000000 0.047160 0.000000 0.000000
# 5 0.000000 0.000000 0.000000 0.000000 0.027041 0.000000
# 6 0.000000 0.000000 0.000000 0.000000 0.000000 0.015730
#
#
# Mechanical properties :
#
#
# Convention : Reuss Voigt Hill
#
# Bulk Modulus (GPa) = 39.53749 47.63338 43.58543
# Shear Modulus (GPa) = 36.07618 44.48261 40.27939
#
# Velocity S-wave (km/s) = 3.72581 4.13719 3.93687
# Velocity P-wave (km/s) = 5.80710 6.41486 6.11853
#
# Compressibility (1/GPa) = 0.02529245
#
# Stress axis : x y z
#
# Youngs Moduli (GPa) = 83.23179 185.08903 65.16330
#
# Poissons Ratio (x) = 0.15641 0.11782
# Poissons Ratio (y) = 0.07034 0.07053
# Poissons Ratio (z) = 0.15049 0.20034
#
# Static dielectric constant tensor:
#      x y z
#    x 2.863780 0.000000 0.000000 
#    y 0.000000 1.986570 0.000000 
#    z 0.000000 0.000000 1.961160 
# 
# From -- ./inp_files/2338.got.cif
#   From: 2010.05.17/outbox.cif.g08.bks.cpg/sg18_2_cif.got.tgz:2338.got - 2010.06.03 22:40:56.
