data_PCOD9313772
_publ_section_title
;
Structure prediction by ZEFSAII (Michael W. Deem and Ramdas Pophale) SiO2 
 PCOD9313772
Probable space group: P 21 21 21
;
_chemical_formula_sum "Si O2"
_cell_formula_units_Z 28
_cell_length_a 7.130945
_cell_length_b 10.883231
_cell_length_c 13.548005
_cell_angle_alpha 90.000000
_cell_angle_beta 90.000000
_cell_angle_gamma 90.000000
_cell_volume 1051.429801
_symmetry_space_group_name_H-M "P 21 21 21"
_symmetry_group_IT_number 19
_symmetry_cell_setting 'orthorhombic'
loop_
_space_group_symop_operation_xyz
x,y,z
1/2-x,-y,1/2+z
1/2+x,1/2-y,-z
-x,1/2+y,1/2-z
loop_
_atom_site_type_symbol
_atom_site_label
_atom_site_fract_x
_atom_site_fract_y
_atom_site_fract_z
Si Si1 0.261887 0.630319 0.097885
Si Si2 0.582569 0.436820 0.696404
Si Si3 0.829474 0.379338 0.509369
Si Si4 0.940636 0.376364 0.793975
Si Si5 0.915661 0.637724 0.454984
Si Si6 0.372004 0.874197 0.304514
Si Si7 0.677252 0.113777 0.020648
O O1 0.134937 0.594913 0.193440
O O2 0.484546 0.633082 0.076533
O O3 0.194713 0.760764 0.057072
O O4 0.201289 0.517102 0.027835
O O5 0.717180 0.363722 0.773008
O O6 0.665270 0.396324 0.589381
O O7 0.656710 0.577933 0.706860
O O8 0.846080 0.498407 0.439675
O O9 0.053924 0.253906 0.760887
O O10 0.000694 0.387054 0.907447
O O11 0.980447 0.509735 0.744672
O O12 0.911517 0.632116 0.578185
O O13 0.837272 0.775032 0.443393
O O14 0.130938 0.639755 0.421119
#
# Coordination Sequence:
#
# PCOD9313772 Si02
#       7
#     4   4   4   4   4   4   4
#     4  11  21  34  60  87 117 151 198 237 287 348
#     4   9  20  36  60  77 123 148 187 242 296 330
#     4  10  20  34  55  87 112 150 192 235 290 339
#     4   9  19  33  59  79 109 155 195 229 297 348
#     4   9  20  35  53  84 114 146 189 244 284 338
#     4   8  18  34  56  78 110 150 192 236 287 347
#     4  10  22  34  61  86 109 154 201 233 289 362
#
# _framework density 26.630403999999999
#
# number of rings (size 3 to 8) (size 9 to 14) (size 15 to 20)
#    0.857    1.714    1.429    0.000    8.000    0.000 
#    0.000    0.000    6.286    5.143    0.000    0.000 
#    0.000    0.000    0.000    0.000    0.000    0.000 
#
# Total GULP energy -156321.080108 kJ/mol
# GULP energy per Si atom -5582.895718 kJ/mol
# Density = 2.656979 g / cm^3
# Si number density = 26.630404 Si / 1000 Ang^3
#
#
#
# Elastic Constant Matrix: (Units=GPa)
#
#
# Indices 1 2 3 4 5 6 
#
# 1 139.3940 48.3262 -4.0563 0.0000 0.0000 0.0000
# 2 48.3262 175.7970 -9.6322 0.0000 0.0000 0.0000
# 3 -4.0563 -9.6322 42.3648 0.0000 0.0000 0.0000
# 4 0.0000 0.0000 0.0000 35.9555 0.0000 0.0000
# 5 0.0000 0.0000 0.0000 0.0000 34.0359 0.0000
# 6 0.0000 0.0000 0.0000 0.0000 0.0000 33.1668
#
#
#
# Elastic Compliance Matrix: (Units=1/GPa)
#
#
# Indices 1 2 3 4 5 6 
#
# 1 0.007933 -0.002166 0.000267 0.000000 0.000000 0.000000
# 2 -0.002166 0.006352 0.001237 0.000000 0.000000 0.000000
# 3 0.000267 0.001237 0.023911 0.000000 0.000000 0.000000
# 4 0.000000 0.000000 0.000000 0.027812 0.000000 0.000000
# 5 0.000000 0.000000 0.000000 0.000000 0.029381 0.000000
# 6 0.000000 0.000000 0.000000 0.000000 0.000000 0.030151
#
#
# Mechanical properties :
#
#
# Convention : Reuss Voigt Hill
#
# Bulk Modulus (GPa) = 27.12164 47.42569 37.27366
# Shear Modulus (GPa) = 35.93147 42.15952 39.04549
#
# Velocity S-wave (km/s) = 3.67722 3.98318 3.83325
# Velocity P-wave (km/s) = 5.31374 6.24514 5.79817
#
# Compressibility (1/GPa) = 0.03687093
#
# Stress axis : x y z
#
# Youngs Moduli (GPa) = 126.06175 157.44119 41.82134
#
# Poissons Ratio (x) = 0.34102 -0.01117
# Poissons Ratio (y) = 0.27305 -0.05172
# Poissons Ratio (z) = -0.03367 -0.19471
#
# Static dielectric constant tensor:
#      x y z
#    x 2.235520 0.000000 0.000000 
#    y 0.000000 2.065730 0.000000 
#    z 0.000000 0.000000 2.553570 
# 
# From -- ./inp_files/6633.got.cif
#   From: 2010.05.17/outbox.cif.g08.bks.cpg/sg19_4_cif.got.tgz:6633.got - 2010.06.03 22:46:19.
