data_PCOD9313356
_publ_section_title
;
Structure prediction by ZEFSAII (Michael W. Deem and Ramdas Pophale) SiO2 
 PCOD9313356
Probable space group: P 21 21 21
;
_chemical_formula_sum "Si O2"
_cell_formula_units_Z 32
_cell_length_a 16.300847
_cell_length_b 9.374886
_cell_length_c 8.151316
_cell_angle_alpha 90.000000
_cell_angle_beta 90.000000
_cell_angle_gamma 90.000000
_cell_volume 1245.672555
_symmetry_space_group_name_H-M "P 21 21 21"
_symmetry_group_IT_number 19
_symmetry_cell_setting 'orthorhombic'
loop_
_space_group_symop_operation_xyz
x,y,z
1/2-x,-y,1/2+z
1/2+x,1/2-y,-z
-x,1/2+y,1/2-z
loop_
_atom_site_type_symbol
_atom_site_label
_atom_site_fract_x
_atom_site_fract_y
_atom_site_fract_z
Si Si1 0.639044 0.259306 0.601533
Si Si2 0.983048 0.513597 0.221259
Si Si3 0.457433 0.390733 0.071277
Si Si4 0.890991 0.117802 0.496624
Si Si5 0.294270 0.311827 0.219379
Si Si6 0.524063 0.184470 0.315683
Si Si7 0.831242 0.350504 0.275581
Si Si8 0.781178 0.469672 0.594537
O O1 0.563858 0.337736 0.687462
O O2 0.696779 0.182772 0.739447
O O3 0.604947 0.195667 0.431682
O O4 0.698321 0.387119 0.542923
O O5 0.021097 0.536111 0.399611
O O6 0.918249 0.387362 0.196414
O O7 0.055139 0.502529 0.091190
O O8 0.360123 0.348017 0.077573
O O9 0.513017 0.262184 0.141521
O O10 0.484214 0.515638 0.199577
O O11 0.828913 0.082662 0.639722
O O12 0.836824 0.199659 0.360906
O O13 0.952894 0.236288 0.576597
O O14 0.313084 0.144348 0.270243
O O15 0.831286 0.467017 0.427381
O O16 0.752140 0.383868 0.166599
#
# Coordination Sequence:
#
# PCOD9313356 Si02
#       8
#     4   4   4   4   4   4   4   4
#     4   8  18  40  58  79 118 160 193 244 294 355
#     4  10  20  35  57  87 117 150 196 241 300 344
#     4  11  22  39  60  91 119 157 195 252 294 356
#     4   9  18  37  56  80 117 156 190 242 292 353
#     4   8  18  38  56  80 115 154 197 234 296 345
#     4  10  21  40  61  83 123 158 196 241 302 347
#     4  10  17  34  55  85 110 152 191 243 295 351
#     4   8  18  31  57  81 113 145 194 245 297 341
#
# _framework density 25.688934
#
# number of rings (size 3 to 8) (size 9 to 14) (size 15 to 20)
#    0.750    2.000    1.250    0.000    0.000    2.000 
#    9.000    2.500    0.000    0.000    0.000    0.000 
#    0.000    0.000    0.000    0.000    0.000    0.000 
#
# Total GULP energy -178238.931626 kJ/mol
# GULP energy per Si atom -5569.966613 kJ/mol
# Density = 2.563046 g / cm^3
# Si number density = 25.688934 Si / 1000 Ang^3
#
#
#
# Elastic Constant Matrix: (Units=GPa)
#
#
# Indices 1 2 3 4 5 6 
#
# 1 69.7626 1.6903 12.0303 0.0000 0.0000 0.0000
# 2 1.6903 43.3053 14.9111 0.0000 0.0000 0.0000
# 3 12.0303 14.9111 38.6916 0.0000 0.0000 0.0000
# 4 0.0000 0.0000 0.0000 28.2519 0.0000 0.0000
# 5 0.0000 0.0000 0.0000 0.0000 45.6678 0.0000
# 6 0.0000 0.0000 0.0000 0.0000 0.0000 28.4202
#
#
#
# Elastic Compliance Matrix: (Units=1/GPa)
#
#
# Indices 1 2 3 4 5 6 
#
# 1 0.015200 0.001192 -0.005185 0.000000 0.000000 0.000000
# 2 0.001192 0.026718 -0.010668 0.000000 0.000000 0.000000
# 3 -0.005185 -0.010668 0.031569 0.000000 0.000000 0.000000
# 4 0.000000 0.000000 0.000000 0.035396 0.000000 0.000000
# 5 0.000000 0.000000 0.000000 0.000000 0.021897 0.000000
# 6 0.000000 0.000000 0.000000 0.000000 0.000000 0.035186
#
#
# Mechanical properties :
#
#
# Convention : Reuss Voigt Hill
#
# Bulk Modulus (GPa) = 22.64223 23.22480 22.93351
# Shear Modulus (GPa) = 23.80843 28.67650 26.24247
#
# Velocity S-wave (km/s) = 3.04764 3.34473 3.19963
# Velocity P-wave (km/s) = 4.60622 4.89660 4.75363
#
# Compressibility (1/GPa) = 0.04416526
#
# Stress axis : x y z
#
# Youngs Moduli (GPa) = 65.79098 37.42735 31.67681
#
# Poissons Ratio (x) = -0.04462 0.16426
# Poissons Ratio (y) = -0.07844 0.33791
# Poissons Ratio (z) = 0.34116 0.39926
#
# Static dielectric constant tensor:
#      x y z
#    x 2.089470 0.000000 0.000000 
#    y 0.000000 2.040630 0.000000 
#    z 0.000000 0.000000 2.151460 
# 
# From -- ./inp_files/4245.got.cif
#   From: 2010.05.17/outbox.cif.g08.bks.cpg/sg19_3_cif.got.tgz:4245.got - 2010.06.03 22:46:19.
