data_PCOD9313098
_publ_section_title
;
Structure prediction by ZEFSAII (Michael W. Deem and Ramdas Pophale) SiO2 
 PCOD9313098
Probable space group: P 21 21 2
;
_chemical_formula_sum "Si O2"
_cell_formula_units_Z 20
_cell_length_a 24.774167
_cell_length_b 5.656258
_cell_length_c 4.938277
_cell_angle_alpha 90.000000
_cell_angle_beta 90.000000
_cell_angle_gamma 90.000000
_cell_volume 691.996214
_symmetry_space_group_name_H-M "P 21 21 2"
_symmetry_group_IT_number 18
_symmetry_cell_setting 'orthorhombic'
loop_
_space_group_symop_operation_xyz
x,y,z
-x,-y,z
1/2+x,1/2-y,-z
1/2-x,1/2+y,-z
loop_
_atom_site_type_symbol
_atom_site_label
_atom_site_fract_x
_atom_site_fract_y
_atom_site_fract_z
Si Si1 0.112812 0.744034 0.325385
Si Si2 0.982161 0.250804 0.721372
Si Si3 0.318371 0.728475 0.317851
Si Si4 0.080168 0.251572 0.340459
Si Si5 0.284017 0.464046 0.818229
O O1 0.078899 0.748203 0.608373
O O2 0.095612 0.496011 0.195508
O O3 0.177392 0.763482 0.315615
O O4 0.094688 0.000058 0.208465
O O5 0.000000 0.500000 0.853469
O O6 0.019892 0.252086 0.450246
O O7 0.000000 0.000000 0.850349
O O8 0.380446 0.762943 0.392346
O O9 0.294517 0.679402 0.615106
O O10 0.279431 0.919775 0.183760
O O11 0.306658 0.513064 0.115372
#
# Coordination Sequence:
#
# PCOD9313098 Si02
#       5
#     4   4   4   4   4
#     4   9  18  34  59  90 125 166 212 263 320 380
#     4   8  14  28  54  86 120 160 208 260 314 376
#     4  11  23  40  63  95 132 176 220 271 327 390
#     4   9  18  34  59  90 125 166 212 263 320 380
#     4  11  23  40  63  95 132 176 220 271 327 390
#
# _framework density 28.901893999999999
#
# number of rings (size 3 to 8) (size 9 to 14) (size 15 to 20)
#    0.000    2.400    0.000    2.400    0.000    3.200 
#    0.000    0.000    0.000   30.000    0.000   70.000 
#    0.000    0.000    0.000    0.000    0.000    0.000 
#
# Total GULP energy -111755.166643 kJ/mol
# GULP energy per Si atom -5587.758332 kJ/mol
# Density = 2.883611 g / cm^3
# Si number density = 28.901894 Si / 1000 Ang^3
#
#
#
# Elastic Constant Matrix: (Units=GPa)
#
#
# Indices 1 2 3 4 5 6 
#
# 1 90.7892 32.6062 40.0952 0.0000 0.0000 0.0000
# 2 32.6062 226.0876 30.2362 0.0000 0.0000 0.0000
# 3 40.0952 30.2362 115.0354 0.0000 0.0000 0.0000
# 4 0.0000 0.0000 0.0000 -2.9485 0.0000 0.0000
# 5 0.0000 0.0000 0.0000 0.0000 44.3372 0.0000
# 6 0.0000 0.0000 0.0000 0.0000 0.0000 56.8778
#
#
#
# Elastic Compliance Matrix: (Units=1/GPa)
#
#
# Indices 1 2 3 4 5 6 
#
# 1 0.013408 -0.001356 -0.004317 0.000000 0.000000 0.000000
# 2 -0.001356 0.004721 -0.000768 0.000000 0.000000 0.000000
# 3 -0.004317 -0.000768 0.010400 0.000000 0.000000 0.000000
# 4 0.000000 0.000000 0.000000 -0.339157 0.000000 0.000000
# 5 0.000000 0.000000 0.000000 0.000000 0.022554 0.000000
# 6 0.000000 0.000000 0.000000 0.000000 0.000000 0.017582
#
#
# Mechanical properties :
#
#
# Convention : Reuss Voigt Hill
#
# Bulk Modulus (GPa) = 63.91347 70.86524 67.38936
# Shear Modulus (GPa) = -19.81034 41.58495 10.88730
#
# Velocity S-wave (km/s) = -2.62092 3.79731 1.94298
# Velocity P-wave (km/s) = 3.60597 6.61805 5.32924
#
# Compressibility (1/GPa) = 0.01564615
#
# Stress axis : x y z
#
# Youngs Moduli (GPa) = 74.58173 211.80065 96.15830
#
# Poissons Ratio (x) = 0.28728 0.41510
# Poissons Ratio (y) = 0.10116 0.07387
# Poissons Ratio (z) = 0.32196 0.16271
#
# Static dielectric constant tensor:
#      x y z
#    x 2.249430 0.000000 0.000000 
#    y 0.000000 2.379650 0.000000 
#    z 0.000000 0.000000 2.086350 
# 
# From -- ./inp_files/2163.got.cif
#   From: 2010.05.17/outbox.cif.g08.bks.cpg/sg18_2_cif.got.tgz:2163.got - 2010.06.03 22:40:56.
