data_PCOD9313322
_publ_section_title
;
Structure prediction by ZEFSAII (Michael W. Deem and Ramdas Pophale) SiO2 
 PCOD9313322
Probable space group: P 21 21 21
;
_chemical_formula_sum "Si O2"
_cell_formula_units_Z 24
_cell_length_a 8.018158
_cell_length_b 13.334756
_cell_length_c 7.902725
_cell_angle_alpha 90.000000
_cell_angle_beta 90.000000
_cell_angle_gamma 90.000000
_cell_volume 844.960783
_symmetry_space_group_name_H-M "P 21 21 21"
_symmetry_group_IT_number 19
_symmetry_cell_setting 'orthorhombic'
loop_
_space_group_symop_operation_xyz
x,y,z
1/2-x,-y,1/2+z
1/2+x,1/2-y,-z
-x,1/2+y,1/2-z
loop_
_atom_site_type_symbol
_atom_site_label
_atom_site_fract_x
_atom_site_fract_y
_atom_site_fract_z
Si Si1 0.590640 0.373036 0.568383
Si Si2 0.067219 0.382428 0.745986
Si Si3 0.896987 0.808514 0.290201
Si Si4 0.223553 0.032024 0.103964
Si Si5 0.724813 0.999948 0.970425
Si Si6 0.212374 0.196253 0.872338
O O1 0.627250 0.260263 0.625104
O O2 0.728184 0.418456 0.441395
O O3 0.410851 0.410415 0.506179
O O4 0.607221 0.438459 0.742188
O O5 0.106273 0.441165 0.574116
O O6 0.094721 0.262878 0.750945
O O7 0.172162 0.419712 0.177329
O O8 0.212515 0.427032 0.868209
O O9 0.812236 0.748726 0.444772
O O10 0.095554 0.802496 0.320416
O O11 0.399377 0.084061 0.161315
O O12 0.166642 0.084142 0.928537
#
# Coordination Sequence:
#
# PCOD9313322 Si02
#       6
#     4   4   4   4   4   4
#     4  10  20  36  57  76 114 144 180 228 271 321
#     4  10  20  35  55  83 110 141 182 227 269 323
#     4  10  19  33  56  80 109 142 187 219 276 317
#     4  10  21  37  53  85 109 143 188 222 270 329
#     4  10  20  36  55  82 108 146 182 224 273 323
#     4  10  16  33  56  78 102 140 187 224 249 325
#
# _framework density 28.403684999999999
#
# number of rings (size 3 to 8) (size 9 to 14) (size 15 to 20)
#    0.000    2.000    6.667    0.000    0.000    1.333 
#    3.000    5.000    0.000    2.000    0.000    0.000 
#    0.000    0.000    0.000    0.000    0.000    0.000 
#
# Total GULP energy -134327.382986 kJ/mol
# GULP energy per Si atom -5596.974291 kJ/mol
# Density = 2.833904 g / cm^3
# Si number density = 28.403685 Si / 1000 Ang^3
#
#
#
# Elastic Constant Matrix: (Units=GPa)
#
#
# Indices 1 2 3 4 5 6 
#
# 1 91.9038 46.8593 4.7988 0.0000 0.0000 0.0000
# 2 46.8593 153.9437 2.6032 0.0000 0.0000 0.0000
# 3 4.7988 2.6032 86.4512 0.0000 0.0000 0.0000
# 4 0.0000 0.0000 0.0000 64.2924 0.0000 0.0000
# 5 0.0000 0.0000 0.0000 0.0000 30.8073 0.0000
# 6 0.0000 0.0000 0.0000 0.0000 0.0000 45.2327
#
#
#
# Elastic Compliance Matrix: (Units=1/GPa)
#
#
# Indices 1 2 3 4 5 6 
#
# 1 0.012911 -0.003920 -0.000599 0.000000 0.000000 0.000000
# 2 -0.003920 0.007689 -0.000014 0.000000 0.000000 0.000000
# 3 -0.000599 -0.000014 0.011601 0.000000 0.000000 0.000000
# 4 0.000000 0.000000 0.000000 0.015554 0.000000 0.000000
# 5 0.000000 0.000000 0.000000 0.000000 0.032460 0.000000
# 6 0.000000 0.000000 0.000000 0.000000 0.000000 0.022108
#
#
# Mechanical properties :
#
#
# Convention : Reuss Voigt Hill
#
# Bulk Modulus (GPa) = 43.22241 48.98014 46.10127
# Shear Modulus (GPa) = 41.98168 46.60230 44.29199
#
# Velocity S-wave (km/s) = 3.84869 4.05497 3.95318
# Velocity P-wave (km/s) = 5.91609 6.26142 6.09120
#
# Compressibility (1/GPa) = 0.02313615
#
# Stress axis : x y z
#
# Youngs Moduli (GPa) = 77.45440 130.05113 86.20042
#
# Poissons Ratio (x) = 0.50978 0.05160
# Poissons Ratio (y) = 0.30361 0.00120
# Poissons Ratio (z) = 0.04637 0.00181
#
# Static dielectric constant tensor:
#      x y z
#    x 2.144590 0.000000 0.000000 
#    y 0.000000 2.210120 0.000000 
#    z 0.000000 0.000000 2.337720 
# 
# From -- ./inp_files/3657.got.cif
#   From: 2010.05.17/outbox.cif.g08.bks.cpg/sg19_2_cif.got.tgz:3657.got - 2010.06.03 22:46:19.
