data_PCOD9313449
_publ_section_title
;
Structure prediction by ZEFSAII (Michael W. Deem and Ramdas Pophale) SiO2 
 PCOD9313449
Probable space group: P 21 21 21
;
_chemical_formula_sum "Si O2"
_cell_formula_units_Z 28
_cell_length_a 8.298494
_cell_length_b 8.774881
_cell_length_c 16.493708
_cell_angle_alpha 90.000000
_cell_angle_beta 90.000000
_cell_angle_gamma 90.000000
_cell_volume 1201.043733
_symmetry_space_group_name_H-M "P 21 21 21"
_symmetry_group_IT_number 19
_symmetry_cell_setting 'orthorhombic'
loop_
_space_group_symop_operation_xyz
x,y,z
1/2-x,-y,1/2+z
1/2+x,1/2-y,-z
-x,1/2+y,1/2-z
loop_
_atom_site_type_symbol
_atom_site_label
_atom_site_fract_x
_atom_site_fract_y
_atom_site_fract_z
Si Si1 0.909467 0.389037 0.357524
Si Si2 0.221160 0.994788 0.403771
Si Si3 0.615475 0.568189 0.433512
Si Si4 0.356914 0.279947 0.212349
Si Si5 0.551461 0.089762 0.336065
Si Si6 0.075403 0.231494 0.506438
Si Si7 0.020945 0.119376 0.264301
O O1 0.745441 0.471394 0.381522
O O2 0.017143 0.515857 0.312517
O O3 0.984026 0.327337 0.439573
O O4 0.897764 0.244674 0.297299
O O5 0.187062 0.881583 0.478630
O O6 0.217682 0.156811 0.452205
O O7 0.078662 0.009624 0.338325
O O8 0.390121 0.992770 0.359624
O O9 0.586332 0.706984 0.373752
O O10 0.496561 0.428868 0.460278
O O11 0.341356 0.461111 0.205228
O O12 0.185352 0.210588 0.240325
O O13 0.487465 0.222014 0.277413
O O14 0.618061 0.162761 0.418289
#
# Coordination Sequence:
#
# PCOD9313449 Si02
#       7
#     4   4   4   4   4   4   4
#     4  10  18  36  57  79 113 154 179 238 288 339
#     4   8  18  35  58  77 112 148 190 230 280 342
#     4   9  18  36  58  80 115 153 190 232 287 339
#     4  10  22  35  59  86 119 149 196 239 285 349
#     4  11  19  37  59  86 116 156 189 242 290 340
#     4   9  17  33  60  80 111 151 193 225 289 343
#     4   9  20  36  55  84 112 147 191 232 285 348
#
# _framework density 23.313054999999999
#
# number of rings (size 3 to 8) (size 9 to 14) (size 15 to 20)
#    0.857    1.714    1.429    0.857    0.000    1.143 
#    2.571    0.000   12.571    0.000    0.000    0.000 
#    0.000    0.000    0.000    0.000    0.000    0.000 
#
# Total GULP energy -156026.909940 kJ/mol
# GULP energy per Si atom -5572.389641 kJ/mol
# Density = 2.325999 g / cm^3
# Si number density = 23.313055 Si / 1000 Ang^3
#
#
#
# Elastic Constant Matrix: (Units=GPa)
#
#
# Indices 1 2 3 4 5 6 
#
# 1 17.9775 -0.7481 -5.0069 0.0000 0.0000 0.0000
# 2 -0.7481 74.6223 15.9433 0.0000 0.0000 0.0000
# 3 -5.0069 15.9433 70.9055 0.0000 0.0000 0.0000
# 4 0.0000 0.0000 0.0000 47.8375 0.0000 0.0000
# 5 0.0000 0.0000 0.0000 0.0000 22.4244 0.0000
# 6 0.0000 0.0000 0.0000 0.0000 0.0000 28.6791
#
#
#
# Elastic Compliance Matrix: (Units=1/GPa)
#
#
# Indices 1 2 3 4 5 6 
#
# 1 0.056747 -0.000302 0.004075 0.000000 0.000000 0.000000
# 2 -0.000302 0.014079 -0.003187 0.000000 0.000000 0.000000
# 3 0.004075 -0.003187 0.015108 0.000000 0.000000 0.000000
# 4 0.000000 0.000000 0.000000 0.020904 0.000000 0.000000
# 5 0.000000 0.000000 0.000000 0.000000 0.044594 0.000000
# 6 0.000000 0.000000 0.000000 0.000000 0.000000 0.034869
#
#
# Mechanical properties :
#
#
# Convention : Reuss Voigt Hill
#
# Bulk Modulus (GPa) = 11.48023 20.43133 15.95578
# Shear Modulus (GPa) = 23.34665 30.00933 26.67799
#
# Velocity S-wave (km/s) = 3.16799 3.59169 3.38647
# Velocity P-wave (km/s) = 4.27979 5.09738 4.70637
#
# Compressibility (1/GPa) = 0.08710625
#
# Stress axis : x y z
#
# Youngs Moduli (GPa) = 17.62197 71.02932 66.19182
#
# Poissons Ratio (x) = 0.02143 -0.26973
# Poissons Ratio (y) = 0.00532 0.21095
# Poissons Ratio (z) = -0.07181 0.22637
#
# Static dielectric constant tensor:
#      x y z
#    x 1.961610 0.000000 0.000000 
#    y 0.000000 1.907810 0.000000 
#    z 0.000000 0.000000 1.897820 
# 
# From -- ./inp_files/6730.got.cif
#   From: 2010.05.17/outbox.cif.g08.bks.cpg/sg19_4_cif.got.tgz:6730.got - 2010.06.03 22:46:19.
