data_PCOD9313581
_publ_section_title
;
Structure prediction by ZEFSAII (Michael W. Deem and Ramdas Pophale) SiO2 
 PCOD9313581
Probable space group: P 21 21 21
;
_chemical_formula_sum "Si O2"
_cell_formula_units_Z 28
_cell_length_a 8.465349
_cell_length_b 13.955257
_cell_length_c 9.201376
_cell_angle_alpha 90.000000
_cell_angle_beta 90.000000
_cell_angle_gamma 90.000000
_cell_volume 1087.014867
_symmetry_space_group_name_H-M "P 21 21 21"
_symmetry_group_IT_number 19
_symmetry_cell_setting 'orthorhombic'
loop_
_space_group_symop_operation_xyz
x,y,z
1/2-x,-y,1/2+z
1/2+x,1/2-y,-z
-x,1/2+y,1/2-z
loop_
_atom_site_type_symbol
_atom_site_label
_atom_site_fract_x
_atom_site_fract_y
_atom_site_fract_z
Si Si1 0.643134 0.189708 0.177903
Si Si2 0.793232 0.822910 0.131745
Si Si3 0.854078 0.094351 0.378837
Si Si4 0.325252 0.114174 0.321697
Si Si5 0.973352 0.876006 0.388189
Si Si6 0.033608 0.132518 0.647611
Si Si7 0.749030 0.537165 0.448168
O O1 0.801264 0.134709 0.225172
O O2 0.487029 0.134163 0.235737
O O3 0.628598 0.288934 0.264339
O O4 0.619679 0.188572 0.005364
O O5 0.726217 0.716153 0.112574
O O6 0.946255 0.833195 0.229759
O O7 0.642735 0.873965 0.214820
O O8 0.797862 0.880422 0.981622
O O9 0.984229 0.149645 0.477662
O O10 0.902166 0.983963 0.383977
O O11 0.341080 0.032794 0.443808
O O12 0.192029 0.090091 0.196836
O O13 0.149701 0.891622 0.448452
O O14 0.130415 0.036459 0.633833
#
# Coordination Sequence:
#
# PCOD9313581 Si02
#       7
#     4   4   4   4   4   4   4
#     4  10  19  35  60  84 116 155 188 248 297 338
#     4   9  19  37  57  83 112 150 191 238 288 345
#     4   9  18  33  58  85 110 144 202 232 288 352
#     4  10  22  37  59  84 120 155 193 238 296 356
#     4  10  20  34  61  83 116 149 191 247 292 345
#     4   8  19  35  59  79 115 151 190 237 288 347
#     4  10  21  39  58  84 119 154 193 242 291 351
#
# _framework density 25.758618999999999
#
# number of rings (size 3 to 8) (size 9 to 14) (size 15 to 20)
#    0.857    1.714    0.000    1.714    2.000    2.286 
#    0.000    0.000   37.714    0.000    0.000    0.000 
#    0.000    0.000    0.000    0.000    0.000    0.000 
#
# Total GULP energy -156223.764466 kJ/mol
# GULP energy per Si atom -5579.420160 kJ/mol
# Density = 2.569999 g / cm^3
# Si number density = 25.758619 Si / 1000 Ang^3
#
#
#
# Elastic Constant Matrix: (Units=GPa)
#
#
# Indices 1 2 3 4 5 6 
#
# 1 45.0324 6.9272 5.5564 0.0000 0.0000 0.0000
# 2 6.9272 28.3037 23.1071 0.0000 0.0000 0.0000
# 3 5.5564 23.1071 62.8252 0.0000 0.0000 0.0000
# 4 0.0000 0.0000 0.0000 26.9360 0.0000 0.0000
# 5 0.0000 0.0000 0.0000 0.0000 27.5272 0.0000
# 6 0.0000 0.0000 0.0000 0.0000 0.0000 31.6486
#
#
#
# Elastic Compliance Matrix: (Units=1/GPa)
#
#
# Indices 1 2 3 4 5 6 
#
# 1 0.023075 -0.005690 0.000052 0.000000 0.000000 0.000000
# 2 -0.005690 0.051895 -0.018584 0.000000 0.000000 0.000000
# 3 0.000052 -0.018584 0.022748 0.000000 0.000000 0.000000
# 4 0.000000 0.000000 0.000000 0.037125 0.000000 0.000000
# 5 0.000000 0.000000 0.000000 0.000000 0.036328 0.000000
# 6 0.000000 0.000000 0.000000 0.000000 0.000000 0.031597
#
#
# Mechanical properties :
#
#
# Convention : Reuss Voigt Hill
#
# Bulk Modulus (GPa) = 20.29448 23.03808 21.66628
# Shear Modulus (GPa) = 18.68204 23.92707 21.30456
#
# Velocity S-wave (km/s) = 2.69601 3.05109 2.87903
# Velocity P-wave (km/s) = 4.19370 4.62336 4.41376
#
# Compressibility (1/GPa) = 0.04927448
#
# Stress axis : x y z
#
# Youngs Moduli (GPa) = 43.33679 19.26950 43.96036
#
# Poissons Ratio (x) = 0.10964 -0.00228
# Poissons Ratio (y) = 0.24658 0.81696
# Poissons Ratio (z) = -0.00225 0.35810
#
# Static dielectric constant tensor:
#      x y z
#    x 2.142450 0.000000 0.000000 
#    y 0.000000 2.055900 0.000000 
#    z 0.000000 0.000000 2.104430 
# 
# From -- ./inp_files/3544.got.cif
#   From: 2010.05.17/outbox.cif.g08.bks.cpg/sg19_2_cif.got.tgz:3544.got - 2010.06.03 22:46:19.
