data_PCOD9313803
_publ_section_title
;
Structure prediction by ZEFSAII (Michael W. Deem and Ramdas Pophale) SiO2 
 PCOD9313803
Probable space group: P 21 21 21
;
_chemical_formula_sum "Si O2"
_cell_formula_units_Z 20
_cell_length_a 5.135211
_cell_length_b 15.059770
_cell_length_c 12.996902
_cell_angle_alpha 90.000000
_cell_angle_beta 90.000000
_cell_angle_gamma 90.000000
_cell_volume 1005.116671
_symmetry_space_group_name_H-M "P 21 21 21"
_symmetry_group_IT_number 19
_symmetry_cell_setting 'orthorhombic'
loop_
_space_group_symop_operation_xyz
x,y,z
1/2-x,-y,1/2+z
1/2+x,1/2-y,-z
-x,1/2+y,1/2-z
loop_
_atom_site_type_symbol
_atom_site_label
_atom_site_fract_x
_atom_site_fract_y
_atom_site_fract_z
Si Si1 0.480802 0.752870 0.637551
Si Si2 0.003140 0.359750 0.542248
Si Si3 0.481390 0.646889 0.428982
Si Si4 0.736766 0.713718 0.848182
Si Si5 0.980194 0.557661 0.959270
O O1 0.499902 0.679812 0.547383
O O2 0.196054 0.795762 0.631975
O O3 0.567748 0.714118 0.746399
O O4 0.694317 0.827751 0.609242
O O5 0.089400 0.301721 0.638858
O O6 0.239021 0.421269 0.505626
O O7 0.950653 0.289635 0.448828
O O8 0.739990 0.416742 0.543926
O O9 0.537534 0.543055 0.424046
O O10 0.911628 0.626214 0.866804
#
# Coordination Sequence:
#
# PCOD9313803 Si02
#       5
#     4   4   4   4   4
#     4  10  23  39  64  78 123 163 193 235 300 355
#     4  10  20  35  59  84 122 149 181 251 294 339
#     4  10  22  43  57  86 118 159 199 243 284 351
#     4  10  21  38  60  90 118 156 191 238 304 348
#     4  10  20  37  60  84 121 145 196 249 284 335
#
# _framework density 19.898185999999999
#
# number of rings (size 3 to 8) (size 9 to 14) (size 15 to 20)
#    1.200    0.800    2.000    1.200    2.800    0.000 
#    7.200    0.000    0.000    0.000    0.000    0.000 
#    0.000    0.000    0.000    0.000    0.000    0.000 
#
# Total GULP energy -111556.845261 kJ/mol
# GULP energy per Si atom -5577.842263 kJ/mol
# Density = 1.985290 g / cm^3
# Si number density = 19.898186 Si / 1000 Ang^3
#
#
#
# Elastic Constant Matrix: (Units=GPa)
#
#
# Indices 1 2 3 4 5 6 
#
# 1 78.1003 -12.0385 -6.0072 0.0000 0.0000 0.0000
# 2 -12.0385 69.4607 -8.8128 0.0000 0.0000 0.0000
# 3 -6.0072 -8.8128 54.4219 0.0000 0.0000 0.0000
# 4 0.0000 0.0000 0.0000 5.1198 0.0000 0.0000
# 5 0.0000 0.0000 0.0000 0.0000 20.6644 0.0000
# 6 0.0000 0.0000 0.0000 0.0000 0.0000 21.6779
#
#
#
# Elastic Compliance Matrix: (Units=1/GPa)
#
#
# Indices 1 2 3 4 5 6 
#
# 1 0.013342 0.002552 0.001886 0.000000 0.000000 0.000000
# 2 0.002552 0.015187 0.002741 0.000000 0.000000 0.000000
# 3 0.001886 0.002741 0.019027 0.000000 0.000000 0.000000
# 4 0.000000 0.000000 0.000000 0.195319 0.000000 0.000000
# 5 0.000000 0.000000 0.000000 0.000000 0.048392 0.000000
# 6 0.000000 0.000000 0.000000 0.000000 0.000000 0.046130
#
#
# Mechanical properties :
#
#
# Convention : Reuss Voigt Hill
#
# Bulk Modulus (GPa) = 16.15164 16.47399 16.31282
# Shear Modulus (GPa) = 14.54852 24.74852 19.64852
#
# Velocity S-wave (km/s) = 2.70691 3.53052 3.14579
# Velocity P-wave (km/s) = 4.23138 4.99165 4.62715
#
# Compressibility (1/GPa) = 0.06191321
#
# Stress axis : x y z
#
# Youngs Moduli (GPa) = 74.94886 65.84736 52.55698
#
# Poissons Ratio (x) = -0.16802 -0.09912
# Poissons Ratio (y) = -0.19125 -0.14405
# Poissons Ratio (z) = -0.14135 -0.18048
#
# Static dielectric constant tensor:
#      x y z
#    x 1.720240 0.000000 0.000000 
#    y 0.000000 1.683010 0.000000 
#    z 0.000000 0.000000 1.709650 
# 
# From -- ./inp_files/911.got.cif
#   From: 2010.05.17/outbox.cif.g08.bks.cpg/sg19_1_cif.got.tgz:911.got - 2010.06.03 22:46:19.
