data_PCOD9313304
_publ_section_title
;
Structure prediction by ZEFSAII (Michael W. Deem and Ramdas Pophale) SiO2 
 PCOD9313304
Probable space group: P 21 21 21
;
_chemical_formula_sum "Si O2"
_cell_formula_units_Z 20
_cell_length_a 5.370433
_cell_length_b 6.741956
_cell_length_c 20.089587
_cell_angle_alpha 90.000000
_cell_angle_beta 90.000000
_cell_angle_gamma 90.000000
_cell_volume 727.388156
_symmetry_space_group_name_H-M "P 21 21 21"
_symmetry_group_IT_number 19
_symmetry_cell_setting 'orthorhombic'
loop_
_space_group_symop_operation_xyz
x,y,z
1/2-x,-y,1/2+z
1/2+x,1/2-y,-z
-x,1/2+y,1/2-z
loop_
_atom_site_type_symbol
_atom_site_label
_atom_site_fract_x
_atom_site_fract_y
_atom_site_fract_z
Si Si1 0.245360 0.941822 0.223992
Si Si2 0.750420 0.145001 0.668190
Si Si3 0.794156 0.715445 0.404044
Si Si4 0.788517 0.674329 0.630861
Si Si5 0.014479 0.814724 0.033070
O O1 0.473633 0.813638 0.194519
O O2 0.297914 0.955950 0.302415
O O3 0.977804 0.836831 0.219117
O O4 0.231291 0.122801 0.171296
O O5 0.639306 0.234470 0.600949
O O6 0.769969 0.906959 0.652862
O O7 0.531480 0.644278 0.593000
O O8 0.535383 0.827529 0.412915
O O9 0.861060 0.529642 0.450387
O O10 0.271342 0.696845 0.015678
#
# Coordination Sequence:
#
# PCOD9313304 Si02
#       5
#     4   4   4   4   4
#     4   9  15  26  39  51  78 109 125 158 193 216
#     4   9  18  26  36  62  78  98 142 153 176 248
#     4   9  18  26  36  62  78  98 142 153 176 248
#     4   9  15  26  39  51  78 109 125 158 193 216
#     4  10  16  26  40  52  78 112 128 158 194 216
#
# _framework density 27.495633999999999
#
# number of rings (size 3 to 8) (size 9 to 14) (size 15 to 20)
#    0.000    3.200    0.000    6.000    0.000    0.000 
#    0.000    0.000    0.000    0.000    0.000    0.000 
#    0.000    0.000    0.000 2592.000    0.000    3.200 
#
# Total GULP energy -111655.454994 kJ/mol
# GULP energy per Si atom -5582.772750 kJ/mol
# Density = 2.743305 g / cm^3
# Si number density = 27.495634 Si / 1000 Ang^3
#
#
#
# Elastic Constant Matrix: (Units=GPa)
#
#
# Indices 1 2 3 4 5 6 
#
# 1 303.8488 31.8948 55.4436 0.0000 0.0000 0.0000
# 2 31.8948 74.4941 36.9867 0.0000 0.0000 0.0000
# 3 55.4436 36.9867 113.4484 0.0000 0.0000 0.0000
# 4 0.0000 0.0000 0.0000 36.4561 0.0000 0.0000
# 5 0.0000 0.0000 0.0000 0.0000 43.5663 0.0000
# 6 0.0000 0.0000 0.0000 0.0000 0.0000 25.2632
#
#
#
# Elastic Compliance Matrix: (Units=1/GPa)
#
#
# Indices 1 2 3 4 5 6 
#
# 1 0.003654 -0.000809 -0.001522 0.000000 0.000000 0.000000
# 2 -0.000809 0.016195 -0.004885 0.000000 0.000000 0.000000
# 3 -0.001522 -0.004885 0.011151 0.000000 0.000000 0.000000
# 4 0.000000 0.000000 0.000000 0.027430 0.000000 0.000000
# 5 0.000000 0.000000 0.000000 0.000000 0.022954 0.000000
# 6 0.000000 0.000000 0.000000 0.000000 0.000000 0.039583
#
#
# Mechanical properties :
#
#
# Convention : Reuss Voigt Hill
#
# Bulk Modulus (GPa) = 60.35325 82.27128 71.31227
# Shear Modulus (GPa) = 35.48079 45.55487 40.51783
#
# Velocity S-wave (km/s) = 3.59613 4.07480 3.84293
# Velocity P-wave (km/s) = 6.26424 7.21978 6.75892
#
# Compressibility (1/GPa) = 0.01656912
#
# Stress axis : x y z
#
# Youngs Moduli (GPa) = 273.69432 61.74558 89.67833
#
# Poissons Ratio (x) = 0.04993 0.13649
# Poissons Ratio (y) = 0.22133 0.43807
# Poissons Ratio (z) = 0.41655 0.30162
#
# Static dielectric constant tensor:
#      x y z
#    x 2.168390 0.000000 0.000000 
#    y 0.000000 2.247250 0.000000 
#    z 0.000000 0.000000 2.134510 
# 
# From -- ./inp_files/6373.got.cif
#   From: 2010.05.17/outbox.cif.g08.bks.cpg/sg19_4_cif.got.tgz:6373.got - 2010.06.03 22:46:19.
