data_PCOD9313251
_publ_section_title
;
Structure prediction by ZEFSAII (Michael W. Deem and Ramdas Pophale) SiO2 
 PCOD9313251
Probable space group: P 21 21 2
;
_chemical_formula_sum "Si O2"
_cell_formula_units_Z 20
_cell_length_a 20.016943
_cell_length_b 7.525906
_cell_length_c 5.272151
_cell_angle_alpha 90.000000
_cell_angle_beta 90.000000
_cell_angle_gamma 90.000000
_cell_volume 794.226516
_symmetry_space_group_name_H-M "P 21 21 2"
_symmetry_group_IT_number 18
_symmetry_cell_setting 'orthorhombic'
loop_
_space_group_symop_operation_xyz
x,y,z
-x,-y,z
1/2+x,1/2-y,-z
1/2-x,1/2+y,-z
loop_
_atom_site_type_symbol
_atom_site_label
_atom_site_fract_x
_atom_site_fract_y
_atom_site_fract_z
Si Si1 0.218895 0.350444 0.690433
Si Si2 0.182111 0.995644 0.945751
Si Si3 0.849455 0.293237 0.588760
Si Si4 0.947083 0.851063 0.117286
Si Si5 0.997859 0.697409 0.591169
O O1 0.188836 0.157554 0.746865
O O2 0.169797 0.498893 0.578367
O O3 0.287714 0.308720 0.543834
O O4 0.245676 0.449213 0.943608
O O5 0.128038 0.078396 0.134903
O O6 0.152914 0.806582 0.859813
O O7 0.925621 0.259831 0.514554
O O8 0.966041 0.807488 0.824471
O O9 0.000000 0.000000 0.197205
O O10 0.956893 0.702608 0.330024
O O11 0.000000 0.500000 0.698859
#
# Coordination Sequence:
#
# PCOD9313251 Si02
#       5
#     4   4   4   4   4
#     4  12  26  45  75 106 145 200 244 310 384 439
#     4  12  26  46  74 106 152 192 254 311 375 456
#     4  12  26  47  73 108 151 193 253 314 373 459
#     4  12  26  48  76 107 147 201 247 309 384 444
#     4  12  28  49  76 111 150 198 256 318 379 450
#
# _framework density 25.181730999999999
#
# number of rings (size 3 to 8) (size 9 to 14) (size 15 to 20)
#    0.000    0.000    6.000    3.600    2.800    3.200 
#    0.000    0.000    0.000    0.000    0.000    0.000 
#    0.000    0.000    0.000    0.000    0.000    0.000 
#
# Total GULP energy -111767.429675 kJ/mol
# GULP energy per Si atom -5588.371484 kJ/mol
# Density = 2.512442 g / cm^3
# Si number density = 25.181731 Si / 1000 Ang^3
#
#
#
# Elastic Constant Matrix: (Units=GPa)
#
#
# Indices 1 2 3 4 5 6 
#
# 1 103.6207 12.6148 18.6564 0.0000 0.0000 0.0000
# 2 12.6148 97.5297 6.8642 0.0000 0.0000 0.0000
# 3 18.6564 6.8642 53.8609 0.0000 0.0000 0.0000
# 4 0.0000 0.0000 0.0000 29.1825 0.0000 0.0000
# 5 0.0000 0.0000 0.0000 0.0000 37.8111 0.0000
# 6 0.0000 0.0000 0.0000 0.0000 0.0000 37.4967
#
#
#
# Elastic Compliance Matrix: (Units=1/GPa)
#
#
# Indices 1 2 3 4 5 6 
#
# 1 0.010409 -0.001102 -0.003465 0.000000 0.000000 0.000000
# 2 -0.001102 0.010463 -0.000952 0.000000 0.000000 0.000000
# 3 -0.003465 -0.000952 0.019888 0.000000 0.000000 0.000000
# 4 0.000000 0.000000 0.000000 0.034267 0.000000 0.000000
# 5 0.000000 0.000000 0.000000 0.000000 0.026447 0.000000
# 6 0.000000 0.000000 0.000000 0.000000 0.000000 0.026669
#
#
# Mechanical properties :
#
#
# Convention : Reuss Voigt Hill
#
# Bulk Modulus (GPa) = 33.64560 36.80912 35.22736
# Shear Modulus (GPa) = 33.53735 35.35646 34.44691
#
# Velocity S-wave (km/s) = 3.65336 3.75113 3.70257
# Velocity P-wave (km/s) = 5.58446 5.78018 5.68316
#
# Compressibility (1/GPa) = 0.02972157
#
# Stress axis : x y z
#
# Youngs Moduli (GPa) = 96.07425 95.57627 50.28217
#
# Poissons Ratio (x) = 0.10537 0.17422
# Poissons Ratio (y) = 0.10591 0.04785
# Poissons Ratio (z) = 0.33288 0.09095
#
# Static dielectric constant tensor:
#      x y z
#    x 2.023810 0.000000 0.000000 
#    y 0.000000 1.931840 0.000000 
#    z 0.000000 0.000000 2.093830 
# 
# From -- ./inp_files/1735.got.cif
#   From: 2010.05.17/outbox.cif.g08.bks.cpg/sg18_1_cif.got.tgz:1735.got - 2010.06.03 22:40:56.
