data_PCOD9313453
_publ_section_title
;
Structure prediction by ZEFSAII (Michael W. Deem and Ramdas Pophale) SiO2 
 PCOD9313453
Probable space group: P 21 21 21
;
_chemical_formula_sum "Si O2"
_cell_formula_units_Z 28
_cell_length_a 11.638305
_cell_length_b 8.600745
_cell_length_c 14.538016
_cell_angle_alpha 90.000000
_cell_angle_beta 90.000000
_cell_angle_gamma 90.000000
_cell_volume 1455.227685
_symmetry_space_group_name_H-M "P 21 21 21"
_symmetry_group_IT_number 19
_symmetry_cell_setting 'orthorhombic'
loop_
_space_group_symop_operation_xyz
x,y,z
1/2-x,-y,1/2+z
1/2+x,1/2-y,-z
-x,1/2+y,1/2-z
loop_
_atom_site_type_symbol
_atom_site_label
_atom_site_fract_x
_atom_site_fract_y
_atom_site_fract_z
Si Si1 0.391300 0.160432 0.541280
Si Si2 0.704658 0.943230 0.069959
Si Si3 0.258399 0.421427 0.215201
Si Si4 0.348833 0.881510 0.658301
Si Si5 0.490543 0.427656 0.665201
Si Si6 0.914496 0.041497 0.949421
Si Si7 0.486684 0.661269 0.518430
O O1 0.317884 0.278128 0.479517
O O2 0.465663 0.266275 0.612440
O O3 0.320313 0.040527 0.605194
O O4 0.475948 0.063434 0.474617
O O5 0.711783 0.937731 0.178843
O O6 0.822152 0.009778 0.029162
O O7 0.602202 0.055350 0.036986
O O8 0.246830 0.237932 0.192737
O O9 0.134326 0.500715 0.192912
O O10 0.351943 0.493869 0.146485
O O11 0.431748 0.912861 0.745107
O O12 0.418489 0.781354 0.583360
O O13 0.546890 0.544644 0.590496
O O14 0.941919 0.224884 0.954412
#
# Coordination Sequence:
#
# PCOD9313453 Si02
#       7
#     4   4   4   4   4   4   4
#     4  10  21  37  62  89 126 158 199 268 300 362
#     4  11  22  42  60  91 127 159 210 256 307 364
#     4  11  22  38  63  85 124 167 196 250 311 372
#     4  10  18  36  59  91 117 153 213 254 299 347
#     4  10  18  38  62  95 114 152 216 259 300 341
#     4  11  21  42  62  85 127 168 200 251 310 360
#     4   9  20  37  60  86 123 163 194 254 305 362
#
# _framework density 19.240976
#
# number of rings (size 3 to 8) (size 9 to 14) (size 15 to 20)
#    0.000    1.714    4.286    4.286    0.000    1.143 
#    7.714    2.857    0.000    0.000    0.000    0.000 
#    0.000    0.000    0.000    0.000    0.000    0.000 
#
# Total GULP energy -156203.540917 kJ/mol
# GULP energy per Si atom -5578.697890 kJ/mol
# Density = 1.919718 g / cm^3
# Si number density = 19.240976 Si / 1000 Ang^3
#
#
#
# Elastic Constant Matrix: (Units=GPa)
#
#
# Indices 1 2 3 4 5 6 
#
# 1 60.2925 57.2445 93.7032 0.0000 0.0000 0.0000
# 2 57.2445 162.6956 145.2824 0.0000 0.0000 0.0000
# 3 93.7032 145.2824 346.9848 0.0000 0.0000 0.0000
# 4 0.0000 0.0000 0.0000 21.0487 0.0000 0.0000
# 5 0.0000 0.0000 0.0000 0.0000 31.3496 0.0000
# 6 0.0000 0.0000 0.0000 0.0000 0.0000 -3.1557
#
#
#
# Elastic Compliance Matrix: (Units=1/GPa)
#
#
# Indices 1 2 3 4 5 6 
#
# 1 0.031443 -0.005560 -0.006163 0.000000 0.000000 0.000000
# 2 -0.005560 0.010800 -0.003021 0.000000 0.000000 0.000000
# 3 -0.006163 -0.003021 0.005811 0.000000 0.000000 0.000000
# 4 0.000000 0.000000 0.000000 0.047509 0.000000 0.000000
# 5 0.000000 0.000000 0.000000 0.000000 0.031898 0.000000
# 6 0.000000 0.000000 0.000000 0.000000 0.000000 -0.316890
#
#
# Mechanical properties :
#
#
# Convention : Reuss Voigt Hill
#
# Bulk Modulus (GPa) = 53.85869 129.15923 91.50896
# Shear Modulus (GPa) = -32.51977 28.09805 -2.21086
#
# Velocity S-wave (km/s) = -4.11558 3.82556 -1.07309
# Velocity P-wave (km/s) = 2.33847 9.31591 6.79171
#
# Compressibility (1/GPa) = 0.01856711
#
# Stress axis : x y z
#
# Youngs Moduli (GPa) = 31.80337 92.59429 172.08426
#
# Poissons Ratio (x) = 0.51478 1.06064
# Poissons Ratio (y) = 0.17681 0.51979
# Poissons Ratio (z) = 0.19602 0.27968
#
# Static dielectric constant tensor:
#      x y z
#    x 1.663990 0.000000 0.000000 
#    y 0.000000 1.721440 0.000000 
#    z 0.000000 0.000000 1.667100 
# 
# From -- ./inp_files/3871.got.cif
#   From: 2010.05.17/outbox.cif.g08.bks.cpg/sg19_2_cif.got.tgz:3871.got - 2010.06.03 22:46:19.
