data_PCOD9313686
_publ_section_title
;
Structure prediction by ZEFSAII (Michael W. Deem and Ramdas Pophale) SiO2 
 PCOD9313686
Probable space group: P 21 21 21
;
_chemical_formula_sum "Si O2"
_cell_formula_units_Z 32
_cell_length_a 7.568901
_cell_length_b 19.022215
_cell_length_c 9.847867
_cell_angle_alpha 90.000000
_cell_angle_beta 90.000000
_cell_angle_gamma 90.000000
_cell_volume 1417.868929
_symmetry_space_group_name_H-M "P 21 21 21"
_symmetry_group_IT_number 19
_symmetry_cell_setting 'orthorhombic'
loop_
_space_group_symop_operation_xyz
x,y,z
1/2-x,-y,1/2+z
1/2+x,1/2-y,-z
-x,1/2+y,1/2-z
loop_
_atom_site_type_symbol
_atom_site_label
_atom_site_fract_x
_atom_site_fract_y
_atom_site_fract_z
Si Si1 0.350972 0.502416 0.746490
Si Si2 0.248500 0.265785 0.869079
Si Si3 0.533475 0.337215 0.992172
Si Si4 0.535012 0.638147 0.029902
Si Si5 0.192886 0.211950 0.293945
Si Si6 0.025888 0.513440 0.557556
Si Si7 0.353433 0.352527 0.614904
Si Si8 0.002573 0.345808 0.233797
O O1 0.155320 0.513982 0.686727
O O2 0.404147 0.429313 0.673694
O O3 0.453320 0.573619 0.704533
O O4 0.375741 0.492103 0.908950
O O5 0.324813 0.327243 0.964205
O O6 0.261200 0.303205 0.726933
O O7 0.383951 0.199380 0.868425
O O8 0.073793 0.228211 0.911763
O O9 0.635629 0.325387 0.848457
O O10 0.574190 0.412922 0.051139
O O11 0.625716 0.688364 0.139236
O O12 0.584496 0.558033 0.067399
O O13 0.318837 0.637527 0.020745
O O14 0.598560 0.653926 0.878511
O O15 0.168990 0.293964 0.260402
O O16 0.039381 0.187980 0.403139
#
# Coordination Sequence:
#
# PCOD9313686 Si02
#       8
#     4   4   4   4   4   4   4   4
#     4  10  19  39  63  87 126 164 199 264 306 371
#     4  10  22  37  60  90 120 158 202 261 307 367
#     4  10  22  40  61  87 124 156 211 256 305 375
#     4  10  22  39  64  86 122 164 200 246 315 373
#     4  10  22  39  60  88 124 164 194 264 306 360
#     4  10  21  40  63  90 126 159 212 253 308 385
#     4   9  20  39  61  87 122 159 207 246 310 368
#     4   9  22  37  58  93 120 156 209 254 307 375
#
# _framework density 22.569082999999999
#
# number of rings (size 3 to 8) (size 9 to 14) (size 15 to 20)
#    0.000    2.500    2.500    0.000    8.750    1.000 
#    2.250    3.750    2.750    0.000    0.000    0.000 
#    0.000    0.000    0.000    0.000    0.000    0.000 
#
# Total GULP energy -178167.880833 kJ/mol
# GULP energy per Si atom -5567.746276 kJ/mol
# Density = 2.251772 g / cm^3
# Si number density = 22.569083 Si / 1000 Ang^3
#
#
#
# Elastic Constant Matrix: (Units=GPa)
#
#
# Indices 1 2 3 4 5 6 
#
# 1 37.5849 10.7204 1.8799 0.0000 0.0000 0.0000
# 2 10.7204 101.9719 13.3161 0.0000 0.0000 0.0000
# 3 1.8799 13.3161 30.8685 0.0000 0.0000 0.0000
# 4 0.0000 0.0000 0.0000 28.1062 0.0000 0.0000
# 5 0.0000 0.0000 0.0000 0.0000 9.8122 0.0000
# 6 0.0000 0.0000 0.0000 0.0000 0.0000 29.4422
#
#
#
# Elastic Compliance Matrix: (Units=1/GPa)
#
#
# Indices 1 2 3 4 5 6 
#
# 1 0.027435 -0.002825 -0.000452 0.000000 0.000000 0.000000
# 2 -0.002825 0.010683 -0.004436 0.000000 0.000000 0.000000
# 3 -0.000452 -0.004436 0.034337 0.000000 0.000000 0.000000
# 4 0.000000 0.000000 0.000000 0.035579 0.000000 0.000000
# 5 0.000000 0.000000 0.000000 0.000000 0.101914 0.000000
# 6 0.000000 0.000000 0.000000 0.000000 0.000000 0.033965
#
#
# Mechanical properties :
#
#
# Convention : Reuss Voigt Hill
#
# Bulk Modulus (GPa) = 17.53543 24.69533 21.11538
# Shear Modulus (GPa) = 17.96306 23.10605 20.53456
#
# Velocity S-wave (km/s) = 2.82426 3.20315 3.01965
# Velocity P-wave (km/s) = 4.29206 4.96448 4.64046
#
# Compressibility (1/GPa) = 0.05702739
#
# Stress axis : x y z
#
# Youngs Moduli (GPa) = 36.44998 93.60694 29.12328
#
# Poissons Ratio (x) = 0.26446 0.01316
# Poissons Ratio (y) = 0.10298 0.12920
# Poissons Ratio (z) = 0.01648 0.41528
#
# Static dielectric constant tensor:
#      x y z
#    x 1.939570 0.000000 0.000000 
#    y 0.000000 1.855100 0.000000 
#    z 0.000000 0.000000 1.899290 
# 
# From -- ./inp_files/4831.got.cif
#   From: 2010.05.17/outbox.cif.g08.bks.cpg/sg19_3_cif.got.tgz:4831.got - 2010.06.03 22:46:19.
