data_PCOD9313285
_publ_section_title
;
Structure prediction by ZEFSAII (Michael W. Deem and Ramdas Pophale) SiO2 
 PCOD9313285
Probable space group: P 21 21 2
;
_chemical_formula_sum "Si O2"
_cell_formula_units_Z 28
_cell_length_a 9.000000
_cell_length_b 18.000000
_cell_length_c 9.000000
_cell_angle_alpha 90.000000
_cell_angle_beta 90.000000
_cell_angle_gamma 90.000000
_cell_volume 1458.000000
_symmetry_space_group_name_H-M "P 21 21 2"
_symmetry_group_IT_number 18
_symmetry_cell_setting 'orthorhombic'
loop_
_space_group_symop_operation_xyz
x,y,z
-x,-y,z
1/2+x,1/2-y,-z
1/2-x,1/2+y,-z
loop_
_atom_site_type_symbol
_atom_site_label
_atom_site_fract_x
_atom_site_fract_y
_atom_site_fract_z
Si Si1 0.008988 0.808847 0.431950
Si Si2 0.805778 0.039340 0.446523
Si Si3 0.216877 0.110103 0.256481
Si Si4 0.777992 0.906325 0.905755
Si Si5 0.500000 0.500000 0.277874
Si Si6 0.434180 0.889116 0.257935
Si Si7 0.500000 0.000000 0.994269
Si Si8 0.711176 0.267561 0.303656
O O1 0.094767 0.887407 0.421403
O O2 0.135817 0.749151 0.393377
O O3 0.878684 0.820286 0.312310
O O4 0.919342 0.795649 0.584742
O O5 0.643116 0.067907 0.396068
O O6 0.861588 0.018797 0.611694
O O7 0.827086 0.965906 0.344455
O O8 0.391541 0.122209 0.285837
O O9 0.195278 0.101343 0.081294
O O10 0.754311 0.828341 0.821814
O O11 0.630165 0.959081 0.901438
O O12 0.924655 0.939808 0.828660
O O13 0.426584 0.940111 0.109274
O O14 0.349637 0.810882 0.240161
#
# Coordination Sequence:
#
# PCOD9313285 Si02
#       8
#     4   4   4   4   2   4   2   4
#     4  11  23  41  65  94 134 181 225 273 354 413
#     4  11  19  40  65  94 126 177 231 277 331 414
#     4  11  21  40  70  95 128 178 233 283 339 419
#     4  11  25  44  64 100 142 173 234 290 349 414
#     4  12  24  38  64  98 136 172 226 284 340 398
#     4  10  21  40  74  92 129 179 232 277 346 417
#     4  10  22  48  66 102 134 184 232 282 354 426
#     4  11  24  43  64 100 139 177 227 292 347 419
#
# _framework density 19.20439
#
# number of rings (size 3 to 8) (size 9 to 14) (size 15 to 20)
#    0.000    1.143    5.714    0.857    2.000    2.286 
#   10.286    0.000    0.000    0.000    0.000    0.000 
#    0.000    0.000    0.000    0.000    0.000    0.000 
#
# Total GULP energy -156075.549899 kJ/mol
# GULP energy per Si atom -5574.126782 kJ/mol
# Density = 1.916068 g / cm^3
# Si number density = 19.204390 Si / 1000 Ang^3
#
#
#
# Elastic Constant Matrix: (Units=GPa)
#
#
# Indices 1 2 3 4 5 6 
#
# 1 109.3733 46.9516 57.7819 0.0000 0.0000 0.0000
# 2 46.9516 93.0797 40.8971 0.0000 0.0000 0.0000
# 3 57.7819 40.8971 103.6795 0.0000 0.0000 0.0000
# 4 0.0000 0.0000 0.0000 25.5922 0.0000 0.0000
# 5 0.0000 0.0000 0.0000 0.0000 36.1118 0.0000
# 6 0.0000 0.0000 0.0000 0.0000 0.0000 36.2888
#
#
#
# Elastic Compliance Matrix: (Units=1/GPa)
#
#
# Indices 1 2 3 4 5 6 
#
# 1 0.014371 -0.004512 -0.006229 0.000000 0.000000 0.000000
# 2 -0.004512 0.014412 -0.003171 0.000000 0.000000 0.000000
# 3 -0.006229 -0.003171 0.014367 0.000000 0.000000 0.000000
# 4 0.000000 0.000000 0.000000 0.039074 0.000000 0.000000
# 5 0.000000 0.000000 0.000000 0.000000 0.027692 0.000000
# 6 0.000000 0.000000 0.000000 0.000000 0.000000 0.027557
#
#
# Mechanical properties :
#
#
# Convention : Reuss Voigt Hill
#
# Bulk Modulus (GPa) = 65.24363 66.37709 65.81036
# Shear Modulus (GPa) = 29.34167 30.29870 29.82019
#
# Velocity S-wave (km/s) = 3.91303 3.97633 3.94481
# Velocity P-wave (km/s) = 7.37989 7.46459 7.42236
#
# Compressibility (1/GPa) = 0.01532717
#
# Stress axis : x y z
#
# Youngs Moduli (GPa) = 69.58554 69.38433 69.60209
#
# Poissons Ratio (x) = 0.31306 0.43357
# Poissons Ratio (y) = 0.31397 0.22067
# Poissons Ratio (z) = 0.43347 0.21998
#
# Static dielectric constant tensor:
#      x y z
#    x 1.692870 0.000000 0.000000 
#    y 0.000000 1.701160 0.000000 
#    z 0.000000 0.000000 1.662490 
# 
# From -- ./inp_files/3416.got.cif
#   From: 2010.05.17/outbox.ucp.g08.bks.cvg/sg18_2_cif.got.tgz:3416.got - 2010.06.11 13:13:23.
