data_PCOD9313773
_publ_section_title
;
Structure prediction by ZEFSAII (Michael W. Deem and Ramdas Pophale) SiO2 
 PCOD9313773
Probable space group: P 21 21 21
;
_chemical_formula_sum "Si O2"
_cell_formula_units_Z 32
_cell_length_a 14.871672
_cell_length_b 19.237403
_cell_length_c 4.897814
_cell_angle_alpha 90.000000
_cell_angle_beta 90.000000
_cell_angle_gamma 90.000000
_cell_volume 1401.227105
_symmetry_space_group_name_H-M "P 21 21 21"
_symmetry_group_IT_number 19
_symmetry_cell_setting 'orthorhombic'
loop_
_space_group_symop_operation_xyz
x,y,z
1/2-x,-y,1/2+z
1/2+x,1/2-y,-z
-x,1/2+y,1/2-z
loop_
_atom_site_type_symbol
_atom_site_label
_atom_site_fract_x
_atom_site_fract_y
_atom_site_fract_z
Si Si1 0.471471 0.493732 0.783566
Si Si2 0.219453 0.541293 0.518721
Si Si3 0.313322 0.671408 0.261724
Si Si4 0.090780 0.209536 0.054726
Si Si5 0.511295 0.087130 0.216516
Si Si6 0.591787 0.701727 0.570220
Si Si7 0.847301 0.223302 0.569197
Si Si8 0.467456 0.863528 0.043460
O O1 0.384576 0.459678 0.928503
O O2 0.445431 0.546881 0.541575
O O3 0.525556 0.436626 0.609707
O O4 0.515250 0.537181 0.032771
O O5 0.234357 0.517765 0.827984
O O6 0.263412 0.614025 0.444618
O O7 0.335908 0.741665 0.421573
O O8 0.409152 0.637654 0.172162
O O9 0.244390 0.688385 0.021816
O O10 0.065622 0.145854 0.852232
O O11 0.004234 0.259695 0.070310
O O12 0.100554 0.181900 0.358890
O O13 0.429979 0.129107 0.075013
O O14 0.630638 0.710979 0.871008
O O15 0.651287 0.748616 0.372399
O O16 0.932311 0.170717 0.534770
#
# Coordination Sequence:
#
# PCOD9313773 Si02
#       8
#     4   4   4   4   4   4   4   4
#     4  12  21  36  57  82 111 157 182 221 276 338
#     4  12  23  36  50  81 124 152 177 213 267 344
#     4  11  22  37  57  86 116 153 182 226 278 339
#     4   9  21  35  54  75 110 145 187 232 268 314
#     4  11  23  36  57  83 117 147 189 223 273 337
#     4   9  20  37  51  77 108 146 188 228 264 322
#     4  10  20  34  56  77 109 148 180 226 276 321
#     4  10  20  37  52  79 109 144 189 227 268 329
#
# _framework density 22.837128
#
# number of rings (size 3 to 8) (size 9 to 14) (size 15 to 20)
#    0.000    1.500    3.750    1.500    0.000    7.000 
#    0.000    0.000    0.000    0.000    0.000   17.500 
#    0.000    0.000    0.000    0.000    0.000    0.000 
#
# Total GULP energy -178967.318440 kJ/mol
# GULP energy per Si atom -5592.728701 kJ/mol
# Density = 2.278515 g / cm^3
# Si number density = 22.837128 Si / 1000 Ang^3
#
#
#
# Elastic Constant Matrix: (Units=GPa)
#
#
# Indices 1 2 3 4 5 6 
#
# 1 34.1708 17.0356 -0.1595 0.0000 0.0000 0.0000
# 2 17.0356 60.6453 -2.1714 0.0000 0.0000 0.0000
# 3 -0.1595 -2.1714 74.5027 0.0000 0.0000 0.0000
# 4 0.0000 0.0000 0.0000 23.3922 0.0000 0.0000
# 5 0.0000 0.0000 0.0000 0.0000 25.9887 0.0000
# 6 0.0000 0.0000 0.0000 0.0000 0.0000 23.2212
#
#
#
# Elastic Compliance Matrix: (Units=1/GPa)
#
#
# Indices 1 2 3 4 5 6 
#
# 1 0.034034 -0.009568 -0.000206 0.000000 0.000000 0.000000
# 2 -0.009568 0.019196 0.000539 0.000000 0.000000 0.000000
# 3 -0.000206 0.000539 0.013438 0.000000 0.000000 0.000000
# 4 0.000000 0.000000 0.000000 0.042749 0.000000 0.000000
# 5 0.000000 0.000000 0.000000 0.000000 0.038478 0.000000
# 6 0.000000 0.000000 0.000000 0.000000 0.000000 0.043064
#
#
# Mechanical properties :
#
#
# Convention : Reuss Voigt Hill
#
# Bulk Modulus (GPa) = 20.74766 22.08094 21.41430
# Shear Modulus (GPa) = 22.17350 24.82803 23.50077
#
# Velocity S-wave (km/s) = 3.11937 3.30082 3.21138
# Velocity P-wave (km/s) = 4.69880 4.92108 4.81123
#
# Compressibility (1/GPa) = 0.04819820
#
# Stress axis : x y z
#
# Youngs Moduli (GPa) = 29.38270 52.09364 74.41805
#
# Poissons Ratio (x) = 0.49841 0.01533
# Poissons Ratio (y) = 0.28112 -0.04011
# Poissons Ratio (z) = 0.00605 -0.02808
#
# Static dielectric constant tensor:
#      x y z
#    x 1.870430 0.000000 0.000000 
#    y 0.000000 1.912610 0.000000 
#    z 0.000000 0.000000 1.834900 
# 
# From -- ./inp_files/1586.got.cif
#   From: 2010.05.17/outbox.cif.g08.bks.cpg/sg19_1_cif.got.tgz:1586.got - 2010.06.03 22:46:19.
