data_PCOD9313871
_publ_section_title
;
Structure prediction by ZEFSAII (Michael W. Deem and Ramdas Pophale) SiO2 
 PCOD9313871
Probable space group: P 21 21 21
;
_chemical_formula_sum "Si O2"
_cell_formula_units_Z 28
_cell_length_a 5.558867
_cell_length_b 17.481363
_cell_length_c 12.363787
_cell_angle_alpha 90.000000
_cell_angle_beta 90.000000
_cell_angle_gamma 90.000000
_cell_volume 1201.470436
_symmetry_space_group_name_H-M "P 21 21 21"
_symmetry_group_IT_number 19
_symmetry_cell_setting 'orthorhombic'
loop_
_space_group_symop_operation_xyz
x,y,z
1/2-x,-y,1/2+z
1/2+x,1/2-y,-z
-x,1/2+y,1/2-z
loop_
_atom_site_type_symbol
_atom_site_label
_atom_site_fract_x
_atom_site_fract_y
_atom_site_fract_z
Si Si1 0.119699 0.866274 0.692149
Si Si2 0.434927 0.645109 0.920627
Si Si3 0.854062 0.762429 0.437655
Si Si4 0.815603 0.919818 0.493263
Si Si5 0.287258 0.201009 0.391854
Si Si6 0.000486 0.514080 0.329017
Si Si7 0.120425 0.572537 0.110987
O O1 0.311662 0.801817 0.652944
O O2 0.023222 0.829789 0.802696
O O3 0.250477 0.947611 0.704419
O O4 0.944900 0.878174 0.592845
O O5 0.272246 0.711189 0.870809
O O6 0.509822 0.576745 0.842487
O O7 0.642946 0.691521 0.982783
O O8 0.303102 0.603823 0.021148
O O9 0.630276 0.746035 0.521476
O O10 0.799217 0.851003 0.407674
O O11 0.577557 0.951151 0.553986
O O12 0.959357 0.992270 0.446489
O O13 0.072311 0.140134 0.377343
O O14 0.178390 0.542019 0.232387
#
# Coordination Sequence:
#
# PCOD9313871 Si02
#       7
#     4   4   4   4   4   4   4
#     4  10  21  37  60  85 122 160 206 261 325 382
#     4  11  22  39  61  88 123 159 208 256 319 388
#     4  10  20  37  62  92 126 166 211 264 327 389
#     4  10  20  37  59  85 123 158 207 264 324 382
#     4  11  22  39  61  87 120 164 204 260 321 386
#     4  10  21  38  60  87 115 162 206 263 314 387
#     4  10  22  39  63  84 121 159 208 262 320 382
#
# _framework density 23.304777000000001
#
# number of rings (size 3 to 8) (size 9 to 14) (size 15 to 20)
#    0.000    1.714    2.857    1.714    2.000    0.000 
#    0.000    0.000    0.000    0.000    0.000    0.000 
#    0.000    0.000    0.000    0.000    0.000    0.000 
#
# Total GULP energy -155930.195116 kJ/mol
# GULP energy per Si atom -5568.935540 kJ/mol
# Density = 2.325173 g / cm^3
# Si number density = 23.304777 Si / 1000 Ang^3
#
#
#
# Elastic Constant Matrix: (Units=GPa)
#
#
# Indices 1 2 3 4 5 6 
#
# 1 26.7476 -0.0239 -4.6508 0.0000 0.0000 0.0000
# 2 -0.0239 158.7701 19.6147 0.0000 0.0000 0.0000
# 3 -4.6508 19.6147 60.6251 0.0000 0.0000 0.0000
# 4 0.0000 0.0000 0.0000 26.2837 0.0000 0.0000
# 5 0.0000 0.0000 0.0000 0.0000 26.4703 0.0000
# 6 0.0000 0.0000 0.0000 0.0000 0.0000 23.7085
#
#
#
# Elastic Compliance Matrix: (Units=1/GPa)
#
#
# Indices 1 2 3 4 5 6 
#
# 1 0.037913 -0.000368 0.003028 0.000000 0.000000 0.000000
# 2 -0.000368 0.006564 -0.002152 0.000000 0.000000 0.000000
# 3 0.003028 -0.002152 0.017423 0.000000 0.000000 0.000000
# 4 0.000000 0.000000 0.000000 0.038046 0.000000 0.000000
# 5 0.000000 0.000000 0.000000 0.000000 0.037778 0.000000
# 6 0.000000 0.000000 0.000000 0.000000 0.000000 0.042179
#
#
# Mechanical properties :
#
#
# Convention : Reuss Voigt Hill
#
# Bulk Modulus (GPa) = 15.89454 30.66921 23.28187
# Shear Modulus (GPa) = 25.01738 30.70600 27.86169
#
# Velocity S-wave (km/s) = 3.27997 3.63379 3.46140
# Velocity P-wave (km/s) = 4.60210 5.54928 5.09774
#
# Compressibility (1/GPa) = 0.06291468
#
# Stress axis : x y z
#
# Youngs Moduli (GPa) = 26.37639 152.34082 57.39426
#
# Poissons Ratio (x) = 0.05611 -0.17377
# Poissons Ratio (y) = 0.00972 0.12352
# Poissons Ratio (z) = -0.07986 0.32785
#
# Static dielectric constant tensor:
#      x y z
#    x 1.954300 0.000000 0.000000 
#    y 0.000000 1.911980 0.000000 
#    z 0.000000 0.000000 1.982190 
# 
# From -- ./inp_files/1043.got.cif
#   From: 2010.05.17/outbox.cif.g08.bks.cpg/sg19_1_cif.got.tgz:1043.got - 2010.06.03 22:46:19.
