data_PCOD9313518
_publ_section_title
;
Structure prediction by ZEFSAII (Michael W. Deem and Ramdas Pophale) SiO2 
 PCOD9313518
Probable space group: P 21 21 21
;
_chemical_formula_sum "Si O2"
_cell_formula_units_Z 28
_cell_length_a 15.281025
_cell_length_b 7.626245
_cell_length_c 9.050090
_cell_angle_alpha 90.000000
_cell_angle_beta 90.000000
_cell_angle_gamma 90.000000
_cell_volume 1054.668895
_symmetry_space_group_name_H-M "P 21 21 21"
_symmetry_group_IT_number 19
_symmetry_cell_setting 'orthorhombic'
loop_
_space_group_symop_operation_xyz
x,y,z
1/2-x,-y,1/2+z
1/2+x,1/2-y,-z
-x,1/2+y,1/2-z
loop_
_atom_site_type_symbol
_atom_site_label
_atom_site_fract_x
_atom_site_fract_y
_atom_site_fract_z
Si Si1 0.935431 0.721488 0.921501
Si Si2 0.459062 0.454330 0.904574
Si Si3 0.784306 0.170565 0.931497
Si Si4 0.826096 0.364124 0.291531
Si Si5 0.818057 0.908707 0.694004
Si Si6 0.735069 0.437052 0.548844
Si Si7 0.505013 0.084828 0.896495
O O1 0.843436 0.691099 0.006544
O O2 0.986156 0.538535 0.961148
O O3 0.986319 0.870048 0.011102
O O4 0.901676 0.802130 0.764282
O O5 0.369948 0.407669 0.988264
O O6 0.524052 0.289090 0.924344
O O7 0.440227 0.490429 0.731578
O O8 0.697542 0.096784 0.017475
O O9 0.786979 0.372884 0.977382
O O10 0.802024 0.099417 0.766447
O O11 0.765589 0.199871 0.253593
O O12 0.822317 0.380079 0.466902
O O13 0.768090 0.522558 0.219748
O O14 0.915696 0.391303 0.204501
#
# Coordination Sequence:
#
# PCOD9313518 Si02
#       7
#     4   4   4   4   4   4   4
#     4   9  18  30  49  72 103 137 165 213 267 308
#     4  11  19  31  50  77 107 140 175 221 263 309
#     4  10  19  33  52  81 111 137 181 217 273 325
#     4   9  18  33  48  77 107 135 177 213 268 322
#     4   9  18  31  50  75 113 136 168 226 261 324
#     4   9  17  32  51  74 107 138 169 219 268 323
#     4  11  19  32  50  76 112 139 179 219 266 315
#
# _framework density 26.548614000000001
#
# number of rings (size 3 to 8) (size 9 to 14) (size 15 to 20)
#    0.000    2.286    5.714    0.000    0.000    5.714 
#    0.000    0.000    0.000    0.000    0.000   46.000 
#    0.000    0.000    0.000    0.000    0.000    0.000 
#
# Total GULP energy -156034.513941 kJ/mol
# GULP energy per Si atom -5572.661212 kJ/mol
# Density = 2.648819 g / cm^3
# Si number density = 26.548614 Si / 1000 Ang^3
#
#
#
# Elastic Constant Matrix: (Units=GPa)
#
#
# Indices 1 2 3 4 5 6 
#
# 1 45.0280 20.4269 23.0390 0.0000 0.0000 0.0000
# 2 20.4269 111.4481 -0.4105 0.0000 0.0000 0.0000
# 3 23.0390 -0.4105 81.1040 0.0000 0.0000 0.0000
# 4 0.0000 0.0000 0.0000 23.3156 0.0000 0.0000
# 5 0.0000 0.0000 0.0000 0.0000 25.3248 0.0000
# 6 0.0000 0.0000 0.0000 0.0000 0.0000 19.1497
#
#
#
# Elastic Compliance Matrix: (Units=1/GPa)
#
#
# Indices 1 2 3 4 5 6 
#
# 1 0.028821 -0.005313 -0.008214 0.000000 0.000000 0.000000
# 2 -0.005313 0.009952 0.001560 0.000000 0.000000 0.000000
# 3 -0.008214 0.001560 0.014671 0.000000 0.000000 0.000000
# 4 0.000000 0.000000 0.000000 0.042890 0.000000 0.000000
# 5 0.000000 0.000000 0.000000 0.000000 0.039487 0.000000
# 6 0.000000 0.000000 0.000000 0.000000 0.000000 0.052220
#
#
# Mechanical properties :
#
#
# Convention : Reuss Voigt Hill
#
# Bulk Modulus (GPa) = 33.88674 35.96567 34.92620
# Shear Modulus (GPa) = 22.54151 26.52633 24.53392
#
# Velocity S-wave (km/s) = 2.91703 3.16438 3.04322
# Velocity P-wave (km/s) = 4.91296 5.18918 5.05296
#
# Compressibility (1/GPa) = 0.02951007
#
# Stress axis : x y z
#
# Youngs Moduli (GPa) = 34.69651 100.47941 68.16126
#
# Poissons Ratio (x) = 0.53383 0.55988
# Poissons Ratio (y) = 0.18434 -0.10630
# Poissons Ratio (z) = 0.28500 -0.15670
#
# Static dielectric constant tensor:
#      x y z
#    x 2.151980 0.000000 0.000000 
#    y 0.000000 2.178700 0.000000 
#    z 0.000000 0.000000 2.148780 
# 
# From -- ./inp_files/5380.got.cif
#   From: 2010.05.17/outbox.cif.g08.bks.cpg/sg19_3_cif.got.tgz:5380.got - 2010.06.03 22:46:19.
