data_PCOD9313696
_publ_section_title
;
Structure prediction by ZEFSAII (Michael W. Deem and Ramdas Pophale) SiO2 
 PCOD9313696
Probable space group: P 21 21 21
;
_chemical_formula_sum "Si O2"
_cell_formula_units_Z 28
_cell_length_a 13.725447
_cell_length_b 8.145556
_cell_length_c 9.737564
_cell_angle_alpha 90.000000
_cell_angle_beta 90.000000
_cell_angle_gamma 90.000000
_cell_volume 1088.673260
_symmetry_space_group_name_H-M "P 21 21 21"
_symmetry_group_IT_number 19
_symmetry_cell_setting 'orthorhombic'
loop_
_space_group_symop_operation_xyz
x,y,z
1/2-x,-y,1/2+z
1/2+x,1/2-y,-z
-x,1/2+y,1/2-z
loop_
_atom_site_type_symbol
_atom_site_label
_atom_site_fract_x
_atom_site_fract_y
_atom_site_fract_z
Si Si1 0.785306 0.025544 0.184715
Si Si2 0.327208 0.095161 0.518328
Si Si3 0.822310 0.841540 0.926029
Si Si4 0.518513 0.119658 0.051855
Si Si5 0.027593 0.645776 0.164646
Si Si6 0.343405 0.761883 0.659459
Si Si7 0.003923 0.019321 0.846599
O O1 0.767456 0.852198 0.262957
O O2 0.717329 0.148034 0.270010
O O3 0.895983 0.075035 0.223147
O O4 0.780512 0.982741 0.026292
O O5 0.222125 0.178796 0.507855
O O6 0.401079 0.232146 0.580684
O O7 0.385198 0.023661 0.387633
O O8 0.314384 0.944646 0.622374
O O9 0.935177 0.882789 0.918131
O O10 0.516529 0.006080 0.186260
O O11 0.476928 0.297845 0.099049
O O12 0.619237 0.177615 0.981046
O O13 0.483340 0.998726 0.930501
O O14 0.938958 0.726507 0.244313
#
# Coordination Sequence:
#
# PCOD9313696 Si02
#       7
#     4   4   4   4   4   4   4
#     4  10  23  39  63  94 132 180 229 280 338 426
#     4  10  22  41  64  99 134 177 225 288 333 426
#     4  11  25  42  66  97 138 190 228 286 359 411
#     4  10  22  37  69 101 133 184 232 290 347 428
#     4  10  19  39  69  93 131 176 233 277 346 416
#     4  10  20  40  64  96 133 173 239 286 340 412
#     4  11  23  42  67 100 143 180 236 285 361 407
#
# _framework density 25.719379
#
# number of rings (size 3 to 8) (size 9 to 14) (size 15 to 20)
#    0.000    1.714    0.000    5.143    8.000    1.143 
#    5.143    2.857    0.000    0.000    0.000    0.000 
#    0.000    0.000    0.000    0.000    0.000    0.000 
#
# Total GULP energy -156420.547845 kJ/mol
# GULP energy per Si atom -5586.448137 kJ/mol
# Density = 2.566084 g / cm^3
# Si number density = 25.719379 Si / 1000 Ang^3
#
#
#
# Elastic Constant Matrix: (Units=GPa)
#
#
# Indices 1 2 3 4 5 6 
#
# 1 65.0022 25.7539 3.6331 0.0000 0.0000 0.0000
# 2 25.7539 92.8820 15.1711 0.0000 0.0000 0.0000
# 3 3.6331 15.1711 111.6035 0.0000 0.0000 0.0000
# 4 0.0000 0.0000 0.0000 48.8339 0.0000 0.0000
# 5 0.0000 0.0000 0.0000 0.0000 25.0527 0.0000
# 6 0.0000 0.0000 0.0000 0.0000 0.0000 34.6414
#
#
#
# Elastic Compliance Matrix: (Units=1/GPa)
#
#
# Indices 1 2 3 4 5 6 
#
# 1 0.017284 -0.004807 0.000091 0.000000 0.000000 0.000000
# 2 -0.004807 0.012348 -0.001522 0.000000 0.000000 0.000000
# 3 0.000091 -0.001522 0.009164 0.000000 0.000000 0.000000
# 4 0.000000 0.000000 0.000000 0.020478 0.000000 0.000000
# 5 0.000000 0.000000 0.000000 0.000000 0.039916 0.000000
# 6 0.000000 0.000000 0.000000 0.000000 0.000000 0.028867
#
#
# Mechanical properties :
#
#
# Convention : Reuss Voigt Hill
#
# Bulk Modulus (GPa) = 37.99543 39.84488 38.92016
# Shear Modulus (GPa) = 33.48824 36.70089 35.09457
#
# Velocity S-wave (km/s) = 3.61232 3.78163 3.69795
# Velocity P-wave (km/s) = 5.67483 5.88162 5.77915
#
# Compressibility (1/GPa) = 0.02631896
#
# Stress axis : x y z
#
# Youngs Moduli (GPa) = 57.85828 80.98567 109.11980
#
# Poissons Ratio (x) = 0.38931 -0.00991
# Poissons Ratio (y) = 0.27813 0.16609
# Poissons Ratio (z) = -0.00525 0.12326
#
# Static dielectric constant tensor:
#      x y z
#    x 2.020210 0.000000 0.000000 
#    y 0.000000 2.064140 0.000000 
#    z 0.000000 0.000000 2.046670 
# 
# From -- ./inp_files/5190.got.cif
#   From: 2010.05.17/outbox.cif.g08.bks.cpg/sg19_3_cif.got.tgz:5190.got - 2010.06.03 22:46:19.
