data_PCOD9313552
_publ_section_title
;
Structure prediction by ZEFSAII (Michael W. Deem and Ramdas Pophale) SiO2 
 PCOD9313552
Probable space group: P 21 21 21
;
_chemical_formula_sum "Si O2"
_cell_formula_units_Z 32
_cell_length_a 12.657065
_cell_length_b 9.786815
_cell_length_c 10.988546
_cell_angle_alpha 90.000000
_cell_angle_beta 90.000000
_cell_angle_gamma 90.000000
_cell_volume 1361.177056
_symmetry_space_group_name_H-M "P 21 21 21"
_symmetry_group_IT_number 19
_symmetry_cell_setting 'orthorhombic'
loop_
_space_group_symop_operation_xyz
x,y,z
1/2-x,-y,1/2+z
1/2+x,1/2-y,-z
-x,1/2+y,1/2-z
loop_
_atom_site_type_symbol
_atom_site_label
_atom_site_fract_x
_atom_site_fract_y
_atom_site_fract_z
Si Si1 0.018714 0.737859 0.468521
Si Si2 0.903220 0.108389 0.258079
Si Si3 0.168842 0.334072 0.210336
Si Si4 0.598517 0.475415 0.582499
Si Si5 0.669957 0.650293 0.914841
Si Si6 0.482600 0.012148 0.390401
Si Si7 0.862675 0.800571 0.006019
Si Si8 0.209186 0.928533 0.737723
O O1 0.915354 0.775287 0.387074
O O2 0.991314 0.649424 0.586070
O O3 0.087770 0.635034 0.385060
O O4 0.078880 0.880608 0.480837
O O5 0.883075 0.258915 0.310323
O O6 0.819195 0.996379 0.304184
O O7 0.013340 0.047061 0.308982
O O8 0.126417 0.331592 0.350143
O O9 0.265440 0.228671 0.205869
O O10 0.578466 0.346006 0.495593
O O11 0.713188 0.462912 0.645907
O O12 0.745247 0.533181 0.860912
O O13 0.584574 0.577220 0.997801
O O14 0.740994 0.761976 0.984202
O O15 0.591515 0.092680 0.410187
O O16 0.410737 0.045061 0.274833
#
# Coordination Sequence:
#
# PCOD9313552 Si02
#       8
#     4   4   4   4   4   4   4   4
#     4  11  19  33  60  90 120 146 194 266 295 336
#     4  11  19  33  60  90 120 146 194 266 295 336
#     4  10  19  34  57  93 116 142 203 250 298 351
#     4  10  19  34  57  93 116 142 203 250 298 351
#     4  12  22  39  63  89 123 162 203 250 306 359
#     4  12  22  39  63  89 123 162 203 250 306 359
#     4  11  22  38  60  90 118 161 201 243 305 370
#     4  11  22  38  60  90 118 161 201 243 305 370
#
# _framework density 23.509066000000001
#
# number of rings (size 3 to 8) (size 9 to 14) (size 15 to 20)
#    0.000    1.000   10.000    0.000    0.000    0.000 
#    0.000   10.000    0.000    0.000    0.000    0.000 
#    0.000    0.000    0.000    0.000    0.000    0.000 
#
# Total GULP energy -178764.510673 kJ/mol
# GULP energy per Si atom -5586.390959 kJ/mol
# Density = 2.345556 g / cm^3
# Si number density = 23.509066 Si / 1000 Ang^3
#
#
#
# Elastic Constant Matrix: (Units=GPa)
#
#
# Indices 1 2 3 4 5 6 
#
# 1 52.7948 2.6859 4.4708 0.0000 0.0000 0.0000
# 2 2.6859 124.9150 2.8327 0.0000 0.0000 0.0000
# 3 4.4708 2.8327 28.4525 0.0000 0.0000 0.0000
# 4 0.0000 0.0000 0.0000 23.1802 0.0000 0.0000
# 5 0.0000 0.0000 0.0000 0.0000 29.5653 0.0000
# 6 0.0000 0.0000 0.0000 0.0000 0.0000 32.0875
#
#
#
# Elastic Compliance Matrix: (Units=1/GPa)
#
#
# Indices 1 2 3 4 5 6 
#
# 1 0.019212 -0.000345 -0.002984 0.000000 0.000000 0.000000
# 2 -0.000345 0.008030 -0.000745 0.000000 0.000000 0.000000
# 3 -0.002984 -0.000745 0.035689 0.000000 0.000000 0.000000
# 4 0.000000 0.000000 0.000000 0.043140 0.000000 0.000000
# 5 0.000000 0.000000 0.000000 0.000000 0.033823 0.000000
# 6 0.000000 0.000000 0.000000 0.000000 0.000000 0.031165
#
#
# Mechanical properties :
#
#
# Convention : Reuss Voigt Hill
#
# Bulk Modulus (GPa) = 18.25455 25.12680 21.69067
# Shear Modulus (GPa) = 25.32039 30.04480 27.68260
#
# Velocity S-wave (km/s) = 3.28540 3.57880 3.43524
# Velocity P-wave (km/s) = 4.70888 5.27147 4.99810
#
# Compressibility (1/GPa) = 0.05478087
#
# Stress axis : x y z
#
# Youngs Moduli (GPa) = 52.05197 124.53657 28.01952
#
# Poissons Ratio (x) = 0.04302 0.08362
# Poissons Ratio (y) = 0.01798 0.02088
# Poissons Ratio (z) = 0.15534 0.09280
#
# Static dielectric constant tensor:
#      x y z
#    x 1.920580 0.000000 0.000000 
#    y 0.000000 1.930750 0.000000 
#    z 0.000000 0.000000 1.950670 
# 
# From -- ./inp_files/5240.got.cif
#   From: 2010.05.17/outbox.cif.g08.bks.cpg/sg19_3_cif.got.tgz:5240.got - 2010.06.03 22:46:19.
