data_PCOD9313382
_publ_section_title
;
Structure prediction by ZEFSAII (Michael W. Deem and Ramdas Pophale) SiO2 
 PCOD9313382
Probable space group: P 21 21 21
;
_chemical_formula_sum "Si O2"
_cell_formula_units_Z 28
_cell_length_a 8.881054
_cell_length_b 7.904897
_cell_length_c 15.411807
_cell_angle_alpha 90.000000
_cell_angle_beta 90.000000
_cell_angle_gamma 90.000000
_cell_volume 1081.967680
_symmetry_space_group_name_H-M "P 21 21 21"
_symmetry_group_IT_number 19
_symmetry_cell_setting 'orthorhombic'
loop_
_space_group_symop_operation_xyz
x,y,z
1/2-x,-y,1/2+z
1/2+x,1/2-y,-z
-x,1/2+y,1/2-z
loop_
_atom_site_type_symbol
_atom_site_label
_atom_site_fract_x
_atom_site_fract_y
_atom_site_fract_z
Si Si1 0.566301 0.231405 0.678503
Si Si2 0.281533 0.052835 0.871506
Si Si3 0.509709 0.052714 0.147665
Si Si4 0.253630 0.377585 0.478970
Si Si5 0.290725 0.383876 0.762346
Si Si6 0.260671 0.021480 0.555355
Si Si7 0.511150 0.903603 0.450423
O O1 0.649766 0.411592 0.690426
O O2 0.616183 0.181557 0.582246
O O3 0.394776 0.279506 0.696650
O O4 0.630684 0.068791 0.730005
O O5 0.299708 0.246682 0.842199
O O6 0.107759 0.998470 0.888336
O O7 0.339803 0.039144 0.971004
O O8 0.610958 0.078344 0.234009
O O9 0.484534 0.229878 0.100068
O O10 0.617023 0.941601 0.084934
O O11 0.340894 0.980947 0.141501
O O12 0.297358 0.213633 0.531627
O O13 0.175492 0.520475 0.537156
O O14 0.410896 0.907737 0.540326
#
# Coordination Sequence:
#
# PCOD9313382 Si02
#       7
#     4   4   4   4   4   4   4
#     4  10  18  29  48  69 101 131 168 200 248 286
#     4   8  18  32  44  70  98 134 160 206 238 304
#     4  10  19  30  49  74 100 133 164 205 253 297
#     4  10  19  30  49  74 100 133 164 205 253 297
#     4  10  18  29  48  69 101 131 168 200 248 286
#     4   9  18  31  47  69 105 128 163 204 253 296
#     4   9  18  31  47  69 105 128 163 204 253 296
#
# _framework density 25.878775000000001
#
# number of rings (size 3 to 8) (size 9 to 14) (size 15 to 20)
#    0.857    1.714    1.429    1.714    4.000    0.000 
#    0.000    0.000    0.000    0.000    0.000   24.000 
#    0.000    0.000    0.000    0.000    0.000    0.000 
#
# Total GULP energy -155885.980135 kJ/mol
# GULP energy per Si atom -5567.356433 kJ/mol
# Density = 2.581987 g / cm^3
# Si number density = 25.878775 Si / 1000 Ang^3
#
#
#
# Elastic Constant Matrix: (Units=GPa)
#
#
# Indices 1 2 3 4 5 6 
#
# 1 86.5409 28.7719 29.8668 0.0000 0.0000 0.0000
# 2 28.7719 96.4121 8.8184 0.0000 0.0000 0.0000
# 3 29.8668 8.8184 44.0759 0.0000 0.0000 0.0000
# 4 0.0000 0.0000 0.0000 21.1300 0.0000 0.0000
# 5 0.0000 0.0000 0.0000 0.0000 47.0630 0.0000
# 6 0.0000 0.0000 0.0000 0.0000 0.0000 17.8913
#
#
#
# Elastic Compliance Matrix: (Units=1/GPa)
#
#
# Indices 1 2 3 4 5 6 
#
# 1 0.016444 -0.003961 -0.010350 0.000000 0.000000 0.000000
# 2 -0.003961 0.011519 0.000379 0.000000 0.000000 0.000000
# 3 -0.010350 0.000379 0.029626 0.000000 0.000000 0.000000
# 4 0.000000 0.000000 0.000000 0.047326 0.000000 0.000000
# 5 0.000000 0.000000 0.000000 0.000000 0.021248 0.000000
# 6 0.000000 0.000000 0.000000 0.000000 0.000000 0.055893
#
#
# Mechanical properties :
#
#
# Convention : Reuss Voigt Hill
#
# Bulk Modulus (GPa) = 33.64118 40.21591 36.92855
# Shear Modulus (GPa) = 22.74492 27.85499 25.29996
#
# Velocity S-wave (km/s) = 2.96785 3.28436 3.13011
# Velocity P-wave (km/s) = 4.97714 5.47326 5.23108
#
# Compressibility (1/GPa) = 0.02972547
#
# Stress axis : x y z
#
# Youngs Moduli (GPa) = 60.81193 86.80985 33.75415
#
# Poissons Ratio (x) = 0.34382 0.34937
# Poissons Ratio (y) = 0.24085 -0.01280
# Poissons Ratio (z) = 0.62943 -0.03291
#
# Static dielectric constant tensor:
#      x y z
#    x 2.128070 0.000000 0.000000 
#    y 0.000000 2.067510 0.000000 
#    z 0.000000 0.000000 2.126010 
# 
# From -- ./inp_files/7200.got.cif
#   From: 2010.05.17/outbox.cif.g08.bks.cpg/sg19_4_cif.got.tgz:7200.got - 2010.06.03 22:46:19.
