data_PCOD9313870
_publ_section_title
;
Structure prediction by ZEFSAII (Michael W. Deem and Ramdas Pophale) SiO2 
 PCOD9313870
Probable space group: P 21 21 21
;
_chemical_formula_sum "Si O2"
_cell_formula_units_Z 24
_cell_length_a 9.720818
_cell_length_b 9.720819
_cell_length_c 13.595308
_cell_angle_alpha 90.000000
_cell_angle_beta 90.000000
_cell_angle_gamma 90.000000
_cell_volume 1284.679280
_symmetry_space_group_name_H-M "P 21 21 21"
_symmetry_group_IT_number 19
_symmetry_cell_setting 'orthorhombic'
loop_
_space_group_symop_operation_xyz
x,y,z
1/2-x,-y,1/2+z
1/2+x,1/2-y,-z
-x,1/2+y,1/2-z
loop_
_atom_site_type_symbol
_atom_site_label
_atom_site_fract_x
_atom_site_fract_y
_atom_site_fract_z
Si Si1 0.288439 0.751713 0.576044
Si Si2 0.276328 0.194442 0.658343
Si Si3 0.715428 0.147964 0.141762
Si Si4 0.944441 0.473672 0.908343
Si Si5 0.397966 0.465428 0.608238
Si Si6 0.501712 0.461562 0.826044
O O1 0.304647 0.732840 0.458725
O O2 0.299816 0.598304 0.619052
O O3 0.411154 0.838848 0.624999
O O4 0.150516 0.837777 0.593641
O O5 0.246758 0.252334 0.767376
O O6 0.150011 0.099990 0.625000
O O7 0.308145 0.328723 0.593453
O O8 0.412223 0.099486 0.656359
O O9 0.848303 0.049814 0.130949
O O10 0.578722 0.058145 0.156547
O O11 0.002333 0.503242 0.017377
O O12 0.482841 0.445352 0.708725
#
# Coordination Sequence:
#
# PCOD9313870 Si02
#       6
#     4   4   4   4   4   4
#     4  10  20  37  61  86 115 154 196 236 290 358
#     4  10  22  38  58  87 116 149 195 245 294 341
#     4  10  20  37  59  83 116 153 193 237 292 355
#     4  10  22  38  58  87 116 149 195 245 294 341
#     4  10  20  37  59  83 116 153 193 237 292 355
#     4  10  20  37  61  86 115 154 196 236 290 358
#
# _framework density 18.681705000000001
#
# number of rings (size 3 to 8) (size 9 to 14) (size 15 to 20)
#    0.000    2.000    0.000    5.000    0.000    5.333 
#    0.000    6.667    0.000    2.000    0.000    0.000 
#    0.000    0.000    0.000    0.000    0.000    0.000 
#
# Total GULP energy -133890.224185 kJ/mol
# GULP energy per Si atom -5578.759341 kJ/mol
# Density = 1.863918 g / cm^3
# Si number density = 18.681705 Si / 1000 Ang^3
#
#
#
# Elastic Constant Matrix: (Units=GPa)
#
#
# Indices 1 2 3 4 5 6 
#
# 1 154.9862 90.9728 34.4469 0.0000 0.0000 0.0000
# 2 90.9728 154.9838 34.4459 0.0000 0.0000 0.0000
# 3 34.4469 34.4459 73.6088 0.0000 0.0000 0.0000
# 4 0.0000 0.0000 0.0000 27.9654 0.0000 0.0000
# 5 0.0000 0.0000 0.0000 0.0000 27.9653 0.0000
# 6 0.0000 0.0000 0.0000 0.0000 0.0000 20.7995
#
#
#
# Elastic Compliance Matrix: (Units=1/GPa)
#
#
# Indices 1 2 3 4 5 6 
#
# 1 0.010150 -0.005471 -0.002190 0.000000 0.000000 0.000000
# 2 -0.005471 0.010151 -0.002190 0.000000 0.000000 0.000000
# 3 -0.002190 -0.002190 0.015635 0.000000 0.000000 0.000000
# 4 0.000000 0.000000 0.000000 0.035758 0.000000 0.000000
# 5 0.000000 0.000000 0.000000 0.000000 0.035759 0.000000
# 6 0.000000 0.000000 0.000000 0.000000 0.000000 0.048078
#
#
# Mechanical properties :
#
#
# Convention : Reuss Voigt Hill
#
# Bulk Modulus (GPa) = 61.59822 78.14559 69.87190
# Shear Modulus (GPa) = 27.67879 30.26026 28.96953
#
# Velocity S-wave (km/s) = 3.85333 4.02902 3.94215
# Velocity P-wave (km/s) = 7.26922 7.97275 7.62910
#
# Compressibility (1/GPa) = 0.01623423
#
# Stress axis : x y z
#
# Youngs Moduli (GPa) = 98.51744 98.51638 63.96040
#
# Poissons Ratio (x) = 0.53903 0.14006
# Poissons Ratio (y) = 0.53904 0.14005
# Poissons Ratio (z) = 0.21573 0.21571
#
# Static dielectric constant tensor:
#      x y z
#    x 1.655150 0.000000 0.000000 
#    y 0.000000 1.655150 0.000000 
#    z 0.000000 0.000000 1.634820 
# 
# From -- ./inp_files/2746.got.cif
#   From: 2010.05.17/outbox.cif.g08.bks.cpg/sg19_2_cif.got.tgz:2746.got - 2010.06.03 22:46:19.
