data_PCOD9313845
_publ_section_title
;
Structure prediction by ZEFSAII (Michael W. Deem and Ramdas Pophale) SiO2 
 PCOD9313845
Probable space group: P 21 21 21
;
_chemical_formula_sum "Si O2"
_cell_formula_units_Z 32
_cell_length_a 8.276993
_cell_length_b 8.455679
_cell_length_c 19.420534
_cell_angle_alpha 90.000000
_cell_angle_beta 90.000000
_cell_angle_gamma 90.000000
_cell_volume 1359.196486
_symmetry_space_group_name_H-M "P 21 21 21"
_symmetry_group_IT_number 19
_symmetry_cell_setting 'orthorhombic'
loop_
_space_group_symop_operation_xyz
x,y,z
1/2-x,-y,1/2+z
1/2+x,1/2-y,-z
-x,1/2+y,1/2-z
loop_
_atom_site_type_symbol
_atom_site_label
_atom_site_fract_x
_atom_site_fract_y
_atom_site_fract_z
Si Si1 0.743971 0.815900 0.528222
Si Si2 0.756848 0.185842 0.269841
Si Si3 0.243152 0.314158 0.230159
Si Si4 0.575879 0.679984 0.144279
Si Si5 0.075879 0.179984 0.855721
Si Si6 0.743970 0.184100 0.528222
Si Si7 0.429408 0.689975 0.601525
Si Si8 0.929407 0.189976 0.398475
O O1 0.895322 0.792356 0.579636
O O2 0.597773 0.732395 0.566917
O O3 0.795033 0.753808 0.453500
O O4 0.703845 1.000000 0.521539
O O5 0.595290 0.194656 0.317607
O O6 0.710943 0.281556 0.202008
O O7 0.895813 0.248015 0.321023
O O8 0.780618 0.000000 0.252037
O O9 0.289056 0.218444 0.297991
O O10 0.404709 0.305345 0.182393
O O11 0.104186 0.251985 0.178977
O O12 0.592398 0.500000 0.120044
O O13 0.604679 0.792356 0.079637
O O14 0.795032 0.246192 0.453500
O O15 0.597772 0.267604 0.566917
O O16 0.415063 0.500000 0.605550
#
# Coordination Sequence:
#
# PCOD9313845 Si02
#       8
#     4   4   4   4   4   4   4   4
#     4  11  23  38  58  84 113 146 185 229 277 331
#     4   9  19  37  59  83 112 146 186 230 275 326
#     4   9  19  37  59  83 112 146 186 230 275 326
#     4  10  20  36  59  85 114 148 185 227 276 329
#     4  10  20  36  59  85 114 148 185 227 276 329
#     4  11  23  38  58  84 113 146 185 229 277 331
#     4  10  22  39  58  81 111 146 184 229 278 328
#     4  10  22  39  58  81 111 146 184 229 278 328
#
# _framework density 23.543322
#
# number of rings (size 3 to 8) (size 9 to 14) (size 15 to 20)
#    0.000    2.000    0.000    3.000    0.000    7.000 
#    0.000    0.000    0.000    0.000    0.000    0.000 
#    0.000    0.000    0.000    0.000    0.000    0.000 
#
# Total GULP energy -178971.916225 kJ/mol
# GULP energy per Si atom -5592.872382 kJ/mol
# Density = 2.348974 g / cm^3
# Si number density = 23.543322 Si / 1000 Ang^3
#
#
#
# Elastic Constant Matrix: (Units=GPa)
#
#
# Indices 1 2 3 4 5 6 
#
# 1 56.5621 -1.4706 -0.2394 0.0000 0.0000 0.0000
# 2 -1.4706 14.6737 5.4068 0.0000 0.0000 0.0000
# 3 -0.2394 5.4068 98.5627 0.0000 0.0000 0.0000
# 4 0.0000 0.0000 0.0000 20.9999 0.0000 0.0000
# 5 0.0000 0.0000 0.0000 0.0000 42.3313 0.0000
# 6 0.0000 0.0000 0.0000 0.0000 0.0000 30.1975
#
#
#
# Elastic Compliance Matrix: (Units=1/GPa)
#
#
# Indices 1 2 3 4 5 6 
#
# 1 0.017726 0.001797 -0.000056 0.000000 0.000000 0.000000
# 2 0.001797 0.069737 -0.003821 0.000000 0.000000 0.000000
# 3 -0.000056 -0.003821 0.010355 0.000000 0.000000 0.000000
# 4 0.000000 0.000000 0.000000 0.047619 0.000000 0.000000
# 5 0.000000 0.000000 0.000000 0.000000 0.023623 0.000000
# 6 0.000000 0.000000 0.000000 0.000000 0.000000 0.033115
#
#
# Mechanical properties :
#
#
# Convention : Reuss Voigt Hill
#
# Bulk Modulus (GPa) = 10.67702 19.68801 15.18251
# Shear Modulus (GPa) = 21.04771 29.77920 25.41345
#
# Velocity S-wave (km/s) = 2.99323 3.56036 3.28904
# Velocity P-wave (km/s) = 4.06088 5.02813 4.57017
#
# Compressibility (1/GPa) = 0.09365912
#
# Stress axis : x y z
#
# Youngs Moduli (GPa) = 56.41374 14.33956 96.56882
#
# Poissons Ratio (x) = -0.02577 0.00536
# Poissons Ratio (y) = -0.10137 0.36901
# Poissons Ratio (z) = 0.00313 0.05479
#
# Static dielectric constant tensor:
#      x y z
#    x 1.976800 0.000000 0.000000 
#    y 0.000000 1.794850 0.000000 
#    z 0.000000 0.000000 1.900730 
# 
# From -- ./inp_files/3106.got.cif
#   From: 2010.05.17/outbox.cif.g08.bks.cpg/sg19_2_cif.got.tgz:3106.got - 2010.06.03 22:46:19.
