data_PCOD9313861
_publ_section_title
;
Structure prediction by ZEFSAII (Michael W. Deem and Ramdas Pophale) SiO2 
 PCOD9313861
Probable space group: P 21 21 21
;
_chemical_formula_sum "Si O2"
_cell_formula_units_Z 32
_cell_length_a 6.094703
_cell_length_b 16.629618
_cell_length_c 13.368890
_cell_angle_alpha 90.000000
_cell_angle_beta 90.000000
_cell_angle_gamma 90.000000
_cell_volume 1354.971530
_symmetry_space_group_name_H-M "P 21 21 21"
_symmetry_group_IT_number 19
_symmetry_cell_setting 'orthorhombic'
loop_
_space_group_symop_operation_xyz
x,y,z
1/2-x,-y,1/2+z
1/2+x,1/2-y,-z
-x,1/2+y,1/2-z
loop_
_atom_site_type_symbol
_atom_site_label
_atom_site_fract_x
_atom_site_fract_y
_atom_site_fract_z
Si Si1 0.274225 0.080741 0.313354
Si Si2 0.670203 0.340287 0.332705
Si Si3 0.150813 0.705509 0.651969
Si Si4 0.616204 0.968191 0.049377
Si Si5 0.415005 0.641162 0.351845
Si Si6 0.648732 0.970920 0.376812
Si Si7 0.033551 0.710279 0.224275
Si Si8 0.031292 0.464610 0.300798
O O1 0.462029 0.125670 0.252432
O O2 0.117545 0.153497 0.345555
O O3 0.122819 0.036989 0.231157
O O4 0.411228 0.014530 0.376830
O O5 0.503880 0.318130 0.245114
O O6 0.545217 0.398031 0.412218
O O7 0.865023 0.392711 0.285598
O O8 0.802350 0.257832 0.350628
O O9 0.155164 0.622612 0.588603
O O10 0.372294 0.735121 0.706251
O O11 0.034831 0.781773 0.599097
O O12 0.557197 0.057753 0.089025
O O13 0.865239 0.957035 0.090304
O O14 0.662071 0.978844 0.932825
O O15 0.176558 0.665156 0.310408
O O16 0.748413 0.966224 0.265368
#
# Coordination Sequence:
#
# PCOD9313861 Si02
#       8
#     4   4   4   4   4   4   4   4
#     4  11  20  40  67  98 132 179 238 280 350 428
#     4  11  20  40  67  98 132 179 238 280 350 428
#     4  10  20  38  61  97 135 177 223 283 346 425
#     4  12  24  40  64 104 139 181 238 289 359 431
#     4  10  20  38  61  97 135 177 223 283 346 425
#     4  12  24  40  64 104 139 181 238 289 359 431
#     4  10  20  36  72  98 128 184 226 284 354 412
#     4  12  20  42  66  94 132 180 222 290 348 424
#
# _framework density 23.616731999999999
#
# number of rings (size 3 to 8) (size 9 to 14) (size 15 to 20)
#    0.000    1.000    7.500    0.000    0.000    1.000 
#    2.250    0.000    0.000    0.000  146.250    0.000 
#    0.000    0.000    0.000    0.000    0.000    0.000 
#
# Total GULP energy -178242.216643 kJ/mol
# GULP energy per Si atom -5570.069270 kJ/mol
# Density = 2.356298 g / cm^3
# Si number density = 23.616732 Si / 1000 Ang^3
#
#
#
# Elastic Constant Matrix: (Units=GPa)
#
#
# Indices 1 2 3 4 5 6 
#
# 1 114.8844 57.7560 7.4000 0.0000 0.0000 0.0000
# 2 57.7560 87.3951 4.6038 0.0000 0.0000 0.0000
# 3 7.4000 4.6038 28.1799 0.0000 0.0000 0.0000
# 4 0.0000 0.0000 0.0000 11.1127 0.0000 0.0000
# 5 0.0000 0.0000 0.0000 0.0000 14.7224 0.0000
# 6 0.0000 0.0000 0.0000 0.0000 0.0000 82.7355
#
#
#
# Elastic Compliance Matrix: (Units=1/GPa)
#
#
# Indices 1 2 3 4 5 6 
#
# 1 0.013152 -0.008583 -0.002051 0.000000 0.000000 0.000000
# 2 -0.008583 0.017143 -0.000547 0.000000 0.000000 0.000000
# 3 -0.002051 -0.000547 0.036114 0.000000 0.000000 0.000000
# 4 0.000000 0.000000 0.000000 0.089987 0.000000 0.000000
# 5 0.000000 0.000000 0.000000 0.000000 0.067924 0.000000
# 6 0.000000 0.000000 0.000000 0.000000 0.000000 0.012087
#
#
# Mechanical properties :
#
#
# Convention : Reuss Voigt Hill
#
# Bulk Modulus (GPa) = 22.70330 41.10877 31.90603
# Shear Modulus (GPa) = 18.28477 32.42744 25.35611
#
# Velocity S-wave (km/s) = 2.78552 3.70952 3.28021
# Velocity P-wave (km/s) = 4.46985 5.98262 5.28069
#
# Compressibility (1/GPa) = 0.04404647
#
# Stress axis : x y z
#
# Youngs Moduli (GPa) = 76.03613 58.33125 27.68991
#
# Poissons Ratio (x) = 0.50068 0.05680
# Poissons Ratio (y) = 0.65264 0.01514
# Poissons Ratio (z) = 0.15597 0.03190
#
# Static dielectric constant tensor:
#      x y z
#    x 1.913160 0.000000 0.000000 
#    y 0.000000 2.081570 0.000000 
#    z 0.000000 0.000000 1.923890 
# 
# From -- ./inp_files/5746.got.cif
#   From: 2010.05.17/outbox.cif.g08.bks.cpg/sg19_3_cif.got.tgz:5746.got - 2010.06.03 22:46:19.
