data_PCOD9313276
_publ_section_title
;
Structure prediction by ZEFSAII (Michael W. Deem and Ramdas Pophale) SiO2 
 PCOD9313276
Probable space group: P 21 21 2
;
_chemical_formula_sum "Si O2"
_cell_formula_units_Z 32
_cell_length_a 9.000000
_cell_length_b 15.000000
_cell_length_c 12.000000
_cell_angle_alpha 90.000000
_cell_angle_beta 90.000000
_cell_angle_gamma 90.000000
_cell_volume 1620.000000
_symmetry_space_group_name_H-M "P 21 21 2"
_symmetry_group_IT_number 18
_symmetry_cell_setting 'orthorhombic'
loop_
_space_group_symop_operation_xyz
x,y,z
-x,-y,z
1/2+x,1/2-y,-z
1/2-x,1/2+y,-z
loop_
_atom_site_type_symbol
_atom_site_label
_atom_site_fract_x
_atom_site_fract_y
_atom_site_fract_z
Si Si1 0.321003 0.006067 0.673787
Si Si2 0.606055 0.585139 0.773470
Si Si3 0.805148 0.661481 0.192390
Si Si4 0.798421 0.682820 0.939823
Si Si5 0.304186 0.657880 0.726814
Si Si6 0.341592 0.140602 0.845569
Si Si7 0.403691 0.086355 0.079901
Si Si8 0.323393 0.504623 0.561170
O O1 0.258040 0.930574 0.754854
O O2 0.265140 0.991758 0.550256
O O3 0.500000 0.000000 0.674617
O O4 0.278628 0.097850 0.733443
O O5 0.500000 0.500000 0.790989
O O6 0.709624 0.606150 0.875442
O O7 0.480661 0.658742 0.752381
O O8 0.698870 0.565904 0.661564
O O9 0.756848 0.740528 0.273763
O O10 0.984091 0.656615 0.177720
O O11 0.752088 0.681936 0.068237
O O12 0.746990 0.773043 0.882468
O O13 0.973210 0.664711 0.928527
O O14 0.217614 0.610360 0.828327
O O15 0.284536 0.599487 0.617063
O O16 0.338950 0.076575 0.954977
O O17 0.500000 0.000000 0.109303
O O18 0.500000 0.500000 0.538515
#
# Coordination Sequence:
#
# PCOD9313276 Si02
#       8
#     4   4   4   4   4   4   4   4
#     4  10  22  41  61  80 116 162 198 241 292 348
#     4   9  19  36  62  82 110 155 191 237 295 342
#     4  10  20  38  59  86 120 156 191 235 298 352
#     4  11  20  35  60  91 120 148 194 240 283 362
#     4  10  19  37  61  81 120 152 187 242 292 349
#     4  10  20  37  59  85 121 155 193 234 295 356
#     4  11  21  35  58  91 123 151 191 240 292 352
#     4   9  21  41  58  82 111 151 200 246 292 341
#
# _framework density 19.753086
#
# number of rings (size 3 to 8) (size 9 to 14) (size 15 to 20)
#    0.000    2.250    2.500    3.375    0.000    1.500 
#    4.500    0.625    0.000    0.000    0.000    0.000 
#    0.000    0.000    0.000    0.000    0.000    0.000 
#
# Total GULP energy -178279.245839 kJ/mol
# GULP energy per Si atom -5571.226432 kJ/mol
# Density = 1.970813 g / cm^3
# Si number density = 19.753086 Si / 1000 Ang^3
#
#
#
# Elastic Constant Matrix: (Units=GPa)
#
#
# Indices 1 2 3 4 5 6 
#
# 1 21.9421 14.4290 37.9308 0.0000 0.0000 0.0000
# 2 14.4290 62.5385 66.2091 0.0000 0.0000 0.0000
# 3 37.9308 66.2091 76.4391 0.0000 0.0000 0.0000
# 4 0.0000 0.0000 0.0000-2352.9083 0.0000 0.0000
# 5 0.0000 0.0000 0.0000 0.0000 28.7557 0.0000
# 6 0.0000 0.0000 0.0000 0.0000 0.0000 16.3766
#
#
#
# Elastic Compliance Matrix: (Units=1/GPa)
#
#
# Indices 1 2 3 4 5 6 
#
# 1 -0.016054 -0.056991 0.057331 0.000000 0.000000 0.000000
# 2 -0.056991 -0.009650 0.036639 0.000000 0.000000 0.000000
# 3 0.057331 0.036639 -0.047102 0.000000 0.000000 0.000000
# 4 0.000000 0.000000 0.000000 -0.000425 0.000000 0.000000
# 5 0.000000 0.000000 0.000000 0.000000 0.034776 0.000000
# 6 0.000000 0.000000 0.000000 0.000000 0.000000 0.061063
#
#
# Mechanical properties :
#
#
# Convention : Reuss Voigt Hill
#
# Bulk Modulus (GPa) = 869.52013 44.22862 456.87438
# Shear Modulus (GPa) = -98.10253 -458.73183 -278.41718
#
# Velocity S-wave (km/s) = -7.05494 -15.25572 -11.88506
# Velocity P-wave (km/s) = 19.35942 16.96693 6.59206
#
# Compressibility (1/GPa) = 0.00115006
#
# Stress axis : x y z
#
# Youngs Moduli (GPa) = -62.28828 -103.62290 -21.23042
#
# Poissons Ratio (x) = -5.90562 1.21715
# Poissons Ratio (y) = -3.54990 0.77787
# Poissons Ratio (z) = 3.57103 3.79667
#
# Static dielectric constant tensor:
#      x y z
#    x 1.694410 0.000000 0.000000 
#    y 0.000000 1.815010 0.000000 
#    z 0.000000 0.000000 1.661050 
# 
# From -- ./inp_files/5671.got.cif
#   From: 2010.05.17/outbox.ucp.g08.bks.cvg/sg18_3_cif.got.tgz:5671.got - 2010.06.11 13:13:23.
