data_PCOD9313795
_publ_section_title
;
Structure prediction by ZEFSAII (Michael W. Deem and Ramdas Pophale) SiO2 
 PCOD9313795
Probable space group: P 21 21 21
;
_chemical_formula_sum "Si O2"
_cell_formula_units_Z 32
_cell_length_a 8.992205
_cell_length_b 19.492173
_cell_length_c 8.446911
_cell_angle_alpha 90.000000
_cell_angle_beta 90.000000
_cell_angle_gamma 90.000000
_cell_volume 1480.554419
_symmetry_space_group_name_H-M "P 21 21 21"
_symmetry_group_IT_number 19
_symmetry_cell_setting 'orthorhombic'
loop_
_space_group_symop_operation_xyz
x,y,z
1/2-x,-y,1/2+z
1/2+x,1/2-y,-z
-x,1/2+y,1/2-z
loop_
_atom_site_type_symbol
_atom_site_label
_atom_site_fract_x
_atom_site_fract_y
_atom_site_fract_z
Si Si1 0.822368 0.521854 0.263537
Si Si2 0.676997 0.402323 0.086336
Si Si3 0.825047 0.786358 0.245705
Si Si4 0.323745 0.346509 0.565810
Si Si5 0.822382 0.021854 0.236479
Si Si6 0.323725 0.846509 0.934175
Si Si7 0.825058 0.286358 0.254308
Si Si8 0.177003 0.597676 0.586320
O O1 0.735886 0.452813 0.223857
O O2 0.776879 0.560672 0.423821
O O3 0.795026 0.577032 0.124367
O O4 0.999993 0.508326 0.271236
O O5 0.740775 0.326858 0.117127
O O6 0.499997 0.398753 0.088799
O O7 0.795110 0.706358 0.210946
O O8 0.740777 0.826858 0.382897
O O9 0.999995 0.794974 0.268770
O O10 0.773010 0.822321 0.081749
O O11 0.295046 0.422968 0.624350
O O12 0.500012 0.339758 0.526256
O O13 0.295122 0.293641 0.710929
O O14 0.735903 0.952812 0.276164
O O15 0.776883 0.060672 0.076198
O O16 0.226963 0.822321 0.081729
#
# Coordination Sequence:
#
# PCOD9313795 Si02
#       8
#     4   4   4   4   4   4   4   4
#     4  10  22  39  57  79 108 142 182 226 272 323
#     4  11  23  37  55  80 109 142 181 225 271 321
#     4  10  20  35  57  84 112 144 181 220 267 323
#     4   9  19  37  59  82 111 145 180 222 270 320
#     4  10  22  39  57  79 108 142 182 226 272 323
#     4   9  19  37  59  82 111 145 180 222 270 320
#     4  10  20  35  57  84 112 144 181 220 267 323
#     4  11  23  37  55  80 109 142 181 225 271 321
#
# _framework density 21.613527999999999
#
# number of rings (size 3 to 8) (size 9 to 14) (size 15 to 20)
#    0.000    2.000    0.000    3.000    0.000    9.000 
#    0.000    0.000    0.000    0.000    0.000    0.000 
#    0.000    0.000    0.000    0.000    0.000    0.000 
#
# Total GULP energy -178905.475135 kJ/mol
# GULP energy per Si atom -5590.796098 kJ/mol
# Density = 2.156433 g / cm^3
# Si number density = 21.613528 Si / 1000 Ang^3
#
#
#
# Elastic Constant Matrix: (Units=GPa)
#
#
# Indices 1 2 3 4 5 6 
#
# 1 19.2931 14.3053 -3.8265 0.0000 0.0000 0.0000
# 2 14.3053 68.7367 -15.6301 0.0000 0.0000 0.0000
# 3 -3.8265 -15.6301 42.6330 0.0000 0.0000 0.0000
# 4 0.0000 0.0000 0.0000 31.5643 0.0000 0.0000
# 5 0.0000 0.0000 0.0000 0.0000 23.3078 0.0000
# 6 0.0000 0.0000 0.0000 0.0000 0.0000 20.2275
#
#
#
# Elastic Compliance Matrix: (Units=1/GPa)
#
#
# Indices 1 2 3 4 5 6 
#
# 1 0.061321 -0.012557 0.000900 0.000000 0.000000 0.000000
# 2 -0.012557 0.018443 0.005634 0.000000 0.000000 0.000000
# 3 0.000900 0.005634 0.025602 0.000000 0.000000 0.000000
# 4 0.000000 0.000000 0.000000 0.031681 0.000000 0.000000
# 5 0.000000 0.000000 0.000000 0.000000 0.042904 0.000000
# 6 0.000000 0.000000 0.000000 0.000000 0.000000 0.049438
#
#
# Mechanical properties :
#
#
# Convention : Reuss Voigt Hill
#
# Bulk Modulus (GPa) = 10.71568 13.37335 12.04452
# Shear Modulus (GPa) = 18.34577 24.07420 21.20999
#
# Velocity S-wave (km/s) = 2.91659 3.34106 3.13602
# Velocity P-wave (km/s) = 4.03864 4.59178 4.32407
#
# Compressibility (1/GPa) = 0.09332120
#
# Stress axis : x y z
#
# Youngs Moduli (GPa) = 16.30753 54.22153 39.05872
#
# Poissons Ratio (x) = 0.68088 -0.03516
# Poissons Ratio (y) = 0.20478 -0.22007
# Poissons Ratio (z) = -0.01468 -0.30551
#
# Static dielectric constant tensor:
#      x y z
#    x 1.715710 0.000000 0.000000 
#    y 0.000000 1.774240 0.000000 
#    z 0.000000 0.000000 1.826630 
# 
# From -- ./inp_files/3176.got.cif
#   From: 2010.05.17/outbox.cif.g08.bks.cpg/sg19_2_cif.got.tgz:3176.got - 2010.06.03 22:46:19.
