data_PCOD9313700
_publ_section_title
;
Structure prediction by ZEFSAII (Michael W. Deem and Ramdas Pophale) SiO2 
 PCOD9313700
Probable space group: P 21 21 21
;
_chemical_formula_sum "Si O2"
_cell_formula_units_Z 32
_cell_length_a 8.877947
_cell_length_b 9.316723
_cell_length_c 14.905005
_cell_angle_alpha 90.000000
_cell_angle_beta 90.000000
_cell_angle_gamma 90.000000
_cell_volume 1232.843238
_symmetry_space_group_name_H-M "P 21 21 21"
_symmetry_group_IT_number 19
_symmetry_cell_setting 'orthorhombic'
loop_
_space_group_symop_operation_xyz
x,y,z
1/2-x,-y,1/2+z
1/2+x,1/2-y,-z
-x,1/2+y,1/2-z
loop_
_atom_site_type_symbol
_atom_site_label
_atom_site_fract_x
_atom_site_fract_y
_atom_site_fract_z
Si Si1 0.453850 0.721217 0.236364
Si Si2 0.031869 0.064598 0.414980
Si Si3 0.917082 0.569568 0.450813
Si Si4 0.748646 0.950665 0.460870
Si Si5 0.278159 0.786032 0.056561
Si Si6 0.733538 0.342534 0.120500
Si Si7 0.945359 0.114385 0.219026
Si Si8 0.308288 0.415609 0.246776
O O1 0.345832 0.772063 0.156341
O O2 0.416286 0.817400 0.323275
O O3 0.416677 0.556567 0.259521
O O4 0.620960 0.772767 0.212476
O O5 0.087178 0.168075 0.491677
O O6 0.933420 0.935264 0.460961
O O7 0.964026 0.135304 0.324840
O O8 0.182002 0.991254 0.374566
O O9 0.847824 0.409108 0.455339
O O10 0.812598 0.668509 0.515627
O O11 0.092480 0.579016 0.484572
O O12 0.912334 0.608109 0.345846
O O13 0.763264 0.124701 0.469252
O O14 0.715982 0.905961 0.359217
O O15 0.842561 0.233611 0.172100
O O16 0.851090 0.965343 0.212188
#
# Coordination Sequence:
#
# PCOD9313700 Si02
#       8
#     4   4   4   4   4   4   4   4
#     4  10  19  40  62  91 129 165 207 269 322 387
#     4  10  22  40  62  92 122 164 217 262 321 395
#     4  11  22  40  62  93 127 170 216 261 330 389
#     4  10  20  38  61  89 126 159 210 272 320 379
#     4  10  22  37  63  92 125 164 210 270 329 382
#     4  10  22  42  65  89 131 168 218 270 325 390
#     4  10  23  41  64  89 128 173 211 267 325 392
#     4   9  20  38  61  91 124 165 211 259 324 382
#
# _framework density 25.956261000000001
#
# number of rings (size 3 to 8) (size 9 to 14) (size 15 to 20)
#    0.000    2.000    1.250    2.250    1.750    2.000 
#    6.750    6.250    0.000    0.000    0.000    0.000 
#    0.000    0.000    0.000    0.000    0.000    0.000 
#
# Total GULP energy -178564.075513 kJ/mol
# GULP energy per Si atom -5580.127360 kJ/mol
# Density = 2.589718 g / cm^3
# Si number density = 25.956261 Si / 1000 Ang^3
#
#
#
# Elastic Constant Matrix: (Units=GPa)
#
#
# Indices 1 2 3 4 5 6 
#
# 1 53.1993 21.0080 34.5213 0.0000 0.0000 0.0000
# 2 21.0080 28.5432 14.9027 0.0000 0.0000 0.0000
# 3 34.5213 14.9027 92.7308 0.0000 0.0000 0.0000
# 4 0.0000 0.0000 0.0000 26.6642 0.0000 0.0000
# 5 0.0000 0.0000 0.0000 0.0000 41.6273 0.0000
# 6 0.0000 0.0000 0.0000 0.0000 0.0000 53.5349
#
#
#
# Elastic Compliance Matrix: (Units=1/GPa)
#
#
# Indices 1 2 3 4 5 6 
#
# 1 0.032044 -0.018946 -0.008884 0.000000 0.000000 0.000000
# 2 -0.018946 0.049445 -0.000893 0.000000 0.000000 0.000000
# 3 -0.008884 -0.000893 0.014235 0.000000 0.000000 0.000000
# 4 0.000000 0.000000 0.000000 0.037503 0.000000 0.000000
# 5 0.000000 0.000000 0.000000 0.000000 0.024023 0.000000
# 6 0.000000 0.000000 0.000000 0.000000 0.000000 0.018679
#
#
# Mechanical properties :
#
#
# Convention : Reuss Voigt Hill
#
# Bulk Modulus (GPa) = 26.12526 35.03745 30.58136
# Shear Modulus (GPa) = 20.31400 31.30138 25.80769
#
# Velocity S-wave (km/s) = 2.80058 3.47641 3.15664
# Velocity P-wave (km/s) = 4.53262 5.44444 5.00932
#
# Compressibility (1/GPa) = 0.03827713
#
# Stress axis : x y z
#
# Youngs Moduli (GPa) = 31.20719 20.22435 70.25001
#
# Poissons Ratio (x) = 0.38317 0.62412
# Poissons Ratio (y) = 0.59125 0.06275
# Poissons Ratio (z) = 0.27726 0.01807
#
# Static dielectric constant tensor:
#      x y z
#    x 2.244200 0.000000 0.000000 
#    y 0.000000 2.079190 0.000000 
#    z 0.000000 0.000000 2.003030 
# 
# From -- ./inp_files/5927.got.cif
#   From: 2010.05.17/outbox.cif.g08.bks.cpg/sg19_3_cif.got.tgz:5927.got - 2010.06.03 22:46:19.
