data_PCOD9313366
_publ_section_title
;
Structure prediction by ZEFSAII (Michael W. Deem and Ramdas Pophale) SiO2 
 PCOD9313366
Probable space group: P 21 21 21
;
_chemical_formula_sum "Si O2"
_cell_formula_units_Z 32
_cell_length_a 8.183962
_cell_length_b 12.794235
_cell_length_c 12.045626
_cell_angle_alpha 90.000000
_cell_angle_beta 90.000000
_cell_angle_gamma 90.000000
_cell_volume 1261.267783
_symmetry_space_group_name_H-M "P 21 21 21"
_symmetry_group_IT_number 19
_symmetry_cell_setting 'orthorhombic'
loop_
_space_group_symop_operation_xyz
x,y,z
1/2-x,-y,1/2+z
1/2+x,1/2-y,-z
-x,1/2+y,1/2-z
loop_
_atom_site_type_symbol
_atom_site_label
_atom_site_fract_x
_atom_site_fract_y
_atom_site_fract_z
Si Si1 0.076852 0.338200 0.433819
Si Si2 0.528348 0.413170 0.197041
Si Si3 0.732453 0.433044 0.421677
Si Si4 0.165539 0.319395 0.209186
Si Si5 0.479898 0.502801 0.588368
Si Si6 0.901324 0.646803 0.465492
Si Si7 0.337534 0.618246 0.160181
Si Si8 0.247636 0.570873 0.404289
O O1 0.129038 0.270088 0.328669
O O2 0.115693 0.304398 0.559994
O O3 0.173323 0.450221 0.407119
O O4 0.884562 0.355920 0.427713
O O5 0.620414 0.414792 0.313708
O O6 0.348854 0.363829 0.212108
O O7 0.478927 0.528840 0.152647
O O8 0.625749 0.356858 0.097770
O O9 0.633484 0.444728 0.537206
O O10 0.815434 0.546954 0.411123
O O11 0.028973 0.410211 0.185135
O O12 0.155742 0.242132 0.107111
O O13 0.339778 0.423053 0.623898
O O14 0.402766 0.563641 0.483314
O O15 0.095899 0.635173 0.450662
O O16 0.309881 0.624581 0.291387
#
# Coordination Sequence:
#
# PCOD9313366 Si02
#       8
#     4   4   4   4   4   4   4   4
#     4  10  20  35  57  88 122 163 207 261 305 380
#     4  11  20  39  61  90 128 167 208 262 319 391
#     4  11  23  34  57  96 125 162 219 257 308 381
#     4  11  23  40  63  91 133 166 203 264 347 384
#     4  10  19  32  60  87 119 161 194 248 320 370
#     4  11  25  38  62  98 131 157 216 278 324 375
#     4  10  17  36  63  81 112 163 213 246 298 377
#     4  10  17  38  59  87 114 165 210 248 301 386
#
# _framework density 25.371297999999999
#
# number of rings (size 3 to 8) (size 9 to 14) (size 15 to 20)
#    0.000    1.500    8.750    0.750    3.500    0.000 
#    0.000    0.000    2.750    0.000    0.000    0.000 
#    0.000    0.000    0.000    0.000    0.000    0.000 
#
# Total GULP energy -178858.788763 kJ/mol
# GULP energy per Si atom -5589.337149 kJ/mol
# Density = 2.531355 g / cm^3
# Si number density = 25.371298 Si / 1000 Ang^3
#
#
#
# Elastic Constant Matrix: (Units=GPa)
#
#
# Indices 1 2 3 4 5 6 
#
# 1 74.1108 28.2846 37.1587 0.0000 0.0000 0.0000
# 2 28.2846 44.7857 40.0222 0.0000 0.0000 0.0000
# 3 37.1587 40.0222 154.9724 0.0000 0.0000 0.0000
# 4 0.0000 0.0000 0.0000 27.1861 0.0000 0.0000
# 5 0.0000 0.0000 0.0000 0.0000 55.1751 0.0000
# 6 0.0000 0.0000 0.0000 0.0000 0.0000 14.9002
#
#
#
# Elastic Compliance Matrix: (Units=1/GPa)
#
#
# Indices 1 2 3 4 5 6 
#
# 1 0.018161 -0.009852 -0.001810 0.000000 0.000000 0.000000
# 2 -0.009852 0.034372 -0.006514 0.000000 0.000000 0.000000
# 3 -0.001810 -0.006514 0.008569 0.000000 0.000000 0.000000
# 4 0.000000 0.000000 0.000000 0.036784 0.000000 0.000000
# 5 0.000000 0.000000 0.000000 0.000000 0.018124 0.000000
# 6 0.000000 0.000000 0.000000 0.000000 0.000000 0.067113
#
#
# Mechanical properties :
#
#
# Convention : Reuss Voigt Hill
#
# Bulk Modulus (GPa) = 40.40566 53.86665 47.13615
# Shear Modulus (GPa) = 21.95619 30.67918 26.31768
#
# Velocity S-wave (km/s) = 2.94495 3.48114 3.22421
# Velocity P-wave (km/s) = 5.24633 6.11843 5.69909
#
# Compressibility (1/GPa) = 0.02474901
#
# Stress axis : x y z
#
# Youngs Moduli (GPa) = 55.06301 29.09327 116.69689
#
# Poissons Ratio (x) = 0.28663 0.21125
# Poissons Ratio (y) = 0.54248 0.76022
# Poissons Ratio (z) = 0.09968 0.18953
#
# Static dielectric constant tensor:
#      x y z
#    x 1.931720 0.000000 0.000000 
#    y 0.000000 2.128820 0.000000 
#    z 0.000000 0.000000 2.058510 
# 
# From -- ./inp_files/4804.got.cif
#   From: 2010.05.17/outbox.cif.g08.bks.cpg/sg19_3_cif.got.tgz:4804.got - 2010.06.03 22:46:19.
