data_PCOD9313103
_publ_section_title
;
Structure prediction by ZEFSAII (Michael W. Deem and Ramdas Pophale) SiO2 
 PCOD9313103
Probable space group: P 21 21 2
;
_chemical_formula_sum "Si O2"
_cell_formula_units_Z 18
_cell_length_a 7.933460
_cell_length_b 5.239129
_cell_length_c 21.093696
_cell_angle_alpha 90.000000
_cell_angle_beta 90.000000
_cell_angle_gamma 90.000000
_cell_volume 876.747247
_symmetry_space_group_name_H-M "P 21 21 2"
_symmetry_group_IT_number 18
_symmetry_cell_setting 'orthorhombic'
loop_
_space_group_symop_operation_xyz
x,y,z
-x,-y,z
1/2+x,1/2-y,-z
1/2-x,1/2+y,-z
loop_
_atom_site_type_symbol
_atom_site_label
_atom_site_fract_x
_atom_site_fract_y
_atom_site_fract_z
Si Si1 0.687597 0.882763 0.031718
Si Si2 0.657413 0.305312 0.584177
Si Si3 0.606933 0.236726 0.725882
Si Si4 0.884555 0.251982 0.831440
Si Si5 0.000000 0.500000 0.530987
O O1 0.719960 0.788694 0.103496
O O2 0.500000 0.000000 0.028921
O O3 0.702205 0.626586 0.989620
O O4 0.500000 0.500000 0.589560
O O5 0.653558 0.172365 0.652662
O O6 0.850462 0.389326 0.573901
O O7 0.607215 0.167428 0.518938
O O8 0.500000 0.500000 0.728264
O O9 0.768873 0.251593 0.769847
O O10 0.500000 0.000000 0.750705
O O11 0.000000 0.500000 0.827066
O O12 0.000000 0.000000 0.836329
#
# Coordination Sequence:
#
# PCOD9313103 Si02
#       5
#     4   4   4   4   2
#     4  11  23  41  66  98 135 172 218 273 325 390
#     4  11  24  41  65  97 133 168 229 277 342 404
#     4  11  25  45  67  95 133 172 222 276 324 398
#     4  11  24  45  66  96 134 175 221 269 327 397
#     4  12  22  42  66  94 130 178 210 292 342 402
#
# _framework density 20.530432999999999
#
# number of rings (size 3 to 8) (size 9 to 14) (size 15 to 20)
#    0.000    0.889    3.333    4.667    1.556    2.667 
#    4.000    0.000    0.000    0.000    0.000    0.000 
#    0.000    0.000    0.000    0.000    0.000    0.000 
#
# Total GULP energy -100385.990468 kJ/mol
# GULP energy per Si atom -5576.999470 kJ/mol
# Density = 2.048370 g / cm^3
# Si number density = 20.530433 Si / 1000 Ang^3
#
#
#
# Elastic Constant Matrix: (Units=GPa)
#
#
# Indices 1 2 3 4 5 6 
#
# 1 103.5373 31.5835 37.3127 0.0000 0.0000 0.0000
# 2 31.5835 114.6044 29.5876 0.0000 0.0000 0.0000
# 3 37.3127 29.5876 110.2920 0.0000 0.0000 0.0000
# 4 0.0000 0.0000 0.0000 11.7536 0.0000 0.0000
# 5 0.0000 0.0000 0.0000 0.0000 47.8716 0.0000
# 6 0.0000 0.0000 0.0000 0.0000 0.0000 44.0251
#
#
#
# Elastic Compliance Matrix: (Units=1/GPa)
#
#
# Indices 1 2 3 4 5 6 
#
# 1 0.011554 -0.002337 -0.003282 0.000000 0.000000 0.000000
# 2 -0.002337 0.009848 -0.001851 0.000000 0.000000 0.000000
# 3 -0.003282 -0.001851 0.010674 0.000000 0.000000 0.000000
# 4 0.000000 0.000000 0.000000 0.085080 0.000000 0.000000
# 5 0.000000 0.000000 0.000000 0.000000 0.020889 0.000000
# 6 0.000000 0.000000 0.000000 0.000000 0.000000 0.022714
#
#
# Mechanical properties :
#
#
# Convention : Reuss Voigt Hill
#
# Bulk Modulus (GPa) = 58.35868 58.37792 58.36830
# Shear Modulus (GPa) = 27.56179 36.06004 31.81092
#
# Velocity S-wave (km/s) = 3.66797 4.19551 3.94058
# Velocity P-wave (km/s) = 6.81365 7.20877 7.01399
#
# Compressibility (1/GPa) = 0.01713541
#
# Stress axis : x y z
#
# Youngs Moduli (GPa) = 86.55070 101.54764 93.68779
#
# Poissons Ratio (x) = 0.23730 0.30747
# Poissons Ratio (y) = 0.20225 0.17344
# Poissons Ratio (z) = 0.28405 0.18799
#
# Static dielectric constant tensor:
#      x y z
#    x 1.817970 0.000000 0.000000 
#    y 0.000000 1.795800 0.000000 
#    z 0.000000 0.000000 1.727900 
# 
# From -- ./inp_files/7254.got.cif
#   From: 2010.05.17/outbox.cif.g08.bks.cpg/sg18_4_cif.got.tgz:7254.got - 2010.06.03 22:40:56.
