data_PCOD9313102
_publ_section_title
;
Structure prediction by ZEFSAII (Michael W. Deem and Ramdas Pophale) SiO2 
 PCOD9313102
Probable space group: P 21 21 2
;
_chemical_formula_sum "Si O2"
_cell_formula_units_Z 16
_cell_length_a 7.765758
_cell_length_b 15.630132
_cell_length_c 4.766423
_cell_angle_alpha 90.000000
_cell_angle_beta 90.000000
_cell_angle_gamma 90.000000
_cell_volume 578.547578
_symmetry_space_group_name_H-M "P 21 21 2"
_symmetry_group_IT_number 18
_symmetry_cell_setting 'orthorhombic'
loop_
_space_group_symop_operation_xyz
x,y,z
-x,-y,z
1/2+x,1/2-y,-z
1/2-x,1/2+y,-z
loop_
_atom_site_type_symbol
_atom_site_label
_atom_site_fract_x
_atom_site_fract_y
_atom_site_fract_z
Si Si1 0.080610 0.837229 0.818158
Si Si2 0.586880 0.265112 0.676461
Si Si3 0.186499 0.975161 0.379137
Si Si4 0.025744 0.589177 0.495922
O O1 0.923076 0.801270 0.635751
O O2 0.228541 0.766577 0.773217
O O3 0.139094 0.926630 0.676690
O O4 0.020790 0.830529 0.134790
O O5 0.483891 0.175044 0.672051
O O6 0.355225 0.915313 0.300197
O O7 0.290835 0.065689 0.373876
O O8 0.000000 0.000000 0.258977
O O9 0.000000 0.500000 0.322393
#
# Coordination Sequence:
#
# PCOD9313102 Si02
#       4
#     4   4   4   4
#     4  11  24  40  64  93 122 163 205 251 310 365
#     4  11  23  41  63  91 125 161 204 255 307 364
#     4   8  17  35  60  85 118 158 204 247 301 362
#     4   7  18  36  56  86 121 156 200 251 304 357
#
# _framework density 27.655457999999999
#
# number of rings (size 3 to 8) (size 9 to 14) (size 15 to 20)
#    1.500    1.000    0.000    1.500    7.000    0.000 
#    0.000    5.000    0.000    0.000    0.000    0.000 
#    0.000    0.000    0.000    0.000    0.000    0.000 
#
# Total GULP energy -89100.589261 kJ/mol
# GULP energy per Si atom -5568.786829 kJ/mol
# Density = 2.759251 g / cm^3
# Si number density = 27.655458 Si / 1000 Ang^3
#
#
#
# Elastic Constant Matrix: (Units=GPa)
#
#
# Indices 1 2 3 4 5 6 
#
# 1 237.6626 33.1952 17.4543 0.0000 0.0000 0.0000
# 2 33.1952 106.2124 15.1614 0.0000 0.0000 0.0000
# 3 17.4543 15.1614 45.1738 0.0000 0.0000 0.0000
# 4 0.0000 0.0000 0.0000 32.8859 0.0000 0.0000
# 5 0.0000 0.0000 0.0000 0.0000 27.5298 0.0000
# 6 0.0000 0.0000 0.0000 0.0000 0.0000 55.6920
#
#
#
# Elastic Compliance Matrix: (Units=1/GPa)
#
#
# Indices 1 2 3 4 5 6 
#
# 1 0.004474 -0.001209 -0.001323 0.000000 0.000000 0.000000
# 2 -0.001209 0.010216 -0.002961 0.000000 0.000000 0.000000
# 3 -0.001323 -0.002961 0.023642 0.000000 0.000000 0.000000
# 4 0.000000 0.000000 0.000000 0.030408 0.000000 0.000000
# 5 0.000000 0.000000 0.000000 0.000000 0.036324 0.000000
# 6 0.000000 0.000000 0.000000 0.000000 0.000000 0.017956
#
#
# Mechanical properties :
#
#
# Convention : Reuss Voigt Hill
#
# Bulk Modulus (GPa) = 36.57067 57.85230 47.21148
# Shear Modulus (GPa) = 34.93542 44.77073 39.85307
#
# Velocity S-wave (km/s) = 3.55806 4.02789 3.80024
# Velocity P-wave (km/s) = 5.48927 6.52658 6.03027
#
# Compressibility (1/GPa) = 0.02734432
#
# Stress axis : x y z
#
# Youngs Moduli (GPa) = 223.52851 97.88756 42.29819
#
# Poissons Ratio (x) = 0.11838 0.05595
# Poissons Ratio (y) = 0.27033 0.12526
# Poissons Ratio (z) = 0.29565 0.28988
#
# Static dielectric constant tensor:
#      x y z
#    x 2.288740 0.000000 0.000000 
#    y 0.000000 2.191990 0.000000 
#    z 0.000000 0.000000 2.098170 
# 
# From -- ./inp_files/459.got.cif
#   From: 2010.05.17/outbox.cif.g08.bks.cpg/sg18_1_cif.got.tgz:459.got - 2010.06.03 22:40:56.
