data_PCOD9313451
_publ_section_title
;
Structure prediction by ZEFSAII (Michael W. Deem and Ramdas Pophale) SiO2 
 PCOD9313451
Probable space group: P 21 21 21
;
_chemical_formula_sum "Si O2"
_cell_formula_units_Z 28
_cell_length_a 9.034622
_cell_length_b 8.584937
_cell_length_c 20.485510
_cell_angle_alpha 90.000000
_cell_angle_beta 90.000000
_cell_angle_gamma 90.000000
_cell_volume 1588.890176
_symmetry_space_group_name_H-M "P 21 21 21"
_symmetry_group_IT_number 19
_symmetry_cell_setting 'orthorhombic'
loop_
_space_group_symop_operation_xyz
x,y,z
1/2-x,-y,1/2+z
1/2+x,1/2-y,-z
-x,1/2+y,1/2-z
loop_
_atom_site_type_symbol
_atom_site_label
_atom_site_fract_x
_atom_site_fract_y
_atom_site_fract_z
Si Si1 0.517012 0.077622 0.706052
Si Si2 0.784366 0.181874 0.643143
Si Si3 0.628109 0.428604 0.915711
Si Si4 0.113362 0.429489 0.044466
Si Si5 0.559732 0.417427 0.663493
Si Si6 0.552740 0.424967 0.428279
Si Si7 0.615346 0.110747 0.507008
O O1 0.695290 0.081463 0.696883
O O2 0.479221 0.253987 0.683128
O O3 0.450075 0.958203 0.653846
O O4 0.464446 0.035992 0.777650
O O5 0.730556 0.359179 0.656687
O O6 0.704338 0.147619 0.573682
O O7 0.951301 0.130636 0.632159
O O8 0.630344 0.248803 0.935174
O O9 0.790193 0.502359 0.911424
O O10 0.530635 0.520225 0.969687
O O11 0.273323 0.510534 0.037249
O O12 0.011459 0.516019 0.097984
O O13 0.034441 0.453144 0.974454
O O14 0.575038 0.269842 0.471364
#
# Coordination Sequence:
#
# PCOD9313451 Si02
#       7
#     4   4   4   4   4   4   4
#     4   9  19  35  58  80 108 147 201 237 283 352
#     4   8  19  33  56  84 104 144 192 231 284 342
#     4  11  21  34  56  86 116 155 190 240 297 346
#     4  11  21  33  56  87 116 149 191 245 289 354
#     4  10  18  36  59  84 108 155 195 240 293 344
#     4  11  19  36  59  79 120 151 188 240 294 355
#     4  10  19  35  54  86 112 149 191 227 294 353
#
# _framework density 17.622363
#
# number of rings (size 3 to 8) (size 9 to 14) (size 15 to 20)
#    0.857    1.143    1.429    4.286    0.000    0.000 
#    0.000    0.000    9.429    0.000    0.000    0.000 
#    0.000    0.000    0.000    0.000    0.000    0.000 
#
# Total GULP energy -155925.753106 kJ/mol
# GULP energy per Si atom -5568.776897 kJ/mol
# Density = 1.758225 g / cm^3
# Si number density = 17.622363 Si / 1000 Ang^3
#
#
#
# Elastic Constant Matrix: (Units=GPa)
#
#
# Indices 1 2 3 4 5 6 
#
# 1 85.5586 8.0717 -2.2948 0.0000 0.0000 0.0000
# 2 8.0717 57.5353 -9.1284 0.0000 0.0000 0.0000
# 3 -2.2948 -9.1284 26.7985 0.0000 0.0000 0.0000
# 4 0.0000 0.0000 0.0000 27.7816 0.0000 0.0000
# 5 0.0000 0.0000 0.0000 0.0000 14.4163 0.0000
# 6 0.0000 0.0000 0.0000 0.0000 0.0000 20.6064
#
#
#
# Elastic Compliance Matrix: (Units=1/GPa)
#
#
# Indices 1 2 3 4 5 6 
#
# 1 0.011850 -0.001587 0.000474 0.000000 0.000000 0.000000
# 2 -0.001587 0.018586 0.006195 0.000000 0.000000 0.000000
# 3 0.000474 0.006195 0.039466 0.000000 0.000000 0.000000
# 4 0.000000 0.000000 0.000000 0.035995 0.000000 0.000000
# 5 0.000000 0.000000 0.000000 0.000000 0.069366 0.000000
# 6 0.000000 0.000000 0.000000 0.000000 0.000000 0.048529
#
#
# Mechanical properties :
#
#
# Convention : Reuss Voigt Hill
#
# Bulk Modulus (GPa) = 12.48957 18.13216 15.31086
# Shear Modulus (GPa) = 20.80580 24.11046 22.45813
#
# Velocity S-wave (km/s) = 3.43978 3.70290 3.57376
# Velocity P-wave (km/s) = 4.78319 5.34729 5.07309
#
# Compressibility (1/GPa) = 0.08006678
#
# Stress axis : x y z
#
# Youngs Moduli (GPa) = 84.38568 53.80336 25.33803
#
# Poissons Ratio (x) = 0.08540 -0.01201
# Poissons Ratio (y) = 0.13394 -0.15697
# Poissons Ratio (z) = -0.04001 -0.33332
#
# Static dielectric constant tensor:
#      x y z
#    x 1.625800 0.000000 0.000000 
#    y 0.000000 1.607010 0.000000 
#    z 0.000000 0.000000 1.597740 
# 
# From -- ./inp_files/6573.got.cif
#   From: 2010.05.17/outbox.cif.g08.bks.cpg/sg19_4_cif.got.tgz:6573.got - 2010.06.03 22:46:19.
