data_PCOD9313483
_publ_section_title
;
Structure prediction by ZEFSAII (Michael W. Deem and Ramdas Pophale) SiO2 
 PCOD9313483
Probable space group: P 21 21 21
;
_chemical_formula_sum "Si O2"
_cell_formula_units_Z 28
_cell_length_a 8.117308
_cell_length_b 9.289243
_cell_length_c 17.816937
_cell_angle_alpha 90.000000
_cell_angle_beta 90.000000
_cell_angle_gamma 90.000000
_cell_volume 1343.462020
_symmetry_space_group_name_H-M "P 21 21 21"
_symmetry_group_IT_number 19
_symmetry_cell_setting 'orthorhombic'
loop_
_space_group_symop_operation_xyz
x,y,z
1/2-x,-y,1/2+z
1/2+x,1/2-y,-z
-x,1/2+y,1/2-z
loop_
_atom_site_type_symbol
_atom_site_label
_atom_site_fract_x
_atom_site_fract_y
_atom_site_fract_z
Si Si1 0.104260 0.159527 0.739358
Si Si2 0.872258 0.450973 0.484669
Si Si3 0.204957 0.571368 0.176352
Si Si4 0.474883 0.358641 0.107078
Si Si5 0.929330 0.688556 0.070244
Si Si6 0.713505 0.181779 0.719992
Si Si7 0.751706 0.394623 0.843262
O O1 0.224033 0.276307 0.703158
O O2 0.114782 0.159460 0.829421
O O3 0.912665 0.191969 0.722203
O O4 0.141491 0.003581 0.706446
O O5 0.952651 0.580622 0.531128
O O6 0.700744 0.404171 0.523282
O O7 0.982799 0.307032 0.482079
O O8 0.847895 0.508015 0.400693
O O9 0.353066 0.482145 0.138366
O O10 0.064238 0.593810 0.114606
O O11 0.158839 0.472964 0.248161
O O12 0.368422 0.212718 0.108548
O O13 0.842367 0.775370 0.137923
O O14 0.655296 0.295410 0.783686
#
# Coordination Sequence:
#
# PCOD9313483 Si02
#       7
#     4   4   4   4   4   4   4
#     4  10  18  42  69  93 122 170 223 261 327 391
#     4  12  26  42  63  98 137 181 210 274 338 401
#     4  10  21  41  68  96 125 173 225 272 318 393
#     4  10  22  43  65  96 131 171 213 273 333 390
#     4  12  26  41  65  96 137 174 224 272 331 398
#     4  10  23  40  68  97 124 170 219 282 319 386
#     4  10  22  41  68  94 130 165 222 262 326 391
#
# _framework density 20.841674000000001
#
# number of rings (size 3 to 8) (size 9 to 14) (size 15 to 20)
#    0.000    1.714    1.429    6.000    4.000    3.429 
#    5.143    0.000    0.000    0.000    0.000    0.000 
#    0.000    0.000    0.000    0.000    0.000    0.000 
#
# Total GULP energy -156455.790877 kJ/mol
# GULP energy per Si atom -5587.706817 kJ/mol
# Density = 2.079424 g / cm^3
# Si number density = 20.841674 Si / 1000 Ang^3
#
#
#
# Elastic Constant Matrix: (Units=GPa)
#
#
# Indices 1 2 3 4 5 6 
#
# 1 27.2129 11.9051 13.2252 0.0000 0.0000 0.0000
# 2 11.9051 98.6487 0.1621 0.0000 0.0000 0.0000
# 3 13.2252 0.1621 36.0048 0.0000 0.0000 0.0000
# 4 0.0000 0.0000 0.0000 41.2094 0.0000 0.0000
# 5 0.0000 0.0000 0.0000 0.0000 40.8462 0.0000
# 6 0.0000 0.0000 0.0000 0.0000 0.0000 20.1736
#
#
#
# Elastic Compliance Matrix: (Units=1/GPa)
#
#
# Indices 1 2 3 4 5 6 
#
# 1 0.047772 -0.005736 -0.017522 0.000000 0.000000 0.000000
# 2 -0.005736 0.010826 0.002058 0.000000 0.000000 0.000000
# 3 -0.017522 0.002058 0.034201 0.000000 0.000000 0.000000
# 4 0.000000 0.000000 0.000000 0.024266 0.000000 0.000000
# 5 0.000000 0.000000 0.000000 0.000000 0.024482 0.000000
# 6 0.000000 0.000000 0.000000 0.000000 0.000000 0.049570
#
#
# Mechanical properties :
#
#
# Convention : Reuss Voigt Hill
#
# Bulk Modulus (GPa) = 19.84154 23.60569 21.72361
# Shear Modulus (GPa) = 19.97473 29.55078 24.76275
#
# Velocity S-wave (km/s) = 3.09917 3.76955 3.45068
# Velocity P-wave (km/s) = 4.72729 5.50425 5.13050
#
# Compressibility (1/GPa) = 0.05039931
#
# Stress axis : x y z
#
# Youngs Moduli (GPa) = 20.93270 92.37118 29.23906
#
# Poissons Ratio (x) = 0.52988 0.51232
# Poissons Ratio (y) = 0.12008 -0.06018
# Poissons Ratio (z) = 0.36678 -0.19013
#
# Static dielectric constant tensor:
#      x y z
#    x 1.759490 0.000000 0.000000 
#    y 0.000000 1.735880 0.000000 
#    z 0.000000 0.000000 1.747610 
# 
# From -- ./inp_files/2960.got.cif
#   From: 2010.05.17/outbox.cif.g08.bks.cpg/sg19_2_cif.got.tgz:2960.got - 2010.06.03 22:46:19.
