data_PCOD9313822
_publ_section_title
;
Structure prediction by ZEFSAII (Michael W. Deem and Ramdas Pophale) SiO2 
 PCOD9313822
Probable space group: P 21 21 21
;
_chemical_formula_sum "Si O2"
_cell_formula_units_Z 28
_cell_length_a 8.895827
_cell_length_b 9.297011
_cell_length_c 12.884332
_cell_angle_alpha 90.000000
_cell_angle_beta 90.000000
_cell_angle_gamma 90.000000
_cell_volume 1065.593543
_symmetry_space_group_name_H-M "P 21 21 21"
_symmetry_group_IT_number 19
_symmetry_cell_setting 'orthorhombic'
loop_
_space_group_symop_operation_xyz
x,y,z
1/2-x,-y,1/2+z
1/2+x,1/2-y,-z
-x,1/2+y,1/2-z
loop_
_atom_site_type_symbol
_atom_site_label
_atom_site_fract_x
_atom_site_fract_y
_atom_site_fract_z
Si Si1 0.892219 0.279847 0.048168
Si Si2 0.635161 0.630770 0.251582
Si Si3 0.604466 0.528002 0.815827
Si Si4 0.297707 0.459202 0.797811
Si Si5 0.627641 0.255062 0.332830
Si Si6 0.419415 0.942549 0.452651
Si Si7 0.528679 0.972184 0.059009
O O1 0.881748 0.177131 0.147897
O O2 0.725801 0.341018 0.038787
O O3 0.940727 0.165730 0.959835
O O4 0.999728 0.420355 0.036864
O O5 0.811812 0.616456 0.272981
O O6 0.526260 0.767185 0.234579
O O7 0.602708 0.545607 0.144375
O O8 0.563289 0.555426 0.351279
O O9 0.441139 0.553676 0.768273
O O10 0.735249 0.644080 0.798848
O O11 0.581606 0.528372 0.939600
O O12 0.198574 0.399097 0.701574
O O13 0.195248 0.526173 0.891131
O O14 0.561396 0.319271 0.441662
#
# Coordination Sequence:
#
# PCOD9313822 Si02
#       7
#     4   4   4   4   4   4   4
#     4  11  19  36  64  93 119 159 217 268 300 369
#     4  10  22  39  64  92 126 172 208 261 326 387
#     4  10  22  40  65  94 128 168 219 266 316 376
#     4  10  22  38  64  94 125 165 220 274 305 372
#     4  10  21  42  63  91 135 169 206 262 327 396
#     4  11  22  38  64  96 123 160 215 265 316 380
#     4  10  20  35  64  90 122 171 203 256 326 380
#
# _framework density 26.276436
#
# number of rings (size 3 to 8) (size 9 to 14) (size 15 to 20)
#    0.000    1.714    4.286    1.714    4.000    1.143 
#    0.000   11.429    0.000    0.000    0.000    0.000 
#    0.000    0.000    0.000    0.000    0.000    0.000 
#
# Total GULP energy -155911.066828 kJ/mol
# GULP energy per Si atom -5568.252387 kJ/mol
# Density = 2.621663 g / cm^3
# Si number density = 26.276436 Si / 1000 Ang^3
#
#
#
# Elastic Constant Matrix: (Units=GPa)
#
#
# Indices 1 2 3 4 5 6 
#
# 1 178.4166 39.6984 9.5438 0.0000 0.0000 0.0000
# 2 39.6984 65.6575 34.6869 0.0000 0.0000 0.0000
# 3 9.5438 34.6869 119.4345 0.0000 0.0000 0.0000
# 4 0.0000 0.0000 0.0000 32.7094 0.0000 0.0000
# 5 0.0000 0.0000 0.0000 0.0000 17.7365 0.0000
# 6 0.0000 0.0000 0.0000 0.0000 0.0000 29.1520
#
#
#
# Elastic Compliance Matrix: (Units=1/GPa)
#
#
# Indices 1 2 3 4 5 6 
#
# 1 0.006531 -0.004339 0.000738 0.000000 0.000000 0.000000
# 2 -0.004339 0.020873 -0.005715 0.000000 0.000000 0.000000
# 3 0.000738 -0.005715 0.009974 0.000000 0.000000 0.000000
# 4 0.000000 0.000000 0.000000 0.030572 0.000000 0.000000
# 5 0.000000 0.000000 0.000000 0.000000 0.056381 0.000000
# 6 0.000000 0.000000 0.000000 0.000000 0.000000 0.034303
#
#
# Mechanical properties :
#
#
# Convention : Reuss Voigt Hill
#
# Bulk Modulus (GPa) = 53.34491 59.04075 56.19283
# Shear Modulus (GPa) = 27.24583 34.55823 30.90203
#
# Velocity S-wave (km/s) = 3.22357 3.63047 3.43306
# Velocity P-wave (km/s) = 5.84814 6.33180 6.09477
#
# Compressibility (1/GPa) = 0.01874593
#
# Stress axis : x y z
#
# Youngs Moduli (GPa) = 153.12200 47.90807 100.26347
#
# Poissons Ratio (x) = 0.20786 -0.07401
# Poissons Ratio (y) = 0.66434 0.57305
# Poissons Ratio (z) = -0.11303 0.27382
#
# Static dielectric constant tensor:
#      x y z
#    x 2.112130 0.000000 0.000000 
#    y 0.000000 2.360650 0.000000 
#    z 0.000000 0.000000 2.051500 
# 
# From -- ./inp_files/5860.got.cif
#   From: 2010.05.17/outbox.cif.g08.bks.cpg/sg19_3_cif.got.tgz:5860.got - 2010.06.03 22:46:19.
