data_PCOD9313697
_publ_section_title
;
Structure prediction by ZEFSAII (Michael W. Deem and Ramdas Pophale) SiO2 
 PCOD9313697
Probable space group: P 21 21 21
;
_chemical_formula_sum "Si O2"
_cell_formula_units_Z 28
_cell_length_a 16.882397
_cell_length_b 5.530560
_cell_length_c 12.686589
_cell_angle_alpha 90.000000
_cell_angle_beta 90.000000
_cell_angle_gamma 90.000000
_cell_volume 1184.535518
_symmetry_space_group_name_H-M "P 21 21 21"
_symmetry_group_IT_number 19
_symmetry_cell_setting 'orthorhombic'
loop_
_space_group_symop_operation_xyz
x,y,z
1/2-x,-y,1/2+z
1/2+x,1/2-y,-z
-x,1/2+y,1/2-z
loop_
_atom_site_type_symbol
_atom_site_label
_atom_site_fract_x
_atom_site_fract_y
_atom_site_fract_z
Si Si1 0.964855 0.662030 0.507967
Si Si2 0.899854 0.598427 0.743378
Si Si3 0.181059 0.401157 0.049452
Si Si4 0.815892 0.213717 0.649244
Si Si5 0.203467 0.928932 0.449142
Si Si6 0.051608 0.163295 0.527088
Si Si7 0.224097 0.662464 0.246667
O O1 0.941524 0.654611 0.632574
O O2 0.887310 0.703445 0.435108
O O3 0.010773 0.409783 0.487831
O O4 0.013906 0.908503 0.491118
O O5 0.878492 0.313538 0.731939
O O6 0.949017 0.663428 0.845854
O O7 0.813149 0.725430 0.759958
O O8 0.185207 0.611480 0.135346
O O9 0.158418 0.522871 0.937587
O O10 0.266764 0.274701 0.031450
O O11 0.784426 0.437067 0.581906
O O12 0.741176 0.105513 0.709270
O O13 0.178706 0.804922 0.338590
O O14 0.142511 0.123283 0.492306
#
# Coordination Sequence:
#
# PCOD9313697 Si02
#       7
#     4   4   4   4   4   4   4
#     4  12  26  44  67 105 155 190 234 300 381 449
#     4  11  22  42  65 111 141 188 233 304 375 452
#     4  11  22  42  72 104 146 195 249 313 367 445
#     4  10  19  39  70  99 143 176 252 309 360 424
#     4  10  23  43  67 105 142 185 258 301 357 454
#     4  12  28  42  72 104 150 194 228 299 384 448
#     4  10  22  38  75 104 133 190 252 308 360 424
#
# _framework density 23.637957
#
# number of rings (size 3 to 8) (size 9 to 14) (size 15 to 20)
#    0.000    1.143    4.286    3.429    8.000    1.143 
#    0.000    0.000    3.143    0.000    0.000    0.000 
#    0.000    0.000    0.000    0.000    0.000    0.000 
#
# Total GULP energy -156325.119701 kJ/mol
# GULP energy per Si atom -5583.039989 kJ/mol
# Density = 2.358416 g / cm^3
# Si number density = 23.637957 Si / 1000 Ang^3
#
#
#
# Elastic Constant Matrix: (Units=GPa)
#
#
# Indices 1 2 3 4 5 6 
#
# 1 73.9322 40.5892 18.7791 0.0000 0.0000 0.0000
# 2 40.5892 118.9169 24.5109 0.0000 0.0000 0.0000
# 3 18.7791 24.5109 63.5870 0.0000 0.0000 0.0000
# 4 0.0000 0.0000 0.0000 31.0350 0.0000 0.0000
# 5 0.0000 0.0000 0.0000 0.0000 29.4391 0.0000
# 6 0.0000 0.0000 0.0000 0.0000 0.0000 50.0443
#
#
#
# Elastic Compliance Matrix: (Units=1/GPa)
#
#
# Indices 1 2 3 4 5 6 
#
# 1 0.017175 -0.005232 -0.003055 0.000000 0.000000 0.000000
# 2 -0.005232 0.010729 -0.002590 0.000000 0.000000 0.000000
# 3 -0.003055 -0.002590 0.017627 0.000000 0.000000 0.000000
# 4 0.000000 0.000000 0.000000 0.032222 0.000000 0.000000
# 5 0.000000 0.000000 0.000000 0.000000 0.033968 0.000000
# 6 0.000000 0.000000 0.000000 0.000000 0.000000 0.019982
#
#
# Mechanical properties :
#
#
# Convention : Reuss Voigt Hill
#
# Bulk Modulus (GPa) = 42.06125 47.13273 44.59699
# Shear Modulus (GPa) = 30.98190 33.60746 32.29468
#
# Velocity S-wave (km/s) = 3.62427 3.77471 3.70025
# Velocity P-wave (km/s) = 5.94528 6.24345 6.09619
#
# Compressibility (1/GPa) = 0.02377485
#
# Stress axis : x y z
#
# Youngs Moduli (GPa) = 58.22568 93.20434 56.73008
#
# Poissons Ratio (x) = 0.48768 0.17332
# Poissons Ratio (y) = 0.30466 0.14696
# Poissons Ratio (z) = 0.17789 0.24144
#
# Static dielectric constant tensor:
#      x y z
#    x 1.964830 0.000000 0.000000 
#    y 0.000000 1.975930 0.000000 
#    z 0.000000 0.000000 1.931590 
# 
# From -- ./inp_files/5357.got.cif
#   From: 2010.05.17/outbox.cif.g08.bks.cpg/sg19_3_cif.got.tgz:5357.got - 2010.06.03 22:46:19.
