data_PCOD9313126
_publ_section_title
;
Structure prediction by ZEFSAII (Michael W. Deem and Ramdas Pophale) SiO2 
 PCOD9313126
Probable space group: P 21 21 2
;
_chemical_formula_sum "Si O2"
_cell_formula_units_Z 14
_cell_length_a 7.657325
_cell_length_b 5.209042
_cell_length_c 16.060092
_cell_angle_alpha 90.000000
_cell_angle_beta 90.000000
_cell_angle_gamma 90.000000
_cell_volume 640.594150
_symmetry_space_group_name_H-M "P 21 21 2"
_symmetry_group_IT_number 18
_symmetry_cell_setting 'orthorhombic'
loop_
_space_group_symop_operation_xyz
x,y,z
-x,-y,z
1/2+x,1/2-y,-z
1/2-x,1/2+y,-z
loop_
_atom_site_type_symbol
_atom_site_label
_atom_site_fract_x
_atom_site_fract_y
_atom_site_fract_z
Si Si1 0.658663 0.152352 0.378628
Si Si2 0.623075 0.755046 0.775487
Si Si3 0.688397 0.863932 0.958354
Si Si4 0.500000 0.500000 0.520345
O O1 0.747512 0.296998 0.302027
O O2 0.555833 0.281331 0.455446
O O3 0.829384 0.031844 0.422800
O O4 0.500000 0.000000 0.337245
O O5 0.500000 0.500000 0.768015
O O6 0.718327 0.760865 0.864655
O O7 0.500000 0.000000 0.774942
O O8 0.500000 0.000000 0.961927
O O9 0.694212 0.607353 0.014531
#
# Coordination Sequence:
#
# PCOD9313126 Si02
#       4
#     4   4   4   2
#     4  12  27  45  72 103 145 194 246 299 366 431
#     4  11  26  47  73 105 147 190 242 303 362 425
#     4  11  23  46  74 104 144 189 235 294 361 429
#     4  12  26  46  70 102 144 190 248 300 360 430
#
# _framework density 21.854711000000002
#
# number of rings (size 3 to 8) (size 9 to 14) (size 15 to 20)
#    0.000    0.571    4.286    4.286    8.000    1.143 
#    5.143    0.000    0.000    0.000    0.000    0.000 
#    0.000    0.000    0.000    0.000    0.000    0.000 
#
# Total GULP energy -78022.233307 kJ/mol
# GULP energy per Si atom -5573.016665 kJ/mol
# Density = 2.180497 g / cm^3
# Si number density = 21.854711 Si / 1000 Ang^3
#
#
#
# Elastic Constant Matrix: (Units=GPa)
#
#
# Indices 1 2 3 4 5 6 
#
# 1 91.1518 22.5252 19.0349 0.0000 0.0000 0.0000
# 2 22.5252 102.6132 20.7369 0.0000 0.0000 0.0000
# 3 19.0349 20.7369 108.8467 0.0000 0.0000 0.0000
# 4 0.0000 0.0000 0.0000 311.2404 0.0000 0.0000
# 5 0.0000 0.0000 0.0000 0.0000 -64.3023 0.0000
# 6 0.0000 0.0000 0.0000 0.0000 0.0000 28.0337
#
#
#
# Elastic Compliance Matrix: (Units=1/GPa)
#
#
# Indices 1 2 3 4 5 6 
#
# 1 0.011876 -0.002275 -0.001643 0.000000 0.000000 0.000000
# 2 -0.002275 0.010571 -0.001616 0.000000 0.000000 0.000000
# 3 -0.001643 -0.001616 0.009783 0.000000 0.000000 0.000000
# 4 0.000000 0.000000 0.000000 0.003213 0.000000 0.000000
# 5 0.000000 0.000000 0.000000 0.000000 -0.015552 0.000000
# 6 0.000000 0.000000 0.000000 0.000000 0.000000 0.035671
#
#
# Mechanical properties :
#
#
# Convention : Reuss Voigt Hill
#
# Bulk Modulus (GPa) = 47.25689 47.46729 47.36209
# Shear Modulus (GPa) = 67.85615 71.01535 69.43575
#
# Velocity S-wave (km/s) = 5.57819 5.70656 5.64274
# Velocity P-wave (km/s) = 7.94722 8.07381 8.01077
#
# Compressibility (1/GPa) = 0.02116093
#
# Stress axis : x y z
#
# Youngs Moduli (GPa) = 84.20299 94.59570 102.22293
#
# Poissons Ratio (x) = 0.21519 0.16800
# Poissons Ratio (y) = 0.19155 0.16521
# Poissons Ratio (z) = 0.13838 0.15288
#
# Static dielectric constant tensor:
#      x y z
#    x 1.643330 0.000000 0.000000 
#    y 0.000000 1.898710 0.000000 
#    z 0.000000 0.000000 1.823420 
# 
# From -- ./inp_files/6582.got.cif
#   From: 2010.05.17/outbox.cif.g08.bks.cpg/sg18_4_cif.got.tgz:6582.got - 2010.06.03 22:40:56.
