data_PCOD9313739
_publ_section_title
;
Structure prediction by ZEFSAII (Michael W. Deem and Ramdas Pophale) SiO2 
 PCOD9313739
Probable space group: P 21 21 21
;
_chemical_formula_sum "Si O2"
_cell_formula_units_Z 20
_cell_length_a 5.562397
_cell_length_b 18.622431
_cell_length_c 7.034024
_cell_angle_alpha 90.000000
_cell_angle_beta 90.000000
_cell_angle_gamma 90.000000
_cell_volume 728.621868
_symmetry_space_group_name_H-M "P 21 21 21"
_symmetry_group_IT_number 19
_symmetry_cell_setting 'orthorhombic'
loop_
_space_group_symop_operation_xyz
x,y,z
1/2-x,-y,1/2+z
1/2+x,1/2-y,-z
-x,1/2+y,1/2-z
loop_
_atom_site_type_symbol
_atom_site_label
_atom_site_fract_x
_atom_site_fract_y
_atom_site_fract_z
Si Si1 0.776574 0.148802 0.330243
Si Si2 0.723239 0.688673 0.158474
Si Si3 0.267159 0.516714 0.596907
Si Si4 0.231659 0.073155 0.019050
Si Si5 0.869691 0.165688 0.875970
O O1 0.539874 0.179871 0.428609
O O2 0.014259 0.179502 0.431837
O O3 0.765531 0.063559 0.331987
O O4 0.793847 0.169072 0.102884
O O5 0.731269 0.616784 0.289427
O O6 0.704531 0.759918 0.286770
O O7 0.531971 0.526825 0.509122
O O8 0.252880 0.593312 0.709550
O O9 0.007020 0.524237 0.491176
O O10 0.149814 0.139145 0.878303
#
# Coordination Sequence:
#
# PCOD9313739 Si02
#       5
#     4   4   4   4   4
#     4  11  20  31  49  77 104 135 166 200 261 300
#     4  11  19  32  54  76 102 130 167 214 256 294
#     4  10  20  31  46  73 109 132 163 202 256 306
#     4   9  18  31  47  70 105 130 161 201 256 294
#     4   9  21  31  54  74 108 125 167 209 259 288
#
# _framework density 27.449082000000001
#
# number of rings (size 3 to 8) (size 9 to 14) (size 15 to 20)
#    1.200    0.800    2.000    3.600    2.800    0.000 
#    0.000    0.000    0.000    0.000    0.000    2.800 
#    0.000    0.000    0.000    0.000    0.000    0.000 
#
# Total GULP energy -111517.811963 kJ/mol
# GULP energy per Si atom -5575.890598 kJ/mol
# Density = 2.738661 g / cm^3
# Si number density = 27.449082 Si / 1000 Ang^3
#
#
#
# Elastic Constant Matrix: (Units=GPa)
#
#
# Indices 1 2 3 4 5 6 
#
# 1 273.5419 86.8854 33.3143 0.0000 0.0000 0.0000
# 2 86.8854 200.7387 44.9751 0.0000 0.0000 0.0000
# 3 33.3143 44.9751 60.6164 0.0000 0.0000 0.0000
# 4 0.0000 0.0000 0.0000 43.4736 0.0000 0.0000
# 5 0.0000 0.0000 0.0000 0.0000 -106.9169 0.0000
# 6 0.0000 0.0000 0.0000 0.0000 0.0000 11.5560
#
#
#
# Elastic Compliance Matrix: (Units=1/GPa)
#
#
# Indices 1 2 3 4 5 6 
#
# 1 0.004308 -0.001600 -0.001180 0.000000 0.000000 0.000000
# 2 -0.001600 0.006569 -0.003995 0.000000 0.000000 0.000000
# 3 -0.001180 -0.003995 0.020110 0.000000 0.000000 0.000000
# 4 0.000000 0.000000 0.000000 0.023002 0.000000 0.000000
# 5 0.000000 0.000000 0.000000 0.000000 -0.009353 0.000000
# 6 0.000000 0.000000 0.000000 0.000000 0.000000 0.086535
#
#
# Mechanical properties :
#
#
# Convention : Reuss Voigt Hill
#
# Bulk Modulus (GPa) = 57.35083 96.13852 76.74467
# Shear Modulus (GPa) = 33.21516 14.27067 23.74292
#
# Velocity S-wave (km/s) = 3.48237 2.28260 2.94425
# Velocity P-wave (km/s) = 6.09164 6.48439 6.29108
#
# Compressibility (1/GPa) = 0.01743654
#
# Stress axis : x y z
#
# Youngs Moduli (GPa) = 232.14121 152.22659 49.72707
#
# Poissons Ratio (x) = 0.24357 0.05869
# Poissons Ratio (y) = 0.37144 0.19864
# Poissons Ratio (z) = 0.27400 0.60810
#
# Static dielectric constant tensor:
#      x y z
#    x 2.308790 0.000000 0.000000 
#    y 0.000000 2.071420 0.000000 
#    z 0.000000 0.000000 2.326150 
# 
# From -- ./inp_files/4449.got.cif
#   From: 2010.05.17/outbox.cif.g08.bks.cpg/sg19_3_cif.got.tgz:4449.got - 2010.06.03 22:46:19.
