data_PCOD9313448
_publ_section_title
;
Structure prediction by ZEFSAII (Michael W. Deem and Ramdas Pophale) SiO2 
 PCOD9313448
Probable space group: P 21 21 21
;
_chemical_formula_sum "Si O2"
_cell_formula_units_Z 32
_cell_length_a 5.718261
_cell_length_b 19.104963
_cell_length_c 14.456775
_cell_angle_alpha 90.000000
_cell_angle_beta 90.000000
_cell_angle_gamma 90.000000
_cell_volume 1579.361681
_symmetry_space_group_name_H-M "P 21 21 21"
_symmetry_group_IT_number 19
_symmetry_cell_setting 'orthorhombic'
loop_
_space_group_symop_operation_xyz
x,y,z
1/2-x,-y,1/2+z
1/2+x,1/2-y,-z
-x,1/2+y,1/2-z
loop_
_atom_site_type_symbol
_atom_site_label
_atom_site_fract_x
_atom_site_fract_y
_atom_site_fract_z
Si Si1 0.794144 0.091825 0.291083
Si Si2 0.420308 0.742119 0.156782
Si Si3 0.293681 0.407947 0.510019
Si Si4 0.831165 0.616360 0.346236
Si Si5 0.557265 0.035465 0.105728
Si Si6 0.463974 0.257394 0.146444
Si Si7 0.266849 0.333937 0.980995
Si Si8 0.794864 0.325633 0.505512
O O1 0.690018 0.168746 0.310289
O O2 0.776414 0.055086 0.389411
O O3 0.665242 0.056439 0.204830
O O4 0.052075 0.103310 0.252335
O O5 0.467751 0.783351 0.251829
O O6 0.245436 0.780650 0.086970
O O7 0.647511 0.723248 0.094485
O O8 0.339602 0.464493 0.431292
O O9 0.541781 0.364558 0.516164
O O10 0.041720 0.369052 0.496784
O O11 0.717135 0.543357 0.377316
O O12 0.666857 0.683765 0.335999
O O13 0.007111 0.640014 0.425873
O O14 0.601869 0.099028 0.033250
O O15 0.672059 0.232518 0.077859
O O16 0.312813 0.310027 0.084809
#
# Coordination Sequence:
#
# PCOD9313448 Si02
#       8
#     4   4   4   4   4   4   4   4
#     4  10  21  39  69  94 117 177 227 263 338 399
#     4  11  21  44  68 103 129 168 228 286 349 410
#     4  11  26  46  67  96 139 178 220 291 333 401
#     4  10  18  35  63  90 126 170 219 270 314 410
#     4  10  23  42  63  94 128 183 231 264 325 417
#     4  11  19  34  60  96 133 163 215 274 345 391
#     4  10  20  34  58  97 126 171 215 274 327 408
#     4  11  26  44  70 104 132 172 229 290 353 394
#
# _framework density 20.261348999999999
#
# number of rings (size 3 to 8) (size 9 to 14) (size 15 to 20)
#    0.000    1.500    5.000    2.250    5.250    1.000 
#    2.250    1.250    0.000    0.000    0.000    0.000 
#    0.000    0.000    0.000    0.000    0.000    0.000 
#
# Total GULP energy -178236.192795 kJ/mol
# GULP energy per Si atom -5569.881025 kJ/mol
# Density = 2.021523 g / cm^3
# Si number density = 20.261349 Si / 1000 Ang^3
#
#
#
# Elastic Constant Matrix: (Units=GPa)
#
#
# Indices 1 2 3 4 5 6 
#
# 1 79.0821 21.8272 33.0756 0.0000 0.0000 0.0000
# 2 21.8272 32.2160 37.9073 0.0000 0.0000 0.0000
# 3 33.0756 37.9073 154.9044 0.0000 0.0000 0.0000
# 4 0.0000 0.0000 0.0000 36.5048 0.0000 0.0000
# 5 0.0000 0.0000 0.0000 0.0000 35.0040 0.0000
# 6 0.0000 0.0000 0.0000 0.0000 0.0000 12.6827
#
#
#
# Elastic Compliance Matrix: (Units=1/GPa)
#
#
# Indices 1 2 3 4 5 6 
#
# 1 0.015674 -0.009384 -0.001051 0.000000 0.000000 0.000000
# 2 -0.009384 0.049210 -0.010039 0.000000 0.000000 0.000000
# 3 -0.001051 -0.010039 0.009137 0.000000 0.000000 0.000000
# 4 0.000000 0.000000 0.000000 0.027394 0.000000 0.000000
# 5 0.000000 0.000000 0.000000 0.000000 0.028568 0.000000
# 6 0.000000 0.000000 0.000000 0.000000 0.000000 0.078848
#
#
# Mechanical properties :
#
#
# Convention : Reuss Voigt Hill
#
# Bulk Modulus (GPa) = 30.23410 50.20253 40.21831
# Shear Modulus (GPa) = 19.17163 28.39781 23.78472
#
# Velocity S-wave (km/s) = 3.07940 3.74782 3.42993
# Velocity P-wave (km/s) = 5.25339 6.59996 5.96480
#
# Compressibility (1/GPa) = 0.03307524
#
# Stress axis : x y z
#
# Youngs Moduli (GPa) = 63.79819 20.32089 109.45047
#
# Poissons Ratio (x) = 0.19069 0.11498
# Poissons Ratio (y) = 0.59866 1.09876
# Poissons Ratio (z) = 0.06702 0.20400
#
# Static dielectric constant tensor:
#      x y z
#    x 1.859830 0.000000 0.000000 
#    y 0.000000 1.735060 0.000000 
#    z 0.000000 0.000000 1.738460 
# 
# From -- ./inp_files/5788.got.cif
#   From: 2010.05.17/outbox.cif.g08.bks.cpg/sg19_3_cif.got.tgz:5788.got - 2010.06.03 22:46:19.
