data_PCOD9313663
_publ_section_title
;
Structure prediction by ZEFSAII (Michael W. Deem and Ramdas Pophale) SiO2 
 PCOD9313663
Probable space group: P 21 21 21
;
_chemical_formula_sum "Si O2"
_cell_formula_units_Z 28
_cell_length_a 4.940844
_cell_length_b 7.811342
_cell_length_c 25.816000
_cell_angle_alpha 90.000000
_cell_angle_beta 90.000000
_cell_angle_gamma 90.000000
_cell_volume 996.358768
_symmetry_space_group_name_H-M "P 21 21 21"
_symmetry_group_IT_number 19
_symmetry_cell_setting 'orthorhombic'
loop_
_space_group_symop_operation_xyz
x,y,z
1/2-x,-y,1/2+z
1/2+x,1/2-y,-z
-x,1/2+y,1/2-z
loop_
_atom_site_type_symbol
_atom_site_label
_atom_site_fract_x
_atom_site_fract_y
_atom_site_fract_z
Si Si1 0.387674 0.612733 0.863798
Si Si2 0.294902 0.028088 0.778669
Si Si3 0.291096 0.591226 0.157924
Si Si4 0.037715 0.661593 0.447662
Si Si5 0.697213 0.822712 0.026331
Si Si6 0.527010 0.127696 0.193407
Si Si7 0.454874 0.323204 0.084677
O O1 0.483248 0.441304 0.892878
O O2 0.220615 0.701614 0.911381
O O3 0.202186 0.542606 0.817803
O O4 0.638152 0.730413 0.848757
O O5 0.589004 0.013278 0.803736
O O6 0.193428 0.224105 0.776567
O O7 0.234205 0.931309 0.725310
O O8 0.971083 0.284325 0.861704
O O9 0.588048 0.570945 0.182279
O O10 0.317044 0.497369 0.102605
O O11 0.172041 0.510909 0.481086
O O12 0.242050 0.817255 0.436358
O O13 0.732873 0.720177 0.455061
O O14 0.397235 0.802485 0.004845
#
# Coordination Sequence:
#
# PCOD9313663 Si02
#       7
#     4   4   4   4   4   4   4
#     4   9  22  38  65  89 127 167 210 266 326 392
#     4  11  25  39  61  90 132 170 219 277 308 389
#     4  11  23  39  58  92 125 172 213 268 319 385
#     4   9  20  35  62  88 116 163 201 260 313 385
#     4  10  21  38  63  98 125 154 216 273 330 389
#     4  10  22  41  60  93 126 176 221 263 331 376
#     4  10  19  38  59  84 119 168 214 247 313 392
#
# _framework density 28.102325
#
# number of rings (size 3 to 8) (size 9 to 14) (size 15 to 20)
#    0.857    1.143    0.000    4.286    0.000   10.286 
#    0.000    0.000    0.000    3.429    0.000    0.000 
#    0.000    0.000    0.000    0.000    0.000    0.000 
#
# Total GULP energy -156970.628471 kJ/mol
# GULP energy per Si atom -5606.093874 kJ/mol
# Density = 2.803836 g / cm^3
# Si number density = 28.102325 Si / 1000 Ang^3
#
#
#
# Elastic Constant Matrix: (Units=GPa)
#
#
# Indices 1 2 3 4 5 6 
#
# 1 107.2525 33.4571 14.8232 0.0000 0.0000 0.0000
# 2 33.4571 131.0140 26.9539 0.0000 0.0000 0.0000
# 3 14.8232 26.9539 128.1130 0.0000 0.0000 0.0000
# 4 0.0000 0.0000 0.0000 50.5996 0.0000 0.0000
# 5 0.0000 0.0000 0.0000 0.0000 22.9750 0.0000
# 6 0.0000 0.0000 0.0000 0.0000 0.0000 18.2497
#
#
#
# Elastic Compliance Matrix: (Units=1/GPa)
#
#
# Indices 1 2 3 4 5 6 
#
# 1 0.010184 -0.002465 -0.000660 0.000000 0.000000 0.000000
# 2 -0.002465 0.008575 -0.001519 0.000000 0.000000 0.000000
# 3 -0.000660 -0.001519 0.008201 0.000000 0.000000 0.000000
# 4 0.000000 0.000000 0.000000 0.019763 0.000000 0.000000
# 5 0.000000 0.000000 0.000000 0.000000 0.043526 0.000000
# 6 0.000000 0.000000 0.000000 0.000000 0.000000 0.054795
#
#
# Mechanical properties :
#
#
# Convention : Reuss Voigt Hill
#
# Bulk Modulus (GPa) = 56.58315 57.42755 57.00535
# Shear Modulus (GPa) = 31.20666 37.77453 34.49059
#
# Velocity S-wave (km/s) = 3.33598 3.67028 3.50712
# Velocity P-wave (km/s) = 5.91749 6.20007 6.06043
#
# Compressibility (1/GPa) = 0.01767311
#
# Stress axis : x y z
#
# Youngs Moduli (GPa) = 98.19417 116.62182 121.92900
#
# Poissons Ratio (x) = 0.28747 0.08044
# Poissons Ratio (y) = 0.24204 0.18519
# Poissons Ratio (z) = 0.06478 0.17713
#
# Static dielectric constant tensor:
#      x y z
#    x 2.071070 0.000000 0.000000 
#    y 0.000000 2.211290 0.000000 
#    z 0.000000 0.000000 2.268620 
# 
# From -- ./inp_files/7525.got.cif
#   From: 2010.05.17/outbox.cif.g08.bks.cpg/sg19_4_cif.got.tgz:7525.got - 2010.06.03 22:46:19.
