data_PCOD9313699
_publ_section_title
;
Structure prediction by ZEFSAII (Michael W. Deem and Ramdas Pophale) SiO2 
 PCOD9313699
Probable space group: P 21 21 21
;
_chemical_formula_sum "Si O2"
_cell_formula_units_Z 32
_cell_length_a 13.494377
_cell_length_b 12.583788
_cell_length_c 7.307658
_cell_angle_alpha 90.000000
_cell_angle_beta 90.000000
_cell_angle_gamma 90.000000
_cell_volume 1240.916177
_symmetry_space_group_name_H-M "P 21 21 21"
_symmetry_group_IT_number 19
_symmetry_cell_setting 'orthorhombic'
loop_
_space_group_symop_operation_xyz
x,y,z
1/2-x,-y,1/2+z
1/2+x,1/2-y,-z
-x,1/2+y,1/2-z
loop_
_atom_site_type_symbol
_atom_site_label
_atom_site_fract_x
_atom_site_fract_y
_atom_site_fract_z
Si Si1 0.062551 0.116346 0.370541
Si Si2 0.838170 0.613397 0.649483
Si Si3 0.247153 0.679162 0.426114
Si Si4 0.770957 0.390020 0.542442
Si Si5 0.307051 0.334794 0.502509
Si Si6 0.957306 0.085326 0.977992
Si Si7 0.080975 0.358568 0.414326
Si Si8 0.935682 0.955125 0.484511
O O1 0.177849 0.110555 0.322066
O O2 0.048741 0.236836 0.446340
O O3 0.996952 0.106672 0.185948
O O4 0.043538 0.010822 0.496198
O O5 0.774948 0.699735 0.537182
O O6 0.829645 0.496737 0.567114
O O7 0.785353 0.616145 0.846851
O O8 0.956081 0.637273 0.643338
O O9 0.210525 0.670799 0.219037
O O10 0.154848 0.630900 0.540621
O O11 0.353692 0.620851 0.426460
O O12 0.834314 0.283179 0.562195
O O13 0.200494 0.359627 0.415588
O O14 0.379694 0.432159 0.482312
O O15 0.950671 0.956941 0.956405
O O16 0.052280 0.395082 0.210614
#
# Coordination Sequence:
#
# PCOD9313699 Si02
#       8
#     4   4   4   4   4   4   4   4
#     4  10  22  39  63  95 127 170 212 265 319 391
#     4  11  25  42  66  90 132 171 212 268 321 382
#     4  11  23  41  64  94 126 168 214 272 322 384
#     4  10  24  43  62  92 128 169 213 260 322 383
#     4  10  19  40  62  90 125 163 208 265 319 374
#     4  11  22  40  62  93 123 167 218 260 325 386
#     4  10  21  37  64  92 128 168 217 261 324 387
#     4  11  20  38  65  96 125 166 210 265 326 383
#
# _framework density 25.787398
#
# number of rings (size 3 to 8) (size 9 to 14) (size 15 to 20)
#    0.000    1.500    3.750    1.500    1.750    5.000 
#    2.250    2.500    0.000    0.000    0.000    0.000 
#    0.000    0.000    0.000    0.000    0.000    0.000 
#
# Total GULP energy -178566.682740 kJ/mol
# GULP energy per Si atom -5580.208836 kJ/mol
# Density = 2.572871 g / cm^3
# Si number density = 25.787398 Si / 1000 Ang^3
#
#
#
# Elastic Constant Matrix: (Units=GPa)
#
#
# Indices 1 2 3 4 5 6 
#
# 1 84.2209 33.2520 13.4577 0.0000 0.0000 0.0000
# 2 33.2520 145.0822 -1.3515 0.0000 0.0000 0.0000
# 3 13.4577 -1.3515 37.1614 0.0000 0.0000 0.0000
# 4 0.0000 0.0000 0.0000 30.6476 0.0000 0.0000
# 5 0.0000 0.0000 0.0000 0.0000 27.9361 0.0000
# 6 0.0000 0.0000 0.0000 0.0000 0.0000 11.0756
#
#
#
# Elastic Compliance Matrix: (Units=1/GPa)
#
#
# Indices 1 2 3 4 5 6 
#
# 1 0.013987 -0.003254 -0.005183 0.000000 0.000000 0.000000
# 2 -0.003254 0.007652 0.001457 0.000000 0.000000 0.000000
# 3 -0.005183 0.001457 0.028840 0.000000 0.000000 0.000000
# 4 0.000000 0.000000 0.000000 0.032629 0.000000 0.000000
# 5 0.000000 0.000000 0.000000 0.000000 0.035796 0.000000
# 6 0.000000 0.000000 0.000000 0.000000 0.000000 0.090289
#
#
# Mechanical properties :
#
#
# Convention : Reuss Voigt Hill
#
# Bulk Modulus (GPa) = 27.38457 39.68675 33.53566
# Shear Modulus (GPa) = 21.24716 28.67228 24.95972
#
# Velocity S-wave (km/s) = 2.87354 3.33809 3.11449
# Velocity P-wave (km/s) = 4.65318 5.50277 5.09571
#
# Compressibility (1/GPa) = 0.03651691
#
# Stress axis : x y z
#
# Youngs Moduli (GPa) = 71.49745 130.68490 34.67432
#
# Poissons Ratio (x) = 0.42524 0.17973
# Poissons Ratio (y) = 0.23265 -0.05051
# Poissons Ratio (z) = 0.37060 -0.19036
#
# Static dielectric constant tensor:
#      x y z
#    x 2.102100 0.000000 0.000000 
#    y 0.000000 2.024400 0.000000 
#    z 0.000000 0.000000 2.239820 
# 
# From -- ./inp_files/3985.got.cif
#   From: 2010.05.17/outbox.cif.g08.bks.cpg/sg19_2_cif.got.tgz:3985.got - 2010.06.03 22:46:19.
