data_PCOD9313248
_publ_section_title
;
Structure prediction by ZEFSAII (Michael W. Deem and Ramdas Pophale) SiO2 
 PCOD9313248
Probable space group: P 21 21 2
;
_chemical_formula_sum "Si O2"
_cell_formula_units_Z 12
_cell_length_a 5.434139
_cell_length_b 19.247314
_cell_length_c 4.830060
_cell_angle_alpha 90.000000
_cell_angle_beta 90.000000
_cell_angle_gamma 90.000000
_cell_volume 505.188435
_symmetry_space_group_name_H-M "P 21 21 2"
_symmetry_group_IT_number 18
_symmetry_cell_setting 'orthorhombic'
loop_
_space_group_symop_operation_xyz
x,y,z
-x,-y,z
1/2+x,1/2-y,-z
1/2-x,1/2+y,-z
loop_
_atom_site_type_symbol
_atom_site_label
_atom_site_fract_x
_atom_site_fract_y
_atom_site_fract_z
Si Si1 0.884607 0.790767 0.437041
Si Si2 0.248972 0.987090 0.226647
Si Si3 0.946462 0.884596 0.937711
O O1 0.120297 0.740997 0.481278
O O2 0.941612 0.857254 0.629807
O O3 0.875504 0.818807 0.125539
O O4 0.230322 0.050494 0.005976
O O5 0.500000 0.000000 0.380616
O O6 0.202798 0.915672 0.061446
O O7 0.000000 0.000000 0.399805
#
# Coordination Sequence:
#
# PCOD9313248 Si02
#       3
#     4   4   4
#     4  12  26  39  64  87 126 164 198 244 294 362
#     4   8  20  36  68  84 120 152 196 260 294 348
#     4   9  24  42  62  92 120 155 208 242 306 349
#
# _framework density 23.753512000000001
#
# number of rings (size 3 to 8) (size 9 to 14) (size 15 to 20)
#    2.000    0.000    0.000    2.000    9.333    5.333 
#    0.000    3.333    0.000    0.000    0.000    0.000 
#    0.000    0.000    0.000    0.000    0.000    0.000 
#
# Total GULP energy -66871.505956 kJ/mol
# GULP energy per Si atom -5572.625496 kJ/mol
# Density = 2.369945 g / cm^3
# Si number density = 23.753512 Si / 1000 Ang^3
#
#
#
# Elastic Constant Matrix: (Units=GPa)
#
#
# Indices 1 2 3 4 5 6 
#
# 1 84.7884 -16.1324 14.2823 0.0000 0.0000 0.0000
# 2 -16.1324 70.0080 8.5793 0.0000 0.0000 0.0000
# 3 14.2823 8.5793 54.8284 0.0000 0.0000 0.0000
# 4 0.0000 0.0000 0.0000 34.5643 0.0000 0.0000
# 5 0.0000 0.0000 0.0000 0.0000 12.2485 0.0000
# 6 0.0000 0.0000 0.0000 0.0000 0.0000 27.3891
#
#
#
# Elastic Compliance Matrix: (Units=1/GPa)
#
#
# Indices 1 2 3 4 5 6 
#
# 1 0.013131 0.003512 -0.003970 0.000000 0.000000 0.000000
# 2 0.003512 0.015503 -0.003341 0.000000 0.000000 0.000000
# 3 -0.003970 -0.003341 0.019796 0.000000 0.000000 0.000000
# 4 0.000000 0.000000 0.000000 0.028932 0.000000 0.000000
# 5 0.000000 0.000000 0.000000 0.000000 0.081643 0.000000
# 6 0.000000 0.000000 0.000000 0.000000 0.000000 0.036511
#
#
# Mechanical properties :
#
#
# Convention : Reuss Voigt Hill
#
# Bulk Modulus (GPa) = 24.49022 24.78704 24.63863
# Shear Modulus (GPa) = 23.07095 28.36674 25.71885
#
# Velocity S-wave (km/s) = 3.11989 3.45949 3.29407
# Velocity P-wave (km/s) = 4.82813 5.13957 4.98628
#
# Compressibility (1/GPa) = 0.04083262
#
# Stress axis : x y z
#
# Youngs Moduli (GPa) = 76.15500 64.50422 50.51611
#
# Poissons Ratio (x) = -0.22657 0.20056
# Poissons Ratio (y) = -0.26749 0.16876
# Poissons Ratio (z) = 0.30235 0.21549
#
# Static dielectric constant tensor:
#      x y z
#    x 2.052450 0.000000 0.000000 
#    y 0.000000 1.909410 0.000000 
#    z 0.000000 0.000000 1.792560 
# 
# From -- ./inp_files/10.got.cif
#   From: 2010.05.17/outbox.cif.g08.bks.cpg/sg18_1_cif.got.tgz:10.got - 2010.06.03 22:40:56.
