data_PCOD9313732
_publ_section_title
;
Structure prediction by ZEFSAII (Michael W. Deem and Ramdas Pophale) SiO2 
 PCOD9313732
Probable space group: P 21 21 21
;
_chemical_formula_sum "Si O2"
_cell_formula_units_Z 32
_cell_length_a 8.962159
_cell_length_b 11.862891
_cell_length_c 13.886743
_cell_angle_alpha 90.000000
_cell_angle_beta 90.000000
_cell_angle_gamma 90.000000
_cell_volume 1476.398457
_symmetry_space_group_name_H-M "P 21 21 21"
_symmetry_group_IT_number 19
_symmetry_cell_setting 'orthorhombic'
loop_
_space_group_symop_operation_xyz
x,y,z
1/2-x,-y,1/2+z
1/2+x,1/2-y,-z
-x,1/2+y,1/2-z
loop_
_atom_site_type_symbol
_atom_site_label
_atom_site_fract_x
_atom_site_fract_y
_atom_site_fract_z
Si Si1 0.402434 0.951155 0.223275
Si Si2 0.742487 0.916295 0.246853
Si Si3 0.634902 0.217972 0.918330
Si Si4 0.910013 0.730592 0.123167
Si Si5 0.365022 0.089937 0.602037
Si Si6 0.046970 0.600908 0.300928
Si Si7 0.741894 0.490279 0.577407
Si Si8 0.430916 0.137831 0.060164
O O1 0.314547 0.984248 0.320584
O O2 0.434435 0.055899 0.151463
O O3 0.564099 0.905309 0.252573
O O4 0.289558 0.878769 0.155710
O O5 0.828937 0.886000 0.346152
O O6 0.800540 0.819626 0.174185
O O7 0.792417 0.040568 0.209141
O O8 0.505974 0.301744 0.875556
O O9 0.793920 0.280119 0.919495
O O10 0.585708 0.191693 0.027368
O O11 0.817005 0.637446 0.068349
O O12 0.034454 0.805306 0.072241
O O13 0.998845 0.658096 0.202001
O O14 0.356193 0.007196 0.510912
O O15 0.446815 0.010072 0.679606
O O16 0.612926 0.571747 0.538978
#
# Coordination Sequence:
#
# PCOD9313732 Si02
#       8
#     4   4   4   4   4   4   4   4
#     4  11  23  46  63  99 140 174 225 288 338 388
#     4  10  24  40  69  98 134 177 222 278 337 412
#     4  11  23  42  67 104 132 177 233 275 340 410
#     4  10  21  42  67  89 131 177 220 265 339 405
#     4  10  22  42  68  95 128 179 220 272 344 399
#     4  10  19  43  64  95 129 176 218 276 333 396
#     4  11  22  43  67  94 139 175 219 289 331 400
#     4  11  26  42  71 100 139 179 229 285 342 408
#
# _framework density 21.674367
#
# number of rings (size 3 to 8) (size 9 to 14) (size 15 to 20)
#    0.000    1.500    3.750    1.500    7.000    2.000 
#    9.000    0.000    0.000    0.000    0.000    0.000 
#    0.000    0.000    0.000    0.000    0.000    0.000 
#
# Total GULP energy -178328.016017 kJ/mol
# GULP energy per Si atom -5572.750501 kJ/mol
# Density = 2.162504 g / cm^3
# Si number density = 21.674367 Si / 1000 Ang^3
#
#
#
# Elastic Constant Matrix: (Units=GPa)
#
#
# Indices 1 2 3 4 5 6 
#
# 1 69.3377 11.5663 25.0112 0.0000 0.0000 0.0000
# 2 11.5663 48.0180 8.3748 0.0000 0.0000 0.0000
# 3 25.0112 8.3748 79.5371 0.0000 0.0000 0.0000
# 4 0.0000 0.0000 0.0000 23.5760 0.0000 0.0000
# 5 0.0000 0.0000 0.0000 0.0000 30.8907 0.0000
# 6 0.0000 0.0000 0.0000 0.0000 0.0000 28.7598
#
#
#
# Elastic Compliance Matrix: (Units=1/GPa)
#
#
# Indices 1 2 3 4 5 6 
#
# 1 0.016728 -0.003170 -0.004926 0.000000 0.000000 0.000000
# 2 -0.003170 0.021816 -0.001300 0.000000 0.000000 0.000000
# 3 -0.004926 -0.001300 0.014259 0.000000 0.000000 0.000000
# 4 0.000000 0.000000 0.000000 0.042416 0.000000 0.000000
# 5 0.000000 0.000000 0.000000 0.000000 0.032372 0.000000
# 6 0.000000 0.000000 0.000000 0.000000 0.000000 0.034771
#
#
# Mechanical properties :
#
#
# Convention : Reuss Voigt Hill
#
# Bulk Modulus (GPa) = 29.40388 31.86638 30.63513
# Shear Modulus (GPa) = 25.97513 26.77467 26.37490
#
# Velocity S-wave (km/s) = 3.46559 3.51852 3.49215
# Velocity P-wave (km/s) = 5.44145 5.58935 5.51590
#
# Compressibility (1/GPa) = 0.03400911
#
# Stress axis : x y z
#
# Youngs Moduli (GPa) = 59.77986 45.83813 70.13197
#
# Poissons Ratio (x) = 0.14531 0.34551
# Poissons Ratio (y) = 0.18951 0.09119
# Poissons Ratio (z) = 0.29451 0.05960
#
# Static dielectric constant tensor:
#      x y z
#    x 1.859900 0.000000 0.000000 
#    y 0.000000 1.822230 0.000000 
#    z 0.000000 0.000000 1.833600 
# 
# From -- ./inp_files/5960.got.cif
#   From: 2010.05.17/outbox.cif.g08.bks.cpg/sg19_3_cif.got.tgz:5960.got - 2010.06.03 22:46:19.
