data_PCOD9313933
_publ_section_title
;
Structure prediction by ZEFSAII (Michael W. Deem and Ramdas Pophale) SiO2 
 PCOD9313933
Probable space group: P 21 21 21
;
_chemical_formula_sum "Si O2"
_cell_formula_units_Z 32
_cell_length_a 12.778253
_cell_length_b 9.283996
_cell_length_c 13.596606
_cell_angle_alpha 90.000000
_cell_angle_beta 90.000000
_cell_angle_gamma 90.000000
_cell_volume 1613.009555
_symmetry_space_group_name_H-M "P 21 21 21"
_symmetry_group_IT_number 19
_symmetry_cell_setting 'orthorhombic'
loop_
_space_group_symop_operation_xyz
x,y,z
1/2-x,-y,1/2+z
1/2+x,1/2-y,-z
-x,1/2+y,1/2-z
loop_
_atom_site_type_symbol
_atom_site_label
_atom_site_fract_x
_atom_site_fract_y
_atom_site_fract_z
Si Si1 0.801525 0.934361 0.727340
Si Si2 0.417636 0.489914 0.451376
Si Si3 0.375421 0.896160 0.942401
Si Si4 0.633525 0.268428 0.947988
Si Si5 0.797786 0.864082 0.956322
Si Si6 0.886370 0.836504 0.226815
Si Si7 0.524925 0.976415 0.582896
Si Si8 0.685870 0.721976 0.587971
O O1 0.810867 0.898156 0.841625
O O2 0.762822 0.790224 0.670321
O O3 0.898621 0.000754 0.665754
O O4 0.711848 0.055754 0.714741
O O5 0.515448 0.407905 0.497631
O O6 0.428240 0.655138 0.484890
O O7 0.309811 0.431915 0.501227
O O8 0.383572 0.799833 0.844654
O O9 0.340605 0.054616 0.909660
O O10 0.299878 0.804084 0.014113
O O11 0.617392 0.215484 0.837462
O O12 0.586299 0.427898 0.958252
O O13 0.752505 0.258178 0.984840
O O14 0.898371 0.933245 0.012115
O O15 0.980714 0.935349 0.184966
O O16 0.586189 0.825599 0.596562
#
# Coordination Sequence:
#
# PCOD9313933 Si02
#       8
#     4   4   4   4   4   4   4   4
#     4  10  20  43  67  84 123 180 204 239 322 384
#     4  11  21  41  63  87 124 166 198 255 317 359
#     4  11  24  38  61  97 127 153 207 270 302 364
#     4  11  21  36  65  90 119 163 205 252 311 360
#     4  11  22  44  65  88 128 168 208 253 310 375
#     4  10  21  38  61  93 121 157 206 258 311 362
#     4  10  20  38  61  87 121 163 203 247 311 375
#     4  10  21  38  59  90 125 156 205 256 304 363
#
# _framework density 19.838692000000002
#
# number of rings (size 3 to 8) (size 9 to 14) (size 15 to 20)
#    0.000    1.500    7.500    0.000    1.750    3.000 
#    4.500    0.000    0.000    0.000    0.000    0.000 
#    0.000    0.000    0.000    0.000    0.000    0.000 
#
# Total GULP energy -178350.098233 kJ/mol
# GULP energy per Si atom -5573.440570 kJ/mol
# Density = 1.979354 g / cm^3
# Si number density = 19.838692 Si / 1000 Ang^3
#
#
#
# Elastic Constant Matrix: (Units=GPa)
#
#
# Indices 1 2 3 4 5 6 
#
# 1 34.8289 21.0216 10.6684 0.0000 0.0000 0.0000
# 2 21.0216 125.5112 27.9541 0.0000 0.0000 0.0000
# 3 10.6684 27.9541 106.5604 0.0000 0.0000 0.0000
# 4 0.0000 0.0000 0.0000 28.8607 0.0000 0.0000
# 5 0.0000 0.0000 0.0000 0.0000 15.0120 0.0000
# 6 0.0000 0.0000 0.0000 0.0000 0.0000 32.7282
#
#
#
# Elastic Compliance Matrix: (Units=1/GPa)
#
#
# Indices 1 2 3 4 5 6 
#
# 1 0.032309 -0.004982 -0.001928 0.000000 0.000000 0.000000
# 2 -0.004982 0.009230 -0.001923 0.000000 0.000000 0.000000
# 3 -0.001928 -0.001923 0.010082 0.000000 0.000000 0.000000
# 4 0.000000 0.000000 0.000000 0.034649 0.000000 0.000000
# 5 0.000000 0.000000 0.000000 0.000000 0.066613 0.000000
# 6 0.000000 0.000000 0.000000 0.000000 0.000000 0.030555
#
#
# Mechanical properties :
#
#
# Convention : Reuss Voigt Hill
#
# Bulk Modulus (GPa) = 29.44956 42.90984 36.17970
# Shear Modulus (GPa) = 23.53809 29.13729 26.33769
#
# Velocity S-wave (km/s) = 3.44826 3.83653 3.64757
# Velocity P-wave (km/s) = 5.54353 6.42664 6.00135
#
# Compressibility (1/GPa) = 0.03395637
#
# Stress axis : x y z
#
# Youngs Moduli (GPa) = 30.95087 108.34191 99.18977
#
# Poissons Ratio (x) = 0.53977 0.19121
# Poissons Ratio (y) = 0.15420 0.19070
# Poissons Ratio (z) = 0.05966 0.20829
#
# Static dielectric constant tensor:
#      x y z
#    x 1.736100 0.000000 0.000000 
#    y 0.000000 1.728950 0.000000 
#    z 0.000000 0.000000 1.712190 
# 
# From -- ./inp_files/6259.got.cif
#   From: 2010.05.17/outbox.cif.g08.bks.cpg/sg19_4_cif.got.tgz:6259.got - 2010.06.03 22:46:19.
