data_PCOD9313784
_publ_section_title
;
Structure prediction by ZEFSAII (Michael W. Deem and Ramdas Pophale) SiO2 
 PCOD9313784
Probable space group: P 21 21 21
;
_chemical_formula_sum "Si O2"
_cell_formula_units_Z 32
_cell_length_a 14.904209
_cell_length_b 8.837200
_cell_length_c 10.536311
_cell_angle_alpha 90.000000
_cell_angle_beta 90.000000
_cell_angle_gamma 90.000000
_cell_volume 1387.753071
_symmetry_space_group_name_H-M "P 21 21 21"
_symmetry_group_IT_number 19
_symmetry_cell_setting 'orthorhombic'
loop_
_space_group_symop_operation_xyz
x,y,z
1/2-x,-y,1/2+z
1/2+x,1/2-y,-z
-x,1/2+y,1/2-z
loop_
_atom_site_type_symbol
_atom_site_label
_atom_site_fract_x
_atom_site_fract_y
_atom_site_fract_z
Si Si1 0.551886 0.601866 0.913166
Si Si2 0.112384 0.631535 0.959796
Si Si3 0.723650 0.422168 0.980875
Si Si4 0.389582 0.694429 0.346375
Si Si5 0.610593 0.642408 0.645924
Si Si6 0.723231 0.897261 0.794828
Si Si7 0.212671 0.709610 0.723286
Si Si8 0.547102 0.848665 0.438014
O O1 0.539948 0.773796 0.960160
O O2 0.653238 0.554535 0.955816
O O3 0.554309 0.573359 0.762222
O O4 0.485648 0.496062 0.990425
O O5 0.190390 0.600161 0.061757
O O6 0.086622 0.472375 0.897094
O O7 0.151941 0.731665 0.845560
O O8 0.750316 0.359036 0.842088
O O9 0.668369 0.286797 0.049241
O O10 0.811234 0.448154 0.069406
O O11 0.322988 0.667914 0.229146
O O12 0.477346 0.796609 0.329418
O O13 0.660467 0.785392 0.713471
O O14 0.546552 0.713682 0.540464
O O15 0.720733 0.071108 0.747033
O O16 0.146362 0.643060 0.615353
#
# Coordination Sequence:
#
# PCOD9313784 Si02
#       8
#     4   4   4   4   4   4   4   4
#     4  10  22  37  58  88 119 150 194 251 290 344
#     4  10  20  34  59  87 114 148 201 241 280 349
#     4   9  18  36  58  83 111 153 196 237 295 342
#     4   9  18  36  60  79 118 154 185 240 300 349
#     4   9  20  37  61  83 119 155 200 242 293 349
#     4   9  18  36  60  86 109 152 204 242 273 353
#     4  10  20  35  63  83 117 154 201 235 298 354
#     4  10  22  39  59  87 121 162 189 238 315 362
#
# _framework density 23.058858000000001
#
# number of rings (size 3 to 8) (size 9 to 14) (size 15 to 20)
#    0.000    2.500    1.250    0.000    3.500    4.000 
#    0.000    0.000   11.000    0.000    0.000    0.000 
#    0.000    0.000    0.000    0.000    0.000    0.000 
#
# Total GULP energy -178589.684842 kJ/mol
# GULP energy per Si atom -5580.927651 kJ/mol
# Density = 2.300638 g / cm^3
# Si number density = 23.058858 Si / 1000 Ang^3
#
#
#
# Elastic Constant Matrix: (Units=GPa)
#
#
# Indices 1 2 3 4 5 6 
#
# 1 31.8351 7.6488 -9.2978 0.0000 0.0000 0.0000
# 2 7.6488 27.1156 -2.5805 0.0000 0.0000 0.0000
# 3 -9.2978 -2.5805 56.6548 0.0000 0.0000 0.0000
# 4 0.0000 0.0000 0.0000 35.2818 0.0000 0.0000
# 5 0.0000 0.0000 0.0000 0.0000 10.6046 0.0000
# 6 0.0000 0.0000 0.0000 0.0000 0.0000 13.8662
#
#
#
# Elastic Compliance Matrix: (Units=1/GPa)
#
#
# Indices 1 2 3 4 5 6 
#
# 1 0.035242 -0.009431 0.005354 0.000000 0.000000 0.000000
# 2 -0.009431 0.039564 0.000254 0.000000 0.000000 0.000000
# 3 0.005354 0.000254 0.018541 0.000000 0.000000 0.000000
# 4 0.000000 0.000000 0.000000 0.028343 0.000000 0.000000
# 5 0.000000 0.000000 0.000000 0.000000 0.094299 0.000000
# 6 0.000000 0.000000 0.000000 0.000000 0.000000 0.072118
#
#
# Mechanical properties :
#
#
# Convention : Reuss Voigt Hill
#
# Bulk Modulus (GPa) = 11.66864 11.90518 11.78691
# Shear Modulus (GPa) = 15.41689 19.93951 17.67820
#
# Velocity S-wave (km/s) = 2.58851 2.94381 2.77186
# Velocity P-wave (km/s) = 3.74236 4.09009 3.92008
#
# Compressibility (1/GPa) = 0.08569982
#
# Stress axis : x y z
#
# Youngs Moduli (GPa) = 28.37560 25.27565 53.93457
#
# Poissons Ratio (x) = 0.23839 -0.28877
# Poissons Ratio (y) = 0.26762 -0.01371
# Poissons Ratio (z) = -0.15192 -0.00643
#
# Static dielectric constant tensor:
#      x y z
#    x 1.866970 0.000000 0.000000 
#    y 0.000000 1.888140 0.000000 
#    z 0.000000 0.000000 1.879440 
# 
# From -- ./inp_files/5429.got.cif
#   From: 2010.05.17/outbox.cif.g08.bks.cpg/sg19_3_cif.got.tgz:5429.got - 2010.06.03 22:46:19.
