data_PCOD9313868
_publ_section_title
;
Structure prediction by ZEFSAII (Michael W. Deem and Ramdas Pophale) SiO2 
 PCOD9313868
Probable space group: P 21 21 21
;
_chemical_formula_sum "Si O2"
_cell_formula_units_Z 28
_cell_length_a 12.476885
_cell_length_b 13.691038
_cell_length_c 7.561941
_cell_angle_alpha 90.000000
_cell_angle_beta 90.000000
_cell_angle_gamma 90.000000
_cell_volume 1291.742155
_symmetry_space_group_name_H-M "P 21 21 21"
_symmetry_group_IT_number 19
_symmetry_cell_setting 'orthorhombic'
loop_
_space_group_symop_operation_xyz
x,y,z
1/2-x,-y,1/2+z
1/2+x,1/2-y,-z
-x,1/2+y,1/2-z
loop_
_atom_site_type_symbol
_atom_site_label
_atom_site_fract_x
_atom_site_fract_y
_atom_site_fract_z
Si Si1 0.208142 0.117110 0.454836
Si Si2 0.605926 0.494831 0.225667
Si Si3 0.536443 0.291033 0.110381
Si Si4 0.397424 0.705341 0.749399
Si Si5 0.818652 0.150500 0.935181
Si Si6 0.737676 0.218699 0.297683
Si Si7 0.897641 0.934927 0.944535
O O1 0.292776 0.056760 0.340413
O O2 0.136314 0.192589 0.342092
O O3 0.273242 0.191580 0.583378
O O4 0.135613 0.047621 0.580567
O O5 0.492651 0.550841 0.201031
O O6 0.588999 0.399314 0.100107
O O7 0.537909 0.235032 0.924881
O O8 0.415470 0.301865 0.173426
O O9 0.613730 0.240375 0.248043
O O10 0.289361 0.654592 0.675080
O O11 0.442535 0.629679 0.892951
O O12 0.860472 0.044294 0.989714
O O13 0.798473 0.208961 0.115413
O O14 0.715722 0.116607 0.392548
#
# Coordination Sequence:
#
# PCOD9313868 Si02
#       7
#     4   4   4   4   4   4   4
#     4  10  21  38  59  85 117 157 200 250 295 356
#     4  10  21  38  58  85 120 156 201 250 301 351
#     4   9  20  37  56  85 118 152 200 240 298 355
#     4  10  21  38  61  87 120 157 204 244 297 371
#     4  10  20  37  59  82 120 156 190 255 293 352
#     4   9  20  37  55  85 117 150 201 241 292 362
#     4  10  21  37  58  87 118 154 198 242 302 359
#
# _framework density 21.676151999999998
#
# number of rings (size 3 to 8) (size 9 to 14) (size 15 to 20)
#    0.000    2.286    0.000    1.714    4.000    0.000 
#    0.000    7.143    0.000    0.000    0.000    0.000 
#    0.000    0.000    0.000    0.000    0.000    0.000 
#
# Total GULP energy -156084.007209 kJ/mol
# GULP energy per Si atom -5574.428829 kJ/mol
# Density = 2.162682 g / cm^3
# Si number density = 21.676152 Si / 1000 Ang^3
#
#
#
# Elastic Constant Matrix: (Units=GPa)
#
#
# Indices 1 2 3 4 5 6 
#
# 1 44.1741 8.7743 -16.2900 0.0000 0.0000 0.0000
# 2 8.7743 57.4688 1.2197 0.0000 0.0000 0.0000
# 3 -16.2900 1.2197 41.3702 0.0000 0.0000 0.0000
# 4 0.0000 0.0000 0.0000 34.0128 0.0000 0.0000
# 5 0.0000 0.0000 0.0000 0.0000 -4.4318 0.0000
# 6 0.0000 0.0000 0.0000 0.0000 0.0000 17.5235
#
#
#
# Elastic Compliance Matrix: (Units=1/GPa)
#
#
# Indices 1 2 3 4 5 6 
#
# 1 0.027572 -0.004443 0.010988 0.000000 0.000000 0.000000
# 2 -0.004443 0.018128 -0.002284 0.000000 0.000000 0.000000
# 3 0.010988 -0.002284 0.028566 0.000000 0.000000 0.000000
# 4 0.000000 0.000000 0.000000 0.029401 0.000000 0.000000
# 5 0.000000 0.000000 0.000000 0.000000 -0.225640 0.000000
# 6 0.000000 0.000000 0.000000 0.000000 0.000000 0.057066
#
#
# Mechanical properties :
#
#
# Convention : Reuss Voigt Hill
#
# Bulk Modulus (GPa) = 12.07909 14.49124 13.28516
# Shear Modulus (GPa) = -109.09118 19.37483 -44.85817
#
# Velocity S-wave (km/s) = -7.10190 2.99295 -4.55408
# Velocity P-wave (km/s) = 7.85269 4.31781 4.63795
#
# Compressibility (1/GPa) = 0.08278768
#
# Stress axis : x y z
#
# Youngs Moduli (GPa) = 36.26850 55.16459 35.00678
#
# Poissons Ratio (x) = 0.24509 -0.38465
# Poissons Ratio (y) = 0.16114 0.07995
# Poissons Ratio (z) = -0.39851 0.12599
#
# Static dielectric constant tensor:
#      x y z
#    x 1.783500 0.000000 0.000000 
#    y 0.000000 1.918910 0.000000 
#    z 0.000000 0.000000 1.790510 
# 
# From -- ./inp_files/3889.got.cif
#   From: 2010.05.17/outbox.cif.g08.bks.cpg/sg19_2_cif.got.tgz:3889.got - 2010.06.03 22:46:19.
