data_PCOD9313737
_publ_section_title
;
Structure prediction by ZEFSAII (Michael W. Deem and Ramdas Pophale) SiO2 
 PCOD9313737
Probable space group: P 21 21 21
;
_chemical_formula_sum "Si O2"
_cell_formula_units_Z 20
_cell_length_a 6.068996
_cell_length_b 25.104239
_cell_length_c 5.182097
_cell_angle_alpha 90.000000
_cell_angle_beta 90.000000
_cell_angle_gamma 90.000000
_cell_volume 789.531479
_symmetry_space_group_name_H-M "P 21 21 21"
_symmetry_group_IT_number 19
_symmetry_cell_setting 'orthorhombic'
loop_
_space_group_symop_operation_xyz
x,y,z
1/2-x,-y,1/2+z
1/2+x,1/2-y,-z
-x,1/2+y,1/2-z
loop_
_atom_site_type_symbol
_atom_site_label
_atom_site_fract_x
_atom_site_fract_y
_atom_site_fract_z
Si Si1 0.580785 0.056733 0.347771
Si Si2 0.896119 0.058695 0.850429
Si Si3 0.539222 0.831246 0.523945
Si Si4 0.997026 0.333737 0.750537
Si Si5 0.907693 0.777153 0.247350
O O1 0.750139 0.063991 0.589141
O O2 0.417463 0.107610 0.329694
O O3 0.477191 0.997544 0.363031
O O4 0.716760 0.054332 0.080440
O O5 0.035068 0.112043 0.912882
O O6 0.738645 0.843191 0.721724
O O7 0.666010 0.801567 0.290295
O O8 0.415174 0.784568 0.676597
O O9 0.983286 0.292109 0.520000
O O10 0.956266 0.310685 0.035485
#
# Coordination Sequence:
#
# PCOD9313737 Si02
#       5
#     4   4   4   4   4
#     4   9  14  27  41  66  89 112 142 190 232 259
#     4   9  16  24  45  63  91 112 144 187 232 258
#     4   9  20  31  46  69  95 120 153 182 225 271
#     4   9  18  29  45  66  93 118 152 180 228 265
#     4  10  20  29  47  64  96 124 149 185 219 273
#
# _framework density 25.331478000000001
#
# number of rings (size 3 to 8) (size 9 to 14) (size 15 to 20)
#    1.200    1.600    2.000    0.000    2.800    0.000 
#    0.000    0.000    0.000    0.000    0.000    2.800 
#    0.000    0.000    0.000    0.000    0.000    0.000 
#
# Total GULP energy -111350.087055 kJ/mol
# GULP energy per Si atom -5567.504353 kJ/mol
# Density = 2.527382 g / cm^3
# Si number density = 25.331478 Si / 1000 Ang^3
#
#
#
# Elastic Constant Matrix: (Units=GPa)
#
#
# Indices 1 2 3 4 5 6 
#
# 1 28.5477 36.0493 9.0045 0.0000 0.0000 0.0000
# 2 36.0493 379.1056 38.1939 0.0000 0.0000 0.0000
# 3 9.0045 38.1939 176.0137 0.0000 0.0000 0.0000
# 4 0.0000 0.0000 0.0000 7.3582 0.0000 0.0000
# 5 0.0000 0.0000 0.0000 0.0000 17.4621 0.0000
# 6 0.0000 0.0000 0.0000 0.0000 0.0000 12.4788
#
#
#
# Elastic Compliance Matrix: (Units=1/GPa)
#
#
# Indices 1 2 3 4 5 6 
#
# 1 0.040077 -0.003685 -0.001251 0.000000 0.000000 0.000000
# 2 -0.003685 0.003036 -0.000470 0.000000 0.000000 0.000000
# 3 -0.001251 -0.000470 0.005847 0.000000 0.000000 0.000000
# 4 0.000000 0.000000 0.000000 0.135903 0.000000 0.000000
# 5 0.000000 0.000000 0.000000 0.000000 0.057267 0.000000
# 6 0.000000 0.000000 0.000000 0.000000 0.000000 0.080136
#
#
# Mechanical properties :
#
#
# Convention : Reuss Voigt Hill
#
# Bulk Modulus (GPa) = 26.21355 83.35137 54.78246
# Shear Modulus (GPa) = 14.45954 40.82112 27.64033
#
# Velocity S-wave (km/s) = 2.39176 4.01868 3.30683
# Velocity P-wave (km/s) = 4.24241 7.38300 6.02108
#
# Compressibility (1/GPa) = 0.03814821
#
# Stress axis : x y z
#
# Youngs Moduli (GPa) = 24.95213 329.42882 171.01670
#
# Poissons Ratio (x) = 1.21392 0.21388
# Poissons Ratio (y) = 0.09195 0.08041
# Poissons Ratio (z) = 0.03121 0.15489
#
# Static dielectric constant tensor:
#      x y z
#    x 1.332340 0.000000 0.000000 
#    y 0.000000 2.154200 0.000000 
#    z 0.000000 0.000000 1.924720 
# 
# From -- ./inp_files/458.got.cif
#   From: 2010.05.17/outbox.cif.g08.bks.cpg/sg19_1_cif.got.tgz:458.got - 2010.06.03 22:46:19.
