data_PCOD9313813
_publ_section_title
;
Structure prediction by ZEFSAII (Michael W. Deem and Ramdas Pophale) SiO2 
 PCOD9313813
Probable space group: P 21 21 21
;
_chemical_formula_sum "Si O2"
_cell_formula_units_Z 32
_cell_length_a 18.305376
_cell_length_b 12.943788
_cell_length_c 5.390991
_cell_angle_alpha 90.000000
_cell_angle_beta 90.000000
_cell_angle_gamma 90.000000
_cell_volume 1277.346293
_symmetry_space_group_name_H-M "P 21 21 21"
_symmetry_group_IT_number 19
_symmetry_cell_setting 'orthorhombic'
loop_
_space_group_symop_operation_xyz
x,y,z
1/2-x,-y,1/2+z
1/2+x,1/2-y,-z
-x,1/2+y,1/2-z
loop_
_atom_site_type_symbol
_atom_site_label
_atom_site_fract_x
_atom_site_fract_y
_atom_site_fract_z
Si Si1 0.908707 0.307965 0.312295
Si Si2 0.186176 0.115560 0.365323
Si Si3 0.476126 0.849838 0.755223
Si Si4 0.725082 0.056232 0.937829
Si Si5 0.775965 0.588043 0.656473
Si Si6 0.349288 0.298487 0.184596
Si Si7 0.429748 0.492654 0.404761
Si Si8 0.067324 0.000033 0.888561
O O1 0.871469 0.262983 0.564810
O O2 0.921405 0.427441 0.373017
O O3 0.989550 0.260908 0.284547
O O4 0.869959 0.268990 0.059348
O O5 0.101282 0.138523 0.388825
O O6 0.228436 0.158038 0.602283
O O7 0.212093 0.995108 0.354268
O O8 0.212471 0.147174 0.095292
O O9 0.459374 0.887619 0.478998
O O10 0.536200 0.926407 0.870838
O O11 0.638537 0.060351 0.000933
O O12 0.762712 0.020523 0.199904
O O13 0.767970 0.156801 0.844575
O O14 0.850484 0.520958 0.699503
O O15 0.394483 0.406933 0.218104
O O16 0.501922 0.543187 0.279910
#
# Coordination Sequence:
#
# PCOD9313813 Si02
#       8
#     4   4   4   4   4   4   4   4
#     4  11  24  37  61  87 125 162 205 257 308 367
#     4   9  17  31  56  77 108 146 194 234 300 350
#     4  10  20  38  59  86 122 157 201 254 312 365
#     4  10  20  35  62  90 118 161 208 252 313 381
#     4   9  18  32  52  82 106 148 193 245 286 362
#     4  10  21  41  56  88 121 159 204 252 307 371
#     4  10  20  35  64  88 120 159 207 254 311 371
#     4  11  22  37  60  90 122 162 214 252 313 371
#
# _framework density 25.051939000000001
#
# number of rings (size 3 to 8) (size 9 to 14) (size 15 to 20)
#    0.000    2.000    2.500    2.250    3.500    0.000 
#    0.000    1.250    0.000    0.000    0.000    0.000 
#    0.000    0.000    0.000    0.000    0.000    0.000 
#
# Total GULP energy -178650.277717 kJ/mol
# GULP energy per Si atom -5582.821179 kJ/mol
# Density = 2.499492 g / cm^3
# Si number density = 25.051939 Si / 1000 Ang^3
#
#
#
# Elastic Constant Matrix: (Units=GPa)
#
#
# Indices 1 2 3 4 5 6 
#
# 1 166.5196 53.0055 44.2260 0.0000 0.0000 0.0000
# 2 53.0055 35.5244 2.8573 0.0000 0.0000 0.0000
# 3 44.2260 2.8573 160.3987 0.0000 0.0000 0.0000
# 4 0.0000 0.0000 0.0000 16.5256 0.0000 0.0000
# 5 0.0000 0.0000 0.0000 0.0000 55.2813 0.0000
# 6 0.0000 0.0000 0.0000 0.0000 0.0000 29.6287
#
#
#
# Elastic Compliance Matrix: (Units=1/GPa)
#
#
# Indices 1 2 3 4 5 6 
#
# 1 0.012910 -0.019004 -0.003221 0.000000 0.000000 0.000000
# 2 -0.019004 0.056164 0.004239 0.000000 0.000000 0.000000
# 3 -0.003221 0.004239 0.007047 0.000000 0.000000 0.000000
# 4 0.000000 0.000000 0.000000 0.060512 0.000000 0.000000
# 5 0.000000 0.000000 0.000000 0.000000 0.018089 0.000000
# 6 0.000000 0.000000 0.000000 0.000000 0.000000 0.033751
#
#
# Mechanical properties :
#
#
# Convention : Reuss Voigt Hill
#
# Bulk Modulus (GPa) = 24.90658 62.51337 43.70998
# Shear Modulus (GPa) = 21.02361 37.77737 29.40049
#
# Velocity S-wave (km/s) = 2.90004 3.88746 3.42947
# Velocity P-wave (km/s) = 4.60187 6.71993 5.75911
#
# Compressibility (1/GPa) = 0.04015003
#
# Stress axis : x y z
#
# Youngs Moduli (GPa) = 77.45980 17.80504 141.90273
#
# Poissons Ratio (x) = 0.33836 0.45708
# Poissons Ratio (y) = 1.47202 -0.60157
# Poissons Ratio (z) = 0.24950 -0.07548
#
# Static dielectric constant tensor:
#      x y z
#    x 2.013300 0.000000 0.000000 
#    y 0.000000 1.942470 0.000000 
#    z 0.000000 0.000000 2.116000 
# 
# From -- ./inp_files/1550.got.cif
#   From: 2010.05.17/outbox.cif.g08.bks.cpg/sg19_1_cif.got.tgz:1550.got - 2010.06.03 22:46:19.
