data_PCOD9313815
_publ_section_title
;
Structure prediction by ZEFSAII (Michael W. Deem and Ramdas Pophale) SiO2 
 PCOD9313815
Probable space group: P 21 21 21
;
_chemical_formula_sum "Si O2"
_cell_formula_units_Z 24
_cell_length_a 14.416816
_cell_length_b 5.551762
_cell_length_c 11.832108
_cell_angle_alpha 90.000000
_cell_angle_beta 90.000000
_cell_angle_gamma 90.000000
_cell_volume 947.026912
_symmetry_space_group_name_H-M "P 21 21 21"
_symmetry_group_IT_number 19
_symmetry_cell_setting 'orthorhombic'
loop_
_space_group_symop_operation_xyz
x,y,z
1/2-x,-y,1/2+z
1/2+x,1/2-y,-z
-x,1/2+y,1/2-z
loop_
_atom_site_type_symbol
_atom_site_label
_atom_site_fract_x
_atom_site_fract_y
_atom_site_fract_z
Si Si1 0.343057 0.790986 0.926545
Si Si2 0.875417 0.649260 0.683710
Si Si3 0.767198 0.298131 0.979117
Si Si4 0.704840 0.869475 0.247453
Si Si5 0.952124 0.615704 0.277199
Si Si6 0.972333 0.070114 0.986696
O O1 0.273650 0.613681 0.860084
O O2 0.372126 0.945377 0.814374
O O3 0.435793 0.698503 0.986987
O O4 0.284726 0.914999 0.025300
O O5 0.805783 0.699565 0.579304
O O6 0.849032 0.385655 0.732082
O O7 0.976617 0.628707 0.628725
O O8 0.857534 0.891257 0.755412
O O9 0.739348 0.166694 0.864300
O O10 0.874350 0.209936 0.998293
O O11 0.021523 0.391010 0.254072
O O12 0.954479 0.619454 0.412595
#
# Coordination Sequence:
#
# PCOD9313815 Si02
#       6
#     4   4   4   4   4   4
#     4  10  22  44  68 104 139 191 235 297 353 415
#     4  11  27  45  67 107 136 186 238 292 345 431
#     4  11  24  46  72 100 145 189 231 297 360 420
#     4  11  26  44  69  99 144 181 239 285 356 425
#     4  10  20  35  62  99 127 169 226 280 333 402
#     4  11  23  42  72  99 145 184 237 289 357 415
#
# _framework density 25.342469000000001
#
# number of rings (size 3 to 8) (size 9 to 14) (size 15 to 20)
#    0.000    1.333    3.333    1.000    4.667    1.333 
#    0.000    0.000    0.000    0.000    0.000    0.000 
#    0.000    0.000    0.000    0.000    0.000    0.000 
#
# Total GULP energy -133630.765602 kJ/mol
# GULP energy per Si atom -5567.948567 kJ/mol
# Density = 2.528479 g / cm^3
# Si number density = 25.342469 Si / 1000 Ang^3
#
#
#
# Elastic Constant Matrix: (Units=GPa)
#
#
# Indices 1 2 3 4 5 6 
#
# 1 87.1455 36.2306 21.2134 0.0000 0.0000 0.0000
# 2 36.2306 88.2142 42.2425 0.0000 0.0000 0.0000
# 3 21.2134 42.2425 63.9389 0.0000 0.0000 0.0000
# 4 0.0000 0.0000 0.0000 10.9337 0.0000 0.0000
# 5 0.0000 0.0000 0.0000 0.0000 56.9413 0.0000
# 6 0.0000 0.0000 0.0000 0.0000 0.0000 32.4130
#
#
#
# Elastic Compliance Matrix: (Units=1/GPa)
#
#
# Indices 1 2 3 4 5 6 
#
# 1 0.013904 -0.005122 -0.001229 0.000000 0.000000 0.000000
# 2 -0.005122 0.018469 -0.010503 0.000000 0.000000 0.000000
# 3 -0.001229 -0.010503 0.022986 0.000000 0.000000 0.000000
# 4 0.000000 0.000000 0.000000 0.091460 0.000000 0.000000
# 5 0.000000 0.000000 0.000000 0.000000 0.017562 0.000000
# 6 0.000000 0.000000 0.000000 0.000000 0.000000 0.030852
#
#
# Mechanical properties :
#
#
# Convention : Reuss Voigt Hill
#
# Bulk Modulus (GPa) = 46.18491 48.74129 47.46310
# Shear Modulus (GPa) = 21.17233 29.36508 25.26871
#
# Velocity S-wave (km/s) = 2.89355 3.40771 3.16110
# Velocity P-wave (km/s) = 5.42470 5.89560 5.66504
#
# Compressibility (1/GPa) = 0.02165209
#
# Stress axis : x y z
#
# Youngs Moduli (GPa) = 71.92362 54.14501 43.50393
#
# Poissons Ratio (x) = 0.27732 0.05347
# Poissons Ratio (y) = 0.36838 0.45690
# Poissons Ratio (z) = 0.08840 0.56866
#
# Static dielectric constant tensor:
#      x y z
#    x 2.040370 0.000000 0.000000 
#    y 0.000000 2.256050 0.000000 
#    z 0.000000 0.000000 2.025180 
# 
# From -- ./inp_files/928.got.cif
#   From: 2010.05.17/outbox.cif.g08.bks.cpg/sg19_1_cif.got.tgz:928.got - 2010.06.03 22:46:19.
