data_PCOD9313975
_publ_section_title
;
Structure prediction by ZEFSAII (Michael W. Deem and Ramdas Pophale) SiO2 
 PCOD9313975
Probable space group: P 21 21 21
;
_chemical_formula_sum "Si O2"
_cell_formula_units_Z 32
_cell_length_a 6.887822
_cell_length_b 25.397140
_cell_length_c 9.095869
_cell_angle_alpha 90.000000
_cell_angle_beta 90.000000
_cell_angle_gamma 90.000000
_cell_volume 1591.149275
_symmetry_space_group_name_H-M "P 21 21 21"
_symmetry_group_IT_number 19
_symmetry_cell_setting 'orthorhombic'
loop_
_space_group_symop_operation_xyz
x,y,z
1/2-x,-y,1/2+z
1/2+x,1/2-y,-z
-x,1/2+y,1/2-z
loop_
_atom_site_type_symbol
_atom_site_label
_atom_site_fract_x
_atom_site_fract_y
_atom_site_fract_z
Si Si1 0.932400 0.555476 0.132350
Si Si2 0.644350 0.641051 0.065698
Si Si3 0.429089 0.818412 0.450133
Si Si4 0.871797 0.946399 0.782792
Si Si5 0.306060 0.989623 0.169727
Si Si6 0.614401 0.619820 0.740541
Si Si7 0.602794 0.713705 0.331957
Si Si8 0.824931 0.872243 0.513288
O O1 0.855326 0.613536 0.089370
O O2 0.829668 0.538554 0.284760
O O3 0.160999 0.549120 0.147295
O O4 0.854094 0.518103 0.001184
O O5 0.497716 0.595561 0.124255
O O6 0.623362 0.691717 0.167802
O O7 0.598993 0.649615 0.895628
O O8 0.275935 0.851669 0.357292
O O9 0.523828 0.772183 0.352995
O O10 0.307228 0.792878 0.583579
O O11 0.603297 0.854663 0.505804
O O12 0.850312 0.921706 0.620318
O O13 0.995868 0.999332 0.759901
O O14 0.192173 0.938009 0.220318
O O15 0.418618 0.617767 0.645834
O O16 0.450037 0.674754 0.412661
#
# Coordination Sequence:
#
# PCOD9313975 Si02
#       8
#     4   4   4   4   4   4   4   4
#     4  10  21  38  59  86 116 161 196 241 298 349
#     4   9  21  41  57  84 125 151 192 247 296 353
#     4  11  21  38  63  86 115 152 198 246 299 352
#     4  10  21  37  63  88 111 163 204 238 293 350
#     4  10  22  38  57  83 125 153 197 244 289 352
#     4  10  23  39  55  86 123 155 186 246 301 350
#     4  10  20  39  62  85 114 153 197 248 293 354
#     4  10  21  38  62  88 115 150 208 246 289 358
#
# _framework density 20.111249000000001
#
# number of rings (size 3 to 8) (size 9 to 14) (size 15 to 20)
#    0.000    2.000    1.250    1.500    0.000   10.000 
#    2.250    0.000    0.000    0.000    0.000    0.000 
#    0.000    0.000    0.000    0.000    0.000    0.000 
#
# Total GULP energy -178753.751510 kJ/mol
# GULP energy per Si atom -5586.054735 kJ/mol
# Density = 2.006548 g / cm^3
# Si number density = 20.111249 Si / 1000 Ang^3
#
#
#
# Elastic Constant Matrix: (Units=GPa)
#
#
# Indices 1 2 3 4 5 6 
#
# 1 94.0239 -9.9209 11.4610 0.0000 0.0000 0.0000
# 2 -9.9209 12.6174 -14.1809 0.0000 0.0000 0.0000
# 3 11.4610 -14.1809 40.7763 0.0000 0.0000 0.0000
# 4 0.0000 0.0000 0.0000 17.3069 0.0000 0.0000
# 5 0.0000 0.0000 0.0000 0.0000 21.7234 0.0000
# 6 0.0000 0.0000 0.0000 0.0000 0.0000 20.8511
#
#
#
# Elastic Compliance Matrix: (Units=1/GPa)
#
#
# Indices 1 2 3 4 5 6 
#
# 1 0.011598 0.008957 -0.000145 0.000000 0.000000 0.000000
# 2 0.008957 0.137028 0.045137 0.000000 0.000000 0.000000
# 3 -0.000145 0.045137 0.040262 0.000000 0.000000 0.000000
# 4 0.000000 0.000000 0.000000 0.057780 0.000000 0.000000
# 5 0.000000 0.000000 0.000000 0.000000 0.046033 0.000000
# 6 0.000000 0.000000 0.000000 0.000000 0.000000 0.047959
#
#
# Mechanical properties :
#
#
# Convention : Reuss Voigt Hill
#
# Bulk Modulus (GPa) = 3.36943 13.57068 8.47006
# Shear Modulus (GPa) = 15.07419 22.64686 18.86052
#
# Velocity S-wave (km/s) = 2.74074 3.35935 3.06569
# Velocity P-wave (km/s) = 3.41974 4.67006 4.09292
#
# Compressibility (1/GPa) = 0.29678568
#
# Stress axis : x y z
#
# Youngs Moduli (GPa) = 86.21937 7.29778 24.83714
#
# Poissons Ratio (x) = -0.06536 0.00360
# Poissons Ratio (y) = -0.77222 -1.12108
# Poissons Ratio (z) = 0.01251 -0.32940
#
# Static dielectric constant tensor:
#      x y z
#    x 1.706210 0.000000 0.000000 
#    y 0.000000 1.702520 0.000000 
#    z 0.000000 0.000000 1.715770 
# 
# From -- ./inp_files/2524.got.cif
#   From: 2010.05.17/outbox.cif.g08.bks.cpg/sg19_2_cif.got.tgz:2524.got - 2010.06.03 22:46:19.
