data_PCOD9313430
_publ_section_title
;
Structure prediction by ZEFSAII (Michael W. Deem and Ramdas Pophale) SiO2 
 PCOD9313430
Probable space group: P 21 21 21
;
_chemical_formula_sum "Si O2"
_cell_formula_units_Z 32
_cell_length_a 7.007729
_cell_length_b 12.984240
_cell_length_c 21.871120
_cell_angle_alpha 90.000000
_cell_angle_beta 90.000000
_cell_angle_gamma 90.000000
_cell_volume 1990.053978
_symmetry_space_group_name_H-M "P 21 21 21"
_symmetry_group_IT_number 19
_symmetry_cell_setting 'orthorhombic'
loop_
_space_group_symop_operation_xyz
x,y,z
1/2-x,-y,1/2+z
1/2+x,1/2-y,-z
-x,1/2+y,1/2-z
loop_
_atom_site_type_symbol
_atom_site_label
_atom_site_fract_x
_atom_site_fract_y
_atom_site_fract_z
Si Si1 0.457825 0.161858 0.424559
Si Si2 0.737919 0.322718 0.372444
Si Si3 0.128302 0.332304 0.443580
Si Si4 0.607134 0.953272 0.142494
Si Si5 0.940008 0.494600 0.676525
Si Si6 0.284609 0.351927 0.224546
Si Si7 0.163636 0.833816 0.267948
Si Si8 0.045558 0.342951 0.786872
O O1 0.603495 0.223617 0.380449
O O2 0.276728 0.236417 0.438304
O O3 0.574926 0.143144 0.486681
O O4 0.399319 0.060740 0.387317
O O5 0.590157 0.413988 0.387492
O O6 0.802450 0.345828 0.304094
O O7 0.925566 0.309440 0.412340
O O8 0.227775 0.423557 0.405003
O O9 0.580710 0.070959 0.161813
O O10 0.651275 0.889113 0.206283
O O11 0.777182 0.574990 0.697658
O O12 0.975197 0.408124 0.728220
O O13 0.133312 0.561547 0.679169
O O14 0.386743 0.245538 0.206930
O O15 0.059756 0.340267 0.220748
O O16 0.260511 0.723482 0.281423
#
# Coordination Sequence:
#
# PCOD9313430 Si02
#       8
#     4   4   4   4   4   4   4   4
#     4  11  22  38  54  83 116 147 180 220 280 324
#     4  11  19  34  52  78 118 142 176 224 263 333
#     4  11  22  35  56  82 109 148 182 218 267 336
#     4  10  20  34  52  79 112 142 182 223 271 325
#     4  10  21  35  50  80 116 145 171 231 277 330
#     4  10  20  33  51  82 111 144 181 222 275 332
#     4  11  20  33  54  82 111 145 185 217 285 334
#     4  10  18  34  51  78 113 141 173 231 274 316
#
# _framework density 16.079965000000001
#
# number of rings (size 3 to 8) (size 9 to 14) (size 15 to 20)
#    0.000    1.500    7.500    0.750    0.000    4.000 
#    0.000    0.000    0.000    0.000   19.500    0.000 
#    0.000    0.000    0.000    0.000    0.000    0.000 
#
# Total GULP energy -178230.438067 kJ/mol
# GULP energy per Si atom -5569.701190 kJ/mol
# Density = 1.604337 g / cm^3
# Si number density = 16.079965 Si / 1000 Ang^3
#
#
#
# Elastic Constant Matrix: (Units=GPa)
#
#
# Indices 1 2 3 4 5 6 
#
# 1 108.0634 25.2003 17.6155 0.0000 0.0000 0.0000
# 2 25.2003 85.3221 26.0566 0.0000 0.0000 0.0000
# 3 17.6155 26.0566 47.8824 0.0000 0.0000 0.0000
# 4 0.0000 0.0000 0.0000 20.8734 0.0000 0.0000
# 5 0.0000 0.0000 0.0000 0.0000 26.6577 0.0000
# 6 0.0000 0.0000 0.0000 0.0000 0.0000 11.3952
#
#
#
# Elastic Compliance Matrix: (Units=1/GPa)
#
#
# Indices 1 2 3 4 5 6 
#
# 1 0.010188 -0.002236 -0.002531 0.000000 0.000000 0.000000
# 2 -0.002236 0.014547 -0.007094 0.000000 0.000000 0.000000
# 3 -0.002531 -0.007094 0.025676 0.000000 0.000000 0.000000
# 4 0.000000 0.000000 0.000000 0.047908 0.000000 0.000000
# 5 0.000000 0.000000 0.000000 0.000000 0.037513 0.000000
# 6 0.000000 0.000000 0.000000 0.000000 0.000000 0.087756
#
#
# Mechanical properties :
#
#
# Convention : Reuss Voigt Hill
#
# Bulk Modulus (GPa) = 37.46844 42.11254 39.79049
# Shear Modulus (GPa) = 19.51560 23.27831 21.39696
#
# Velocity S-wave (km/s) = 3.48754 3.80894 3.65178
# Velocity P-wave (km/s) = 6.29040 6.75206 6.52532
#
# Compressibility (1/GPa) = 0.02668913
#
# Stress axis : x y z
#
# Youngs Moduli (GPa) = 98.15582 68.74258 38.94709
#
# Poissons Ratio (x) = 0.15371 0.09858
# Poissons Ratio (y) = 0.21948 0.27627
# Poissons Ratio (z) = 0.24845 0.48763
#
# Static dielectric constant tensor:
#      x y z
#    x 1.551850 0.000000 0.000000 
#    y 0.000000 1.549480 0.000000 
#    z 0.000000 0.000000 1.550280 
# 
# From -- ./inp_files/7290.got.cif
#   From: 2010.05.17/outbox.cif.g08.bks.cpg/sg19_4_cif.got.tgz:7290.got - 2010.06.03 22:46:19.
