data_PCOD9313859
_publ_section_title
;
Structure prediction by ZEFSAII (Michael W. Deem and Ramdas Pophale) SiO2 
 PCOD9313859
Probable space group: P 21 21 21
;
_chemical_formula_sum "Si O2"
_cell_formula_units_Z 32
_cell_length_a 11.938154
_cell_length_b 10.742660
_cell_length_c 9.679106
_cell_angle_alpha 90.000000
_cell_angle_beta 90.000000
_cell_angle_gamma 90.000000
_cell_volume 1241.321432
_symmetry_space_group_name_H-M "P 21 21 21"
_symmetry_group_IT_number 19
_symmetry_cell_setting 'orthorhombic'
loop_
_space_group_symop_operation_xyz
x,y,z
1/2-x,-y,1/2+z
1/2+x,1/2-y,-z
-x,1/2+y,1/2-z
loop_
_atom_site_type_symbol
_atom_site_label
_atom_site_fract_x
_atom_site_fract_y
_atom_site_fract_z
Si Si1 0.607382 0.138352 0.263571
Si Si2 0.986350 0.754262 0.486730
Si Si3 0.785031 0.105822 0.701073
Si Si4 0.539244 0.017745 0.802061
Si Si5 0.765797 0.455382 0.537247
Si Si6 0.496930 0.507655 0.009304
Si Si7 0.822447 0.191204 0.403872
Si Si8 0.275706 0.855573 0.684688
O O1 0.733461 0.186849 0.279835
O O2 0.617959 0.991293 0.232595
O O3 0.553478 0.128539 0.415282
O O4 0.547582 0.205814 0.140064
O O5 0.014119 0.881032 0.404916
O O6 0.879856 0.704067 0.396752
O O7 0.062077 0.629177 0.498988
O O8 0.668950 0.058602 0.767419
O O9 0.779425 0.109945 0.535160
O O10 0.801079 0.243147 0.761696
O O11 0.484216 0.032260 0.652533
O O12 0.562503 0.876807 0.857945
O O13 0.807489 0.328946 0.463749
O O14 0.720153 0.548224 0.421280
O O15 0.693386 0.423963 0.671296
O O16 0.884684 0.512461 0.586974
#
# Coordination Sequence:
#
# PCOD9313859 Si02
#       8
#     4   4   4   4   4   4   4   4
#     4  11  22  41  66  93 129 166 220 273 326 382
#     4  10  23  42  64  91 130 169 210 274 330 384
#     4   9  18  38  65  93 115 167 220 263 310 383
#     4  10  20  39  63  90 129 163 215 269 321 379
#     4  10  23  42  64  96 133 173 223 264 332 393
#     4  11  25  41  60  97 133 168 213 274 332 393
#     4  10  20  36  67  93 116 174 222 263 314 393
#     4   9  21  41  65  93 131 164 219 266 315 399
#
# _framework density 25.778980000000001
#
# number of rings (size 3 to 8) (size 9 to 14) (size 15 to 20)
#    0.000    2.000    2.500    0.000    5.250    2.000 
#    0.000    2.500    0.000    0.000    0.000    0.000 
#    0.000    0.000    0.000    0.000    0.000    0.000 
#
# Total GULP energy -178586.573112 kJ/mol
# GULP energy per Si atom -5580.830410 kJ/mol
# Density = 2.572031 g / cm^3
# Si number density = 25.778980 Si / 1000 Ang^3
#
#
#
# Elastic Constant Matrix: (Units=GPa)
#
#
# Indices 1 2 3 4 5 6 
#
# 1 39.1941 13.3926 31.8901 0.0000 0.0000 0.0000
# 2 13.3926 95.5526 52.0899 0.0000 0.0000 0.0000
# 3 31.8901 52.0899 141.6016 0.0000 0.0000 0.0000
# 4 0.0000 0.0000 0.0000 55.1174 0.0000 0.0000
# 5 0.0000 0.0000 0.0000 0.0000 39.1138 0.0000
# 6 0.0000 0.0000 0.0000 0.0000 0.0000 22.7786
#
#
#
# Elastic Compliance Matrix: (Units=1/GPa)
#
#
# Indices 1 2 3 4 5 6 
#
# 1 0.031273 -0.000680 -0.006793 0.000000 0.000000 0.000000
# 2 -0.000680 0.013105 -0.004668 0.000000 0.000000 0.000000
# 3 -0.006793 -0.004668 0.010309 0.000000 0.000000 0.000000
# 4 0.000000 0.000000 0.000000 0.018143 0.000000 0.000000
# 5 0.000000 0.000000 0.000000 0.000000 0.025566 0.000000
# 6 0.000000 0.000000 0.000000 0.000000 0.000000 0.043901
#
#
# Mechanical properties :
#
#
# Convention : Reuss Voigt Hill
#
# Bulk Modulus (GPa) = 32.88810 52.34371 42.61591
# Shear Modulus (GPa) = 28.29410 35.33367 31.81389
#
# Velocity S-wave (km/s) = 3.31655 3.70623 3.51679
# Velocity P-wave (km/s) = 5.23941 6.21802 5.74957
#
# Compressibility (1/GPa) = 0.03040613
#
# Stress axis : x y z
#
# Youngs Moduli (GPa) = 31.97603 76.30445 97.00261
#
# Poissons Ratio (x) = 0.05190 0.65893
# Poissons Ratio (y) = 0.02175 0.45279
# Poissons Ratio (z) = 0.21721 0.35617
#
# Static dielectric constant tensor:
#      x y z
#    x 2.194460 0.000000 0.000000 
#    y 0.000000 2.132770 0.000000 
#    z 0.000000 0.000000 2.056240 
# 
# From -- ./inp_files/3923.got.cif
#   From: 2010.05.17/outbox.cif.g08.bks.cpg/sg19_2_cif.got.tgz:3923.got - 2010.06.03 22:46:19.
