data_PCOD9313541
_publ_section_title
;
Structure prediction by ZEFSAII (Michael W. Deem and Ramdas Pophale) SiO2 
 PCOD9313541
Probable space group: P 21 21 21
;
_chemical_formula_sum "Si O2"
_cell_formula_units_Z 32
_cell_length_a 20.719989
_cell_length_b 5.113071
_cell_length_c 12.726132
_cell_angle_alpha 90.000000
_cell_angle_beta 90.000000
_cell_angle_gamma 90.000000
_cell_volume 1348.241738
_symmetry_space_group_name_H-M "P 21 21 21"
_symmetry_group_IT_number 19
_symmetry_cell_setting 'orthorhombic'
loop_
_space_group_symop_operation_xyz
x,y,z
1/2-x,-y,1/2+z
1/2+x,1/2-y,-z
-x,1/2+y,1/2-z
loop_
_atom_site_type_symbol
_atom_site_label
_atom_site_fract_x
_atom_site_fract_y
_atom_site_fract_z
Si Si1 0.858153 0.434168 0.102216
Si Si2 0.489644 0.323338 0.872179
Si Si3 0.564436 0.840767 0.903143
Si Si4 0.992367 0.885498 0.594575
Si Si5 0.785319 0.593073 0.639261
Si Si6 0.346084 0.556796 0.037713
Si Si7 0.799142 0.102393 0.490682
Si Si8 0.902226 0.678560 0.775502
O O1 0.919763 0.298312 0.157541
O O2 0.791023 0.420165 0.165221
O O3 0.867338 0.725032 0.051737
O O4 0.846370 0.234616 0.006331
O O5 0.523317 0.601487 0.857993
O O6 0.458464 0.600698 0.657059
O O7 0.486816 0.304064 0.000462
O O8 0.641209 0.851545 0.912620
O O9 0.539888 0.884354 0.024163
O O10 0.051610 0.979748 0.664041
O O11 0.939873 0.769448 0.672384
O O12 0.800537 0.339569 0.571515
O O13 0.832532 0.584963 0.737812
O O14 0.800903 0.840263 0.562732
O O15 0.271014 0.612728 0.062234
O O16 0.388420 0.596595 0.140156
#
# Coordination Sequence:
#
# PCOD9313541 Si02
#       8
#     4   4   4   4   4   4   4   4
#     4  10  19  39  50  75  98 149 180 222 246 317
#     4  10  19  34  51  75 101 138 170 213 257 312
#     4  10  19  34  51  75 101 138 170 213 257 312
#     4  10  24  28  50  72 118 130 166 202 270 320
#     4  10  22  34  56  67 109 140 188 210 260 306
#     4  10  22  34  56  67 109 140 188 210 260 306
#     4  10  19  39  50  75  98 149 180 222 246 317
#     4  12  22  36  48  88 106 154 162 224 264 328
#
# _framework density 23.734614000000001
#
# number of rings (size 3 to 8) (size 9 to 14) (size 15 to 20)
#    0.750    1.000    2.500    3.000    5.250    1.000 
#    0.000    0.000    0.000    0.000    0.000    1.750 
#    0.000    0.000    0.000    0.000    0.000    0.000 
#
# Total GULP energy -178719.378258 kJ/mol
# GULP energy per Si atom -5584.980571 kJ/mol
# Density = 2.368059 g / cm^3
# Si number density = 23.734614 Si / 1000 Ang^3
#
#
#
# Elastic Constant Matrix: (Units=GPa)
#
#
# Indices 1 2 3 4 5 6 
#
# 1 95.3041 -10.9191 33.4443 0.0000 0.0000 0.0000
# 2 -10.9191 107.5607 1.0877 0.0000 0.0000 0.0000
# 3 33.4443 1.0877 75.7980 0.0000 0.0000 0.0000
# 4 0.0000 0.0000 0.0000 -49.3508 0.0000 0.0000
# 5 0.0000 0.0000 0.0000 0.0000 36.3405 0.0000
# 6 0.0000 0.0000 0.0000 0.0000 0.0000 16.2130
#
#
#
# Elastic Compliance Matrix: (Units=1/GPa)
#
#
# Indices 1 2 3 4 5 6 
#
# 1 0.012604 0.001336 -0.005580 0.000000 0.000000 0.000000
# 2 0.001336 0.009440 -0.000725 0.000000 0.000000 0.000000
# 3 -0.005580 -0.000725 0.015666 0.000000 0.000000 0.000000
# 4 0.000000 0.000000 0.000000 -0.020263 0.000000 0.000000
# 5 0.000000 0.000000 0.000000 0.000000 0.027518 0.000000
# 6 0.000000 0.000000 0.000000 0.000000 0.000000 0.061679
#
#
# Mechanical properties :
#
#
# Convention : Reuss Voigt Hill
#
# Bulk Modulus (GPa) = 36.00894 36.20982 36.10938
# Shear Modulus (GPa) = 39.73337 17.64387 28.68862
#
# Velocity S-wave (km/s) = 4.09598 2.72946 3.48044
# Velocity P-wave (km/s) = 6.12975 5.02220 5.60341
#
# Compressibility (1/GPa) = 0.02777088
#
# Stress axis : x y z
#
# Youngs Moduli (GPa) = 79.33925 105.93196 63.83400
#
# Poissons Ratio (x) = -0.14152 0.35622
# Poissons Ratio (y) = -0.10599 0.04627
# Poissons Ratio (z) = 0.44275 0.07679
#
# Static dielectric constant tensor:
#      x y z
#    x 1.965260 0.000000 0.000000 
#    y 0.000000 1.895730 0.000000 
#    z 0.000000 0.000000 1.949130 
# 
# From -- ./inp_files/5495.got.cif
#   From: 2010.05.17/outbox.cif.g08.bks.cpg/sg19_3_cif.got.tgz:5495.got - 2010.06.03 22:46:19.
