data_PCOD9313026
_publ_section_title
;
Structure prediction by ZEFSAII (Michael W. Deem and Ramdas Pophale) SiO2 
 PCOD9313026
Probable space group: P 21 21 2
;
_chemical_formula_sum "Si O2"
_cell_formula_units_Z 32
_cell_length_a 9.535688
_cell_length_b 14.613720
_cell_length_c 11.874595
_cell_angle_alpha 90.000000
_cell_angle_beta 90.000000
_cell_angle_gamma 90.000000
_cell_volume 1654.747071
_symmetry_space_group_name_H-M "P 21 21 2"
_symmetry_group_IT_number 18
_symmetry_cell_setting 'orthorhombic'
loop_
_space_group_symop_operation_xyz
x,y,z
-x,-y,z
1/2+x,1/2-y,-z
1/2-x,1/2+y,-z
loop_
_atom_site_type_symbol
_atom_site_label
_atom_site_fract_x
_atom_site_fract_y
_atom_site_fract_z
Si Si1 0.506828 0.196291 0.812895
Si Si2 0.997533 0.609837 0.945726
Si Si3 0.219951 0.677702 0.776850
Si Si4 0.230208 0.308398 0.777574
Si Si5 0.658334 0.505305 0.675659
Si Si6 0.514000 0.247625 0.396988
Si Si7 0.067636 0.403382 0.410113
Si Si8 0.885802 0.062372 0.573222
O O1 0.644990 0.259329 0.797648
O O2 0.369269 0.259269 0.820113
O O3 0.494248 0.134977 0.701312
O O4 0.516851 0.135052 0.924021
O O5 0.871943 0.658194 0.876801
O O6 0.000000 0.500000 0.928495
O O7 0.136910 0.654064 0.891012
O O8 0.263070 0.581786 0.722112
O O9 0.113036 0.720797 0.686389
O O10 0.271709 0.400933 0.713077
O O11 0.146882 0.246438 0.686730
O O12 0.500000 0.500000 0.719898
O O13 0.649625 0.508073 0.541066
O O14 0.547266 0.170919 0.490485
O O15 0.465220 0.342413 0.452549
O O16 0.232181 0.416465 0.379219
O O17 0.000000 0.500000 0.444478
O O18 0.000000 0.000000 0.638329
#
# Coordination Sequence:
#
# PCOD9313026 Si02
#       8
#     4   4   4   4   4   4   4   4
#     4  12  25  43  66  95 132 178 221 269 342 400
#     4  11  24  44  67  94 130 170 224 285 336 392
#     4  11  23  42  71  93 131 168 225 278 327 397
#     4  11  23  41  69  95 128 166 227 274 331 396
#     4  11  20  38  66  98 124 164 214 277 323 381
#     4  11  25  42  64 100 132 176 214 277 334 390
#     4  12  26  41  65  97 137 177 221 268 331 413
#     4  11  25  41  64  96 140 175 215 271 331 398
#
# _framework density 19.338301999999999
#
# number of rings (size 3 to 8) (size 9 to 14) (size 15 to 20)
#    0.000    0.750    5.000    2.625    3.500    0.000 
#    0.000    0.000    0.000    0.750    0.000    0.000 
#    0.000    0.000    0.000    0.000    0.000    0.000 
#
# Total GULP energy -178783.919192 kJ/mol
# GULP energy per Si atom -5586.997475 kJ/mol
# Density = 1.929429 g / cm^3
# Si number density = 19.338302 Si / 1000 Ang^3
#
#
#
# Elastic Constant Matrix: (Units=GPa)
#
#
# Indices 1 2 3 4 5 6 
#
# 1 107.4498 35.0774 17.2833 0.0000 0.0000 0.0000
# 2 35.0774 78.1377 8.4930 0.0000 0.0000 0.0000
# 3 17.2833 8.4930 86.0086 0.0000 0.0000 0.0000
# 4 0.0000 0.0000 0.0000 39.0676 0.0000 0.0000
# 5 0.0000 0.0000 0.0000 0.0000 12.3489 0.0000
# 6 0.0000 0.0000 0.0000 0.0000 0.0000 30.7069
#
#
#
# Elastic Compliance Matrix: (Units=1/GPa)
#
#
# Indices 1 2 3 4 5 6 
#
# 1 0.011164 -0.004820 -0.001768 0.000000 0.000000 0.000000
# 2 -0.004820 0.015018 -0.000514 0.000000 0.000000 0.000000
# 3 -0.001768 -0.000514 0.012033 0.000000 0.000000 0.000000
# 4 0.000000 0.000000 0.000000 0.025597 0.000000 0.000000
# 5 0.000000 0.000000 0.000000 0.000000 0.080979 0.000000
# 6 0.000000 0.000000 0.000000 0.000000 0.000000 0.032566
#
#
# Mechanical properties :
#
#
# Convention : Reuss Voigt Hill
#
# Bulk Modulus (GPa) = 41.64717 43.70037 42.67377
# Shear Modulus (GPa) = 25.05473 30.47419 27.76446
#
# Velocity S-wave (km/s) = 3.60335 3.97400 3.79321
# Velocity P-wave (km/s) = 6.23659 6.61088 6.42646
#
# Compressibility (1/GPa) = 0.02401124
#
# Stress axis : x y z
#
# Youngs Moduli (GPa) = 89.57036 66.58889 83.10673
#
# Poissons Ratio (x) = 0.32094 0.14689
# Poissons Ratio (y) = 0.43171 0.04275
# Poissons Ratio (z) = 0.15832 0.03425
#
# Static dielectric constant tensor:
#      x y z
#    x 1.804100 0.000000 0.000000 
#    y 0.000000 1.674350 0.000000 
#    z 0.000000 0.000000 1.646550 
# 
# From -- ./inp_files/5663.got.cif
#   From: 2010.05.17/outbox.cif.g08.bks.cpg/sg18_3_cif.got.tgz:5663.got - 2010.06.03 22:40:56.
