data_PCOD9313551
_publ_section_title
;
Structure prediction by ZEFSAII (Michael W. Deem and Ramdas Pophale) SiO2 
 PCOD9313551
Probable space group: P 21 21 21
;
_chemical_formula_sum "Si O2"
_cell_formula_units_Z 32
_cell_length_a 9.309979
_cell_length_b 9.956186
_cell_length_c 14.023573
_cell_angle_alpha 90.000000
_cell_angle_beta 90.000000
_cell_angle_gamma 90.000000
_cell_volume 1299.871382
_symmetry_space_group_name_H-M "P 21 21 21"
_symmetry_group_IT_number 19
_symmetry_cell_setting 'orthorhombic'
loop_
_space_group_symop_operation_xyz
x,y,z
1/2-x,-y,1/2+z
1/2+x,1/2-y,-z
-x,1/2+y,1/2-z
loop_
_atom_site_type_symbol
_atom_site_label
_atom_site_fract_x
_atom_site_fract_y
_atom_site_fract_z
Si Si1 0.227392 0.730334 0.465813
Si Si2 0.113679 0.330184 0.673507
Si Si3 0.920863 0.605534 0.149301
Si Si4 0.867638 0.498803 0.595845
Si Si5 0.857429 0.044274 0.197416
Si Si6 0.003574 0.917282 0.528796
Si Si7 0.887524 0.133924 0.652318
Si Si8 0.359060 0.213972 0.549694
O O1 0.135314 0.629862 0.399463
O O2 0.121946 0.803119 0.538087
O O3 0.353801 0.642523 0.508385
O O4 0.310586 0.849362 0.407717
O O5 0.239920 0.372902 0.741964
O O6 0.203694 0.253116 0.590880
O O7 0.024187 0.458626 0.635370
O O8 0.995645 0.225557 0.711537
O O9 0.997990 0.544163 0.241970
O O10 0.012998 0.737991 0.119499
O O11 0.749303 0.590566 0.155768
O O12 0.946125 0.512374 0.056513
O O13 0.866001 0.438129 0.487625
O O14 0.771074 0.904922 0.185739
O O15 0.968858 0.995121 0.625512
O O16 0.875924 0.203135 0.548413
#
# Coordination Sequence:
#
# PCOD9313551 Si02
#       8
#     4   4   4   4   4   4   4   4
#     4  10  21  37  57  84 113 142 186 228 282 322
#     4  10  20  34  60  83 109 147 187 227 276 324
#     4   9  19  38  57  77 116 149 183 226 282 323
#     4  10  19  34  57  84 110 140 192 238 258 326
#     4  10  22  37  54  79 120 152 174 227 282 340
#     4   9  19  38  60  78 110 149 185 235 265 329
#     4   9  19  37  58  82 111 144 192 227 273 322
#     4   9  17  35  61  83 103 147 189 228 274 320
#
# _framework density 24.617819999999998
#
# number of rings (size 3 to 8) (size 9 to 14) (size 15 to 20)
#    0.000    2.500    0.000    3.000    1.750    4.000 
#   11.250    0.000    5.500    0.000    0.000    0.000 
#    0.000    0.000    0.000    0.000    0.000    0.000 
#
# Total GULP energy -178714.725130 kJ/mol
# GULP energy per Si atom -5584.835160 kJ/mol
# Density = 2.456179 g / cm^3
# Si number density = 24.617820 Si / 1000 Ang^3
#
#
#
# Elastic Constant Matrix: (Units=GPa)
#
#
# Indices 1 2 3 4 5 6 
#
# 1 110.0405 15.5072 10.3191 0.0000 0.0000 0.0000
# 2 15.5072 22.5570 -1.2592 0.0000 0.0000 0.0000
# 3 10.3191 -1.2592 16.7071 0.0000 0.0000 0.0000
# 4 0.0000 0.0000 0.0000 16.3661 0.0000 0.0000
# 5 0.0000 0.0000 0.0000 0.0000 24.1791 0.0000
# 6 0.0000 0.0000 0.0000 0.0000 0.0000 36.7735
#
#
#
# Elastic Compliance Matrix: (Units=1/GPa)
#
#
# Indices 1 2 3 4 5 6 
#
# 1 0.010886 -0.007892 -0.007319 0.000000 0.000000 0.000000
# 2 -0.007892 0.050241 0.008661 0.000000 0.000000 0.000000
# 3 -0.007319 0.008661 0.065028 0.000000 0.000000 0.000000
# 4 0.000000 0.000000 0.000000 0.061102 0.000000 0.000000
# 5 0.000000 0.000000 0.000000 0.000000 0.041358 0.000000
# 6 0.000000 0.000000 0.000000 0.000000 0.000000 0.027194
#
#
# Mechanical properties :
#
#
# Convention : Reuss Voigt Hill
#
# Bulk Modulus (GPa) = 8.84516 22.04876 15.44696
# Shear Modulus (GPa) = 16.30825 23.77956 20.04391
#
# Velocity S-wave (km/s) = 2.57662 3.11134 2.85652
# Velocity P-wave (km/s) = 3.52884 4.67794 4.14342
#
# Compressibility (1/GPa) = 0.11305618
#
# Stress axis : x y z
#
# Youngs Moduli (GPa) = 91.86035 19.90389 15.37803
#
# Poissons Ratio (x) = 0.15709 0.11255
# Poissons Ratio (y) = 0.72500 -0.13320
# Poissons Ratio (z) = 0.67229 -0.17240
#
# Static dielectric constant tensor:
#      x y z
#    x 1.995160 0.000000 0.000000 
#    y 0.000000 2.118660 0.000000 
#    z 0.000000 0.000000 1.949210 
# 
# From -- ./inp_files/4235.got.cif
#   From: 2010.05.17/outbox.cif.g08.bks.cpg/sg19_3_cif.got.tgz:4235.got - 2010.06.03 22:46:19.
