data_PCOD9313205
_publ_section_title
;
Structure prediction by ZEFSAII (Michael W. Deem and Ramdas Pophale) SiO2 
 PCOD9313205
Probable space group: P 21 21 2
;
_chemical_formula_sum "Si O2"
_cell_formula_units_Z 14
_cell_length_a 12.612896
_cell_length_b 9.106144
_cell_length_c 5.097256
_cell_angle_alpha 90.000000
_cell_angle_beta 90.000000
_cell_angle_gamma 90.000000
_cell_volume 585.444559
_symmetry_space_group_name_H-M "P 21 21 2"
_symmetry_group_IT_number 18
_symmetry_cell_setting 'orthorhombic'
loop_
_space_group_symop_operation_xyz
x,y,z
-x,-y,z
1/2+x,1/2-y,-z
1/2-x,1/2+y,-z
loop_
_atom_site_type_symbol
_atom_site_label
_atom_site_fract_x
_atom_site_fract_y
_atom_site_fract_z
Si Si1 0.681457 0.597796 0.527280
Si Si2 0.551312 0.771624 0.898494
Si Si3 0.000000 0.000000 0.728405
Si Si4 0.328369 0.934975 0.967714
O O1 0.595067 0.720827 0.613783
O O2 0.601506 0.463906 0.454414
O O3 0.755965 0.608681 0.277509
O O4 0.759416 0.589273 0.773127
O O5 0.436735 0.845791 0.925921
O O6 0.636051 0.895133 0.978553
O O7 0.540466 0.628539 0.080820
#
# Coordination Sequence:
#
# PCOD9313205 Si02
#       4
#     4   4   2   4
#     4  12  28  47  78 114 153 205 257 326 390 472
#     4  11  29  52  77 116 157 204 265 329 388 484
#     4  12  28  46  76 116 152 200 262 322 392 468
#     4  11  30  50  80 110 158 208 262 323 404 457
#
# _framework density 23.913447999999999
#
# number of rings (size 3 to 8) (size 9 to 14) (size 15 to 20)
#    0.000    0.571    2.857    0.857   12.000    4.571 
#    0.000    0.000    0.000    0.000    0.000    0.000 
#    0.000    0.000    0.000    0.000    0.000    0.000 
#
# Total GULP energy -78238.124438 kJ/mol
# GULP energy per Si atom -5588.437460 kJ/mol
# Density = 2.385902 g / cm^3
# Si number density = 23.913448 Si / 1000 Ang^3
#
#
#
# Elastic Constant Matrix: (Units=GPa)
#
#
# Indices 1 2 3 4 5 6 
#
# 1 149.9848 53.1806 77.5300 0.0000 0.0000 0.0000
# 2 53.1806 113.0308 48.1689 0.0000 0.0000 0.0000
# 3 77.5300 48.1689 185.8142 0.0000 0.0000 0.0000
# 4 0.0000 0.0000 0.0000 9.4463 0.0000 0.0000
# 5 0.0000 0.0000 0.0000 0.0000 42.5357 0.0000
# 6 0.0000 0.0000 0.0000 0.0000 0.0000 36.3773
#
#
#
# Elastic Compliance Matrix: (Units=1/GPa)
#
#
# Indices 1 2 3 4 5 6 
#
# 1 0.009368 -0.003082 -0.003110 0.000000 0.000000 0.000000
# 2 -0.003082 0.010960 -0.001555 0.000000 0.000000 0.000000
# 3 -0.003110 -0.001555 0.007082 0.000000 0.000000 0.000000
# 4 0.000000 0.000000 0.000000 0.105861 0.000000 0.000000
# 5 0.000000 0.000000 0.000000 0.000000 0.023510 0.000000
# 6 0.000000 0.000000 0.000000 0.000000 0.000000 0.027490
#
#
# Mechanical properties :
#
#
# Convention : Reuss Voigt Hill
#
# Bulk Modulus (GPa) = 83.92034 89.62097 86.77066
# Shear Modulus (GPa) = 24.54152 35.66855 30.10503
#
# Velocity S-wave (km/s) = 3.20701 3.86627 3.55197
# Velocity P-wave (km/s) = 6.99162 7.58217 7.29288
#
# Compressibility (1/GPa) = 0.01191606
#
# Stress axis : x y z
#
# Youngs Moduli (GPa) = 106.75065 91.24027 141.19682
#
# Poissons Ratio (x) = 0.28123 0.43906
# Poissons Ratio (y) = 0.32903 0.21958
# Poissons Ratio (z) = 0.33195 0.14189
#
# Static dielectric constant tensor:
#      x y z
#    x 1.936480 0.000000 0.000000 
#    y 0.000000 1.962010 0.000000 
#    z 0.000000 0.000000 1.922820 
# 
# From -- ./inp_files/382.got.cif
#   From: 2010.05.17/outbox.cif.g08.bks.cpg/sg18_1_cif.got.tgz:382.got - 2010.06.03 22:40:56.
