data_PCOD9313892
_publ_section_title
;
Structure prediction by ZEFSAII (Michael W. Deem and Ramdas Pophale) SiO2 
 PCOD9313892
Probable space group: P 21 21 21
;
_chemical_formula_sum "Si O2"
_cell_formula_units_Z 32
_cell_length_a 7.412151
_cell_length_b 11.605151
_cell_length_c 16.105105
_cell_angle_alpha 90.000000
_cell_angle_beta 90.000000
_cell_angle_gamma 90.000000
_cell_volume 1385.347146
_symmetry_space_group_name_H-M "P 21 21 21"
_symmetry_group_IT_number 19
_symmetry_cell_setting 'orthorhombic'
loop_
_space_group_symop_operation_xyz
x,y,z
1/2-x,-y,1/2+z
1/2+x,1/2-y,-z
-x,1/2+y,1/2-z
loop_
_atom_site_type_symbol
_atom_site_label
_atom_site_fract_x
_atom_site_fract_y
_atom_site_fract_z
Si Si1 0.730674 0.820749 0.147658
Si Si2 0.370523 0.928601 0.870551
Si Si3 0.237913 0.571902 0.031603
Si Si4 0.758182 0.512450 0.809189
Si Si5 0.848664 0.766545 0.839145
Si Si6 0.313937 0.652312 0.468805
Si Si7 0.736165 0.588944 0.485827
Si Si8 0.686899 0.051135 0.204504
O O1 0.848259 0.709297 0.132453
O O2 0.550278 0.767524 0.186613
O O3 0.791172 0.929401 0.202458
O O4 0.684867 0.882324 0.059843
O O5 0.567309 0.942496 0.908961
O O6 0.331477 0.976362 0.778110
O O7 0.245511 0.995591 0.939264
O O8 0.356523 0.673682 0.070834
O O9 0.306300 0.440654 0.020170
O O10 0.741200 0.648400 0.829204
O O11 0.697140 0.451695 0.895061
O O12 0.973018 0.481952 0.799010
O O13 0.781390 0.867476 0.781006
O O14 0.520391 0.610369 0.476983
O O15 0.307304 0.784544 0.492693
O O16 0.262985 0.628904 0.374143
#
# Coordination Sequence:
#
# PCOD9313892 Si02
#       8
#     4   4   4   4   4   4   4   4
#     4  10  20  37  63  83 113 151 203 237 290 358
#     4  11  21  40  60  86 123 159 189 249 303 346
#     4  10  22  38  56  87 120 153 187 247 301 345
#     4  10  21  38  59  87 116 156 204 236 298 357
#     4  11  20  38  61  82 116 150 198 246 285 351
#     4   9  20  39  58  83 118 151 197 242 295 341
#     4  10  21  39  62  86 121 156 198 247 291 357
#     4   9  19  37  59  86 107 150 202 248 273 351
#
# _framework density 23.098903
#
# number of rings (size 3 to 8) (size 9 to 14) (size 15 to 20)
#    0.000    2.000    1.250    4.500    0.000    2.000 
#   11.250    1.250    0.000    0.000    0.000    0.000 
#    0.000    0.000    0.000    0.000    0.000    0.000 
#
# Total GULP energy -178611.308778 kJ/mol
# GULP energy per Si atom -5581.603399 kJ/mol
# Density = 2.304633 g / cm^3
# Si number density = 23.098903 Si / 1000 Ang^3
#
#
#
# Elastic Constant Matrix: (Units=GPa)
#
#
# Indices 1 2 3 4 5 6 
#
# 1 21.3366 13.9880 14.4601 0.0000 0.0000 0.0000
# 2 13.9880 180.9154 78.9773 0.0000 0.0000 0.0000
# 3 14.4601 78.9773 112.0341 0.0000 0.0000 0.0000
# 4 0.0000 0.0000 0.0000 41.1273 0.0000 0.0000
# 5 0.0000 0.0000 0.0000 0.0000 25.8987 0.0000
# 6 0.0000 0.0000 0.0000 0.0000 0.0000 29.9986
#
#
#
# Elastic Compliance Matrix: (Units=1/GPa)
#
#
# Indices 1 2 3 4 5 6 
#
# 1 0.051665 -0.001565 -0.005565 0.000000 0.000000 0.000000
# 2 -0.001565 0.008032 -0.005460 0.000000 0.000000 0.000000
# 3 -0.005565 -0.005460 0.013493 0.000000 0.000000 0.000000
# 4 0.000000 0.000000 0.000000 0.024315 0.000000 0.000000
# 5 0.000000 0.000000 0.000000 0.000000 0.038612 0.000000
# 6 0.000000 0.000000 0.000000 0.000000 0.000000 0.033335
#
#
# Mechanical properties :
#
#
# Convention : Reuss Voigt Hill
#
# Bulk Modulus (GPa) = 20.82900 58.79298 39.81099
# Shear Modulus (GPa) = 23.73762 33.19564 28.46663
#
# Velocity S-wave (km/s) = 3.20918 3.79503 3.51434
# Velocity P-wave (km/s) = 4.77165 6.68663 5.80860
#
# Compressibility (1/GPa) = 0.04800998
#
# Stress axis : x y z
#
# Youngs Moduli (GPa) = 19.35529 124.50163 74.11188
#
# Poissons Ratio (x) = 0.19489 0.41242
# Poissons Ratio (y) = 0.03030 0.40465
# Poissons Ratio (z) = 0.10771 0.67979
#
# Static dielectric constant tensor:
#      x y z
#    x 1.939420 0.000000 0.000000 
#    y 0.000000 1.884300 0.000000 
#    z 0.000000 0.000000 1.872770 
# 
# From -- ./inp_files/3647.got.cif
#   From: 2010.05.17/outbox.cif.g08.bks.cpg/sg19_2_cif.got.tgz:3647.got - 2010.06.03 22:46:19.
