data_PCOD9313880
_publ_section_title
;
Structure prediction by ZEFSAII (Michael W. Deem and Ramdas Pophale) SiO2 
 PCOD9313880
Probable space group: P 21 21 21
;
_chemical_formula_sum "Si O2"
_cell_formula_units_Z 20
_cell_length_a 7.189064
_cell_length_b 12.818290
_cell_length_c 7.927439
_cell_angle_alpha 90.000000
_cell_angle_beta 90.000000
_cell_angle_gamma 90.000000
_cell_volume 730.525452
_symmetry_space_group_name_H-M "P 21 21 21"
_symmetry_group_IT_number 19
_symmetry_cell_setting 'orthorhombic'
loop_
_space_group_symop_operation_xyz
x,y,z
1/2-x,-y,1/2+z
1/2+x,1/2-y,-z
-x,1/2+y,1/2-z
loop_
_atom_site_type_symbol
_atom_site_label
_atom_site_fract_x
_atom_site_fract_y
_atom_site_fract_z
Si Si1 0.041319 0.718812 0.157752
Si Si2 0.383755 0.113534 0.116725
Si Si3 0.612913 0.571926 0.982863
Si Si4 0.301051 0.346661 0.000724
Si Si5 0.227830 0.617877 0.863196
O O1 0.082934 0.661388 0.329584
O O2 0.843228 0.773425 0.147026
O O3 0.162977 0.824812 0.129121
O O4 0.081429 0.638078 0.008890
O O5 0.398184 0.102411 0.319907
O O6 0.594471 0.112967 0.044708
O O7 0.303037 0.222782 0.049344
O O8 0.255187 0.020524 0.049396
O O9 0.401010 0.546105 0.919391
O O10 0.356749 0.399111 0.179494
#
# Coordination Sequence:
#
# PCOD9313880 Si02
#       5
#     4   4   4   4   4
#     4  10  20  37  61  88 118 158 202 249 298 362
#     4  12  22  38  66  86 127 159 211 255 303 370
#     4  10  22  40  62  90 119 167 207 251 297 378
#     4  12  20  36  60  90 120 160 202 248 312 358
#     4  10  20  37  61  88 118 158 202 249 298 362
#
# _framework density 27.377555999999998
#
# number of rings (size 3 to 8) (size 9 to 14) (size 15 to 20)
#    1.200    0.000    6.000    2.400    0.000    0.000 
#    0.000    0.000    4.400    0.000    0.000    0.000 
#    0.000    0.000    0.000    0.000    0.000    0.000 
#
# Total GULP energy -111971.409608 kJ/mol
# GULP energy per Si atom -5598.570480 kJ/mol
# Density = 2.731524 g / cm^3
# Si number density = 27.377556 Si / 1000 Ang^3
#
#
#
# Elastic Constant Matrix: (Units=GPa)
#
#
# Indices 1 2 3 4 5 6 
#
# 1 84.6092 25.0805 27.8725 0.0000 0.0000 0.0000
# 2 25.0805 115.6294 50.4304 0.0000 0.0000 0.0000
# 3 27.8725 50.4304 238.8777 0.0000 0.0000 0.0000
# 4 0.0000 0.0000 0.0000 41.2020 0.0000 0.0000
# 5 0.0000 0.0000 0.0000 0.0000 39.8822 0.0000
# 6 0.0000 0.0000 0.0000 0.0000 0.0000 67.5447
#
#
#
# Elastic Compliance Matrix: (Units=1/GPa)
#
#
# Indices 1 2 3 4 5 6 
#
# 1 0.012846 -0.002349 -0.001003 0.000000 0.000000 0.000000
# 2 -0.002349 0.009955 -0.001828 0.000000 0.000000 0.000000
# 3 -0.001003 -0.001828 0.004689 0.000000 0.000000 0.000000
# 4 0.000000 0.000000 0.000000 0.024271 0.000000 0.000000
# 5 0.000000 0.000000 0.000000 0.000000 0.025074 0.000000
# 6 0.000000 0.000000 0.000000 0.000000 0.000000 0.014805
#
#
# Mechanical properties :
#
#
# Convention : Reuss Voigt Hill
#
# Bulk Modulus (GPa) = 58.37397 71.76479 65.06938
# Shear Modulus (GPa) = 46.42170 52.10797 49.26483
#
# Velocity S-wave (km/s) = 4.12225 4.36743 4.24661
# Velocity P-wave (km/s) = 6.63516 7.19044 6.91837
#
# Compressibility (1/GPa) = 0.01713092
#
# Stress axis : x y z
#
# Youngs Moduli (GPa) = 77.84699 100.45349 213.26093
#
# Poissons Ratio (x) = 0.23595 0.21390
# Poissons Ratio (y) = 0.18285 0.38974
# Poissons Ratio (z) = 0.07808 0.18358
#
# Static dielectric constant tensor:
#      x y z
#    x 2.130370 0.000000 0.000000 
#    y 0.000000 2.245840 0.000000 
#    z 0.000000 0.000000 2.085160 
# 
# From -- ./inp_files/2865.got.cif
#   From: 2010.05.17/outbox.cif.g08.bks.cpg/sg19_2_cif.got.tgz:2865.got - 2010.06.03 22:46:19.
