data_PCOD9313994
_publ_section_title
;
Structure prediction by ZEFSAII (Michael W. Deem and Ramdas Pophale) SiO2 
 PCOD9313994
Probable space group: P 21 21 21
;
_chemical_formula_sum "Si O2"
_cell_formula_units_Z 28
_cell_length_a 13.842543
_cell_length_b 17.368532
_cell_length_c 5.586322
_cell_angle_alpha 90.000000
_cell_angle_beta 90.000000
_cell_angle_gamma 90.000000
_cell_volume 1343.089518
_symmetry_space_group_name_H-M "P 21 21 21"
_symmetry_group_IT_number 19
_symmetry_cell_setting 'orthorhombic'
loop_
_space_group_symop_operation_xyz
x,y,z
1/2-x,-y,1/2+z
1/2+x,1/2-y,-z
-x,1/2+y,1/2-z
loop_
_atom_site_type_symbol
_atom_site_label
_atom_site_fract_x
_atom_site_fract_y
_atom_site_fract_z
Si Si1 0.852608 0.912333 0.791828
Si Si2 0.144749 0.632135 0.222632
Si Si3 0.201829 0.778540 0.463838
Si Si4 0.943741 0.078098 0.788096
Si Si5 0.513392 0.204930 0.044366
Si Si6 0.849480 0.772300 0.159526
Si Si7 0.371799 0.845209 0.216817
O O1 0.740115 0.919399 0.725313
O O2 0.922733 0.869641 0.604151
O O3 0.900638 0.993998 0.832542
O O4 0.846573 0.849992 0.006050
O O5 0.178761 0.721110 0.242275
O O6 0.078033 0.621148 0.458896
O O7 0.102389 0.611521 0.961030
O O8 0.100234 0.804923 0.569149
O O9 0.264446 0.726692 0.645313
O O10 0.276478 0.843544 0.378781
O O11 0.058717 0.082523 0.738418
O O12 0.558215 0.273897 0.201581
O O13 0.544822 0.227468 0.778084
O O14 0.839413 0.688787 0.036315
#
# Coordination Sequence:
#
# PCOD9313994 Si02
#       7
#     4   4   4   4   4   4   4
#     4  11  24  40  60  95 131 172 208 267 330 403
#     4  12  23  40  66  97 130 166 211 267 329 391
#     4  11  21  38  68  95 124 168 226 274 320 382
#     4  12  27  40  66  97 134 172 210 264 335 392
#     4  10  21  38  62  90 124 170 213 270 323 376
#     4  10  20  39  65  91 132 165 222 270 328 379
#     4  10  22  37  61  93 125 167 216 268 315 387
#
# _framework density 20.847455
#
# number of rings (size 3 to 8) (size 9 to 14) (size 15 to 20)
#    0.000    1.143    5.714    2.571    4.000    2.286 
#    0.000    0.000    6.286    0.000    0.000    0.000 
#    0.000    0.000    0.000    0.000    0.000    0.000 
#
# Total GULP energy -156070.692812 kJ/mol
# GULP energy per Si atom -5573.953315 kJ/mol
# Density = 2.080001 g / cm^3
# Si number density = 20.847455 Si / 1000 Ang^3
#
#
#
# Elastic Constant Matrix: (Units=GPa)
#
#
# Indices 1 2 3 4 5 6 
#
# 1 124.6135 -6.3448 28.0604 0.0000 0.0000 0.0000
# 2 -6.3448 12.7851 12.1061 0.0000 0.0000 0.0000
# 3 28.0604 12.1061 81.8162 0.0000 0.0000 0.0000
# 4 0.0000 0.0000 0.0000 15.7539 0.0000 0.0000
# 5 0.0000 0.0000 0.0000 0.0000 25.4271 0.0000
# 6 0.0000 0.0000 0.0000 0.0000 0.0000 22.9977
#
#
#
# Elastic Compliance Matrix: (Units=1/GPa)
#
#
# Indices 1 2 3 4 5 6 
#
# 1 0.009527 0.009096 -0.004613 0.000000 0.000000 0.000000
# 2 0.009096 0.099645 -0.017864 0.000000 0.000000 0.000000
# 3 -0.004613 -0.017864 0.016448 0.000000 0.000000 0.000000
# 4 0.000000 0.000000 0.000000 0.063476 0.000000 0.000000
# 5 0.000000 0.000000 0.000000 0.000000 0.039328 0.000000
# 6 0.000000 0.000000 0.000000 0.000000 0.000000 0.043483
#
#
# Mechanical properties :
#
#
# Convention : Reuss Voigt Hill
#
# Bulk Modulus (GPa) = 10.11555 31.87314 20.99434
# Shear Modulus (GPa) = 15.07742 25.19529 20.13635
#
# Velocity S-wave (km/s) = 2.69220 3.48020 3.11125
# Velocity P-wave (km/s) = 3.81138 5.60990 4.79571
#
# Compressibility (1/GPa) = 0.09885771
#
# Stress axis : x y z
#
# Youngs Moduli (GPa) = 104.96733 10.03560 60.79755
#
# Poissons Ratio (x) = -0.09128 0.28048
# Poissons Ratio (y) = -0.95479 1.08608
# Poissons Ratio (z) = 0.48425 0.17928
#
# Static dielectric constant tensor:
#      x y z
#    x 1.807350 0.000000 0.000000 
#    y 0.000000 1.754100 0.000000 
#    z 0.000000 0.000000 1.856120 
# 
# From -- ./inp_files/1140.got.cif
#   From: 2010.05.17/outbox.cif.g08.bks.cpg/sg19_1_cif.got.tgz:1140.got - 2010.06.03 22:46:19.
