data_PCOD9313332
_publ_section_title
;
Structure prediction by ZEFSAII (Michael W. Deem and Ramdas Pophale) SiO2 
 PCOD9313332
Probable space group: P 21 21 21
;
_chemical_formula_sum "Si O2"
_cell_formula_units_Z 28
_cell_length_a 8.200179
_cell_length_b 7.156462
_cell_length_c 16.633290
_cell_angle_alpha 90.000000
_cell_angle_beta 90.000000
_cell_angle_gamma 90.000000
_cell_volume 976.112471
_symmetry_space_group_name_H-M "P 21 21 21"
_symmetry_group_IT_number 19
_symmetry_cell_setting 'orthorhombic'
loop_
_space_group_symop_operation_xyz
x,y,z
1/2-x,-y,1/2+z
1/2+x,1/2-y,-z
-x,1/2+y,1/2-z
loop_
_atom_site_type_symbol
_atom_site_label
_atom_site_fract_x
_atom_site_fract_y
_atom_site_fract_z
Si Si1 0.553607 0.318738 0.398090
Si Si2 0.938792 0.261884 0.852884
Si Si3 0.244286 0.222577 0.288579
Si Si4 0.845791 0.587115 0.526676
Si Si5 0.746757 0.723147 0.752641
Si Si6 0.553496 0.342537 0.573918
Si Si7 0.544758 0.756399 0.607001
O O1 0.577566 0.544734 0.400836
O O2 0.399972 0.284560 0.340659
O O3 0.714188 0.253383 0.347342
O O4 0.511798 0.255228 0.488626
O O5 0.088770 0.295999 0.791111
O O6 0.784582 0.200956 0.799746
O O7 0.002486 0.106419 0.912890
O O8 0.089192 0.269653 0.344443
O O9 0.243788 0.999045 0.270115
O O10 0.917554 0.615279 0.438788
O O11 0.733468 0.415532 0.548048
O O12 0.717673 0.751898 0.556472
O O13 0.597559 0.799908 0.698462
O O14 0.478234 0.543696 0.595774
#
# Coordination Sequence:
#
# PCOD9313332 Si02
#       7
#     4   4   4   4   4   4   4
#     4  10  17  28  50  70  99 133 168 202 255 309
#     4   9  14  27  49  74  89 120 173 214 240 277
#     4   9  17  28  45  70 100 127 157 207 252 299
#     4   9  15  28  49  76  97 122 166 218 241 295
#     4   8  16  29  48  73  95 127 168 214 247 289
#     4   9  18  29  47  71 103 130 159 207 264 295
#     4   8  15  27  48  74  97 121 163 208 253 280
#
# _framework density 28.685220000000001
#
# number of rings (size 3 to 8) (size 9 to 14) (size 15 to 20)
#    0.857    2.286    2.857    0.000    0.000    0.000 
#    0.000    2.857    0.000    6.857    7.429    0.000 
#    0.000    0.000    0.000    0.000    0.000    0.000 
#
# Total GULP energy -156402.080744 kJ/mol
# GULP energy per Si atom -5585.788598 kJ/mol
# Density = 2.861993 g / cm^3
# Si number density = 28.685220 Si / 1000 Ang^3
#
#
#
# Elastic Constant Matrix: (Units=GPa)
#
#
# Indices 1 2 3 4 5 6 
#
# 1 69.6092 16.8122 36.2237 0.0000 0.0000 0.0000
# 2 16.8122 78.1512 19.4757 0.0000 0.0000 0.0000
# 3 36.2237 19.4757 163.4644 0.0000 0.0000 0.0000
# 4 0.0000 0.0000 0.0000 41.5095 0.0000 0.0000
# 5 0.0000 0.0000 0.0000 0.0000 58.9999 0.0000
# 6 0.0000 0.0000 0.0000 0.0000 0.0000 37.4677
#
#
#
# Elastic Compliance Matrix: (Units=1/GPa)
#
#
# Indices 1 2 3 4 5 6 
#
# 1 0.016800 -0.002769 -0.003393 0.000000 0.000000 0.000000
# 2 -0.002769 0.013643 -0.001012 0.000000 0.000000 0.000000
# 3 -0.003393 -0.001012 0.006990 0.000000 0.000000 0.000000
# 4 0.000000 0.000000 0.000000 0.024091 0.000000 0.000000
# 5 0.000000 0.000000 0.000000 0.000000 0.016949 0.000000
# 6 0.000000 0.000000 0.000000 0.000000 0.000000 0.026690
#
#
# Mechanical properties :
#
#
# Convention : Reuss Voigt Hill
#
# Bulk Modulus (GPa) = 43.31541 50.69421 47.00481
# Shear Modulus (GPa) = 39.30620 43.50963 41.40792
#
# Velocity S-wave (km/s) = 3.70572 3.89883 3.80350
# Velocity P-wave (km/s) = 5.78298 6.16269 5.97585
#
# Compressibility (1/GPa) = 0.02308647
#
# Stress axis : x y z
#
# Youngs Moduli (GPa) = 59.52272 73.29499 143.06109
#
# Poissons Ratio (x) = 0.20292 0.48542
# Poissons Ratio (y) = 0.16479 0.14478
# Poissons Ratio (z) = 0.20197 0.07418
#
# Static dielectric constant tensor:
#      x y z
#    x 2.280990 0.000000 0.000000 
#    y 0.000000 2.231500 0.000000 
#    z 0.000000 0.000000 2.372750 
# 
# From -- ./inp_files/6637.got.cif
#   From: 2010.05.17/outbox.cif.g08.bks.cpg/sg19_4_cif.got.tgz:6637.got - 2010.06.03 22:46:19.
