data_PCOD9313907
_publ_section_title
;
Structure prediction by ZEFSAII (Michael W. Deem and Ramdas Pophale) SiO2 
 PCOD9313907
Probable space group: P 21 21 21
;
_chemical_formula_sum "Si O2"
_cell_formula_units_Z 32
_cell_length_a 7.619790
_cell_length_b 8.745226
_cell_length_c 22.105572
_cell_angle_alpha 90.000000
_cell_angle_beta 90.000000
_cell_angle_gamma 90.000000
_cell_volume 1473.044262
_symmetry_space_group_name_H-M "P 21 21 21"
_symmetry_group_IT_number 19
_symmetry_cell_setting 'orthorhombic'
loop_
_space_group_symop_operation_xyz
x,y,z
1/2-x,-y,1/2+z
1/2+x,1/2-y,-z
-x,1/2+y,1/2-z
loop_
_atom_site_type_symbol
_atom_site_label
_atom_site_fract_x
_atom_site_fract_y
_atom_site_fract_z
Si Si1 0.547037 0.465699 0.015360
Si Si2 0.884128 0.344076 0.945996
Si Si3 0.233488 0.502325 0.924112
Si Si4 0.314439 0.430383 0.797711
Si Si5 0.177529 0.844324 0.691705
Si Si6 0.959140 0.758490 0.219209
Si Si7 0.012439 0.049001 0.774848
Si Si8 0.827157 0.335077 0.626732
O O1 0.435456 0.332912 0.047873
O O2 0.631689 0.581215 0.063656
O O3 0.717818 0.388716 0.985631
O O4 0.405621 0.528710 0.965788
O O5 0.825703 0.377914 0.877987
O O6 0.064882 0.435437 0.958924
O O7 0.282179 0.388576 0.867870
O O8 0.166082 0.656914 0.891444
O O9 0.365426 0.312166 0.745576
O O10 0.458966 0.566157 0.800607
O O11 0.147881 0.514770 0.769677
O O12 0.342616 0.756383 0.719285
O O13 0.017613 0.721438 0.703180
O O14 0.165849 0.999349 0.729892
O O15 0.857171 0.664772 0.165655
O O16 0.038465 0.923526 0.828103
#
# Coordination Sequence:
#
# PCOD9313907 Si02
#       8
#     4   4   4   4   4   4   4   4
#     4  12  26  46  69  99 135 187 232 286 341 402
#     4  12  24  44  69  98 134 180 231 284 339 411
#     4  11  25  47  68  98 138 176 240 282 340 418
#     4  10  20  40  61  97 129 171 214 280 340 409
#     4  10  20  38  61  93 125 170 212 274 335 405
#     4   9  21  38  62  93 132 166 217 275 344 406
#     4  10  20  37  66  90 130 164 213 271 344 401
#     4  10  24  46  62  98 135 174 229 286 339 420
#
# _framework density 21.723721000000001
#
# number of rings (size 3 to 8) (size 9 to 14) (size 15 to 20)
#    0.000    1.500    3.750    1.500    1.750    3.000 
#   11.250    0.000    0.000    0.000    0.000    0.000 
#    0.000    0.000    0.000    0.000    0.000    0.000 
#
# Total GULP energy -178156.151932 kJ/mol
# GULP energy per Si atom -5567.379748 kJ/mol
# Density = 2.167428 g / cm^3
# Si number density = 21.723721 Si / 1000 Ang^3
#
#
#
# Elastic Constant Matrix: (Units=GPa)
#
#
# Indices 1 2 3 4 5 6 
#
# 1 65.7012 4.8469 11.7680 0.0000 0.0000 0.0000
# 2 4.8469 67.6814 15.0652 0.0000 0.0000 0.0000
# 3 11.7680 15.0652 79.6770 0.0000 0.0000 0.0000
# 4 0.0000 0.0000 0.0000 30.6289 0.0000 0.0000
# 5 0.0000 0.0000 0.0000 0.0000 20.6306 0.0000
# 6 0.0000 0.0000 0.0000 0.0000 0.0000 24.5384
#
#
#
# Elastic Compliance Matrix: (Units=1/GPa)
#
#
# Indices 1 2 3 4 5 6 
#
# 1 0.015660 -0.000633 -0.002193 0.000000 0.000000 0.000000
# 2 -0.000633 0.015450 -0.002828 0.000000 0.000000 0.000000
# 3 -0.002193 -0.002828 0.013409 0.000000 0.000000 0.000000
# 4 0.000000 0.000000 0.000000 0.032649 0.000000 0.000000
# 5 0.000000 0.000000 0.000000 0.000000 0.048472 0.000000
# 6 0.000000 0.000000 0.000000 0.000000 0.000000 0.040753
#
#
# Mechanical properties :
#
#
# Convention : Reuss Voigt Hill
#
# Bulk Modulus (GPa) = 30.11072 30.71331 30.41201
# Shear Modulus (GPa) = 26.48714 27.25153 26.86934
#
# Velocity S-wave (km/s) = 3.49560 3.54568 3.52073
# Velocity P-wave (km/s) = 5.49392 5.56159 5.52786
#
# Compressibility (1/GPa) = 0.03321076
#
# Stress axis : x y z
#
# Youngs Moduli (GPa) = 63.85706 64.72545 74.57535
#
# Poissons Ratio (x) = 0.04099 0.16356
# Poissons Ratio (y) = 0.04044 0.21088
# Poissons Ratio (z) = 0.14005 0.18302
#
# Static dielectric constant tensor:
#      x y z
#    x 1.878700 0.000000 0.000000 
#    y 0.000000 1.854390 0.000000 
#    z 0.000000 0.000000 1.810880 
# 
# From -- ./inp_files/7087.got.cif
#   From: 2010.05.17/outbox.cif.g08.bks.cpg/sg19_4_cif.got.tgz:7087.got - 2010.06.03 22:46:19.
