data_PCOD9313529
_publ_section_title
;
Structure prediction by ZEFSAII (Michael W. Deem and Ramdas Pophale) SiO2 
 PCOD9313529
Probable space group: P 21 21 21
;
_chemical_formula_sum "Si O2"
_cell_formula_units_Z 32
_cell_length_a 19.061456
_cell_length_b 12.409553
_cell_length_c 5.730700
_cell_angle_alpha 90.000000
_cell_angle_beta 90.000000
_cell_angle_gamma 90.000000
_cell_volume 1355.563552
_symmetry_space_group_name_H-M "P 21 21 21"
_symmetry_group_IT_number 19
_symmetry_cell_setting 'orthorhombic'
loop_
_space_group_symop_operation_xyz
x,y,z
1/2-x,-y,1/2+z
1/2+x,1/2-y,-z
-x,1/2+y,1/2-z
loop_
_atom_site_type_symbol
_atom_site_label
_atom_site_fract_x
_atom_site_fract_y
_atom_site_fract_z
Si Si1 0.410712 0.456861 0.367918
Si Si2 0.268541 0.856786 0.388111
Si Si3 0.823282 0.197871 0.887696
Si Si4 0.555072 0.777666 0.749687
Si Si5 0.673531 0.430124 0.615443
Si Si6 0.956379 0.809913 0.586402
Si Si7 0.436396 0.913291 0.211831
Si Si8 0.901622 0.371541 0.628722
O O1 0.338187 0.410768 0.260417
O O2 0.433751 0.375291 0.572987
O O3 0.410727 0.582494 0.432603
O O4 0.483243 0.441245 0.220391
O O5 0.238003 0.736622 0.441273
O O6 0.296999 0.868487 0.120048
O O7 0.209214 0.951636 0.389872
O O8 0.310187 0.876842 0.635090
O O9 0.837112 0.299418 0.715831
O O10 0.891810 0.196361 0.046831
O O11 0.479196 0.745883 0.654572
O O12 0.580864 0.669506 0.875178
O O13 0.590743 0.436429 0.550308
O O14 0.925655 0.711536 0.732942
O O15 0.029787 0.843498 0.713427
O O16 0.391192 0.002422 0.350267
#
# Coordination Sequence:
#
# PCOD9313529 Si02
#       8
#     4   4   4   4   4   4   4   4
#     4  10  22  36  54  88 120 153 200 242 306 375
#     4  10  22  40  58  89 120 162 212 246 308 365
#     4  10  19  37  58  81 116 154 197 247 297 363
#     4  10  19  33  55  86 112 163 190 241 299 362
#     4  10  23  37  60  89 125 160 201 263 303 363
#     4  10  21  34  51  83 122 151 195 238 300 373
#     4  11  19  38  56  84 126 154 192 249 317 362
#     4   9  19  33  52  84 113 155 187 236 300 361
#
# _framework density 23.606417
#
# number of rings (size 3 to 8) (size 9 to 14) (size 15 to 20)
#    0.000    2.000    5.000    0.000    5.250    2.000 
#    0.000    0.000    0.000    1.500    0.000    0.000 
#    0.000    0.000    0.000    0.000    0.000    0.000 
#
# Total GULP energy -178230.244682 kJ/mol
# GULP energy per Si atom -5569.695146 kJ/mol
# Density = 2.355269 g / cm^3
# Si number density = 23.606417 Si / 1000 Ang^3
#
#
#
# Elastic Constant Matrix: (Units=GPa)
#
#
# Indices 1 2 3 4 5 6 
#
# 1 17.3997 -10.4793 0.7907 0.0000 0.0000 0.0000
# 2 -10.4793 125.3812 13.3155 0.0000 0.0000 0.0000
# 3 0.7907 13.3155 62.5423 0.0000 0.0000 0.0000
# 4 0.0000 0.0000 0.0000 22.9946 0.0000 0.0000
# 5 0.0000 0.0000 0.0000 0.0000 27.7079 0.0000
# 6 0.0000 0.0000 0.0000 0.0000 0.0000 30.0314
#
#
#
# Elastic Compliance Matrix: (Units=1/GPa)
#
#
# Indices 1 2 3 4 5 6 
#
# 1 0.060736 0.005277 -0.001891 0.000000 0.000000 0.000000
# 2 0.005277 0.008619 -0.001902 0.000000 0.000000 0.000000
# 3 -0.001891 -0.001902 0.016418 0.000000 0.000000 0.000000
# 4 0.000000 0.000000 0.000000 0.043488 0.000000 0.000000
# 5 0.000000 0.000000 0.000000 0.000000 0.036091 0.000000
# 6 0.000000 0.000000 0.000000 0.000000 0.000000 0.033299
#
#
# Mechanical properties :
#
#
# Convention : Reuss Voigt Hill
#
# Bulk Modulus (GPa) = 11.26871 23.61966 17.44419
# Shear Modulus (GPa) = 22.19630 29.59322 25.89476
#
# Velocity S-wave (km/s) = 3.06970 3.54448 3.31560
# Velocity P-wave (km/s) = 4.16510 5.17479 4.69715
#
# Compressibility (1/GPa) = 0.08874129
#
# Stress axis : x y z
#
# Youngs Moduli (GPa) = 16.46461 116.02685 60.90894
#
# Poissons Ratio (x) = -0.61229 0.11520
# Poissons Ratio (y) = -0.08689 0.11583
# Poissons Ratio (z) = 0.03114 0.22064
#
# Static dielectric constant tensor:
#      x y z
#    x 2.054370 0.000000 0.000000 
#    y 0.000000 1.903820 0.000000 
#    z 0.000000 0.000000 1.986130 
# 
# From -- ./inp_files/2178.got.cif
#   From: 2010.05.17/outbox.cif.g08.bks.cpg/sg19_2_cif.got.tgz:2178.got - 2010.06.03 22:46:19.
