data_PCOD9313694
_publ_section_title
;
Structure prediction by ZEFSAII (Michael W. Deem and Ramdas Pophale) SiO2 
 PCOD9313694
Probable space group: P 21 21 21
;
_chemical_formula_sum "Si O2"
_cell_formula_units_Z 32
_cell_length_a 5.011934
_cell_length_b 18.625212
_cell_length_c 13.511251
_cell_angle_alpha 90.000000
_cell_angle_beta 90.000000
_cell_angle_gamma 90.000000
_cell_volume 1261.252761
_symmetry_space_group_name_H-M "P 21 21 21"
_symmetry_group_IT_number 19
_symmetry_cell_setting 'orthorhombic'
loop_
_space_group_symop_operation_xyz
x,y,z
1/2-x,-y,1/2+z
1/2+x,1/2-y,-z
-x,1/2+y,1/2-z
loop_
_atom_site_type_symbol
_atom_site_label
_atom_site_fract_x
_atom_site_fract_y
_atom_site_fract_z
Si Si1 0.468293 0.643981 0.171787
Si Si2 0.702356 0.093864 0.797574
Si Si3 0.600028 0.796119 0.973319
Si Si4 0.955159 0.178960 0.090322
Si Si5 0.174619 0.082112 0.925376
Si Si6 0.419162 0.253362 0.178986
Si Si7 0.391376 0.452474 0.767671
Si Si8 0.649286 0.435500 0.547134
O O1 0.208883 0.688243 0.136964
O O2 0.639888 0.701852 0.227905
O O3 0.399416 0.581421 0.247963
O O4 0.585882 0.608632 0.074048
O O5 0.429590 0.107403 0.860263
O O6 0.866562 0.166866 0.779347
O O7 0.928533 0.051484 0.861150
O O8 0.622018 0.037348 0.711663
O O9 0.522391 0.876305 0.010901
O O10 0.342247 0.745726 0.976064
O O11 0.186099 0.236638 0.102863
O O12 0.688508 0.219213 0.130001
O O13 0.997643 0.105945 0.155465
O O14 0.020171 0.145199 0.982969
O O15 0.290620 0.015383 0.989653
O O16 0.529482 0.447786 0.658727
#
# Coordination Sequence:
#
# PCOD9313694 Si02
#       8
#     4   4   4   4   4   4   4   4
#     4  10  19  39  67  91 126 179 224 262 332 413
#     4  11  23  42  66 100 133 176 224 282 340 407
#     4  11  22  36  60  94 132 170 214 271 334 400
#     4  11  23  42  66 100 133 176 224 282 340 407
#     4  11  24  41  68  98 135 173 229 277 344 399
#     4  11  24  41  68  98 135 173 229 277 344 399
#     4   9  20  38  68  94 126 174 232 267 318 412
#     4  10  19  39  67  91 126 179 224 262 332 413
#
# _framework density 25.371597000000001
#
# number of rings (size 3 to 8) (size 9 to 14) (size 15 to 20)
#    0.000    1.500    3.750    1.500    0.000    2.000 
#    0.000    2.500    5.500    0.000    3.250    0.000 
#    0.000    0.000    0.000    0.000    0.000    0.000 
#
# Total GULP energy -178281.539604 kJ/mol
# GULP energy per Si atom -5571.298113 kJ/mol
# Density = 2.531385 g / cm^3
# Si number density = 25.371597 Si / 1000 Ang^3
#
#
#
# Elastic Constant Matrix: (Units=GPa)
#
#
# Indices 1 2 3 4 5 6 
#
# 1 151.7756 41.3685 8.3058 0.0000 0.0000 0.0000
# 2 41.3685 184.6946 25.2660 0.0000 0.0000 0.0000
# 3 8.3058 25.2660 23.3829 0.0000 0.0000 0.0000
# 4 0.0000 0.0000 0.0000 33.1250 0.0000 0.0000
# 5 0.0000 0.0000 0.0000 0.0000 11.7520 0.0000
# 6 0.0000 0.0000 0.0000 0.0000 0.0000 47.1544
#
#
#
# Elastic Compliance Matrix: (Units=1/GPa)
#
#
# Indices 1 2 3 4 5 6 
#
# 1 0.007034 -0.001448 -0.000934 0.000000 0.000000 0.000000
# 2 -0.001448 0.006651 -0.006673 0.000000 0.000000 0.000000
# 3 -0.000934 -0.006673 0.050308 0.000000 0.000000 0.000000
# 4 0.000000 0.000000 0.000000 0.030189 0.000000 0.000000
# 5 0.000000 0.000000 0.000000 0.000000 0.085092 0.000000
# 6 0.000000 0.000000 0.000000 0.000000 0.000000 0.021207
#
#
# Mechanical properties :
#
#
# Convention : Reuss Voigt Hill
#
# Bulk Modulus (GPa) = 21.79391 56.63709 39.21550
# Shear Modulus (GPa) = 21.37792 37.40045 29.38918
#
# Velocity S-wave (km/s) = 2.90589 3.84358 3.40715
# Velocity P-wave (km/s) = 4.45730 6.48606 5.56491
#
# Compressibility (1/GPa) = 0.04588437
#
# Stress axis : x y z
#
# Youngs Moduli (GPa) = 142.15820 150.34282 19.87739
#
# Poissons Ratio (x) = 0.21766 0.01857
# Poissons Ratio (y) = 0.20581 0.13264
# Poissons Ratio (z) = 0.13282 1.00322
#
# Static dielectric constant tensor:
#      x y z
#    x 2.082510 0.000000 0.000000 
#    y 0.000000 2.100950 0.000000 
#    z 0.000000 0.000000 2.159570 
# 
# From -- ./inp_files/5777.got.cif
#   From: 2010.05.17/outbox.cif.g08.bks.cpg/sg19_3_cif.got.tgz:5777.got - 2010.06.03 22:46:19.
