data_PCOD9313347
_publ_section_title
;
Structure prediction by ZEFSAII (Michael W. Deem and Ramdas Pophale) SiO2 
 PCOD9313347
Probable space group: P 21 21 21
;
_chemical_formula_sum "Si O2"
_cell_formula_units_Z 32
_cell_length_a 11.218998
_cell_length_b 13.717806
_cell_length_c 7.374508
_cell_angle_alpha 90.000000
_cell_angle_beta 90.000000
_cell_angle_gamma 90.000000
_cell_volume 1134.937062
_symmetry_space_group_name_H-M "P 21 21 21"
_symmetry_group_IT_number 19
_symmetry_cell_setting 'orthorhombic'
loop_
_space_group_symop_operation_xyz
x,y,z
1/2-x,-y,1/2+z
1/2+x,1/2-y,-z
-x,1/2+y,1/2-z
loop_
_atom_site_type_symbol
_atom_site_label
_atom_site_fract_x
_atom_site_fract_y
_atom_site_fract_z
Si Si1 0.749029 0.448843 0.303241
Si Si2 1.000000 0.470458 0.265593
Si Si3 1.000000 0.801476 0.672359
Si Si4 0.249029 0.551157 0.803241
Si Si5 1.000000 0.008358 0.816377
Si Si6 0.749708 0.339296 0.685641
Si Si7 0.250292 0.339296 0.685641
Si Si8 1.000000 0.702649 0.281132
O O1 0.621877 0.433792 0.209149
O O2 0.748674 0.393144 0.492670
O O3 0.756553 0.567668 0.322754
O O4 0.874238 0.428436 0.202671
O O5 0.125762 0.428436 0.202672
O O6 1.000000 0.460237 0.485214
O O7 0.000000 0.586252 0.240496
O O8 1.000000 0.920801 0.670390
O O9 0.126216 0.784917 0.774917
O O10 0.873784 0.784918 0.774917
O O11 1.000000 0.742266 0.485743
O O12 0.248674 0.606856 0.992670
O O13 0.256553 0.432332 0.822753
O O14 0.121877 0.566208 0.709148
O O15 0.631355 0.274453 0.703532
O O16 0.368645 0.274453 0.703532
#
# Coordination Sequence:
#
# PCOD9313347 Si02
#       8
#     4   4   4   4   4   4   4   4
#     4  10  17  32  52  80 101 132 172 219 260 295
#     4  10  18  34  48  81 104 131 172 219 258 299
#     4  10  18  34  49  76 106 139 165 220 260 303
#     4  10  17  32  52  80 101 132 172 219 260 295
#     4  10  19  32  55  76 104 132 176 224 256 297
#     4  10  19  31  53  80 102 133 175 215 261 304
#     4  10  19  31  53  80 102 133 175 215 261 304
#     4  10  21  30  52  77 106 136 177 207 264 315
#
# _framework density 28.195395000000001
#
# number of rings (size 3 to 8) (size 9 to 14) (size 15 to 20)
#    0.000    2.000    5.000    1.500    0.000    0.000 
#    0.000    0.000    0.000    1.500   13.000    0.000 
#    0.000    0.000    0.000    0.000    0.000    0.000 
#
# Total GULP energy -179005.097476 kJ/mol
# GULP energy per Si atom -5593.909296 kJ/mol
# Density = 2.813122 g / cm^3
# Si number density = 28.195395 Si / 1000 Ang^3
#
#
#
# Elastic Constant Matrix: (Units=GPa)
#
#
# Indices 1 2 3 4 5 6 
#
# 1 363.9122 17.3276 65.8162 0.0000 0.0000 0.0000
# 2 17.3276 150.9425 17.1629 0.0000 0.0000 0.0000
# 3 65.8162 17.1629 114.6967 0.0000 0.0000 0.0000
# 4 0.0000 0.0000 0.0000 60.3501 0.0000 0.0000
# 5 0.0000 0.0000 0.0000 0.0000 69.1415 0.0000
# 6 0.0000 0.0000 0.0000 0.0000 0.0000 -28.4912
#
#
#
# Elastic Compliance Matrix: (Units=1/GPa)
#
#
# Indices 1 2 3 4 5 6 
#
# 1 0.003070 -0.000155 -0.001738 0.000000 0.000000 0.000000
# 2 -0.000155 0.006748 -0.000921 0.000000 0.000000 0.000000
# 3 -0.001738 -0.000921 0.009854 0.000000 0.000000 0.000000
# 4 0.000000 0.000000 0.000000 0.016570 0.000000 0.000000
# 5 0.000000 0.000000 0.000000 0.000000 0.014463 0.000000
# 6 0.000000 0.000000 0.000000 0.000000 0.000000 -0.035099
#
#
# Mechanical properties :
#
#
# Convention : Reuss Voigt Hill
#
# Bulk Modulus (GPa) = 71.20854 92.24053 81.72454
# Shear Modulus (GPa) = 192.94160 55.48307 124.21233
#
# Velocity S-wave (km/s) = 8.28123 4.44081 6.64453
# Velocity P-wave (km/s) = 10.80502 7.68636 9.37626
#
# Compressibility (1/GPa) = 0.01404326
#
# Stress axis : x y z
#
# Youngs Moduli (GPa) = 325.76794 148.20281 101.48229
#
# Poissons Ratio (x) = 0.02293 0.17641
# Poissons Ratio (y) = 0.05041 0.09345
# Poissons Ratio (z) = 0.56629 0.13648
#
# Static dielectric constant tensor:
#      x y z
#    x 2.256240 0.000000 0.000000 
#    y 0.000000 2.203140 0.000000 
#    z 0.000000 0.000000 2.114560 
# 
# From -- ./inp_files/3755.got.cif
#   From: 2010.05.17/outbox.cif.g08.bks.cpg/sg19_2_cif.got.tgz:3755.got - 2010.06.03 22:46:19.
