data_PCOD9313671
_publ_section_title
;
Structure prediction by ZEFSAII (Michael W. Deem and Ramdas Pophale) SiO2 
 PCOD9313671
Probable space group: P 21 21 21
;
_chemical_formula_sum "Si O2"
_cell_formula_units_Z 24
_cell_length_a 13.434921
_cell_length_b 12.900563
_cell_length_c 5.762419
_cell_angle_alpha 90.000000
_cell_angle_beta 90.000000
_cell_angle_gamma 90.000000
_cell_volume 998.731194
_symmetry_space_group_name_H-M "P 21 21 21"
_symmetry_group_IT_number 19
_symmetry_cell_setting 'orthorhombic'
loop_
_space_group_symop_operation_xyz
x,y,z
1/2-x,-y,1/2+z
1/2+x,1/2-y,-z
-x,1/2+y,1/2-z
loop_
_atom_site_type_symbol
_atom_site_label
_atom_site_fract_x
_atom_site_fract_y
_atom_site_fract_z
Si Si1 0.177136 0.946121 0.686705
Si Si2 0.225826 0.554978 0.613031
Si Si3 0.452498 0.169937 0.804946
Si Si4 0.877528 0.794124 0.597561
Si Si5 0.526305 0.027259 0.420432
Si Si6 0.740644 0.664876 0.926070
O O1 0.117802 0.891976 0.480739
O O2 0.246592 0.042856 0.635532
O O3 0.240041 0.852684 0.799681
O O4 0.085932 0.991254 0.840636
O O5 0.250367 0.516982 0.879047
O O6 0.290331 0.654973 0.554783
O O7 0.106373 0.564010 0.594073
O O8 0.532154 0.242547 0.932646
O O9 0.516614 0.083962 0.667279
O O10 0.367591 0.213942 0.633241
O O11 0.826505 0.721778 0.788214
O O12 0.927955 0.886716 0.746370
#
# Coordination Sequence:
#
# PCOD9313671 Si02
#       6
#     4   4   4   4   4   4
#     4  10  21  39  61  87 123 173 211 266 326 399
#     4  10  19  38  63  93 129 175 211 262 341 397
#     4  10  20  41  61  86 124 164 207 268 323 386
#     4  10  22  37  62  96 128 164 215 276 320 388
#     4   9  20  38  62  87 126 163 212 270 328 394
#     4  11  22  39  63  93 124 171 220 262 328 394
#
# _framework density 24.030487999999998
#
# number of rings (size 3 to 8) (size 9 to 14) (size 15 to 20)
#    0.000    2.000    3.333    0.000    0.000    2.667 
#    0.000    5.000    0.000    0.000    0.000    0.000 
#    0.000    0.000    0.000    0.000    0.000    0.000 
#
# Total GULP energy -133735.425907 kJ/mol
# GULP energy per Si atom -5572.309413 kJ/mol
# Density = 2.397579 g / cm^3
# Si number density = 24.030488 Si / 1000 Ang^3
#
#
#
# Elastic Constant Matrix: (Units=GPa)
#
#
# Indices 1 2 3 4 5 6 
#
# 1 66.9168 29.2996 -1.6157 0.0000 0.0000 0.0000
# 2 29.2996 40.8708 12.1327 0.0000 0.0000 0.0000
# 3 -1.6157 12.1327 54.7740 0.0000 0.0000 0.0000
# 4 0.0000 0.0000 0.0000 28.1654 0.0000 0.0000
# 5 0.0000 0.0000 0.0000 0.0000 34.9072 0.0000
# 6 0.0000 0.0000 0.0000 0.0000 0.0000 31.2360
#
#
#
# Elastic Compliance Matrix: (Units=1/GPa)
#
#
# Indices 1 2 3 4 5 6 
#
# 1 0.022813 -0.017720 0.004598 0.000000 0.000000 0.000000
# 2 -0.017720 0.039952 -0.009372 0.000000 0.000000 0.000000
# 3 0.004598 -0.009372 0.020468 0.000000 0.000000 0.000000
# 4 0.000000 0.000000 0.000000 0.035505 0.000000 0.000000
# 5 0.000000 0.000000 0.000000 0.000000 0.028647 0.000000
# 6 0.000000 0.000000 0.000000 0.000000 0.000000 0.032014
#
#
# Mechanical properties :
#
#
# Convention : Reuss Voigt Hill
#
# Bulk Modulus (GPa) = 26.14621 26.91053 26.52837
# Shear Modulus (GPa) = 21.08481 27.04472 24.06476
#
# Velocity S-wave (km/s) = 2.96534 3.35839 3.16797
# Velocity P-wave (km/s) = 4.75693 5.12456 4.94416
#
# Compressibility (1/GPa) = 0.03824646
#
# Stress axis : x y z
#
# Youngs Moduli (GPa) = 43.83373 25.02973 48.85556
#
# Poissons Ratio (x) = 0.44352 -0.22463
# Poissons Ratio (y) = 0.77671 0.45789
# Poissons Ratio (z) = -0.20154 0.23459
#
# Static dielectric constant tensor:
#      x y z
#    x 1.933740 0.000000 0.000000 
#    y 0.000000 1.901840 0.000000 
#    z 0.000000 0.000000 2.231090 
# 
# From -- ./inp_files/900.got.cif
#   From: 2010.05.17/outbox.cif.g08.bks.cpg/sg19_1_cif.got.tgz:900.got - 2010.06.03 22:46:19.
