data_PCOD9313648
_publ_section_title
;
Structure prediction by ZEFSAII (Michael W. Deem and Ramdas Pophale) SiO2 
 PCOD9313648
Probable space group: P 21 21 21
;
_chemical_formula_sum "Si O2"
_cell_formula_units_Z 24
_cell_length_a 23.197450
_cell_length_b 7.646071
_cell_length_c 5.103432
_cell_angle_alpha 90.000000
_cell_angle_beta 90.000000
_cell_angle_gamma 90.000000
_cell_volume 905.192415
_symmetry_space_group_name_H-M "P 21 21 21"
_symmetry_group_IT_number 19
_symmetry_cell_setting 'orthorhombic'
loop_
_space_group_symop_operation_xyz
x,y,z
1/2-x,-y,1/2+z
1/2+x,1/2-y,-z
-x,1/2+y,1/2-z
loop_
_atom_site_type_symbol
_atom_site_label
_atom_site_fract_x
_atom_site_fract_y
_atom_site_fract_z
Si Si1 0.505279 0.522244 0.413432
Si Si2 0.430413 0.746274 0.812351
Si Si3 0.706420 0.770386 0.545176
Si Si4 0.896283 0.385005 0.243261
Si Si5 0.392497 0.414872 0.326458
Si Si6 0.315754 0.626834 0.691549
O O1 0.467080 0.609524 0.646358
O O2 0.529879 0.327078 0.461126
O O3 0.565236 0.624975 0.473385
O O4 0.453112 0.485093 0.210670
O O5 0.365617 0.689655 0.889814
O O6 0.417987 0.928512 0.647128
O O7 0.672586 0.617911 0.695682
O O8 0.765572 0.743315 0.394193
O O9 0.714154 0.944037 0.723785
O O10 0.655597 0.828860 0.352379
O O11 0.906050 0.222079 0.435420
O O12 0.357165 0.575388 0.453374
#
# Coordination Sequence:
#
# PCOD9313648 Si02
#       6
#     4   4   4   4   4   4
#     4   9  16  36  60  84 115 146 187 233 299 346
#     4   9  18  36  61  86 111 156 187 238 293 351
#     4  11  21  38  58  84 116 154 199 243 281 353
#     4   9  19  37  55  85 115 145 188 240 290 343
#     4  10  19  37  62  83 111 155 191 235 295 342
#     4  10  21  38  60  82 114 154 200 237 290 345
#
# _framework density 26.513698000000002
#
# number of rings (size 3 to 8) (size 9 to 14) (size 15 to 20)
#    1.000    1.333    3.333    0.000    0.000    0.000 
#    6.000    3.333    0.000    0.000    0.000    0.000 
#    0.000    0.000    0.000    0.000    0.000    0.000 
#
# Total GULP energy -133624.487724 kJ/mol
# GULP energy per Si atom -5567.686988 kJ/mol
# Density = 2.645335 g / cm^3
# Si number density = 26.513698 Si / 1000 Ang^3
#
#
#
# Elastic Constant Matrix: (Units=GPa)
#
#
# Indices 1 2 3 4 5 6 
#
# 1 187.3322 45.2080 10.9776 0.0000 0.0000 0.0000
# 2 45.2080 92.7179 14.5784 0.0000 0.0000 0.0000
# 3 10.9776 14.5784 29.4526 0.0000 0.0000 0.0000
# 4 0.0000 0.0000 0.0000 26.4984 0.0000 0.0000
# 5 0.0000 0.0000 0.0000 0.0000 31.2864 0.0000
# 6 0.0000 0.0000 0.0000 0.0000 0.0000 48.4328
#
#
#
# Elastic Compliance Matrix: (Units=1/GPa)
#
#
# Indices 1 2 3 4 5 6 
#
# 1 0.006070 -0.002824 -0.000865 0.000000 0.000000 0.000000
# 2 -0.002824 0.013009 -0.005387 0.000000 0.000000 0.000000
# 3 -0.000865 -0.005387 0.036942 0.000000 0.000000 0.000000
# 4 0.000000 0.000000 0.000000 0.037738 0.000000 0.000000
# 5 0.000000 0.000000 0.000000 0.000000 0.031963 0.000000
# 6 0.000000 0.000000 0.000000 0.000000 0.000000 0.020647
#
#
# Mechanical properties :
#
#
# Convention : Reuss Voigt Hill
#
# Bulk Modulus (GPa) = 26.40599 50.11453 38.26026
# Shear Modulus (GPa) = 28.22574 37.15943 32.69259
#
# Velocity S-wave (km/s) = 3.26632 3.74775 3.51528
# Velocity P-wave (km/s) = 4.91997 6.13758 5.56219
#
# Compressibility (1/GPa) = 0.03787020
#
# Stress axis : x y z
#
# Youngs Moduli (GPa) = 164.73818 76.86839 27.06982
#
# Poissons Ratio (x) = 0.21706 0.02341
# Poissons Ratio (y) = 0.46519 0.14582
# Poissons Ratio (z) = 0.14246 0.41408
#
# Static dielectric constant tensor:
#      x y z
#    x 2.038160 0.000000 0.000000 
#    y 0.000000 2.220970 0.000000 
#    z 0.000000 0.000000 2.234940 
# 
# From -- ./inp_files/2109.got.cif
#   From: 2010.05.17/outbox.cif.g08.bks.cpg/sg19_2_cif.got.tgz:2109.got - 2010.06.03 22:46:19.
