data_PCOD9313288
_publ_section_title
;
Structure prediction by ZEFSAII (Michael W. Deem and Ramdas Pophale) SiO2 
 PCOD9313288
Probable space group: P 21 21 2
;
_chemical_formula_sum "Si O2"
_cell_formula_units_Z 30
_cell_length_a 9.000000
_cell_length_b 12.000000
_cell_length_c 15.000000
_cell_angle_alpha 90.000000
_cell_angle_beta 90.000000
_cell_angle_gamma 90.000000
_cell_volume 1620.000000
_symmetry_space_group_name_H-M "P 21 21 2"
_symmetry_group_IT_number 18
_symmetry_cell_setting 'orthorhombic'
loop_
_space_group_symop_operation_xyz
x,y,z
-x,-y,z
1/2+x,1/2-y,-z
1/2-x,1/2+y,-z
loop_
_atom_site_type_symbol
_atom_site_label
_atom_site_fract_x
_atom_site_fract_y
_atom_site_fract_z
Si Si1 0.000000 0.500000 0.387732
Si Si2 0.270971 0.583916 0.673958
Si Si3 0.677472 0.007146 0.135278
Si Si4 0.904435 0.890569 0.997289
Si Si5 0.486658 0.223324 0.716052
Si Si6 0.050370 0.674062 0.531362
Si Si7 0.660709 0.740674 0.900811
Si Si8 0.795634 0.151595 0.416652
O O1 0.045940 0.395130 0.323957
O O2 0.091598 0.576360 0.459188
O O3 0.201298 0.534781 0.764115
O O4 0.397176 0.675392 0.697802
O O5 0.144552 0.646498 0.618124
O O6 0.321064 0.475411 0.615980
O O7 0.742531 0.131866 0.126137
O O8 0.500000 0.000000 0.111942
O O9 0.793965 0.934464 0.076009
O O10 0.033445 0.804211 0.029987
O O11 0.784073 0.829679 0.933679
O O12 0.000000 0.000000 0.965887
O O13 0.436768 0.214805 0.818012
O O14 0.338411 0.267178 0.665338
O O15 0.097372 0.794396 0.492204
O O16 0.874535 0.665490 0.550813
#
# Coordination Sequence:
#
# PCOD9313288 Si02
#       8
#     2   4   4   4   4   4   4   4
#     4  10  22  42  54  88 128 170 208 258 320 394
#     4  12  22  39  67  98 125 174 223 272 334 383
#     4  11  22  39  66 102 132 164 223 280 331 405
#     4  10  23  43  67  96 131 170 223 281 342 413
#     4  11  24  41  66  88 133 171 214 270 330 399
#     4  11  22  40  63  92 133 169 221 274 324 389
#     4  11  22  44  67  96 132 172 220 280 337 403
#     4  11  22  38  63  92 123 171 215 272 323 382
#
# _framework density 18.518519000000001
#
# number of rings (size 3 to 8) (size 9 to 14) (size 15 to 20)
#    0.000    1.067    4.000    3.600    0.000    0.000 
#    6.000    0.000    2.933    0.000    0.000    0.000 
#    0.000    0.000    0.000    0.000    0.000    0.000 
#
# Total GULP energy -167132.712756 kJ/mol
# GULP energy per Si atom -5571.090425 kJ/mol
# Density = 1.847637 g / cm^3
# Si number density = 18.518519 Si / 1000 Ang^3
#
#
#
# Elastic Constant Matrix: (Units=GPa)
#
#
# Indices 1 2 3 4 5 6 
#
# 1 132.5569 51.4205 39.5162 0.0000 0.0000 0.0000
# 2 51.4205 117.9257 45.7973 0.0000 0.0000 0.0000
# 3 39.5162 45.7973 82.6461 0.0000 0.0000 0.0000
# 4 0.0000 0.0000 0.0000 33.0590 0.0000 0.0000
# 5 0.0000 0.0000 0.0000 0.0000 34.8928 0.0000
# 6 0.0000 0.0000 0.0000 0.0000 0.0000 40.2639
#
#
#
# Elastic Compliance Matrix: (Units=1/GPa)
#
#
# Indices 1 2 3 4 5 6 
#
# 1 0.009593 -0.003060 -0.002891 0.000000 0.000000 0.000000
# 2 -0.003060 0.011781 -0.005065 0.000000 0.000000 0.000000
# 3 -0.002891 -0.005065 0.016289 0.000000 0.000000 0.000000
# 4 0.000000 0.000000 0.000000 0.030249 0.000000 0.000000
# 5 0.000000 0.000000 0.000000 0.000000 0.028659 0.000000
# 6 0.000000 0.000000 0.000000 0.000000 0.000000 0.024836
#
#
# Mechanical properties :
#
#
# Convention : Reuss Voigt Hill
#
# Bulk Modulus (GPa) = 63.97827 67.39963 65.68895
# Shear Modulus (GPa) = 33.63593 34.73611 34.18602
#
# Velocity S-wave (km/s) = 4.26648 4.33569 4.30122
# Velocity P-wave (km/s) = 7.67422 7.84469 7.75992
#
# Compressibility (1/GPa) = 0.01563031
#
# Stress axis : x y z
#
# Youngs Moduli (GPa) = 104.24474 84.87928 61.39125
#
# Poissons Ratio (x) = 0.25974 0.17748
# Poissons Ratio (y) = 0.31900 0.31097
# Poissons Ratio (z) = 0.30136 0.42994
#
# Static dielectric constant tensor:
#      x y z
#    x 1.627060 0.000000 0.000000 
#    y 0.000000 1.650330 0.000000 
#    z 0.000000 0.000000 1.689750 
# 
# From -- ./inp_files/6751.got.cif
#   From: 2010.05.17/outbox.ucp.g08.bks.cvg/sg18_4_cif.got.tgz:6751.got - 2010.06.11 13:13:23.
