data_PCOD9313507
_publ_section_title
;
Structure prediction by ZEFSAII (Michael W. Deem and Ramdas Pophale) SiO2 
 PCOD9313507
Probable space group: P 21 21 21
;
_chemical_formula_sum "Si O2"
_cell_formula_units_Z 28
_cell_length_a 10.987030
_cell_length_b 5.038092
_cell_length_c 22.094469
_cell_angle_alpha 90.000000
_cell_angle_beta 90.000000
_cell_angle_gamma 90.000000
_cell_volume 1223.009900
_symmetry_space_group_name_H-M "P 21 21 21"
_symmetry_group_IT_number 19
_symmetry_cell_setting 'orthorhombic'
loop_
_space_group_symop_operation_xyz
x,y,z
1/2-x,-y,1/2+z
1/2+x,1/2-y,-z
-x,1/2+y,1/2-z
loop_
_atom_site_type_symbol
_atom_site_label
_atom_site_fract_x
_atom_site_fract_y
_atom_site_fract_z
Si Si1 0.860490 0.079807 0.053079
Si Si2 0.000276 0.018720 0.285418
Si Si3 0.210194 0.916241 0.919989
Si Si4 0.276440 0.422252 0.080024
Si Si5 0.624425 0.581113 0.947490
Si Si6 0.222934 0.076975 0.793198
Si Si7 0.723353 0.921064 0.290273
O O1 0.764046 0.880281 0.083939
O O2 0.993627 0.007766 0.075423
O O3 0.819017 0.379833 0.063114
O O4 0.852944 0.029725 0.980838
O O5 0.995724 0.334482 0.275392
O O6 0.132603 0.948130 0.311036
O O7 0.867831 0.932268 0.308086
O O8 0.157405 0.013884 0.856227
O O9 0.126704 0.929676 0.979348
O O10 0.164731 0.627336 0.071570
O O11 0.338647 0.463456 0.144913
O O12 0.225021 0.124175 0.076493
O O13 0.198401 0.854766 0.742653
O O14 0.201805 0.354040 0.759968
#
# Coordination Sequence:
#
# PCOD9313507 Si02
#       7
#     4   4   4   4   4   4   4
#     4  10  21  36  56  78 104 138 177 223 260 301
#     4   8  16  26  38  62  92 124 158 182 232 296
#     4  10  21  36  54  80 105 138 179 211 264 316
#     4  10  21  36  54  80 105 138 179 211 264 316
#     4  10  21  36  56  78 104 138 177 223 260 301
#     4  10  19  32  48  72 104 137 165 208 257 311
#     4  10  19  32  48  72 104 137 165 208 257 311
#
# _framework density 22.894338000000001
#
# number of rings (size 3 to 8) (size 9 to 14) (size 15 to 20)
#    0.000    2.286    0.000    2.571    4.000    0.000 
#    5.143    0.000    0.000    1.714    0.000    0.000 
#    0.000    0.000    0.000    0.000    0.000    0.000 
#
# Total GULP energy -156272.411437 kJ/mol
# GULP energy per Si atom -5581.157551 kJ/mol
# Density = 2.284223 g / cm^3
# Si number density = 22.894338 Si / 1000 Ang^3
#
#
#
# Elastic Constant Matrix: (Units=GPa)
#
#
# Indices 1 2 3 4 5 6 
#
# 1 16.1145 -12.5380 -5.5365 0.0000 0.0000 0.0000
# 2 -12.5380 54.5480 -9.8453 0.0000 0.0000 0.0000
# 3 -5.5365 -9.8453 90.9050 0.0000 0.0000 0.0000
# 4 0.0000 0.0000 0.0000 16.1618 0.0000 0.0000
# 5 0.0000 0.0000 0.0000 0.0000 3.4030 0.0000
# 6 0.0000 0.0000 0.0000 0.0000 0.0000 7.1213
#
#
#
# Elastic Compliance Matrix: (Units=1/GPa)
#
#
# Indices 1 2 3 4 5 6 
#
# 1 0.079681 0.019573 0.006973 0.000000 0.000000 0.000000
# 2 0.019573 0.023506 0.003738 0.000000 0.000000 0.000000
# 3 0.006973 0.003738 0.011830 0.000000 0.000000 0.000000
# 4 0.000000 0.000000 0.000000 0.061874 0.000000 0.000000
# 5 0.000000 0.000000 0.000000 0.000000 0.293859 0.000000
# 6 0.000000 0.000000 0.000000 0.000000 0.000000 0.140424
#
#
# Mechanical properties :
#
#
# Convention : Reuss Voigt Hill
#
# Bulk Modulus (GPa) = 5.69526 11.74753 8.72140
# Shear Modulus (GPa) = 8.20838 17.96971 13.08904
#
# Velocity S-wave (km/s) = 1.89555 2.80464 2.39365
# Velocity P-wave (km/s) = 2.69886 3.95352 3.38483
#
# Compressibility (1/GPa) = 0.17558462
#
# Stress axis : x y z
#
# Youngs Moduli (GPa) = 12.55012 42.54210 84.53091
#
# Poissons Ratio (x) = -0.83269 -0.58941
# Poissons Ratio (y) = -0.24565 -0.31597
# Poissons Ratio (z) = -0.08751 -0.15902
#
# Static dielectric constant tensor:
#      x y z
#    x 1.866100 0.000000 0.000000 
#    y 0.000000 1.793280 0.000000 
#    z 0.000000 0.000000 1.891620 
# 
# From -- ./inp_files/1937.got.cif
#   From: 2010.05.17/outbox.cif.g08.bks.cpg/sg19_1_cif.got.tgz:1937.got - 2010.06.03 22:46:19.
