data_PCOD9313418
_publ_section_title
;
Structure prediction by ZEFSAII (Michael W. Deem and Ramdas Pophale) SiO2 
 PCOD9313418
Probable space group: P 21 21 21
;
_chemical_formula_sum "Si O2"
_cell_formula_units_Z 32
_cell_length_a 7.670865
_cell_length_b 7.927717
_cell_length_c 20.736877
_cell_angle_alpha 90.000000
_cell_angle_beta 90.000000
_cell_angle_gamma 90.000000
_cell_volume 1261.060231
_symmetry_space_group_name_H-M "P 21 21 21"
_symmetry_group_IT_number 19
_symmetry_cell_setting 'orthorhombic'
loop_
_space_group_symop_operation_xyz
x,y,z
1/2-x,-y,1/2+z
1/2+x,1/2-y,-z
-x,1/2+y,1/2-z
loop_
_atom_site_type_symbol
_atom_site_label
_atom_site_fract_x
_atom_site_fract_y
_atom_site_fract_z
Si Si1 0.869925 0.106384 0.647244
Si Si2 0.532286 0.743748 0.675366
Si Si3 0.317702 0.655869 0.241703
Si Si4 0.152642 0.042931 0.001404
Si Si5 0.793907 0.104756 0.042737
Si Si6 0.779207 0.449079 0.862159
Si Si7 0.464924 0.365016 0.168092
Si Si8 0.809121 0.549407 0.124597
O O1 0.756005 0.273756 0.651003
O O2 0.794468 0.980670 0.700306
O O3 0.833653 0.030146 0.575779
O O4 0.080350 0.090246 0.657673
O O5 0.642869 0.741521 0.742351
O O6 0.606601 0.816605 0.606138
O O7 0.363913 0.863441 0.684673
O O8 0.523842 0.545147 0.654218
O O9 0.359185 0.534081 0.182515
O O10 0.488319 0.757374 0.267371
O O11 0.193500 0.985071 0.073342
O O12 0.943088 0.026086 0.996664
O O13 0.194967 0.241810 0.991636
O O14 0.281780 0.948773 0.952239
O O15 0.886981 0.277447 0.877234
O O16 0.651258 0.423589 0.143918
#
# Coordination Sequence:
#
# PCOD9313418 Si02
#       8
#     4   4   4   4   4   4   4   4
#     4  10  20  34  53  81 111 145 191 244 294 355
#     4   8  18  36  54  74 106 148 185 232 292 354
#     4   9  18  35  56  76 107 144 186 234 292 352
#     4  10  18  33  54  77 109 151 192 238 290 356
#     4   9  17  31  52  73 102 145 188 227 284 349
#     4  10  20  36  57  81 113 151 195 242 301 363
#     4  10  19  35  58  82 107 148 195 238 292 367
#     4  10  20  34  54  80 111 148 194 235 291 358
#
# _framework density 25.375474000000001
#
# number of rings (size 3 to 8) (size 9 to 14) (size 15 to 20)
#    0.000    2.500    0.000    4.500    0.000    1.000 
#    0.000   11.250    0.000    0.000    0.000    0.000 
#    0.000    0.000    0.000    0.000    0.000    0.000 
#
# Total GULP energy -178281.352891 kJ/mol
# GULP energy per Si atom -5571.292278 kJ/mol
# Density = 2.531772 g / cm^3
# Si number density = 25.375474 Si / 1000 Ang^3
#
#
#
# Elastic Constant Matrix: (Units=GPa)
#
#
# Indices 1 2 3 4 5 6 
#
# 1 84.0501 6.8777 3.7574 0.0000 0.0000 0.0000
# 2 6.8777 57.2246 -5.9206 0.0000 0.0000 0.0000
# 3 3.7574 -5.9206 34.9730 0.0000 0.0000 0.0000
# 4 0.0000 0.0000 0.0000 25.2684 0.0000 0.0000
# 5 0.0000 0.0000 0.0000 0.0000 23.0899 0.0000
# 6 0.0000 0.0000 0.0000 0.0000 0.0000 26.8918
#
#
#
# Elastic Compliance Matrix: (Units=1/GPa)
#
#
# Indices 1 2 3 4 5 6 
#
# 1 0.012100 -0.001617 -0.001574 0.000000 0.000000 0.000000
# 2 -0.001617 0.018003 0.003221 0.000000 0.000000 0.000000
# 3 -0.001574 0.003221 0.029308 0.000000 0.000000 0.000000
# 4 0.000000 0.000000 0.000000 0.039575 0.000000 0.000000
# 5 0.000000 0.000000 0.000000 0.000000 0.043309 0.000000
# 6 0.000000 0.000000 0.000000 0.000000 0.000000 0.037186
#
#
# Mechanical properties :
#
#
# Convention : Reuss Voigt Hill
#
# Bulk Modulus (GPa) = 16.81466 20.63074 18.72270
# Shear Modulus (GPa) = 25.09484 26.48556 25.79020
#
# Velocity S-wave (km/s) = 3.14815 3.23421 3.19147
# Velocity P-wave (km/s) = 4.45592 4.70050 4.57984
#
# Compressibility (1/GPa) = 0.05947192
#
# Stress axis : x y z
#
# Youngs Moduli (GPa) = 82.64224 55.54735 34.12047
#
# Poissons Ratio (x) = 0.08983 0.05370
# Poissons Ratio (y) = 0.13364 -0.10992
# Poissons Ratio (z) = 0.13006 -0.17894
#
# Static dielectric constant tensor:
#      x y z
#    x 2.183180 0.000000 0.000000 
#    y 0.000000 2.114970 0.000000 
#    z 0.000000 0.000000 2.143650 
# 
# From -- ./inp_files/3231.got.cif
#   From: 2010.05.17/outbox.cif.g08.bks.cpg/sg19_2_cif.got.tgz:3231.got - 2010.06.03 22:46:19.
