data_PCOD9313571
_publ_section_title
;
Structure prediction by ZEFSAII (Michael W. Deem and Ramdas Pophale) SiO2 
 PCOD9313571
Probable space group: P 21 21 21
;
_chemical_formula_sum "Si O2"
_cell_formula_units_Z 32
_cell_length_a 13.869301
_cell_length_b 10.769909
_cell_length_c 8.673770
_cell_angle_alpha 90.000000
_cell_angle_beta 90.000000
_cell_angle_gamma 90.000000
_cell_volume 1295.610650
_symmetry_space_group_name_H-M "P 21 21 21"
_symmetry_group_IT_number 19
_symmetry_cell_setting 'orthorhombic'
loop_
_space_group_symop_operation_xyz
x,y,z
1/2-x,-y,1/2+z
1/2+x,1/2-y,-z
-x,1/2+y,1/2-z
loop_
_atom_site_type_symbol
_atom_site_label
_atom_site_fract_x
_atom_site_fract_y
_atom_site_fract_z
Si Si1 0.945822 0.629033 0.807058
Si Si2 0.142339 0.957291 0.426694
Si Si3 0.452170 0.508598 0.695905
Si Si4 0.349127 0.058551 0.380890
Si Si5 0.293110 0.247358 0.110752
Si Si6 0.620730 0.795358 0.975550
Si Si7 0.240808 0.444677 0.336837
Si Si8 0.632753 0.170736 0.076328
O O1 0.940095 0.521257 0.676679
O O2 0.911447 0.751429 0.715512
O O3 0.044174 0.666927 0.890291
O O4 0.882170 0.561983 0.941393
O O5 0.253931 0.976141 0.390616
O O6 0.136520 0.813854 0.484978
O O7 0.065921 0.983395 0.293190
O O8 0.420711 0.366033 0.671168
O O9 0.373919 0.561498 0.813953
O O10 0.432509 0.581186 0.531160
O O11 0.368534 0.148864 0.523677
O O12 0.316404 0.158037 0.252066
O O13 0.185168 0.238254 0.044336
O O14 0.290466 0.384874 0.183298
O O15 0.720787 0.861344 0.022449
O O16 0.282838 0.581215 0.360143
#
# Coordination Sequence:
#
# PCOD9313571 Si02
#       8
#     4   4   4   4   4   4   4   4
#     4  10  21  33  57  87 113 152 199 244 293 354
#     4  10  20  37  57  85 118 157 192 245 306 349
#     4   9  20  36  56  81 118 151 191 244 299 350
#     4  10  20  36  60  80 120 154 196 243 302 351
#     4   9  19  37  56  85 114 157 190 240 291 351
#     4   9  20  34  55  82 112 151 195 245 289 349
#     4   9  19  34  57  78 114 149 191 239 294 340
#     4  10  19  35  58  86 111 151 198 240 292 350
#
# _framework density 24.698777
#
# number of rings (size 3 to 8) (size 9 to 14) (size 15 to 20)
#    0.000    2.500    1.250    0.000   10.500    0.000 
#    0.000    3.750    2.750    0.000    0.000    0.000 
#    0.000    0.000    0.000    0.000    0.000    0.000 
#
# Total GULP energy -178419.528728 kJ/mol
# GULP energy per Si atom -5575.610273 kJ/mol
# Density = 2.464256 g / cm^3
# Si number density = 24.698777 Si / 1000 Ang^3
#
#
#
# Elastic Constant Matrix: (Units=GPa)
#
#
# Indices 1 2 3 4 5 6 
#
# 1 42.2632 18.1954 11.9305 0.0000 0.0000 0.0000
# 2 18.1954 83.8174 22.1843 0.0000 0.0000 0.0000
# 3 11.9305 22.1843 45.3882 0.0000 0.0000 0.0000
# 4 0.0000 0.0000 0.0000 18.9527 0.0000 0.0000
# 5 0.0000 0.0000 0.0000 0.0000 26.1991 0.0000
# 6 0.0000 0.0000 0.0000 0.0000 0.0000 27.1390
#
#
#
# Elastic Compliance Matrix: (Units=1/GPa)
#
#
# Indices 1 2 3 4 5 6 
#
# 1 0.027003 -0.004575 -0.004862 0.000000 0.000000 0.000000
# 2 -0.004575 0.014479 -0.005874 0.000000 0.000000 0.000000
# 3 -0.004862 -0.005874 0.026181 0.000000 0.000000 0.000000
# 4 0.000000 0.000000 0.000000 0.052763 0.000000 0.000000
# 5 0.000000 0.000000 0.000000 0.000000 0.038169 0.000000
# 6 0.000000 0.000000 0.000000 0.000000 0.000000 0.036847
#
#
# Mechanical properties :
#
#
# Convention : Reuss Voigt Hill
#
# Bulk Modulus (GPa) = 26.99704 30.67659 28.83681
# Shear Modulus (GPa) = 20.97213 22.40208 21.68710
#
# Velocity S-wave (km/s) = 2.91712 3.01493 2.96643
# Velocity P-wave (km/s) = 4.72233 4.95651 4.84083
#
# Compressibility (1/GPa) = 0.03704110
#
# Stress axis : x y z
#
# Youngs Moduli (GPa) = 37.03240 69.06736 38.19545
#
# Poissons Ratio (x) = 0.31600 0.18570
# Poissons Ratio (y) = 0.16943 0.22436
# Poissons Ratio (z) = 0.18004 0.40571
#
# Static dielectric constant tensor:
#      x y z
#    x 1.960170 0.000000 0.000000 
#    y 0.000000 2.029830 0.000000 
#    z 0.000000 0.000000 2.051940 
# 
# From -- ./inp_files/5037.got.cif
#   From: 2010.05.17/outbox.cif.g08.bks.cpg/sg19_3_cif.got.tgz:5037.got - 2010.06.03 22:46:19.
