data_PCOD9313262
_publ_section_title
;
Structure prediction by ZEFSAII (Michael W. Deem and Ramdas Pophale) SiO2 
 PCOD9313262
Probable space group: P 21 21 2
;
_chemical_formula_sum "Si O2"
_cell_formula_units_Z 16
_cell_length_a 7.601554
_cell_length_b 10.391293
_cell_length_c 9.046042
_cell_angle_alpha 90.000000
_cell_angle_beta 90.000000
_cell_angle_gamma 90.000000
_cell_volume 714.546630
_symmetry_space_group_name_H-M "P 21 21 2"
_symmetry_group_IT_number 18
_symmetry_cell_setting 'orthorhombic'
loop_
_space_group_symop_operation_xyz
x,y,z
-x,-y,z
1/2+x,1/2-y,-z
1/2-x,1/2+y,-z
loop_
_atom_site_type_symbol
_atom_site_label
_atom_site_fract_x
_atom_site_fract_y
_atom_site_fract_z
Si Si1 0.988661 0.152849 0.345110
Si Si2 0.790312 0.260807 0.875705
Si Si3 0.297865 0.020857 0.876307
Si Si4 0.119239 0.209950 0.673935
O O1 0.790917 0.200939 0.321890
O O2 0.121822 0.214707 0.227462
O O3 0.049793 0.194471 0.508493
O O4 0.000000 0.000000 0.331946
O O5 0.965620 0.265504 0.777114
O O6 0.775906 0.114699 0.934299
O O7 0.792497 0.367797 0.001452
O O8 0.184683 0.073167 0.739403
O O9 0.500000 0.000000 0.831678
#
# Coordination Sequence:
#
# PCOD9313262 Si02
#       4
#     4   4   4   4
#     4  12  28  48  80 116 150 204 260 313 386 456
#     4  12  28  51  78 112 159 200 256 317 381 459
#     4  12  27  49  79 112 154 204 252 315 389 453
#     4  12  27  52  78 112 155 202 253 320 385 456
#
# _framework density 22.391822000000001
#
# number of rings (size 3 to 8) (size 9 to 14) (size 15 to 20)
#    0.000    0.000    5.000    3.750    7.000    0.000 
#    0.000    0.000    0.000    0.000    0.000    0.000 
#    0.000    0.000    0.000    0.000    0.000    0.000 
#
# Total GULP energy -89777.033930 kJ/mol
# GULP energy per Si atom -5611.064621 kJ/mol
# Density = 2.234086 g / cm^3
# Si number density = 22.391822 Si / 1000 Ang^3
#
#
#
# Elastic Constant Matrix: (Units=GPa)
#
#
# Indices 1 2 3 4 5 6 
#
# 1 149.4123 59.8480 16.4459 0.0000 0.0000 0.0000
# 2 59.8480 152.5435 25.2701 0.0000 0.0000 0.0000
# 3 16.4459 25.2701 52.0652 0.0000 0.0000 0.0000
# 4 0.0000 0.0000 0.0000 20.9693 0.0000 0.0000
# 5 0.0000 0.0000 0.0000 0.0000 29.1787 0.0000
# 6 0.0000 0.0000 0.0000 0.0000 0.0000 41.6637
#
#
#
# Elastic Compliance Matrix: (Units=1/GPa)
#
#
# Indices 1 2 3 4 5 6 
#
# 1 0.007997 -0.002957 -0.001091 0.000000 0.000000 0.000000
# 2 -0.002957 0.008222 -0.003057 0.000000 0.000000 0.000000
# 3 -0.001091 -0.003057 0.021035 0.000000 0.000000 0.000000
# 4 0.000000 0.000000 0.000000 0.047689 0.000000 0.000000
# 5 0.000000 0.000000 0.000000 0.000000 0.034272 0.000000
# 6 0.000000 0.000000 0.000000 0.000000 0.000000 0.024002
#
#
# Mechanical properties :
#
#
# Convention : Reuss Voigt Hill
#
# Bulk Modulus (GPa) = 43.39294 61.90544 52.64919
# Shear Modulus (GPa) = 30.28345 35.19283 32.73814
#
# Velocity S-wave (km/s) = 3.68153 3.96875 3.82783
# Velocity P-wave (km/s) = 6.12312 6.97909 6.56507
#
# Compressibility (1/GPa) = 0.02304522
#
# Stress axis : x y z
#
# Youngs Moduli (GPa) = 125.04080 121.62567 47.54026
#
# Poissons Ratio (x) = 0.35964 0.05187
# Poissons Ratio (y) = 0.36974 0.14531
# Poissons Ratio (z) = 0.13642 0.37176
#
# Static dielectric constant tensor:
#      x y z
#    x 1.801510 0.000000 0.000000 
#    y 0.000000 1.818940 0.000000 
#    z 0.000000 0.000000 1.797500 
# 
# From -- ./inp_files/2766.got.cif
#   From: 2010.05.17/outbox.cif.g08.bks.cpg/sg18_2_cif.got.tgz:2766.got - 2010.06.03 22:40:56.
