data_PCOD9313653
_publ_section_title
;
Structure prediction by ZEFSAII (Michael W. Deem and Ramdas Pophale) SiO2 
 PCOD9313653
Probable space group: P 21 21 21
;
_chemical_formula_sum "Si O2"
_cell_formula_units_Z 32
_cell_length_a 31.809871
_cell_length_b 8.773438
_cell_length_c 5.176296
_cell_angle_alpha 90.000000
_cell_angle_beta 90.000000
_cell_angle_gamma 90.000000
_cell_volume 1444.610683
_symmetry_space_group_name_H-M "P 21 21 21"
_symmetry_group_IT_number 19
_symmetry_cell_setting 'orthorhombic'
loop_
_space_group_symop_operation_xyz
x,y,z
1/2-x,-y,1/2+z
1/2+x,1/2-y,-z
-x,1/2+y,1/2-z
loop_
_atom_site_type_symbol
_atom_site_label
_atom_site_fract_x
_atom_site_fract_y
_atom_site_fract_z
Si Si1 0.207499 0.367255 0.519388
Si Si2 0.407155 0.656074 0.689015
Si Si3 0.915417 0.415361 0.949158
Si Si4 0.027789 0.118532 0.219690
Si Si5 0.869311 0.704089 0.801503
Si Si6 0.301963 0.422603 0.515780
Si Si7 0.888922 0.194916 0.339158
Si Si8 0.026887 0.823213 0.928430
O O1 0.177514 0.225041 0.584813
O O2 0.257240 0.337065 0.531388
O O3 0.197848 0.453600 0.250224
O O4 0.197417 0.488988 0.745082
O O5 0.450868 0.732402 0.594790
O O6 0.374360 0.720720 0.478957
O O7 0.406247 0.475603 0.678338
O O8 0.396231 0.700605 0.984677
O O9 0.887825 0.533640 0.783561
O O10 0.961480 0.347752 0.868890
O O11 0.931499 0.532170 0.168705
O O12 0.888431 0.279102 0.064335
O O13 0.999699 0.187521 0.449239
O O14 0.009997 0.986649 0.033980
O O15 0.342665 0.317574 0.545642
O O16 0.924435 0.286360 0.494907
#
# Coordination Sequence:
#
# PCOD9313653 Si02
#       8
#     4   4   4   4   4   4   4   4
#     4  10  19  37  63  94 126 164 208 272 317 386
#     4  11  22  38  66  94 121 166 215 263 315 385
#     4  10  25  40  61  89 130 169 213 275 327 395
#     4  10  23  42  59  91 122 163 220 263 324 389
#     4  11  20  41  65  89 127 168 213 256 329 382
#     4  10  21  35  62  97 127 156 217 269 320 378
#     4  11  23  39  61  96 122 168 216 271 327 389
#     4  11  23  42  61  84 127 168 210 271 327 384
#
# _framework density 22.151298000000001
#
# number of rings (size 3 to 8) (size 9 to 14) (size 15 to 20)
#    0.000    1.500    3.750    0.750    3.500    3.000 
#    2.250    0.000    2.750    0.000    0.000    0.000 
#    0.000    0.000    0.000    0.000    0.000    0.000 
#
# Total GULP energy -178374.187500 kJ/mol
# GULP energy per Si atom -5574.193359 kJ/mol
# Density = 2.210088 g / cm^3
# Si number density = 22.151298 Si / 1000 Ang^3
#
#
#
# Elastic Constant Matrix: (Units=GPa)
#
#
# Indices 1 2 3 4 5 6 
#
# 1 94.0792 36.3449 -0.8090 0.0000 0.0000 0.0000
# 2 36.3449 82.5072 9.6582 0.0000 0.0000 0.0000
# 3 -0.8090 9.6582 67.4306 0.0000 0.0000 0.0000
# 4 0.0000 0.0000 0.0000 23.0776 0.0000 0.0000
# 5 0.0000 0.0000 0.0000 0.0000 28.9320 0.0000
# 6 0.0000 0.0000 0.0000 0.0000 0.0000 36.9187
#
#
#
# Elastic Compliance Matrix: (Units=1/GPa)
#
#
# Indices 1 2 3 4 5 6 
#
# 1 0.012873 -0.005786 0.000983 0.000000 0.000000 0.000000
# 2 -0.005786 0.014927 -0.002207 0.000000 0.000000 0.000000
# 3 0.000983 -0.002207 0.015158 0.000000 0.000000 0.000000
# 4 0.000000 0.000000 0.000000 0.043332 0.000000 0.000000
# 5 0.000000 0.000000 0.000000 0.000000 0.034564 0.000000
# 6 0.000000 0.000000 0.000000 0.000000 0.000000 0.027087
#
#
# Mechanical properties :
#
#
# Convention : Reuss Voigt Hill
#
# Bulk Modulus (GPa) = 34.55649 37.15615 35.85632
# Shear Modulus (GPa) = 29.13641 31.04052 30.08847
#
# Velocity S-wave (km/s) = 3.63069 3.74745 3.68953
# Velocity P-wave (km/s) = 5.76281 5.96110 5.86279
#
# Compressibility (1/GPa) = 0.02893812
#
# Stress axis : x y z
#
# Youngs Moduli (GPa) = 77.68237 66.99186 65.97162
#
# Poissons Ratio (x) = 0.38759 -0.06486
# Poissons Ratio (y) = 0.44945 0.14563
# Poissons Ratio (z) = -0.07637 0.14788
#
# Static dielectric constant tensor:
#      x y z
#    x 1.869130 0.000000 0.000000 
#    y 0.000000 1.823900 0.000000 
#    z 0.000000 0.000000 2.197230 
# 
# From -- ./inp_files/2339.got.cif
#   From: 2010.05.17/outbox.cif.g08.bks.cpg/sg19_2_cif.got.tgz:2339.got - 2010.06.03 22:46:19.
