data_PCOD9313033
_publ_section_title
;
Structure prediction by ZEFSAII (Michael W. Deem and Ramdas Pophale) SiO2 
 PCOD9313033
Probable space group: P 21 21 2
;
_chemical_formula_sum "Si O2"
_cell_formula_units_Z 20
_cell_length_a 15.767141
_cell_length_b 4.914552
_cell_length_c 13.611090
_cell_angle_alpha 90.000000
_cell_angle_beta 90.000000
_cell_angle_gamma 90.000000
_cell_volume 1054.702054
_symmetry_space_group_name_H-M "P 21 21 2"
_symmetry_group_IT_number 18
_symmetry_cell_setting 'orthorhombic'
loop_
_space_group_symop_operation_xyz
x,y,z
-x,-y,z
1/2+x,1/2-y,-z
1/2-x,1/2+y,-z
loop_
_atom_site_type_symbol
_atom_site_label
_atom_site_fract_x
_atom_site_fract_y
_atom_site_fract_z
Si Si1 0.555528 0.767665 0.860565
Si Si2 0.263585 0.966680 0.280000
Si Si3 0.692125 0.897148 0.481120
Si Si4 0.150948 0.469410 0.317796
Si Si5 0.767525 0.033053 0.062396
O O1 0.500000 0.500000 0.841772
O O2 0.641168 0.665054 0.912873
O O3 0.500000 0.000000 0.914560
O O4 0.585902 0.918460 0.761152
O O5 0.327716 0.051668 0.366835
O O6 0.233774 0.658853 0.298334
O O7 0.282693 0.996495 0.165285
O O8 0.181558 0.163421 0.298068
O O9 0.773531 0.094048 0.501980
O O10 0.628598 0.979588 0.568209
O O11 0.723213 0.241543 0.988061
#
# Coordination Sequence:
#
# PCOD9313033 Si02
#       5
#     4   4   4   4   4
#     4  11  21  34  51  74 104 136 168 211 268 327
#     4   9  16  28  45  69  98 127 160 204 251 292
#     4   8  14  24  42  66  94 122 148 182 234 293
#     4   9  16  28  45  69  98 126 155 195 246 307
#     4  11  21  34  51  74 104 137 177 226 265 297
#
# _framework density 18.962699000000001
#
# number of rings (size 3 to 8) (size 9 to 14) (size 15 to 20)
#    0.000    2.400    0.000    6.000    0.000    0.000 
#    0.000    0.000    0.000    0.000    0.000    5.600 
#    0.000   12.800    0.000    0.000    0.000    0.000 
#
# Total GULP energy -111362.400558 kJ/mol
# GULP energy per Si atom -5568.120028 kJ/mol
# Density = 1.891954 g / cm^3
# Si number density = 18.962699 Si / 1000 Ang^3
#
#
#
# Elastic Constant Matrix: (Units=GPa)
#
#
# Indices 1 2 3 4 5 6 
#
# 1 26.5626 -5.6354 -9.6195 0.0000 0.0000 0.0000
# 2 -5.6354 77.2952 0.4177 0.0000 0.0000 0.0000
# 3 -9.6195 0.4177 115.9438 0.0000 0.0000 0.0000
# 4 0.0000 0.0000 0.0000 36.2143 0.0000 0.0000
# 5 0.0000 0.0000 0.0000 0.0000 8.8606 0.0000
# 6 0.0000 0.0000 0.0000 0.0000 0.0000 25.9229
#
#
#
# Elastic Compliance Matrix: (Units=1/GPa)
#
#
# Indices 1 2 3 4 5 6 
#
# 1 0.039434 0.002857 0.003261 0.000000 0.000000 0.000000
# 2 0.002857 0.013145 0.000190 0.000000 0.000000 0.000000
# 3 0.003261 0.000190 0.008895 0.000000 0.000000 0.000000
# 4 0.000000 0.000000 0.000000 0.027613 0.000000 0.000000
# 5 0.000000 0.000000 0.000000 0.000000 0.112860 0.000000
# 6 0.000000 0.000000 0.000000 0.000000 0.000000 0.038576
#
#
# Mechanical properties :
#
#
# Convention : Reuss Voigt Hill
#
# Bulk Modulus (GPa) = 13.49692 21.12523 17.31107
# Shear Modulus (GPa) = 19.79395 29.84215 24.81805
#
# Velocity S-wave (km/s) = 3.23435 3.97133 3.62163
# Velocity P-wave (km/s) = 4.59142 5.67391 5.16112
#
# Compressibility (1/GPa) = 0.07409098
#
# Stress axis : x y z
#
# Youngs Moduli (GPa) = 25.35865 76.07615 112.42553
#
# Poissons Ratio (x) = -0.21738 -0.36667
# Poissons Ratio (y) = -0.07246 -0.02133
# Poissons Ratio (z) = -0.08271 -0.01443
#
# Static dielectric constant tensor:
#      x y z
#    x 1.695940 0.000000 0.000000 
#    y 0.000000 1.657070 0.000000 
#    z 0.000000 0.000000 1.760660 
# 
# From -- ./inp_files/5124.got.cif
#   From: 2010.05.17/outbox.cif.g08.bks.cpg/sg18_3_cif.got.tgz:5124.got - 2010.06.03 22:40:56.
