data_PCOD9313148
_publ_section_title
;
Structure prediction by ZEFSAII (Michael W. Deem and Ramdas Pophale) SiO2 
 PCOD9313148
Probable space group: P 21 21 2
;
_chemical_formula_sum "Si O2"
_cell_formula_units_Z 12
_cell_length_a 8.668263
_cell_length_b 5.157045
_cell_length_c 11.078684
_cell_angle_alpha 90.000000
_cell_angle_beta 90.000000
_cell_angle_gamma 90.000000
_cell_volume 495.246227
_symmetry_space_group_name_H-M "P 21 21 2"
_symmetry_group_IT_number 18
_symmetry_cell_setting 'orthorhombic'
loop_
_space_group_symop_operation_xyz
x,y,z
-x,-y,z
1/2+x,1/2-y,-z
1/2-x,1/2+y,-z
loop_
_atom_site_type_symbol
_atom_site_label
_atom_site_fract_x
_atom_site_fract_y
_atom_site_fract_z
Si Si1 0.673801 0.552579 0.198407
Si Si2 0.395612 0.254504 0.936747
Si Si3 0.323222 0.906728 0.557648
O O1 0.500000 0.500000 0.239794
O O2 0.754393 0.288162 0.153228
O O3 0.776655 0.662453 0.305261
O O4 0.337917 0.285778 0.074247
O O5 0.500000 0.500000 0.909082
O O6 0.500000 0.000000 0.927176
O O7 0.218474 0.153886 0.520112
O O8 0.500000 0.000000 0.547753
#
# Coordination Sequence:
#
# PCOD9313148 Si02
#       3
#     4   4   4
#     4  11  24  44  72 104 143 184 233 288 348 415
#     4  11  25  44  69 106 146 186 230 284 351 418
#     4  12  28  50  74 102 139 186 238 290 348 415
#
# _framework density 24.230371000000002
#
# number of rings (size 3 to 8) (size 9 to 14) (size 15 to 20)
#    0.000    0.667    0.000    8.000    0.000   14.667 
#    0.000    0.000    0.000    0.000    0.000    0.000 
#    0.000    0.000    0.000    0.000    0.000    0.000 
#
# Total GULP energy -67290.108830 kJ/mol
# GULP energy per Si atom -5607.509069 kJ/mol
# Density = 2.417522 g / cm^3
# Si number density = 24.230371 Si / 1000 Ang^3
#
#
#
# Elastic Constant Matrix: (Units=GPa)
#
#
# Indices 1 2 3 4 5 6 
#
# 1 146.9132 52.5087 40.4683 0.0000 0.0000 0.0000
# 2 52.5087 146.2941 22.5686 0.0000 0.0000 0.0000
# 3 40.4683 22.5686 96.9618 0.0000 0.0000 0.0000
# 4 0.0000 0.0000 0.0000 40.8597 0.0000 0.0000
# 5 0.0000 0.0000 0.0000 0.0000 32.9035 0.0000
# 6 0.0000 0.0000 0.0000 0.0000 0.0000 48.1291
#
#
#
# Elastic Compliance Matrix: (Units=1/GPa)
#
#
# Indices 1 2 3 4 5 6 
#
# 1 0.008557 -0.002614 -0.002963 0.000000 0.000000 0.000000
# 2 -0.002614 0.007889 -0.000745 0.000000 0.000000 0.000000
# 3 -0.002963 -0.000745 0.011723 0.000000 0.000000 0.000000
# 4 0.000000 0.000000 0.000000 0.024474 0.000000 0.000000
# 5 0.000000 0.000000 0.000000 0.000000 0.030392 0.000000
# 6 0.000000 0.000000 0.000000 0.000000 0.000000 0.020777
#
#
# Mechanical properties :
#
#
# Convention : Reuss Voigt Hill
#
# Bulk Modulus (GPa) = 64.41324 69.02892 66.72108
# Shear Modulus (GPa) = 41.10738 42.68669 41.89703
#
# Velocity S-wave (km/s) = 4.12336 4.20182 4.16277
# Velocity P-wave (km/s) = 7.02216 7.21739 7.12045
#
# Compressibility (1/GPa) = 0.01552476
#
# Stress axis : x y z
#
# Youngs Moduli (GPa) = 116.85899 126.76135 85.29949
#
# Poissons Ratio (x) = 0.33140 0.25274
# Poissons Ratio (y) = 0.30551 0.06355
# Poissons Ratio (z) = 0.34625 0.09444
#
# Static dielectric constant tensor:
#      x y z
#    x 1.966820 0.000000 0.000000 
#    y 0.000000 1.896710 0.000000 
#    z 0.000000 0.000000 1.905080 
# 
# From -- ./inp_files/5330.got.cif
#   From: 2010.05.17/outbox.cif.g08.bks.cpg/sg18_3_cif.got.tgz:5330.got - 2010.06.03 22:40:56.
