data_PCOD9313044
_publ_section_title
;
Structure prediction by ZEFSAII (Michael W. Deem and Ramdas Pophale) SiO2 
 PCOD9313044
Probable space group: P 21 21 2
;
_chemical_formula_sum "Si O2"
_cell_formula_units_Z 20
_cell_length_a 6.671373
_cell_length_b 16.568492
_cell_length_c 7.856658
_cell_angle_alpha 90.000000
_cell_angle_beta 90.000000
_cell_angle_gamma 90.000000
_cell_volume 868.432472
_symmetry_space_group_name_H-M "P 21 21 2"
_symmetry_group_IT_number 18
_symmetry_cell_setting 'orthorhombic'
loop_
_space_group_symop_operation_xyz
x,y,z
-x,-y,z
1/2+x,1/2-y,-z
1/2-x,1/2+y,-z
loop_
_atom_site_type_symbol
_atom_site_label
_atom_site_fract_x
_atom_site_fract_y
_atom_site_fract_z
Si Si1 0.160120 0.859471 0.709144
Si Si2 0.082944 0.223322 0.207571
Si Si3 0.748588 0.854926 0.865552
Si Si4 0.737741 0.523447 0.988254
Si Si5 0.649295 0.573781 0.635725
O O1 0.222445 0.766109 0.713455
O O2 0.247209 0.901527 0.541713
O O3 0.919854 0.869604 0.724102
O O4 0.241098 0.904677 0.876758
O O5 0.920605 0.294635 0.197075
O O6 0.985500 0.149915 0.307946
O O7 0.140419 0.190259 0.021851
O O8 0.670969 0.940472 0.939859
O O9 0.500000 0.500000 0.975017
O O10 0.787967 0.551522 0.797361
O O11 0.500000 0.500000 0.602646
#
# Coordination Sequence:
#
# PCOD9313044 Si02
#       5
#     4   4   4   4   4
#     4  11  24  41  65  95 130 172 215 272 324 386
#     4  12  23  40  67  99 128 170 224 268 327 389
#     4  11  21  41  69  92 132 172 217 268 326 390
#     4   9  18  41  65  90 125 174 211 256 326 391
#     4  11  21  41  68  94 130 177 216 260 338 399
#
# _framework density 23.030000999999999
#
# number of rings (size 3 to 8) (size 9 to 14) (size 15 to 20)
#    0.000    1.200    8.000    1.800    2.800    0.800 
#    0.000    0.000    0.000    6.000    0.000    0.000 
#    0.000    0.000    0.000    0.000    0.000    0.000 
#
# Total GULP energy -111853.637855 kJ/mol
# GULP energy per Si atom -5592.681893 kJ/mol
# Density = 2.297758 g / cm^3
# Si number density = 23.030001 Si / 1000 Ang^3
#
#
#
# Elastic Constant Matrix: (Units=GPa)
#
#
# Indices 1 2 3 4 5 6 
#
# 1 41.0559 17.8292 13.0616 0.0000 0.0000 0.0000
# 2 17.8292 146.5187 27.2434 0.0000 0.0000 0.0000
# 3 13.0616 27.2434 97.2331 0.0000 0.0000 0.0000
# 4 0.0000 0.0000 0.0000 30.5729 0.0000 0.0000
# 5 0.0000 0.0000 0.0000 0.0000 4.3876 0.0000
# 6 0.0000 0.0000 0.0000 0.0000 0.0000 43.8391
#
#
#
# Elastic Compliance Matrix: (Units=1/GPa)
#
#
# Indices 1 2 3 4 5 6 
#
# 1 0.026416 -0.002695 -0.002793 0.000000 0.000000 0.000000
# 2 -0.002695 0.007475 -0.001732 0.000000 0.000000 0.000000
# 3 -0.002793 -0.001732 0.011145 0.000000 0.000000 0.000000
# 4 0.000000 0.000000 0.000000 0.032709 0.000000 0.000000
# 5 0.000000 0.000000 0.000000 0.000000 0.227917 0.000000
# 6 0.000000 0.000000 0.000000 0.000000 0.000000 0.022811
#
#
# Mechanical properties :
#
#
# Convention : Reuss Voigt Hill
#
# Bulk Modulus (GPa) = 32.68541 44.56402 38.62472
# Shear Modulus (GPa) = 14.15977 30.87147 22.51562
#
# Velocity S-wave (km/s) = 2.48229 3.66524 3.13016
# Velocity P-wave (km/s) = 4.73698 6.10773 5.46550
#
# Compressibility (1/GPa) = 0.03059469
#
# Stress axis : x y z
#
# Youngs Moduli (GPa) = 37.85570 133.77681 89.72465
#
# Poissons Ratio (x) = 0.36054 0.25064
# Poissons Ratio (y) = 0.10202 0.15544
# Poissons Ratio (z) = 0.10575 0.23176
#
# Static dielectric constant tensor:
#      x y z
#    x 1.932180 0.000000 0.000000 
#    y 0.000000 1.832110 0.000000 
#    z 0.000000 0.000000 1.858810 
# 
# From -- ./inp_files/3018.got.cif
#   From: 2010.05.17/outbox.cif.g08.bks.cpg/sg18_2_cif.got.tgz:3018.got - 2010.06.03 22:40:56.
