data_PCOD9313151
_publ_section_title
;
Structure prediction by ZEFSAII (Michael W. Deem and Ramdas Pophale) SiO2 
 PCOD9313151
Probable space group: P 21 21 2
;
_chemical_formula_sum "Si O2"
_cell_formula_units_Z 28
_cell_length_a 24.682942
_cell_length_b 8.173742
_cell_length_c 6.481064
_cell_angle_alpha 90.000000
_cell_angle_beta 90.000000
_cell_angle_gamma 90.000000
_cell_volume 1307.567622
_symmetry_space_group_name_H-M "P 21 21 2"
_symmetry_group_IT_number 18
_symmetry_cell_setting 'orthorhombic'
loop_
_space_group_symop_operation_xyz
x,y,z
-x,-y,z
1/2+x,1/2-y,-z
1/2-x,1/2+y,-z
loop_
_atom_site_type_symbol
_atom_site_label
_atom_site_fract_x
_atom_site_fract_y
_atom_site_fract_z
Si Si1 0.407022 0.476930 0.101135
Si Si2 0.000000 0.000000 0.237091
Si Si3 0.611717 0.891949 0.990379
Si Si4 0.304953 0.672029 0.949824
Si Si5 0.355648 0.921352 0.625338
Si Si6 0.543803 0.273584 0.427584
Si Si7 0.000000 0.500000 0.860927
Si Si8 0.787873 0.545489 0.764859
O O1 0.448254 0.500485 0.911001
O O2 0.396589 0.284004 0.093528
O O3 0.349668 0.559938 0.056346
O O4 0.432740 0.571252 0.297580
O O5 0.008552 0.155940 0.384784
O O6 0.554454 0.983901 0.008679
O O7 0.629025 0.914012 0.751309
O O8 0.658185 0.977634 0.123735
O O9 0.336890 0.791162 0.795802
O O10 0.261547 0.570785 0.820639
O O11 0.276931 0.780078 0.127783
O O12 0.406579 0.839966 0.506765
O O13 0.305558 0.944728 0.471117
O O14 0.508097 0.160162 0.279325
#
# Coordination Sequence:
#
# PCOD9313151 Si02
#       8
#     4   2   4   4   4   4   2   4
#     4  12  25  45  67 102 144 186 232 300 357 426
#     4  12  26  40  70 102 140 188 236 292 354 432
#     4  11  26  42  68 103 138 182 239 286 362 422
#     4  11  24  45  72 100 138 185 232 299 358 427
#     4  11  24  46  69 101 141 182 236 293 350 429
#     4  12  25  46  68 103 146 187 236 291 357 426
#     4  12  24  44  72  98 144 192 232 296 362 434
#     4  11  24  48  71 101 138 185 232 294 360 425
#
# _framework density 21.413806999999998
#
# number of rings (size 3 to 8) (size 9 to 14) (size 15 to 20)
#    0.000    0.571    4.286    3.857    4.000    4.571 
#    2.571    0.000    0.000    0.000    0.000    0.000 
#    0.000    0.000    0.000    0.000    0.000    0.000 
#
# Total GULP energy -156580.327270 kJ/mol
# GULP energy per Si atom -5592.154545 kJ/mol
# Density = 2.136507 g / cm^3
# Si number density = 21.413807 Si / 1000 Ang^3
#
#
#
# Elastic Constant Matrix: (Units=GPa)
#
#
# Indices 1 2 3 4 5 6 
#
# 1 61.4966 5.2225 -5.9133 0.0000 0.0000 0.0000
# 2 5.2225 73.3480 4.9592 0.0000 0.0000 0.0000
# 3 -5.9133 4.9592 50.2033 0.0000 0.0000 0.0000
# 4 0.0000 0.0000 0.0000 27.5168 0.0000 0.0000
# 5 0.0000 0.0000 0.0000 0.0000 -13.2189 0.0000
# 6 0.0000 0.0000 0.0000 0.0000 0.0000 42.6652
#
#
#
# Elastic Compliance Matrix: (Units=1/GPa)
#
#
# Indices 1 2 3 4 5 6 
#
# 1 0.016573 -0.001321 0.002083 0.000000 0.000000 0.000000
# 2 -0.001321 0.013831 -0.001522 0.000000 0.000000 0.000000
# 3 0.002083 -0.001522 0.020315 0.000000 0.000000 0.000000
# 4 0.000000 0.000000 0.000000 0.036341 0.000000 0.000000
# 5 0.000000 0.000000 0.000000 0.000000 -0.075649 0.000000
# 6 0.000000 0.000000 0.000000 0.000000 0.000000 0.023438
#
#
# Mechanical properties :
#
#
# Convention : Reuss Voigt Hill
#
# Bulk Modulus (GPa) = 20.32578 21.50942 20.91760
# Shear Modulus (GPa) = 94.75300 23.44458 59.09879
#
# Velocity S-wave (km/s) = 6.65918 3.31242 5.25912
# Velocity P-wave (km/s) = 8.28485 4.96950 6.83135
#
# Compressibility (1/GPa) = 0.04919860
#
# Stress axis : x y z
#
# Youngs Moduli (GPa) = 60.33729 72.30361 49.22557
#
# Poissons Ratio (x) = 0.09550 -0.10252
# Poissons Ratio (y) = 0.07970 0.07491
# Poissons Ratio (z) = -0.12566 0.11003
#
# Static dielectric constant tensor:
#      x y z
#    x 1.742170 0.000000 0.000000 
#    y 0.000000 1.814030 0.000000 
#    z 0.000000 0.000000 1.784120 
# 
# From -- ./inp_files/727.got.cif
#   From: 2010.05.17/outbox.cif.g08.bks.cpg/sg18_1_cif.got.tgz:727.got - 2010.06.03 22:40:56.
