data_PCOD9313609
_publ_section_title
;
Structure prediction by ZEFSAII (Michael W. Deem and Ramdas Pophale) SiO2 
 PCOD9313609
Probable space group: P 21 21 21
;
_chemical_formula_sum "Si O2"
_cell_formula_units_Z 32
_cell_length_a 23.422073
_cell_length_b 4.925997
_cell_length_c 12.431037
_cell_angle_alpha 90.000000
_cell_angle_beta 90.000000
_cell_angle_gamma 90.000000
_cell_volume 1434.256518
_symmetry_space_group_name_H-M "P 21 21 21"
_symmetry_group_IT_number 19
_symmetry_cell_setting 'orthorhombic'
loop_
_space_group_symop_operation_xyz
x,y,z
1/2-x,-y,1/2+z
1/2+x,1/2-y,-z
-x,1/2+y,1/2-z
loop_
_atom_site_type_symbol
_atom_site_label
_atom_site_fract_x
_atom_site_fract_y
_atom_site_fract_z
Si Si1 0.031335 0.910501 0.795610
Si Si2 0.186894 0.740921 0.021968
Si Si3 0.298580 0.705230 0.145854
Si Si4 0.965375 0.784214 0.225248
Si Si5 0.655668 0.231965 0.839146
Si Si6 0.224201 0.781827 0.776730
Si Si7 0.899231 0.438592 0.895775
Si Si8 0.462527 0.564014 0.014177
O O1 0.015147 0.603047 0.764499
O O2 0.089280 0.968228 0.732801
O O3 0.021665 0.980459 0.919980
O O4 0.248344 0.644549 0.064519
O O5 0.146555 0.521849 0.080016
O O6 0.172382 0.023099 0.080725
O O7 0.196983 0.754392 0.894736
O O8 0.313207 0.418097 0.199778
O O9 0.341812 0.899490 0.082530
O O10 0.278148 0.904600 0.241409
O O11 0.903009 0.726477 0.274199
O O12 0.998681 0.502894 0.206312
O O13 0.962863 0.940700 0.112038
O O14 0.709549 0.198642 0.754445
O O15 0.915236 0.144340 0.939735
O O16 0.945444 0.633671 0.951755
#
# Coordination Sequence:
#
# PCOD9313609 Si02
#       8
#     4   4   4   4   4   4   4   4
#     4   8  16  32  54  79 116 145 185 248 307 367
#     4  10  21  41  64  91 131 169 210 264 331 396
#     4  10  21  36  59  98 126 157 213 265 305 398
#     4  12  26  46  65  93 129 172 233 279 312 390
#     4  10  23  43  65  93 129 169 217 277 324 379
#     4  10  21  40  62  92 129 168 206 257 331 391
#     4  10  19  36  60  93 121 152 202 262 323 384
#     4  10  21  38  61  87 117 166 210 258 327 369
#
# _framework density 22.311212000000001
#
# number of rings (size 3 to 8) (size 9 to 14) (size 15 to 20)
#    0.000    2.000    0.000    3.000    1.750    0.000 
#   11.250    0.000    0.000    0.000    0.000    0.000 
#    0.000    0.000    0.000    0.000    0.000    0.000 
#
# Total GULP energy -178271.995775 kJ/mol
# GULP energy per Si atom -5570.999868 kJ/mol
# Density = 2.226043 g / cm^3
# Si number density = 22.311212 Si / 1000 Ang^3
#
#
#
# Elastic Constant Matrix: (Units=GPa)
#
#
# Indices 1 2 3 4 5 6 
#
# 1 47.3356 -3.0216 5.7143 0.0000 0.0000 0.0000
# 2 -3.0216 89.3450 21.2578 0.0000 0.0000 0.0000
# 3 5.7143 21.2578 97.4783 0.0000 0.0000 0.0000
# 4 0.0000 0.0000 0.0000 22.7416 0.0000 0.0000
# 5 0.0000 0.0000 0.0000 0.0000 12.8168 0.0000
# 6 0.0000 0.0000 0.0000 0.0000 0.0000 21.5322
#
#
#
# Elastic Compliance Matrix: (Units=1/GPa)
#
#
# Indices 1 2 3 4 5 6 
#
# 1 0.021374 0.001077 -0.001488 0.000000 0.000000 0.000000
# 2 0.001077 0.011859 -0.002649 0.000000 0.000000 0.000000
# 3 -0.001488 -0.002649 0.010924 0.000000 0.000000 0.000000
# 4 0.000000 0.000000 0.000000 0.043972 0.000000 0.000000
# 5 0.000000 0.000000 0.000000 0.000000 0.078023 0.000000
# 6 0.000000 0.000000 0.000000 0.000000 0.000000 0.046442
#
#
# Mechanical properties :
#
#
# Convention : Reuss Voigt Hill
#
# Bulk Modulus (GPa) = 26.29055 31.33997 28.81526
# Shear Modulus (GPa) = 21.60819 25.43201 23.52010
#
# Velocity S-wave (km/s) = 3.11543 3.37987 3.25034
# Velocity P-wave (km/s) = 4.97497 5.41374 5.19899
#
# Compressibility (1/GPa) = 0.03803648
#
# Stress axis : x y z
#
# Youngs Moduli (GPa) = 46.78558 84.32165 91.54424
#
# Poissons Ratio (x) = -0.09080 0.13620
# Poissons Ratio (y) = -0.05038 0.24254
# Poissons Ratio (z) = 0.06961 0.22340
#
# Static dielectric constant tensor:
#      x y z
#    x 1.889580 0.000000 0.000000 
#    y 0.000000 1.810010 0.000000 
#    z 0.000000 0.000000 1.853950 
# 
# From -- ./inp_files/2168.got.cif
#   From: 2010.05.17/outbox.cif.g08.bks.cpg/sg19_2_cif.got.tgz:2168.got - 2010.06.03 22:46:19.
