data_PCOD9313241
_publ_section_title
;
Structure prediction by ZEFSAII (Michael W. Deem and Ramdas Pophale) SiO2 
 PCOD9313241
Probable space group: P 21 21 2
;
_chemical_formula_sum "Si O2"
_cell_formula_units_Z 20
_cell_length_a 15.370075
_cell_length_b 8.508345
_cell_length_c 6.582320
_cell_angle_alpha 90.000000
_cell_angle_beta 90.000000
_cell_angle_gamma 90.000000
_cell_volume 860.795663
_symmetry_space_group_name_H-M "P 21 21 2"
_symmetry_group_IT_number 18
_symmetry_cell_setting 'orthorhombic'
loop_
_space_group_symop_operation_xyz
x,y,z
-x,-y,z
1/2+x,1/2-y,-z
1/2-x,1/2+y,-z
loop_
_atom_site_type_symbol
_atom_site_label
_atom_site_fract_x
_atom_site_fract_y
_atom_site_fract_z
Si Si1 0.415690 0.396214 0.810712
Si Si2 0.494371 0.819875 0.122930
Si Si3 0.653404 0.101185 0.868946
Si Si4 0.406355 0.103279 0.517291
Si Si5 0.242382 0.603753 0.811299
O O1 0.500000 0.500000 0.752834
O O2 0.399027 0.256117 0.655101
O O3 0.329990 0.501609 0.807962
O O4 0.443707 0.309107 0.021249
O O5 0.517598 0.845275 0.357181
O O6 0.500000 0.000000 0.040972
O O7 0.398033 0.791577 0.036498
O O8 0.730725 0.214928 0.800496
O O9 0.596694 0.042462 0.677097
O O10 0.692501 0.951575 0.985902
O O11 0.324113 0.071830 0.371579
#
# Coordination Sequence:
#
# PCOD9313241 Si02
#       5
#     4   4   4   4   4
#     4  12  27  49  74 109 157 194 254 312 374 462
#     4  12  25  47  75 105 147 203 243 308 375 453
#     4  12  26  47  76 106 155 194 250 315 375 447
#     4  12  26  47  74 111 144 197 255 302 386 449
#     4  12  26  48  75 111 147 200 247 318 376 449
#
# _framework density 23.234321000000001
#
# number of rings (size 3 to 8) (size 9 to 14) (size 15 to 20)
#    0.000    0.000    6.000    3.600    2.800    0.800 
#   10.800    0.000    0.000    0.000    0.000    0.000 
#    0.000    0.000    0.000    0.000    0.000    0.000 
#
# Total GULP energy -111658.766483 kJ/mol
# GULP energy per Si atom -5582.938324 kJ/mol
# Density = 2.318144 g / cm^3
# Si number density = 23.234321 Si / 1000 Ang^3
#
#
#
# Elastic Constant Matrix: (Units=GPa)
#
#
# Indices 1 2 3 4 5 6 
#
# 1 109.6745 13.7348 56.5684 0.0000 0.0000 0.0000
# 2 13.7348 91.9078 45.9724 0.0000 0.0000 0.0000
# 3 56.5684 45.9724 163.1874 0.0000 0.0000 0.0000
# 4 0.0000 0.0000 0.0000 29.9180 0.0000 0.0000
# 5 0.0000 0.0000 0.0000 0.0000 40.4274 0.0000
# 6 0.0000 0.0000 0.0000 0.0000 0.0000 56.6237
#
#
#
# Elastic Compliance Matrix: (Units=1/GPa)
#
#
# Indices 1 2 3 4 5 6 
#
# 1 0.011111 0.000310 -0.003939 0.000000 0.000000 0.000000
# 2 0.000310 0.012674 -0.003678 0.000000 0.000000 0.000000
# 3 -0.003939 -0.003678 0.008529 0.000000 0.000000 0.000000
# 4 0.000000 0.000000 0.000000 0.033425 0.000000 0.000000
# 5 0.000000 0.000000 0.000000 0.000000 0.024736 0.000000
# 6 0.000000 0.000000 0.000000 0.000000 0.000000 0.017660
#
#
# Mechanical properties :
#
#
# Convention : Reuss Voigt Hill
#
# Bulk Modulus (GPa) = 56.49618 66.36900 61.43259
# Shear Modulus (GPa) = 38.86566 41.96009 40.41287
#
# Velocity S-wave (km/s) = 4.09439 4.25426 4.17509
# Velocity P-wave (km/s) = 6.83525 7.26352 7.05264
#
# Compressibility (1/GPa) = 0.01770031
#
# Stress axis : x y z
#
# Youngs Moduli (GPa) = 90.00391 78.90282 117.24201
#
# Poissons Ratio (x) = -0.02444 0.46179
# Poissons Ratio (y) = -0.02788 0.43119
# Poissons Ratio (z) = 0.35450 0.29019
#
# Static dielectric constant tensor:
#      x y z
#    x 2.054820 0.000000 0.000000 
#    y 0.000000 1.897680 0.000000 
#    z 0.000000 0.000000 1.843600 
# 
# From -- ./inp_files/529.got.cif
#   From: 2010.05.17/outbox.cif.g08.bks.cpg/sg18_1_cif.got.tgz:529.got - 2010.06.03 22:40:56.
