data_PCOD9313928
_publ_section_title
;
Structure prediction by ZEFSAII (Michael W. Deem and Ramdas Pophale) SiO2 
 PCOD9313928
Probable space group: P 21 21 21
;
_chemical_formula_sum "Si O2"
_cell_formula_units_Z 28
_cell_length_a 8.538896
_cell_length_b 22.364339
_cell_length_c 5.284438
_cell_angle_alpha 90.000000
_cell_angle_beta 90.000000
_cell_angle_gamma 90.000000
_cell_volume 1009.152029
_symmetry_space_group_name_H-M "P 21 21 21"
_symmetry_group_IT_number 19
_symmetry_cell_setting 'orthorhombic'
loop_
_space_group_symop_operation_xyz
x,y,z
1/2-x,-y,1/2+z
1/2+x,1/2-y,-z
-x,1/2+y,1/2-z
loop_
_atom_site_type_symbol
_atom_site_label
_atom_site_fract_x
_atom_site_fract_y
_atom_site_fract_z
Si Si1 0.952664 0.235418 0.956485
Si Si2 0.575468 0.035194 0.182667
Si Si3 0.654078 0.483346 0.954835
Si Si4 0.913909 0.078323 0.311505
Si Si5 0.059778 0.858200 0.856512
Si Si6 0.242711 0.325416 0.386620
Si Si7 0.745886 0.293917 0.326292
O O1 0.947917 0.294132 0.778041
O O2 0.117076 0.205116 0.892607
O O3 0.815978 0.187672 0.887195
O O4 0.906059 0.266364 0.214338
O O5 0.750669 0.060831 0.172674
O O6 0.459750 0.091801 0.140761
O O7 0.505118 0.017678 0.457879
O O8 0.566172 0.976224 0.013114
O O9 0.743783 0.511265 0.712045
O O10 0.569770 0.422810 0.858874
O O11 0.879209 0.139899 0.458556
O O12 0.910537 0.862886 0.045434
O O13 0.213794 0.854560 0.029020
O O14 0.203407 0.259245 0.484165
#
# Coordination Sequence:
#
# PCOD9313928 Si02
#       7
#     4   4   4   4   4   4   4
#     4  10  20  38  62  92 130 172 221 277 352 416
#     4  11  23  44  71  99 137 191 252 293 355 438
#     4  12  26  46  68 101 148 184 235 304 362 421
#     4  11  23  44  71 101 136 194 247 296 356 439
#     4   9  21  40  63  92 127 169 226 290 337 420
#     4   9  21  40  63  92 128 168 228 288 340 419
#     4  10  20  38  60  93 130 172 221 280 352 415
#
# _framework density 27.746065000000002
#
# number of rings (size 3 to 8) (size 9 to 14) (size 15 to 20)
#    0.000    1.714    2.857    0.857    0.000    4.571 
#    5.143    0.000    0.000    0.000    0.000    0.000 
#    0.000    0.000    0.000    0.000    0.000    0.000 
#
# Total GULP energy -156376.433564 kJ/mol
# GULP energy per Si atom -5584.872627 kJ/mol
# Density = 2.768291 g / cm^3
# Si number density = 27.746065 Si / 1000 Ang^3
#
#
#
# Elastic Constant Matrix: (Units=GPa)
#
#
# Indices 1 2 3 4 5 6 
#
# 1 96.0644 17.9851 43.8501 0.0000 0.0000 0.0000
# 2 17.9851 108.2473 25.1386 0.0000 0.0000 0.0000
# 3 43.8501 25.1386 96.1124 0.0000 0.0000 0.0000
# 4 0.0000 0.0000 0.0000 46.5424 0.0000 0.0000
# 5 0.0000 0.0000 0.0000 0.0000 44.6851 0.0000
# 6 0.0000 0.0000 0.0000 0.0000 0.0000 38.5739
#
#
#
# Elastic Compliance Matrix: (Units=1/GPa)
#
#
# Indices 1 2 3 4 5 6 
#
# 1 0.013220 -0.000847 -0.005810 0.000000 0.000000 0.000000
# 2 -0.000847 0.009890 -0.002200 0.000000 0.000000 0.000000
# 3 -0.005810 -0.002200 0.013631 0.000000 0.000000 0.000000
# 4 0.000000 0.000000 0.000000 0.021486 0.000000 0.000000
# 5 0.000000 0.000000 0.000000 0.000000 0.022379 0.000000
# 6 0.000000 0.000000 0.000000 0.000000 0.000000 0.025924
#
#
# Mechanical properties :
#
#
# Convention : Reuss Voigt Hill
#
# Bulk Modulus (GPa) = 52.55968 52.70795 52.63381
# Shear Modulus (GPa) = 38.28873 40.19030 39.23951
#
# Velocity S-wave (km/s) = 3.71882 3.81005 3.76471
# Velocity P-wave (km/s) = 6.11750 6.19622 6.15698
#
# Compressibility (1/GPa) = 0.01902599
#
# Stress axis : x y z
#
# Youngs Moduli (GPa) = 75.64070 101.11396 73.36373
#
# Poissons Ratio (x) = 0.08567 0.42625
# Poissons Ratio (y) = 0.06409 0.16141
# Poissons Ratio (z) = 0.43948 0.22247
#
# Static dielectric constant tensor:
#      x y z
#    x 2.240080 0.000000 0.000000 
#    y 0.000000 2.226650 0.000000 
#    z 0.000000 0.000000 2.173670 
# 
# From -- ./inp_files/645.got.cif
#   From: 2010.05.17/outbox.cif.g08.bks.cpg/sg19_1_cif.got.tgz:645.got - 2010.06.03 22:46:19.
