data_PCOD9313204
_publ_section_title
;
Structure prediction by ZEFSAII (Michael W. Deem and Ramdas Pophale) SiO2 
 PCOD9313204
Probable space group: P 21 21 2
;
_chemical_formula_sum "Si O2"
_cell_formula_units_Z 22
_cell_length_a 5.214782
_cell_length_b 30.790987
_cell_length_c 4.883679
_cell_angle_alpha 90.000000
_cell_angle_beta 90.000000
_cell_angle_gamma 90.000000
_cell_volume 784.163960
_symmetry_space_group_name_H-M "P 21 21 2"
_symmetry_group_IT_number 18
_symmetry_cell_setting 'orthorhombic'
loop_
_space_group_symop_operation_xyz
x,y,z
-x,-y,z
1/2+x,1/2-y,-z
1/2-x,1/2+y,-z
loop_
_atom_site_type_symbol
_atom_site_label
_atom_site_fract_x
_atom_site_fract_y
_atom_site_fract_z
Si Si1 0.187788 0.343343 0.954062
Si Si2 0.616895 0.562714 0.866071
Si Si3 0.304704 0.668989 0.299036
Si Si4 0.781982 0.926536 0.619955
Si Si5 0.316721 0.256573 0.813829
Si Si6 0.500000 0.000000 0.301954
O O1 0.407934 0.335539 0.185043
O O2 0.901350 0.334286 0.051175
O O3 0.217398 0.393795 0.894621
O O4 0.272049 0.306858 0.733744
O O5 0.529082 0.560948 0.554504
O O6 0.781851 0.519592 0.895632
O O7 0.374129 0.569052 0.067419
O O8 0.236397 0.624333 0.453623
O O9 0.244607 0.717911 0.400279
O O10 0.581303 0.960322 0.499182
O O11 0.591195 0.250891 0.958737
#
# Coordination Sequence:
#
# PCOD9313204 Si02
#       6
#     4   4   4   4   4   2
#     4   9  19  38  68 103 144 188 238 298 365 443
#     4  11  28  50  73 106 146 193 250 312 378 450
#     4   9  19  38  68 103 144 188 238 298 365 443
#     4  11  28  50  73 106 146 193 250 312 378 450
#     4   8  14  30  62 100 138 184 232 288 360 438
#     4  12  30  50  80 104 152 202 258 322 386 456
#
# _framework density 28.055357000000001
#
# number of rings (size 3 to 8) (size 9 to 14) (size 15 to 20)
#    0.000    2.182    0.000    0.545   10.182    4.364 
#    0.000    0.000    4.000    2.182    0.000    0.000 
#    0.000    0.000    0.000    0.000    0.000    0.000 
#
# Total GULP energy -123153.430928 kJ/mol
# GULP energy per Si atom -5597.883224 kJ/mol
# Density = 2.799150 g / cm^3
# Si number density = 28.055357 Si / 1000 Ang^3
#
#
#
# Elastic Constant Matrix: (Units=GPa)
#
#
# Indices 1 2 3 4 5 6 
#
# 1 128.4010 28.9696 44.7274 0.0000 0.0000 0.0000
# 2 28.9696 179.6146 51.7388 0.0000 0.0000 0.0000
# 3 44.7274 51.7388 66.9349 0.0000 0.0000 0.0000
# 4 0.0000 0.0000 0.0000 37.4088 0.0000 0.0000
# 5 0.0000 0.0000 0.0000 0.0000 14.6373 0.0000
# 6 0.0000 0.0000 0.0000 0.0000 0.0000 57.6438
#
#
#
# Elastic Compliance Matrix: (Units=1/GPa)
#
#
# Indices 1 2 3 4 5 6 
#
# 1 0.010174 0.000408 -0.007114 0.000000 0.000000 0.000000
# 2 0.000408 0.007179 -0.005822 0.000000 0.000000 0.000000
# 3 -0.007114 -0.005822 0.024194 0.000000 0.000000 0.000000
# 4 0.000000 0.000000 0.000000 0.026732 0.000000 0.000000
# 5 0.000000 0.000000 0.000000 0.000000 0.068318 0.000000
# 6 0.000000 0.000000 0.000000 0.000000 0.000000 0.017348
#
#
# Mechanical properties :
#
#
# Convention : Reuss Voigt Hill
#
# Bulk Modulus (GPa) = 60.63794 69.53581 65.08687
# Shear Modulus (GPa) = 27.10075 38.57231 32.83653
#
# Velocity S-wave (km/s) = 3.11138 3.71194 3.42485
# Velocity P-wave (km/s) = 5.87947 6.57346 6.23613
#
# Compressibility (1/GPa) = 0.01649133
#
# Stress axis : x y z
#
# Youngs Moduli (GPa) = 98.28834 139.30313 41.33296
#
# Poissons Ratio (x) = -0.05688 0.29405
# Poissons Ratio (y) = -0.04013 0.24063
# Poissons Ratio (z) = 0.69924 0.81098
#
# Static dielectric constant tensor:
#      x y z
#    x 2.164600 0.000000 0.000000 
#    y 0.000000 2.355730 0.000000 
#    z 0.000000 0.000000 2.110550 
# 
# From -- ./inp_files/329.got.cif
#   From: 2010.05.17/outbox.cif.g08.bks.cpg/sg18_1_cif.got.tgz:329.got - 2010.06.03 22:40:56.
