data_PCOD9313951
_publ_section_title
;
Structure prediction by ZEFSAII (Michael W. Deem and Ramdas Pophale) SiO2 
 PCOD9313951
Probable space group: P 21 21 21
;
_chemical_formula_sum "Si O2"
_cell_formula_units_Z 32
_cell_length_a 11.542313
_cell_length_b 9.194783
_cell_length_c 15.167461
_cell_angle_alpha 90.000000
_cell_angle_beta 90.000000
_cell_angle_gamma 90.000000
_cell_volume 1609.708429
_symmetry_space_group_name_H-M "P 21 21 21"
_symmetry_group_IT_number 19
_symmetry_cell_setting 'orthorhombic'
loop_
_space_group_symop_operation_xyz
x,y,z
1/2-x,-y,1/2+z
1/2+x,1/2-y,-z
-x,1/2+y,1/2-z
loop_
_atom_site_type_symbol
_atom_site_label
_atom_site_fract_x
_atom_site_fract_y
_atom_site_fract_z
Si Si1 0.748662 0.623578 0.324437
Si Si2 0.132823 0.287965 0.324956
Si Si3 0.607813 0.635328 0.757843
Si Si4 0.426169 0.004267 0.918833
Si Si5 0.181879 0.496645 0.869004
Si Si6 0.214933 0.366048 0.677095
Si Si7 0.575580 0.413274 0.387691
Si Si8 0.685929 0.117213 0.946011
O O1 0.770154 0.720453 0.238675
O O2 0.844980 0.497174 0.316969
O O3 0.628038 0.537817 0.324189
O O4 0.772519 0.731771 0.404610
O O5 0.074511 0.157793 0.378363
O O6 0.203132 0.406047 0.378733
O O7 0.029894 0.356710 0.268017
O O8 0.638475 0.599173 0.656111
O O9 0.669195 0.779013 0.793707
O O10 0.551728 0.077889 0.927630
O O11 0.381365 0.972787 0.017096
O O12 0.174182 0.435492 0.769783
O O13 0.063096 0.584596 0.887160
O O14 0.194215 0.382525 0.948378
O O15 0.129310 0.241750 0.638997
O O16 0.243223 0.488959 0.604580
#
# Coordination Sequence:
#
# PCOD9313951 Si02
#       8
#     4   4   4   4   4   4   4   4
#     4  10  22  39  61  88 125 157 195 261 309 362
#     4  11  20  39  66  92 119 156 205 262 312 365
#     4  10  21  37  66  94 117 156 205 256 329 352
#     4  10  20  38  64  91 125 153 205 261 305 375
#     4  11  25  37  66  91 123 167 213 248 308 375
#     4  11  22  42  65  86 127 166 207 255 307 377
#     4  10  25  42  59  86 130 170 206 249 305 377
#     4  11  21  40  63  96 124 159 206 258 313 361
#
# _framework density 19.879376000000001
#
# number of rings (size 3 to 8) (size 9 to 14) (size 15 to 20)
#    0.000    1.500    3.750    0.750    5.250    0.000 
#    2.250    0.000    2.750    0.000    0.000    0.000 
#    0.000    0.000    0.000    0.000    0.000    0.000 
#
# Total GULP energy -178396.414657 kJ/mol
# GULP energy per Si atom -5574.887958 kJ/mol
# Density = 1.983413 g / cm^3
# Si number density = 19.879376 Si / 1000 Ang^3
#
#
#
# Elastic Constant Matrix: (Units=GPa)
#
#
# Indices 1 2 3 4 5 6 
#
# 1 38.2493 13.3022 12.3428 0.0000 0.0000 0.0000
# 2 13.3022 62.3437 14.7662 0.0000 0.0000 0.0000
# 3 12.3428 14.7662 69.2622 0.0000 0.0000 0.0000
# 4 0.0000 0.0000 0.0000 25.4864 0.0000 0.0000
# 5 0.0000 0.0000 0.0000 0.0000 21.9925 0.0000
# 6 0.0000 0.0000 0.0000 0.0000 0.0000 14.7495
#
#
#
# Elastic Compliance Matrix: (Units=1/GPa)
#
#
# Indices 1 2 3 4 5 6 
#
# 1 0.029303 -0.005282 -0.004096 0.000000 0.000000 0.000000
# 2 -0.005282 0.017845 -0.002863 0.000000 0.000000 0.000000
# 3 -0.004096 -0.002863 0.015778 0.000000 0.000000 0.000000
# 4 0.000000 0.000000 0.000000 0.039237 0.000000 0.000000
# 5 0.000000 0.000000 0.000000 0.000000 0.045470 0.000000
# 6 0.000000 0.000000 0.000000 0.000000 0.000000 0.067799
#
#
# Mechanical properties :
#
#
# Convention : Reuss Voigt Hill
#
# Bulk Modulus (GPa) = 26.01179 27.85307 26.93243
# Shear Modulus (GPa) = 19.78403 21.07528 20.42966
#
# Velocity S-wave (km/s) = 3.15811 3.25954 3.20922
# Velocity P-wave (km/s) = 5.13920 5.31108 5.22585
#
# Compressibility (1/GPa) = 0.03844410
#
# Stress axis : x y z
#
# Youngs Moduli (GPa) = 34.12621 56.03702 63.37862
#
# Poissons Ratio (x) = 0.29600 0.25958
# Poissons Ratio (y) = 0.18026 0.18147
# Poissons Ratio (z) = 0.13977 0.16044
#
# Static dielectric constant tensor:
#      x y z
#    x 1.697860 0.000000 0.000000 
#    y 0.000000 1.704760 0.000000 
#    z 0.000000 0.000000 1.741820 
# 
# From -- ./inp_files/3958.got.cif
#   From: 2010.05.17/outbox.cif.g08.bks.cpg/sg19_2_cif.got.tgz:3958.got - 2010.06.03 22:46:19.
