data_PCOD9313369
_publ_section_title
;
Structure prediction by ZEFSAII (Michael W. Deem and Ramdas Pophale) SiO2 
 PCOD9313369
Probable space group: P 21 21 21
;
_chemical_formula_sum "Si O2"
_cell_formula_units_Z 32
_cell_length_a 8.990102
_cell_length_b 9.236426
_cell_length_c 13.839834
_cell_angle_alpha 90.000000
_cell_angle_beta 90.000000
_cell_angle_gamma 90.000000
_cell_volume 1149.210156
_symmetry_space_group_name_H-M "P 21 21 21"
_symmetry_group_IT_number 19
_symmetry_cell_setting 'orthorhombic'
loop_
_space_group_symop_operation_xyz
x,y,z
1/2-x,-y,1/2+z
1/2+x,1/2-y,-z
-x,1/2+y,1/2-z
loop_
_atom_site_type_symbol
_atom_site_label
_atom_site_fract_x
_atom_site_fract_y
_atom_site_fract_z
Si Si1 0.557147 0.693538 0.892844
Si Si2 0.460795 0.799599 0.647258
Si Si3 0.730646 0.517321 0.028224
Si Si4 0.269976 0.705978 0.422941
Si Si5 0.489151 0.446145 0.395808
Si Si6 0.741641 0.792160 0.211209
Si Si7 0.782096 0.564004 0.737768
Si Si8 0.621329 0.977617 0.820046
O O1 0.590491 0.599943 0.986159
O O2 0.388673 0.692810 0.856764
O O3 0.654682 0.607363 0.813182
O O4 0.629597 0.853244 0.900071
O O5 0.594642 0.830868 0.570317
O O6 0.467206 0.621600 0.646103
O O7 0.293784 0.807606 0.697211
O O8 0.542372 0.885223 0.735901
O O9 0.878314 0.571705 0.973942
O O10 0.704411 0.344367 0.005356
O O11 0.746673 0.534953 0.143259
O O12 0.376846 0.570475 0.431906
O O13 0.307689 0.784302 0.320954
O O14 0.398341 0.306671 0.358530
O O15 0.577627 0.485996 0.298213
O O16 0.737445 0.947851 0.270729
#
# Coordination Sequence:
#
# PCOD9313369 Si02
#       8
#     4   4   4   4   4   4   4   4
#     4  10  17  37  61  88 131 190 221 297 371 420
#     4   9  16  32  60  91 131 179 216 299 337 428
#     4   9  22  37  62  91 138 183 231 295 367 422
#     4  10  18  40  60  94 142 173 239 287 367 424
#     4  11  20  36  70  96 134 186 238 297 354 437
#     4   9  17  30  59  95 125 165 245 279 344 421
#     4   9  19  40  60  91 135 181 233 293 367 428
#     4   9  15  30  60  88 126 177 233 271 359 422
#
# _framework density 27.845213000000001
#
# number of rings (size 3 to 8) (size 9 to 14) (size 15 to 20)
#    1.500    1.000    3.750    0.000    0.000    1.000 
#    0.000   10.000    8.250    0.000    0.000    0.000 
#    0.000    0.000    0.000    0.000    0.000    0.000 
#
# Total GULP energy -178379.161283 kJ/mol
# GULP energy per Si atom -5574.348790 kJ/mol
# Density = 2.778184 g / cm^3
# Si number density = 27.845213 Si / 1000 Ang^3
#
#
#
# Elastic Constant Matrix: (Units=GPa)
#
#
# Indices 1 2 3 4 5 6 
#
# 1 148.4482 50.9327 29.6011 0.0000 0.0000 0.0000
# 2 50.9327 119.4499 47.0094 0.0000 0.0000 0.0000
# 3 29.6011 47.0094 105.2504 0.0000 0.0000 0.0000
# 4 0.0000 0.0000 0.0000 -6.8324 0.0000 0.0000
# 5 0.0000 0.0000 0.0000 0.0000 28.8882 0.0000
# 6 0.0000 0.0000 0.0000 0.0000 0.0000 19.3691
#
#
#
# Elastic Compliance Matrix: (Units=1/GPa)
#
#
# Indices 1 2 3 4 5 6 
#
# 1 0.007957 -0.003048 -0.000877 0.000000 0.000000 0.000000
# 2 -0.003048 0.011325 -0.004201 0.000000 0.000000 0.000000
# 3 -0.000877 -0.004201 0.011624 0.000000 0.000000 0.000000
# 4 0.000000 0.000000 0.000000 -0.146361 0.000000 0.000000
# 5 0.000000 0.000000 0.000000 0.000000 0.034616 0.000000
# 6 0.000000 0.000000 0.000000 0.000000 0.000000 0.051629
#
#
# Mechanical properties :
#
#
# Convention : Reuss Voigt Hill
#
# Bulk Modulus (GPa) = 68.23633 69.80390 69.02011
# Shear Modulus (GPa) = -619.12770 24.65867 -297.23452
#
# Velocity S-wave (km/s) = -14.92745 2.97907 -10.34297
# Velocity P-wave (km/s) = 16.50898 6.07915 10.85335
#
# Compressibility (1/GPa) = 0.01465495
#
# Stress axis : x y z
#
# Youngs Moduli (GPa) = 125.67803 88.30404 86.02927
#
# Poissons Ratio (x) = 0.26913 0.07541
# Poissons Ratio (y) = 0.38304 0.36140
# Poissons Ratio (z) = 0.11016 0.37095
#
# Static dielectric constant tensor:
#      x y z
#    x 2.438190 0.000000 0.000000 
#    y 0.000000 2.491870 0.000000 
#    z 0.000000 0.000000 2.732570 
# 
# From -- ./inp_files/7059.got.cif
#   From: 2010.05.17/outbox.cif.g08.bks.cpg/sg19_4_cif.got.tgz:7059.got - 2010.06.03 22:46:19.
