data_PCOD9313568
_publ_section_title
;
Structure prediction by ZEFSAII (Michael W. Deem and Ramdas Pophale) SiO2 
 PCOD9313568
Probable space group: P 21 21 21
;
_chemical_formula_sum "Si O2"
_cell_formula_units_Z 32
_cell_length_a 7.741441
_cell_length_b 13.500043
_cell_length_c 12.360339
_cell_angle_alpha 90.000000
_cell_angle_beta 90.000000
_cell_angle_gamma 90.000000
_cell_volume 1291.776388
_symmetry_space_group_name_H-M "P 21 21 21"
_symmetry_group_IT_number 19
_symmetry_cell_setting 'orthorhombic'
loop_
_space_group_symop_operation_xyz
x,y,z
1/2-x,-y,1/2+z
1/2+x,1/2-y,-z
-x,1/2+y,1/2-z
loop_
_atom_site_type_symbol
_atom_site_label
_atom_site_fract_x
_atom_site_fract_y
_atom_site_fract_z
Si Si1 0.583189 0.542989 0.744316
Si Si2 0.117670 0.467177 0.774876
Si Si3 0.434617 0.834033 0.261134
Si Si4 0.470192 0.143930 0.544223
Si Si5 0.721929 0.634469 0.184310
Si Si6 0.753449 0.810256 0.581010
Si Si7 0.743653 0.185246 0.390875
Si Si8 0.115534 0.280234 0.152825
O O1 0.763664 0.599121 0.727298
O O2 0.552072 0.554049 0.872649
O O3 0.613334 0.436482 0.695592
O O4 0.445292 0.610925 0.685850
O O5 0.082009 0.583265 0.756282
O O6 0.930717 0.416847 0.753968
O O7 0.194900 0.422621 0.885699
O O8 0.234658 0.409803 0.685964
O O9 0.399189 0.758742 0.360183
O O10 0.398711 0.763980 0.157401
O O11 0.346679 0.134505 0.438828
O O12 0.665403 0.152606 0.504450
O O13 0.411501 0.246775 0.600547
O O14 0.775158 0.731594 0.250332
O O15 0.563153 0.780356 0.625906
O O16 0.772151 0.788233 0.455263
#
# Coordination Sequence:
#
# PCOD9313568 Si02
#       8
#     4   4   4   4   4   4   4   4
#     4   9  20  36  57  82 111 148 194 234 282 353
#     4   9  18  36  57  79 106 147 195 237 281 340
#     4   8  17  35  56  77 105 147 194 230 279 345
#     4  10  19  35  57  81 111 148 186 238 290 334
#     4  10  21  36  59  84 109 148 199 242 286 346
#     4  10  21  37  57  83 119 157 190 240 292 338
#     4   9  18  31  53  78 105 140 184 231 281 336
#     4  11  22  38  58  86 120 155 194 236 287 350
#
# _framework density 24.772088
#
# number of rings (size 3 to 8) (size 9 to 14) (size 15 to 20)
#    0.000    2.500    0.000    2.250    0.000    7.000 
#    0.000    7.500    0.000    1.500    0.000    0.000 
#    0.000    0.000    0.000    0.000    0.000    0.000 
#
# Total GULP energy -178778.814117 kJ/mol
# GULP energy per Si atom -5586.837941 kJ/mol
# Density = 2.471571 g / cm^3
# Si number density = 24.772088 Si / 1000 Ang^3
#
#
#
# Elastic Constant Matrix: (Units=GPa)
#
#
# Indices 1 2 3 4 5 6 
#
# 1 96.5686 20.2821 6.6666 0.0000 0.0000 0.0000
# 2 20.2821 125.8513 15.5126 0.0000 0.0000 0.0000
# 3 6.6666 15.5126 97.0921 0.0000 0.0000 0.0000
# 4 0.0000 0.0000 0.0000 9.3047 0.0000 0.0000
# 5 0.0000 0.0000 0.0000 0.0000 20.7396 0.0000
# 6 0.0000 0.0000 0.0000 0.0000 0.0000 37.9154
#
#
#
# Elastic Compliance Matrix: (Units=1/GPa)
#
#
# Indices 1 2 3 4 5 6 
#
# 1 0.010739 -0.001673 -0.000470 0.000000 0.000000 0.000000
# 2 -0.001673 0.008366 -0.001222 0.000000 0.000000 0.000000
# 3 -0.000470 -0.001222 0.010527 0.000000 0.000000 0.000000
# 4 0.000000 0.000000 0.000000 0.107472 0.000000 0.000000
# 5 0.000000 0.000000 0.000000 0.000000 0.048217 0.000000
# 6 0.000000 0.000000 0.000000 0.000000 0.000000 0.026375
#
#
# Mechanical properties :
#
#
# Convention : Reuss Voigt Hill
#
# Bulk Modulus (GPa) = 43.66278 44.93718 44.29998
# Shear Modulus (GPa) = 22.11807 32.06199 27.09003
#
# Velocity S-wave (km/s) = 2.99132 3.60151 3.31051
# Velocity P-wave (km/s) = 5.44010 5.95602 5.70390
#
# Compressibility (1/GPa) = 0.02290280
#
# Stress axis : x y z
#
# Youngs Moduli (GPa) = 93.11758 119.53048 94.99395
#
# Poissons Ratio (x) = 0.19995 0.04466
# Poissons Ratio (y) = 0.15576 0.11606
# Poissons Ratio (z) = 0.04378 0.14604
#
# Static dielectric constant tensor:
#      x y z
#    x 2.067890 0.000000 0.000000 
#    y 0.000000 1.992060 0.000000 
#    z 0.000000 0.000000 1.976890 
# 
# From -- ./inp_files/4684.got.cif
#   From: 2010.05.17/outbox.cif.g08.bks.cpg/sg19_3_cif.got.tgz:4684.got - 2010.06.03 22:46:19.
