data_PCOD9313005
_publ_section_title
;
Structure prediction by ZEFSAII (Michael W. Deem and Ramdas Pophale) SiO2 
 PCOD9313005
Probable space group: P 21 21 2
;
_chemical_formula_sum "Si O2"
_cell_formula_units_Z 20
_cell_length_a 7.833213
_cell_length_b 10.917840
_cell_length_c 9.044513
_cell_angle_alpha 90.000000
_cell_angle_beta 90.000000
_cell_angle_gamma 90.000000
_cell_volume 773.502726
_symmetry_space_group_name_H-M "P 21 21 2"
_symmetry_group_IT_number 18
_symmetry_cell_setting 'orthorhombic'
loop_
_space_group_symop_operation_xyz
x,y,z
-x,-y,z
1/2+x,1/2-y,-z
1/2-x,1/2+y,-z
loop_
_atom_site_type_symbol
_atom_site_label
_atom_site_fract_x
_atom_site_fract_y
_atom_site_fract_z
Si Si1 0.531569 0.206546 0.198599
Si Si2 0.261153 0.962090 0.402999
Si Si3 0.753352 0.594954 0.261192
Si Si4 0.751607 0.379881 0.027622
Si Si5 0.434560 0.662148 0.742310
O O1 0.587589 0.114425 0.327394
O O2 0.419799 0.324164 0.248677
O O3 0.703336 0.261453 0.124831
O O4 0.418980 0.141870 0.071362
O O5 0.265611 0.964436 0.578399
O O6 0.097043 0.885565 0.344318
O O7 0.223078 0.098251 0.344999
O O8 0.760619 0.497278 0.130909
O O9 0.905853 0.693544 0.252921
O O10 0.597134 0.384904 0.908422
#
# Coordination Sequence:
#
# PCOD9313005 Si02
#       5
#     4   4   4   4   4
#     4  11  26  49  81 110 156 204 267 325 396 470
#     4  11  25  48  78 110 164 204 257 327 402 471
#     4  11  26  47  82 116 152 206 266 329 399 468
#     4  11  26  48  78 112 151 205 265 324 388 474
#     4  10  26  47  71 116 156 204 261 323 393 471
#
# _framework density 25.856407999999998
#
# number of rings (size 3 to 8) (size 9 to 14) (size 15 to 20)
#    0.000    1.200    0.000    3.000   19.600    3.200 
#    3.600    0.000    8.800    0.000    0.000    0.000 
#    0.000    0.000    0.000    0.000    0.000    0.000 
#
# Total GULP energy -112206.328395 kJ/mol
# GULP energy per Si atom -5610.316420 kJ/mol
# Density = 2.579756 g / cm^3
# Si number density = 25.856408 Si / 1000 Ang^3
#
#
#
# Elastic Constant Matrix: (Units=GPa)
#
#
# Indices 1 2 3 4 5 6 
#
# 1 95.2073 4.8407 2.1026 0.0000 0.0000 0.0000
# 2 4.8407 117.8992 68.9099 0.0000 0.0000 0.0000
# 3 2.1026 68.9099 173.3240 0.0000 0.0000 0.0000
# 4 0.0000 0.0000 0.0000 31.1319 0.0000 0.0000
# 5 0.0000 0.0000 0.0000 0.0000 28.5810 0.0000
# 6 0.0000 0.0000 0.0000 0.0000 0.0000 47.0435
#
#
#
# Elastic Compliance Matrix: (Units=1/GPa)
#
#
# Indices 1 2 3 4 5 6 
#
# 1 0.010526 -0.000466 0.000057 0.000000 0.000000 0.000000
# 2 -0.000466 0.011070 -0.004396 0.000000 0.000000 0.000000
# 3 0.000057 -0.004396 0.007516 0.000000 0.000000 0.000000
# 4 0.000000 0.000000 0.000000 0.032121 0.000000 0.000000
# 5 0.000000 0.000000 0.000000 0.000000 0.034988 0.000000
# 6 0.000000 0.000000 0.000000 0.000000 0.000000 0.021257
#
#
# Mechanical properties :
#
#
# Convention : Reuss Voigt Hill
#
# Bulk Modulus (GPa) = 51.26994 59.79298 55.53146
# Shear Modulus (GPa) = 37.42847 42.05643 39.74245
#
# Velocity S-wave (km/s) = 3.80880 4.03741 3.92477
# Velocity P-wave (km/s) = 6.26214 6.70145 6.48552
#
# Compressibility (1/GPa) = 0.01950461
#
# Stress axis : x y z
#
# Youngs Moduli (GPa) = 95.00459 90.33358 133.04188
#
# Poissons Ratio (x) = 0.04207 -0.00765
# Poissons Ratio (y) = 0.04425 0.58480
# Poissons Ratio (z) = -0.00546 0.39707
#
# Static dielectric constant tensor:
#      x y z
#    x 2.163630 0.000000 0.000000 
#    y 0.000000 2.009400 0.000000 
#    z 0.000000 0.000000 1.967660 
# 
# From -- ./inp_files/2969.got.cif
#   From: 2010.05.17/outbox.cif.g08.bks.cpg/sg18_2_cif.got.tgz:2969.got - 2010.06.03 22:40:56.
