data_PCOD9313884
_publ_section_title
;
Structure prediction by ZEFSAII (Michael W. Deem and Ramdas Pophale) SiO2 
 PCOD9313884
Probable space group: P 21 21 21
;
_chemical_formula_sum "Si O2"
_cell_formula_units_Z 28
_cell_length_a 5.510682
_cell_length_b 16.883708
_cell_length_c 11.461283
_cell_angle_alpha 90.000000
_cell_angle_beta 90.000000
_cell_angle_gamma 90.000000
_cell_volume 1066.366318
_symmetry_space_group_name_H-M "P 21 21 21"
_symmetry_group_IT_number 19
_symmetry_cell_setting 'orthorhombic'
loop_
_space_group_symop_operation_xyz
x,y,z
1/2-x,-y,1/2+z
1/2+x,1/2-y,-z
-x,1/2+y,1/2-z
loop_
_atom_site_type_symbol
_atom_site_label
_atom_site_fract_x
_atom_site_fract_y
_atom_site_fract_z
Si Si1 0.150093 0.881430 0.925526
Si Si2 0.034216 0.410125 0.202759
Si Si3 0.159973 0.536095 0.009357
Si Si4 0.154109 0.972391 0.683733
Si Si5 0.825150 0.227675 0.697288
Si Si6 0.790829 0.724587 0.638616
Si Si7 0.066435 0.167391 0.100535
O O1 0.412474 0.913203 0.967406
O O2 0.111705 0.919259 0.797180
O O3 0.174378 0.786386 0.911661
O O4 0.908181 0.914185 0.987582
O O5 0.820448 0.456407 0.268835
O O6 0.913668 0.342132 0.122953
O O7 0.168085 0.470853 0.114841
O O8 0.191938 0.355674 0.289332
O O9 0.086425 0.495021 0.887076
O O10 0.328084 0.919628 0.600154
O O11 0.720406 0.281100 0.805806
O O12 0.096874 0.209320 0.735910
O O13 0.704057 0.815105 0.643935
O O14 0.950565 0.705906 0.526905
#
# Coordination Sequence:
#
# PCOD9313884 Si02
#       7
#     4   4   4   4   4   4   4
#     4  10  26  44  70 107 142 192 244 297 371 438
#     4  10  24  39  67 104 142 186 250 294 368 440
#     4  11  24  46  71 106 147 189 243 305 363 445
#     4  10  23  46  69 105 146 195 237 308 373 439
#     4  10  23  39  66  97 143 192 233 306 358 444
#     4  11  20  37  63  99 140 182 240 296 369 443
#     4  10  20  37  62 104 138 182 233 296 380 437
#
# _framework density 26.257390999999998
#
# number of rings (size 3 to 8) (size 9 to 14) (size 15 to 20)
#    0.000    1.714    2.857    0.000   12.000    2.286 
#    2.571    0.000    3.143    0.000    0.000    0.000 
#    0.000    0.000    0.000    0.000    0.000    0.000 
#
# Total GULP energy -156479.115394 kJ/mol
# GULP energy per Si atom -5588.539835 kJ/mol
# Density = 2.619763 g / cm^3
# Si number density = 26.257391 Si / 1000 Ang^3
#
#
#
# Elastic Constant Matrix: (Units=GPa)
#
#
# Indices 1 2 3 4 5 6 
#
# 1 78.5215 28.4055 4.6596 0.0000 0.0000 0.0000
# 2 28.4055 119.0662 10.2805 0.0000 0.0000 0.0000
# 3 4.6596 10.2805 56.9027 0.0000 0.0000 0.0000
# 4 0.0000 0.0000 0.0000 32.5538 0.0000 0.0000
# 5 0.0000 0.0000 0.0000 0.0000 28.8369 0.0000
# 6 0.0000 0.0000 0.0000 0.0000 0.0000 39.7936
#
#
#
# Elastic Compliance Matrix: (Units=1/GPa)
#
#
# Indices 1 2 3 4 5 6 
#
# 1 0.013955 -0.003282 -0.000550 0.000000 0.000000 0.000000
# 2 -0.003282 0.009304 -0.001412 0.000000 0.000000 0.000000
# 3 -0.000550 -0.001412 0.017874 0.000000 0.000000 0.000000
# 4 0.000000 0.000000 0.000000 0.030718 0.000000 0.000000
# 5 0.000000 0.000000 0.000000 0.000000 0.034678 0.000000
# 6 0.000000 0.000000 0.000000 0.000000 0.000000 0.025130
#
#
# Mechanical properties :
#
#
# Convention : Reuss Voigt Hill
#
# Bulk Modulus (GPa) = 32.63150 37.90906 35.27028
# Shear Modulus (GPa) = 32.81675 34.31317 33.56496
#
# Velocity S-wave (km/s) = 3.53910 3.61889 3.57922
# Velocity P-wave (km/s) = 5.39952 5.65072 5.52655
#
# Compressibility (1/GPa) = 0.03064524
#
# Stress axis : x y z
#
# Youngs Moduli (GPa) = 71.65791 107.48584 55.94719
#
# Poissons Ratio (x) = 0.35275 0.03076
# Poissons Ratio (y) = 0.23517 0.07900
# Poissons Ratio (z) = 0.03940 0.15178
#
# Static dielectric constant tensor:
#      x y z
#    x 2.255820 0.000000 0.000000 
#    y 0.000000 2.077410 0.000000 
#    z 0.000000 0.000000 2.083160 
# 
# From -- ./inp_files/5694.got.cif
#   From: 2010.05.17/outbox.cif.g08.bks.cpg/sg19_3_cif.got.tgz:5694.got - 2010.06.03 22:46:19.
