data_PCOD9313292
_publ_section_title
;
Structure prediction by ZEFSAII (Michael W. Deem and Ramdas Pophale) SiO2 
 PCOD9313292
Probable space group: P 21 21 2
;
_chemical_formula_sum "Si O2"
_cell_formula_units_Z 32
_cell_length_a 9.000000
_cell_length_b 15.000000
_cell_length_c 12.000000
_cell_angle_alpha 90.000000
_cell_angle_beta 90.000000
_cell_angle_gamma 90.000000
_cell_volume 1620.000000
_symmetry_space_group_name_H-M "P 21 21 2"
_symmetry_group_IT_number 18
_symmetry_cell_setting 'orthorhombic'
loop_
_space_group_symop_operation_xyz
x,y,z
-x,-y,z
1/2+x,1/2-y,-z
1/2-x,1/2+y,-z
loop_
_atom_site_type_symbol
_atom_site_label
_atom_site_fract_x
_atom_site_fract_y
_atom_site_fract_z
Si Si1 0.932185 0.748691 0.357665
Si Si2 0.513641 0.228763 0.206419
Si Si3 0.820478 0.020866 0.469565
Si Si4 0.653318 0.052880 0.089065
Si Si5 0.265207 0.773538 0.412854
Si Si6 0.741306 0.399671 0.736119
Si Si7 0.885760 0.080688 0.891747
Si Si8 0.343085 0.950407 0.698883
O O1 0.840334 0.760809 0.473018
O O2 0.904238 0.835186 0.278169
O O3 0.874819 0.655531 0.309109
O O4 0.104342 0.733602 0.386504
O O5 0.598745 0.148271 0.140129
O O6 0.619902 0.246540 0.312793
O O7 0.367674 0.175245 0.247729
O O8 0.462459 0.322356 0.143946
O O9 0.777268 0.121173 0.428568
O O10 0.734941 0.013494 0.586508
O O11 0.753229 0.953249 0.379419
O O12 0.000000 0.000000 0.477535
O O13 0.500000 0.000000 0.053172
O O14 0.733055 0.978752 0.171702
O O15 0.772214 0.082331 0.996045
O O16 0.781965 0.044468 0.792488
O O17 0.000000 0.000000 0.914473
O O18 0.500000 0.000000 0.719226
#
# Coordination Sequence:
#
# PCOD9313292 Si02
#       8
#     4   4   4   4   4   4   4   4
#     4  11  24  39  68 102 148 187 233 287 347 430
#     4  11  25  46  73 104 142 180 235 293 361 423
#     4  11  23  39  67 106 146 184 232 286 343 419
#     4  10  25  49  78 105 135 181 239 304 356 422
#     4  11  24  39  63 105 144 188 230 278 351 420
#     4  11  22  45  73 106 138 182 233 298 353 421
#     4  12  28  49  71 102 138 190 239 295 356 422
#     4  11  27  44  66 101 141 194 234 284 356 421
#
# _framework density 19.753086
#
# number of rings (size 3 to 8) (size 9 to 14) (size 15 to 20)
#    0.000    1.000    3.750    1.500    8.750    3.500 
#    2.250    0.000    0.000    0.000    0.000    0.000 
#    0.000    0.000    0.000    0.000    0.000    0.000 
#
# Total GULP energy -178530.585992 kJ/mol
# GULP energy per Si atom -5579.080812 kJ/mol
# Density = 1.970813 g / cm^3
# Si number density = 19.753086 Si / 1000 Ang^3
#
#
#
# Elastic Constant Matrix: (Units=GPa)
#
#
# Indices 1 2 3 4 5 6 
#
# 1 92.8694 20.3656 40.9338 0.0000 0.0000 0.0000
# 2 20.3656 108.5122 33.9898 0.0000 0.0000 0.0000
# 3 40.9338 33.9898 72.8324 0.0000 0.0000 0.0000
# 4 0.0000 0.0000 0.0000 29.3045 0.0000 0.0000
# 5 0.0000 0.0000 0.0000 0.0000 49.0829 0.0000
# 6 0.0000 0.0000 0.0000 0.0000 0.0000 45.2086
#
#
#
# Elastic Compliance Matrix: (Units=1/GPa)
#
#
# Indices 1 2 3 4 5 6 
#
# 1 0.014317 -0.000195 -0.007956 0.000000 0.000000 0.000000
# 2 -0.000195 0.010796 -0.004929 0.000000 0.000000 0.000000
# 3 -0.007956 -0.004929 0.020502 0.000000 0.000000 0.000000
# 4 0.000000 0.000000 0.000000 0.034124 0.000000 0.000000
# 5 0.000000 0.000000 0.000000 0.000000 0.020374 0.000000
# 6 0.000000 0.000000 0.000000 0.000000 0.000000 0.022120
#
#
# Mechanical properties :
#
#
# Convention : Reuss Voigt Hill
#
# Bulk Modulus (GPa) = 51.39807 51.64361 51.52084
# Shear Modulus (GPa) = 32.28376 36.64752 34.46564
#
# Velocity S-wave (km/s) = 4.04711 4.31197 4.18164
# Velocity P-wave (km/s) = 6.92211 7.14088 7.03234
#
# Compressibility (1/GPa) = 0.01945598
#
# Stress axis : x y z
#
# Youngs Moduli (GPa) = 69.84621 92.62678 48.77673
#
# Poissons Ratio (x) = 0.01807 0.38805
# Poissons Ratio (y) = 0.01363 0.24041
# Poissons Ratio (z) = 0.55567 0.45653
#
# Static dielectric constant tensor:
#      x y z
#    x 1.705930 0.000000 0.000000 
#    y 0.000000 1.713070 0.000000 
#    z 0.000000 0.000000 1.721240 
# 
# From -- ./inp_files/5680.got.cif
#   From: 2010.05.17/outbox.ucp.g08.bks.cvg/sg18_3_cif.got.tgz:5680.got - 2010.06.11 13:13:23.
