data_PCOD9313820
_publ_section_title
;
Structure prediction by ZEFSAII (Michael W. Deem and Ramdas Pophale) SiO2 
 PCOD9313820
Probable space group: P 21 21 21
;
_chemical_formula_sum "Si O2"
_cell_formula_units_Z 28
_cell_length_a 14.771243
_cell_length_b 16.688832
_cell_length_c 5.034774
_cell_angle_alpha 90.000000
_cell_angle_beta 90.000000
_cell_angle_gamma 90.000000
_cell_volume 1241.146270
_symmetry_space_group_name_H-M "P 21 21 21"
_symmetry_group_IT_number 19
_symmetry_cell_setting 'orthorhombic'
loop_
_space_group_symop_operation_xyz
x,y,z
1/2-x,-y,1/2+z
1/2+x,1/2-y,-z
-x,1/2+y,1/2-z
loop_
_atom_site_type_symbol
_atom_site_label
_atom_site_fract_x
_atom_site_fract_y
_atom_site_fract_z
Si Si1 0.254833 0.055366 0.895080
Si Si2 0.044927 0.509993 0.371361
Si Si3 0.963431 0.734285 0.166745
Si Si4 0.432043 0.869178 0.312445
Si Si5 0.387963 0.643257 0.172669
Si Si6 0.551885 0.622669 0.565384
Si Si7 0.768526 0.051475 0.099190
O O1 0.172808 0.108559 0.781855
O O2 0.342583 0.107074 0.978014
O O3 0.277114 0.993630 0.655770
O O4 0.097163 0.434586 0.494527
O O5 0.128392 0.569418 0.313016
O O6 0.981777 0.551690 0.584171
O O7 0.985971 0.465098 0.152020
O O8 0.940080 0.692763 0.443119
O O9 0.036075 0.805086 0.222706
O O10 0.980227 0.665588 0.948719
O O11 0.881360 0.781901 0.022869
O O12 0.481635 0.648511 0.336927
O O13 0.301822 0.623490 0.353121
O O14 0.738139 0.979229 0.297314
#
# Coordination Sequence:
#
# PCOD9313820 Si02
#       7
#     4   4   4   4   4   4   4
#     4  12  26  44  75 107 135 182 242 297 345 410
#     4  10  22  39  70  97 129 169 223 286 328 397
#     4  11  26  45  65  92 142 184 216 278 348 405
#     4  12  25  46  65 102 138 175 229 290 336 402
#     4  10  21  43  68  95 132 178 223 269 339 414
#     4  11  22  46  72  98 135 186 230 271 356 413
#     4  10  20  35  63  97 121 156 211 271 324 387
#
# _framework density 22.55979
#
# number of rings (size 3 to 8) (size 9 to 14) (size 15 to 20)
#    0.000    1.143    4.286    1.714    4.000    0.000 
#    2.571    1.429    0.000    0.000    0.000    0.000 
#    0.000    0.000    0.000    0.000    0.000    0.000 
#
# Total GULP energy -156233.191264 kJ/mol
# GULP energy per Si atom -5579.756831 kJ/mol
# Density = 2.250844 g / cm^3
# Si number density = 22.559790 Si / 1000 Ang^3
#
#
#
# Elastic Constant Matrix: (Units=GPa)
#
#
# Indices 1 2 3 4 5 6 
#
# 1 97.8535 9.0080 9.1699 0.0000 0.0000 0.0000
# 2 9.0080 63.1564 19.3124 0.0000 0.0000 0.0000
# 3 9.1699 19.3124 80.3614 0.0000 0.0000 0.0000
# 4 0.0000 0.0000 0.0000 36.1960 0.0000 0.0000
# 5 0.0000 0.0000 0.0000 0.0000 20.6819 0.0000
# 6 0.0000 0.0000 0.0000 0.0000 0.0000 13.3613
#
#
#
# Elastic Compliance Matrix: (Units=1/GPa)
#
#
# Indices 1 2 3 4 5 6 
#
# 1 0.010415 -0.001211 -0.000897 0.000000 0.000000 0.000000
# 2 -0.001211 0.017230 -0.004003 0.000000 0.000000 0.000000
# 3 -0.000897 -0.004003 0.013508 0.000000 0.000000 0.000000
# 4 0.000000 0.000000 0.000000 0.027627 0.000000 0.000000
# 5 0.000000 0.000000 0.000000 0.000000 0.048351 0.000000
# 6 0.000000 0.000000 0.000000 0.000000 0.000000 0.074843
#
#
# Mechanical properties :
#
#
# Convention : Reuss Voigt Hill
#
# Bulk Modulus (GPa) = 34.56465 35.15020 34.85742
# Shear Modulus (GPa) = 23.38182 27.63990 25.51086
#
# Velocity S-wave (km/s) = 3.22287 3.50406 3.36640
# Velocity P-wave (km/s) = 5.40405 5.65562 5.53126
#
# Compressibility (1/GPa) = 0.02893130
#
# Stress axis : x y z
#
# Youngs Moduli (GPa) = 96.01591 58.03699 74.02972
#
# Poissons Ratio (x) = 0.07029 0.06643
# Poissons Ratio (y) = 0.11628 0.29631
# Poissons Ratio (z) = 0.08616 0.23230
#
# Static dielectric constant tensor:
#      x y z
#    x 1.881940 0.000000 0.000000 
#    y 0.000000 1.910670 0.000000 
#    z 0.000000 0.000000 1.874710 
# 
# From -- ./inp_files/1539.got.cif
#   From: 2010.05.17/outbox.cif.g08.bks.cpg/sg19_1_cif.got.tgz:1539.got - 2010.06.03 22:46:19.
