data_PCOD9313071
_publ_section_title
;
Structure prediction by ZEFSAII (Michael W. Deem and Ramdas Pophale) SiO2 
 PCOD9313071
Probable space group: P 21 21 2
;
_chemical_formula_sum "Si O2"
_cell_formula_units_Z 26
_cell_length_a 10.979677
_cell_length_b 10.979350
_cell_length_c 10.926287
_cell_angle_alpha 90.000000
_cell_angle_beta 90.000000
_cell_angle_gamma 90.000000
_cell_volume 1317.160802
_symmetry_space_group_name_H-M "P 21 21 2"
_symmetry_group_IT_number 18
_symmetry_cell_setting 'orthorhombic'
loop_
_space_group_symop_operation_xyz
x,y,z
-x,-y,z
1/2+x,1/2-y,-z
1/2-x,1/2+y,-z
loop_
_atom_site_type_symbol
_atom_site_label
_atom_site_fract_x
_atom_site_fract_y
_atom_site_fract_z
Si Si1 0.045258 0.750590 0.640499
Si Si2 0.554429 0.258571 0.629135
Si Si3 0.163227 0.663229 0.212767
Si Si4 0.355116 0.855105 0.167515
Si Si5 0.241441 0.945571 0.629127
Si Si6 0.000000 0.500000 0.035737
Si Si7 0.749422 0.454746 0.640505
O O1 0.970807 0.768531 0.515554
O O2 0.958901 0.706805 0.748815
O O3 0.122792 0.870891 0.669572
O O4 0.143661 0.643664 0.616381
O O5 0.429422 0.238035 0.700801
O O6 0.629118 0.377217 0.669577
O O7 0.641136 0.141141 0.649634
O O8 0.253648 0.753641 0.143335
O O9 0.238021 0.570585 0.299216
O O10 0.083989 0.583979 0.120030
O O11 0.416196 0.916179 0.050583
O O12 0.293211 0.958900 0.251177
O O13 0.231484 0.970796 0.484437
#
# Coordination Sequence:
#
# PCOD9313071 Si02
#       7
#     4   4   4   4   4   2   4
#     4  11  22  39  67 101 136 170 204 254 323 390
#     4  11  22  39  67 101 136 170 204 254 323 390
#     4  12  26  45  69  94 125 171 217 266 322 375
#     4  12  26  45  69  94 125 171 217 266 322 375
#     4  11  22  39  67 101 136 170 204 254 323 390
#     4  12  28  48  66  88 128 168 224 278 312 368
#     4  11  22  39  67 101 136 170 204 254 323 390
#
# _framework density 19.739428
#
# number of rings (size 3 to 8) (size 9 to 14) (size 15 to 20)
#    0.000    0.615    6.154    1.846    0.000    6.769 
#    0.000    0.000    0.000    0.000    0.000    0.000 
#    0.000    0.000    0.000    0.000    0.000    0.000 
#
# Total GULP energy -145541.594262 kJ/mol
# GULP energy per Si atom -5597.753625 kJ/mol
# Density = 1.969450 g / cm^3
# Si number density = 19.739428 Si / 1000 Ang^3
#
#
#
# Elastic Constant Matrix: (Units=GPa)
#
#
# Indices 1 2 3 4 5 6 
#
# 1 63.1765 57.4661 17.9003 0.0000 0.0000 0.0000
# 2 57.4661 63.1183 17.8778 0.0000 0.0000 0.0000
# 3 17.9003 17.8778 78.5333 0.0000 0.0000 0.0000
# 4 0.0000 0.0000 0.0000 -3.1844 0.0000 0.0000
# 5 0.0000 0.0000 0.0000 0.0000 -3.1873 0.0000
# 6 0.0000 0.0000 0.0000 0.0000 0.0000 45.6475
#
#
#
# Elastic Compliance Matrix: (Units=1/GPa)
#
#
# Indices 1 2 3 4 5 6 
#
# 1 0.092417 -0.083563 -0.002042 0.000000 0.000000 0.000000
# 2 -0.083563 0.092492 -0.002009 0.000000 0.000000 0.000000
# 3 -0.002042 -0.002009 0.013656 0.000000 0.000000 0.000000
# 4 0.000000 0.000000 0.000000 -0.314034 0.000000 0.000000
# 5 0.000000 0.000000 0.000000 0.000000 -0.313741 0.000000
# 6 0.000000 0.000000 0.000000 0.000000 0.000000 0.021907
#
#
# Mechanical properties :
#
#
# Convention : Reuss Voigt Hill
#
# Bulk Modulus (GPa) = 42.84863 43.47961 43.16412
# Shear Modulus (GPa) = -22.29205 15.29408 -3.49898
#
# Velocity S-wave (km/s) = -3.36418 2.78654 -1.33283
# Velocity P-wave (km/s) = 2.58148 5.69453 4.42107
#
# Compressibility (1/GPa) = 0.02333797
#
# Stress axis : x y z
#
# Youngs Moduli (GPa) = 10.82050 10.81172 73.22685
#
# Poissons Ratio (x) = 0.90346 0.14954
# Poissons Ratio (y) = 0.90419 0.14710
# Poissons Ratio (z) = 0.02210 0.02172
#
# Static dielectric constant tensor:
#      x y z
#    x 1.700420 0.000000 0.000000 
#    y 0.000000 1.700420 0.000000 
#    z 0.000000 0.000000 1.628490 
# 
# From -- ./inp_files/3797.got.cif
#   From: 2010.05.17/outbox.cif.g08.bks.cpg/sg18_2_cif.got.tgz:3797.got - 2010.06.03 22:40:56.
