data_PCOD9313854
_publ_section_title
;
Structure prediction by ZEFSAII (Michael W. Deem and Ramdas Pophale) SiO2 
 PCOD9313854
Probable space group: P 21 21 21
;
_chemical_formula_sum "Si O2"
_cell_formula_units_Z 32
_cell_length_a 9.139114
_cell_length_b 13.832617
_cell_length_c 11.955588
_cell_angle_alpha 90.000000
_cell_angle_beta 90.000000
_cell_angle_gamma 90.000000
_cell_volume 1511.399894
_symmetry_space_group_name_H-M "P 21 21 21"
_symmetry_group_IT_number 19
_symmetry_cell_setting 'orthorhombic'
loop_
_space_group_symop_operation_xyz
x,y,z
1/2-x,-y,1/2+z
1/2+x,1/2-y,-z
-x,1/2+y,1/2-z
loop_
_atom_site_type_symbol
_atom_site_label
_atom_site_fract_x
_atom_site_fract_y
_atom_site_fract_z
Si Si1 0.393161 0.390390 0.310618
Si Si2 0.152317 0.075036 0.524714
Si Si3 0.959154 0.938501 0.390131
Si Si4 0.689241 0.274850 0.915180
Si Si5 0.541444 0.603347 0.860877
Si Si6 0.039372 0.662682 0.567394
Si Si7 0.209560 0.503366 0.463979
Si Si8 0.855586 0.722725 0.175763
O O1 0.528730 0.381265 0.393535
O O2 0.447406 0.393239 0.183878
O O3 0.307108 0.484562 0.354504
O O4 0.275832 0.302832 0.320890
O O5 0.301554 0.072530 0.594305
O O6 0.170928 0.146936 0.420701
O O7 0.088970 0.975857 0.470669
O O8 0.894728 0.830038 0.407423
O O9 0.003753 0.943461 0.260281
O O10 0.820856 0.003609 0.431510
O O11 0.862244 0.258013 0.917716
O O12 0.646717 0.324331 0.798648
O O13 0.622405 0.322553 0.024276
O O14 0.505514 0.717075 0.843425
O O15 0.422673 0.571265 0.953759
O O16 0.128803 0.604883 0.473154
#
# Coordination Sequence:
#
# PCOD9313854 Si02
#       8
#     4   4   4   4   4   4   4   4
#     4   9  20  38  56  83 123 153 193 253 299 355
#     4  11  21  35  62  87 121 158 193 250 301 351
#     4   9  21  40  55  84 123 153 197 249 293 357
#     4   9  20  37  56  84 114 153 199 250 295 356
#     4  10  21  36  60  90 120 152 201 251 295 354
#     4  10  20  36  62  82 116 157 199 245 302 357
#     4   9  18  36  61  79 110 160 193 234 301 354
#     4   9  19  38  58  81 117 156 199 242 300 366
#
# _framework density 21.172425
#
# number of rings (size 3 to 8) (size 9 to 14) (size 15 to 20)
#    0.000    2.500    0.000    3.000    1.750    4.000 
#    2.250    0.000   33.000    0.000    0.000    0.000 
#    0.000    0.000    0.000    0.000    0.000    0.000 
#
# Total GULP energy -178339.034501 kJ/mol
# GULP energy per Si atom -5573.094828 kJ/mol
# Density = 2.112424 g / cm^3
# Si number density = 21.172425 Si / 1000 Ang^3
#
#
#
# Elastic Constant Matrix: (Units=GPa)
#
#
# Indices 1 2 3 4 5 6 
#
# 1 61.6820 -6.6803 25.0753 0.0000 0.0000 0.0000
# 2 -6.6803 18.8670 18.2880 0.0000 0.0000 0.0000
# 3 25.0753 18.2880 110.9346 0.0000 0.0000 0.0000
# 4 0.0000 0.0000 0.0000 29.7266 0.0000 0.0000
# 5 0.0000 0.0000 0.0000 0.0000 28.0737 0.0000
# 6 0.0000 0.0000 0.0000 0.0000 0.0000 18.1579
#
#
#
# Elastic Compliance Matrix: (Units=1/GPa)
#
#
# Indices 1 2 3 4 5 6 
#
# 1 0.020561 0.014026 -0.006960 0.000000 0.000000 0.000000
# 2 0.014026 0.072652 -0.015147 0.000000 0.000000 0.000000
# 3 -0.006960 -0.015147 0.013085 0.000000 0.000000 0.000000
# 4 0.000000 0.000000 0.000000 0.033640 0.000000 0.000000
# 5 0.000000 0.000000 0.000000 0.000000 0.035621 0.000000
# 6 0.000000 0.000000 0.000000 0.000000 0.000000 0.055072
#
#
# Mechanical properties :
#
#
# Convention : Reuss Voigt Hill
#
# Bulk Modulus (GPa) = 11.09448 29.42771 20.26109
# Shear Modulus (GPa) = 18.06122 25.51168 21.78645
#
# Velocity S-wave (km/s) = 2.92388 3.47500 3.21128
# Velocity P-wave (km/s) = 4.08046 5.47997 4.83116
#
# Compressibility (1/GPa) = 0.09013494
#
# Stress axis : x y z
#
# Youngs Moduli (GPa) = 48.63679 13.76433 76.42592
#
# Poissons Ratio (x) = -0.19306 0.53190
# Poissons Ratio (y) = -0.68219 1.15765
# Poissons Ratio (z) = 0.33850 0.20849
#
# Static dielectric constant tensor:
#      x y z
#    x 1.789320 0.000000 0.000000 
#    y 0.000000 1.828220 0.000000 
#    z 0.000000 0.000000 1.779330 
# 
# From -- ./inp_files/4233.got.cif
#   From: 2010.05.17/outbox.cif.g08.bks.cpg/sg19_3_cif.got.tgz:4233.got - 2010.06.03 22:46:19.
