data_PCOD9313623
_publ_section_title
;
Structure prediction by ZEFSAII (Michael W. Deem and Ramdas Pophale) SiO2 
 PCOD9313623
Probable space group: P 21 21 21
;
_chemical_formula_sum "Si O2"
_cell_formula_units_Z 32
_cell_length_a 6.026516
_cell_length_b 16.514921
_cell_length_c 14.640739
_cell_angle_alpha 90.000000
_cell_angle_beta 90.000000
_cell_angle_gamma 90.000000
_cell_volume 1457.155209
_symmetry_space_group_name_H-M "P 21 21 21"
_symmetry_group_IT_number 19
_symmetry_cell_setting 'orthorhombic'
loop_
_space_group_symop_operation_xyz
x,y,z
1/2-x,-y,1/2+z
1/2+x,1/2-y,-z
-x,1/2+y,1/2-z
loop_
_atom_site_type_symbol
_atom_site_label
_atom_site_fract_x
_atom_site_fract_y
_atom_site_fract_z
Si Si1 0.565266 0.421967 0.605096
Si Si2 0.437395 0.284439 0.224897
Si Si3 0.331500 0.927605 0.363154
Si Si4 0.686162 0.175267 0.084879
Si Si5 0.740950 0.215084 0.374369
Si Si6 0.692568 0.985841 0.512537
Si Si7 0.946282 0.358915 0.469566
Si Si8 0.038846 0.295601 0.114860
O O1 0.716753 0.486611 0.660061
O O2 0.413961 0.354885 0.655465
O O3 0.388655 0.474642 0.547052
O O4 0.735632 0.378990 0.534782
O O5 0.559096 0.371143 0.213896
O O6 0.501530 0.221983 0.142776
O O7 0.533338 0.237271 0.310807
O O8 0.184703 0.305603 0.204783
O O9 0.517382 0.944822 0.441050
O O10 0.139387 0.867218 0.397780
O O11 0.911997 0.211693 0.123651
O O12 0.701474 0.079221 0.080449
O O13 0.671430 0.202544 0.979554
O O14 0.871650 0.297404 0.392729
O O15 0.633902 0.184122 0.468807
O O16 0.554487 0.056804 0.561046
#
# Coordination Sequence:
#
# PCOD9313623 Si02
#       8
#     4   4   4   4   4   4   4   4
#     4  10  20  39  69  89 118 164 212 261 310 373
#     4  11  24  35  60  96 129 164 205 262 301 374
#     4  10  19  36  62  93 123 167 200 248 308 363
#     4  11  19  34  59  90 129 166 198 238 304 373
#     4  11  23  44  62  91 120 157 221 263 317 362
#     4  10  20  36  65  95 119 160 213 248 307 384
#     4  10  22  40  70  83 113 166 209 269 317 367
#     4  11  19  34  59  89 127 168 198 231 302 376
#
# _framework density 21.960597
#
# number of rings (size 3 to 8) (size 9 to 14) (size 15 to 20)
#    0.000    1.500    5.000    0.750    0.000    2.000 
#    2.250    0.000   11.000    0.000    0.000    0.000 
#    0.000    0.000    0.000    0.000    0.000    0.000 
#
# Total GULP energy -178565.272368 kJ/mol
# GULP energy per Si atom -5580.164762 kJ/mol
# Density = 2.191061 g / cm^3
# Si number density = 21.960597 Si / 1000 Ang^3
#
#
#
# Elastic Constant Matrix: (Units=GPa)
#
#
# Indices 1 2 3 4 5 6 
#
# 1 68.7784 20.2938 -1.5010 0.0000 0.0000 0.0000
# 2 20.2938 118.9816 12.5156 0.0000 0.0000 0.0000
# 3 -1.5010 12.5156 19.3569 0.0000 0.0000 0.0000
# 4 0.0000 0.0000 0.0000 14.6158 0.0000 0.0000
# 5 0.0000 0.0000 0.0000 0.0000 18.3422 0.0000
# 6 0.0000 0.0000 0.0000 0.0000 0.0000 25.9029
#
#
#
# Elastic Compliance Matrix: (Units=1/GPa)
#
#
# Indices 1 2 3 4 5 6 
#
# 1 0.015484 -0.002969 0.003120 0.000000 0.000000 0.000000
# 2 -0.002969 0.009587 -0.006429 0.000000 0.000000 0.000000
# 3 0.003120 -0.006429 0.056060 0.000000 0.000000 0.000000
# 4 0.000000 0.000000 0.000000 0.068419 0.000000 0.000000
# 5 0.000000 0.000000 0.000000 0.000000 0.054519 0.000000
# 6 0.000000 0.000000 0.000000 0.000000 0.000000 0.038606
#
#
# Mechanical properties :
#
#
# Convention : Reuss Voigt Hill
#
# Bulk Modulus (GPa) = 14.58256 29.97044 22.27650
# Shear Modulus (GPa) = 17.97985 23.49274 20.73630
#
# Velocity S-wave (km/s) = 2.86445 3.27428 3.07620
# Velocity P-wave (km/s) = 4.19462 5.28881 4.77318
#
# Compressibility (1/GPa) = 0.06857506
#
# Stress axis : x y z
#
# Youngs Moduli (GPa) = 64.58435 104.30397 17.83807
#
# Poissons Ratio (x) = 0.30970 -0.05566
# Poissons Ratio (y) = 0.19176 0.11468
# Poissons Ratio (z) = -0.20153 0.67058
#
# Static dielectric constant tensor:
#      x y z
#    x 1.859660 0.000000 0.000000 
#    y 0.000000 1.823930 0.000000 
#    z 0.000000 0.000000 1.795090 
# 
# From -- ./inp_files/1885.got.cif
#   From: 2010.05.17/outbox.cif.g08.bks.cpg/sg19_1_cif.got.tgz:1885.got - 2010.06.03 22:46:19.
