data_PCOD9313796
_publ_section_title
;
Structure prediction by ZEFSAII (Michael W. Deem and Ramdas Pophale) SiO2 
 PCOD9313796
Probable space group: P 21 21 21
;
_chemical_formula_sum "Si O2"
_cell_formula_units_Z 28
_cell_length_a 8.181889
_cell_length_b 16.720081
_cell_length_c 8.544568
_cell_angle_alpha 90.000000
_cell_angle_beta 90.000000
_cell_angle_gamma 90.000000
_cell_volume 1168.912683
_symmetry_space_group_name_H-M "P 21 21 21"
_symmetry_group_IT_number 19
_symmetry_cell_setting 'orthorhombic'
loop_
_space_group_symop_operation_xyz
x,y,z
1/2-x,-y,1/2+z
1/2+x,1/2-y,-z
-x,1/2+y,1/2-z
loop_
_atom_site_type_symbol
_atom_site_label
_atom_site_fract_x
_atom_site_fract_y
_atom_site_fract_z
Si Si1 0.939057 0.076721 0.546280
Si Si2 0.432227 0.884790 0.360417
Si Si3 0.015941 0.312827 0.656453
Si Si4 0.854484 0.506912 0.201241
Si Si5 0.804417 0.684204 0.340888
Si Si6 0.412463 0.525014 0.979482
Si Si7 0.111328 0.727411 0.153083
O O1 0.769843 0.035247 0.582607
O O2 0.906960 0.136659 0.404775
O O3 0.067528 0.016182 0.471353
O O4 0.993928 0.130569 0.690933
O O5 0.300574 0.952619 0.320818
O O6 0.343526 0.823950 0.476137
O O7 0.566851 0.934931 0.457334
O O8 0.880431 0.294339 0.790274
O O9 0.931143 0.282294 0.495525
O O10 0.048555 0.407157 0.611323
O O11 0.193973 0.272085 0.687710
O O12 0.815386 0.594691 0.267768
O O13 0.969609 0.466399 0.330535
O O14 0.956293 0.735996 0.270480
#
# Coordination Sequence:
#
# PCOD9313796 Si02
#       7
#     4   4   4   4   4   4   4
#     4  10  21  37  57  85 122 156 198 244 301 361
#     4  11  21  36  59  85 125 152 194 249 305 359
#     4  11  20  38  65  88 117 155 208 246 304 355
#     4  10  20  35  57  87 116 157 190 235 310 353
#     4  10  21  38  58  88 118 151 200 247 293 359
#     4  10  21  35  58  90 114 157 196 250 298 359
#     4  10  22  37  66  85 114 162 204 251 293 360
#
# _framework density 23.953885
#
# number of rings (size 3 to 8) (size 9 to 14) (size 15 to 20)
#    0.000    1.714    2.857    2.571    2.000    1.143 
#    2.571    0.000    6.286    0.000    0.000    0.000 
#    0.000    0.000    0.000    0.000    0.000    0.000 
#
# Total GULP energy -156303.862075 kJ/mol
# GULP energy per Si atom -5582.280788 kJ/mol
# Density = 2.389936 g / cm^3
# Si number density = 23.953885 Si / 1000 Ang^3
#
#
#
# Elastic Constant Matrix: (Units=GPa)
#
#
# Indices 1 2 3 4 5 6 
#
# 1 141.8199 11.4913 61.8061 0.0000 0.0000 0.0000
# 2 11.4913 18.2965 7.9397 0.0000 0.0000 0.0000
# 3 61.8061 7.9397 99.4539 0.0000 0.0000 0.0000
# 4 0.0000 0.0000 0.0000 31.7778 0.0000 0.0000
# 5 0.0000 0.0000 0.0000 0.0000 25.1980 0.0000
# 6 0.0000 0.0000 0.0000 0.0000 0.0000 30.0705
#
#
#
# Elastic Compliance Matrix: (Units=1/GPa)
#
#
# Indices 1 2 3 4 5 6 
#
# 1 0.009903 -0.003677 -0.005861 0.000000 0.000000 0.000000
# 2 -0.003677 0.057981 -0.002344 0.000000 0.000000 0.000000
# 3 -0.005861 -0.002344 0.013884 0.000000 0.000000 0.000000
# 4 0.000000 0.000000 0.000000 0.031468 0.000000 0.000000
# 5 0.000000 0.000000 0.000000 0.000000 0.039686 0.000000
# 6 0.000000 0.000000 0.000000 0.000000 0.000000 0.033255
#
#
# Mechanical properties :
#
#
# Convention : Reuss Voigt Hill
#
# Bulk Modulus (GPa) = 17.23958 46.89384 32.06671
# Shear Modulus (GPa) = 21.80768 29.29815 25.55291
#
# Velocity S-wave (km/s) = 3.02056 3.50109 3.26966
# Velocity P-wave (km/s) = 4.40201 5.99689 5.26025
#
# Compressibility (1/GPa) = 0.05800606
#
# Stress axis : x y z
#
# Youngs Moduli (GPa) = 100.97603 17.24689 72.02341
#
# Poissons Ratio (x) = 0.06341 0.42213
# Poissons Ratio (y) = 0.37124 0.16883
# Poissons Ratio (z) = 0.59182 0.04043
#
# Static dielectric constant tensor:
#      x y z
#    x 1.966170 0.000000 0.000000 
#    y 0.000000 1.953190 0.000000 
#    z 0.000000 0.000000 1.993910 
# 
# From -- ./inp_files/2983.got.cif
#   From: 2010.05.17/outbox.cif.g08.bks.cpg/sg19_2_cif.got.tgz:2983.got - 2010.06.03 22:46:19.
