data_PCOD9313441
_publ_section_title
;
Structure prediction by ZEFSAII (Michael W. Deem and Ramdas Pophale) SiO2 
 PCOD9313441
Probable space group: P 21 21 21
;
_chemical_formula_sum "Si O2"
_cell_formula_units_Z 32
_cell_length_a 7.950288
_cell_length_b 17.917976
_cell_length_c 9.178552
_cell_angle_alpha 90.000000
_cell_angle_beta 90.000000
_cell_angle_gamma 90.000000
_cell_volume 1307.512907
_symmetry_space_group_name_H-M "P 21 21 21"
_symmetry_group_IT_number 19
_symmetry_cell_setting 'orthorhombic'
loop_
_space_group_symop_operation_xyz
x,y,z
1/2-x,-y,1/2+z
1/2+x,1/2-y,-z
-x,1/2+y,1/2-z
loop_
_atom_site_type_symbol
_atom_site_label
_atom_site_fract_x
_atom_site_fract_y
_atom_site_fract_z
Si Si1 0.189285 0.220885 0.667910
Si Si2 0.469025 0.910725 0.058006
Si Si3 0.957225 0.956208 0.172671
Si Si4 0.873065 0.281682 0.840976
Si Si5 0.324658 0.546485 0.492105
Si Si6 0.863907 0.188949 0.119004
Si Si7 0.308472 0.687642 0.885388
Si Si8 0.661311 0.410209 0.773466
O O1 0.543640 0.245710 0.230776
O O2 0.343470 0.268129 0.729055
O O3 0.162417 0.250829 0.506341
O O4 0.157955 0.132689 0.664987
O O5 0.642377 0.862054 0.074095
O O6 0.527216 0.996203 0.079818
O O7 0.393941 0.906381 0.895258
O O8 0.865892 0.955173 0.333826
O O9 0.960108 0.870756 0.124579
O O10 0.840321 0.999332 0.055386
O O11 0.125896 0.004606 0.182971
O O12 0.733449 0.230037 0.762352
O O13 0.832682 0.366883 0.803525
O O14 0.872810 0.256552 0.006150
O O15 0.280222 0.628981 0.431672
O O16 0.029394 0.138652 0.131460
#
# Coordination Sequence:
#
# PCOD9313441 Si02
#       8
#     4   4   4   4   4   4   4   4
#     4  11  22  35  59  84 114 154 187 228 291 347
#     4   9  18  34  56  85 107 141 191 235 272 331
#     4   9  18  32  56  83 110 146 189 238 286 322
#     4  11  22  36  54  83 121 145 183 233 286 344
#     4   9  18  32  55  85 112 140 187 245 282 325
#     4  11  21  37  57  87 114 148 187 239 290 337
#     4  10  18  35  56  81 111 146 191 228 276 339
#     4  10  19  35  59  80 111 146 187 236 279 329
#
# _framework density 24.473946999999999
#
# number of rings (size 3 to 8) (size 9 to 14) (size 15 to 20)
#    0.000    2.000    3.750    0.750    1.750    0.000 
#    0.000    0.000    5.500    0.000    0.000    0.000 
#    0.000    0.000    0.000    0.000    0.000    0.000 
#
# Total GULP energy -178727.664003 kJ/mol
# GULP energy per Si atom -5585.239500 kJ/mol
# Density = 2.441824 g / cm^3
# Si number density = 24.473947 Si / 1000 Ang^3
#
#
#
# Elastic Constant Matrix: (Units=GPa)
#
#
# Indices 1 2 3 4 5 6 
#
# 1 44.5133 19.1165 -5.5792 0.0000 0.0000 0.0000
# 2 19.1165 106.9287 7.8640 0.0000 0.0000 0.0000
# 3 -5.5792 7.8640 55.1451 0.0000 0.0000 0.0000
# 4 0.0000 0.0000 0.0000 27.0511 0.0000 0.0000
# 5 0.0000 0.0000 0.0000 0.0000 7.9028 0.0000
# 6 0.0000 0.0000 0.0000 0.0000 0.0000 28.9636
#
#
#
# Elastic Compliance Matrix: (Units=1/GPa)
#
#
# Indices 1 2 3 4 5 6 
#
# 1 0.024875 -0.004681 0.003184 0.000000 0.000000 0.000000
# 2 -0.004681 0.010332 -0.001947 0.000000 0.000000 0.000000
# 3 0.003184 -0.001947 0.018734 0.000000 0.000000 0.000000
# 4 0.000000 0.000000 0.000000 0.036967 0.000000 0.000000
# 5 0.000000 0.000000 0.000000 0.000000 0.126538 0.000000
# 6 0.000000 0.000000 0.000000 0.000000 0.000000 0.034526
#
#
# Mechanical properties :
#
#
# Convention : Reuss Voigt Hill
#
# Bulk Modulus (GPa) = 21.25285 27.70998 24.48141
# Shear Modulus (GPa) = 18.21205 25.12923 21.67064
#
# Velocity S-wave (km/s) = 2.73085 3.20781 2.97889
# Velocity P-wave (km/s) = 4.31812 5.00668 4.67509
#
# Compressibility (1/GPa) = 0.04705252
#
# Stress axis : x y z
#
# Youngs Moduli (GPa) = 40.20148 96.78552 53.37949
#
# Poissons Ratio (x) = 0.45308 -0.16997
# Poissons Ratio (y) = 0.18819 0.10393
# Poissons Ratio (z) = -0.12801 0.18845
#
# Static dielectric constant tensor:
#      x y z
#    x 2.045930 0.000000 0.000000 
#    y 0.000000 1.954400 0.000000 
#    z 0.000000 0.000000 2.313930 
# 
# From -- ./inp_files/4076.got.cif
#   From: 2010.05.17/outbox.cif.g08.bks.cpg/sg19_3_cif.got.tgz:4076.got - 2010.06.03 22:46:19.
