data_PCOD9313786
_publ_section_title
;
Structure prediction by ZEFSAII (Michael W. Deem and Ramdas Pophale) SiO2 
 PCOD9313786
Probable space group: P 21 21 21
;
_chemical_formula_sum "Si O2"
_cell_formula_units_Z 24
_cell_length_a 10.341626
_cell_length_b 10.827996
_cell_length_c 8.167321
_cell_angle_alpha 90.000000
_cell_angle_beta 90.000000
_cell_angle_gamma 90.000000
_cell_volume 914.569132
_symmetry_space_group_name_H-M "P 21 21 21"
_symmetry_group_IT_number 19
_symmetry_cell_setting 'orthorhombic'
loop_
_space_group_symop_operation_xyz
x,y,z
1/2-x,-y,1/2+z
1/2+x,1/2-y,-z
-x,1/2+y,1/2-z
loop_
_atom_site_type_symbol
_atom_site_label
_atom_site_fract_x
_atom_site_fract_y
_atom_site_fract_z
Si Si1 0.977800 0.297049 0.454445
Si Si2 0.348399 0.380687 0.111804
Si Si3 0.030644 0.053014 0.166597
Si Si4 0.369060 0.877822 0.321666
Si Si5 0.271392 0.129589 0.262422
Si Si6 0.238571 0.348447 0.653335
O O1 0.977926 0.405705 0.315423
O O2 0.882173 0.347481 0.600045
O O3 0.884162 0.186147 0.396672
O O4 0.124031 0.308925 0.524140
O O5 0.400396 0.399834 0.924972
O O6 0.479525 0.377838 0.220008
O O7 0.285974 0.250862 0.151357
O O8 0.273740 0.504052 0.162851
O O9 0.126509 0.086208 0.012239
O O10 0.118404 0.116199 0.305799
O O11 0.306787 0.744936 0.295349
O O12 0.305776 0.987091 0.218113
#
# Coordination Sequence:
#
# PCOD9313786 Si02
#       6
#     4   4   4   4   4   4
#     4  10  20  34  61  79 109 149 176 227 269 327
#     4   9  19  34  53  83 102 140 183 233 263 311
#     4   8  18  32  54  79 100 142 180 223 264 323
#     4   9  17  34  59  75 101 146 190 214 271 335
#     4  11  17  36  57  77 108 143 188 218 274 327
#     4  11  19  38  56  83 108 142 189 219 277 323
#
# _framework density 26.241866000000002
#
# number of rings (size 3 to 8) (size 9 to 14) (size 15 to 20)
#    1.000    1.333    5.000    0.000    0.000    0.000 
#    6.000    1.667    3.667    0.000    0.000    0.000 
#    0.000    0.000    0.000    0.000    0.000    0.000 
#
# Total GULP energy -133613.748183 kJ/mol
# GULP energy per Si atom -5567.239508 kJ/mol
# Density = 2.618214 g / cm^3
# Si number density = 26.241866 Si / 1000 Ang^3
#
#
#
# Elastic Constant Matrix: (Units=GPa)
#
#
# Indices 1 2 3 4 5 6 
#
# 1 188.9815 53.8569 -7.2739 0.0000 0.0000 0.0000
# 2 53.8569 150.6484 3.6194 0.0000 0.0000 0.0000
# 3 -7.2739 3.6194 31.5378 0.0000 0.0000 0.0000
# 4 0.0000 0.0000 0.0000 21.4224 0.0000 0.0000
# 5 0.0000 0.0000 0.0000 0.0000 27.9203 0.0000
# 6 0.0000 0.0000 0.0000 0.0000 0.0000 -110.1339
#
#
#
# Elastic Compliance Matrix: (Units=1/GPa)
#
#
# Indices 1 2 3 4 5 6 
#
# 1 0.005974 -0.002175 0.001627 0.000000 0.000000 0.000000
# 2 -0.002175 0.007448 -0.001356 0.000000 0.000000 0.000000
# 3 0.001627 -0.001356 0.032239 0.000000 0.000000 0.000000
# 4 0.000000 0.000000 0.000000 0.046680 0.000000 0.000000
# 5 0.000000 0.000000 0.000000 0.000000 0.035816 0.000000
# 6 0.000000 0.000000 0.000000 0.000000 0.000000 -0.009080
#
#
# Mechanical properties :
#
#
# Convention : Reuss Voigt Hill
#
# Bulk Modulus (GPa) = 23.89282 52.39692 38.14487
# Shear Modulus (GPa) = 36.54004 9.23944 22.88974
#
# Velocity S-wave (km/s) = 3.73558 1.87844 2.95661
# Velocity P-wave (km/s) = 5.26599 4.97141 5.12082
#
# Compressibility (1/GPa) = 0.04185358
#
# Stress axis : x y z
#
# Youngs Moduli (GPa) = 167.39350 134.26334 31.01832
#
# Poissons Ratio (x) = 0.29199 -0.05048
# Poissons Ratio (y) = 0.36405 0.04207
# Poissons Ratio (z) = -0.27242 0.18211
#
# Static dielectric constant tensor:
#      x y z
#    x 2.224490 0.000000 0.000000 
#    y 0.000000 2.470670 0.000000 
#    z 0.000000 0.000000 2.539470 
# 
# From -- ./inp_files/4972.got.cif
#   From: 2010.05.17/outbox.cif.g08.bks.cpg/sg19_3_cif.got.tgz:4972.got - 2010.06.03 22:46:19.
