data_PCOD9313120
_publ_section_title
;
Structure prediction by ZEFSAII (Michael W. Deem and Ramdas Pophale) SiO2 
 PCOD9313120
Probable space group: P 21 21 2
;
_chemical_formula_sum "Si O2"
_cell_formula_units_Z 22
_cell_length_a 12.470283
_cell_length_b 6.653322
_cell_length_c 12.244267
_cell_angle_alpha 90.000000
_cell_angle_beta 90.000000
_cell_angle_gamma 90.000000
_cell_volume 1015.892241
_symmetry_space_group_name_H-M "P 21 21 2"
_symmetry_group_IT_number 18
_symmetry_cell_setting 'orthorhombic'
loop_
_space_group_symop_operation_xyz
x,y,z
-x,-y,z
1/2+x,1/2-y,-z
1/2-x,1/2+y,-z
loop_
_atom_site_type_symbol
_atom_site_label
_atom_site_fract_x
_atom_site_fract_y
_atom_site_fract_z
Si Si1 0.000000 0.500000 0.465944
Si Si2 0.614756 0.898483 0.085780
Si Si3 0.614250 0.384952 0.457881
Si Si4 0.871369 0.034536 0.775976
Si Si5 0.893137 0.127263 0.343345
Si Si6 0.784927 0.231555 0.116554
O O1 0.080789 0.348942 0.530836
O O2 0.069481 0.659411 0.395414
O O3 0.640070 0.766295 0.192696
O O4 0.500000 0.000000 0.097872
O O5 0.706738 0.060852 0.074175
O O6 0.624232 0.774126 0.973325
O O7 0.500000 0.500000 0.455689
O O8 0.662941 0.454534 0.343491
O O9 0.666423 0.488425 0.564879
O O10 0.795280 0.915614 0.858286
O O11 0.000000 0.000000 0.789550
O O12 0.832590 0.165133 0.232093
O O13 0.000000 0.000000 0.316984
#
# Coordination Sequence:
#
# PCOD9313120 Si02
#       6
#     2   4   4   4   4   4
#     4   8  16  38  68  96 138 174 214 270 338 382
#     4  12  27  47  71  96 135 180 225 291 335 390
#     4   8  18  38  64 100 136 171 217 269 331 405
#     4  11  23  44  70  99 134 174 229 274 338 405
#     4   9  21  40  64 102 136 175 219 273 332 398
#     4  12  26  44  70 101 131 180 233 277 337 405
#
# _framework density 21.655839
#
# number of rings (size 3 to 8) (size 9 to 14) (size 15 to 20)
#    0.000    2.182    3.636    0.000    1.273    9.455 
#    8.182    0.000    0.000    0.000    0.000    0.000 
#    0.000    0.000    0.000    0.000    0.000    0.000 
#
# Total GULP energy -122689.364803 kJ/mol
# GULP energy per Si atom -5576.789309 kJ/mol
# Density = 2.160655 g / cm^3
# Si number density = 21.655839 Si / 1000 Ang^3
#
#
#
# Elastic Constant Matrix: (Units=GPa)
#
#
# Indices 1 2 3 4 5 6 
#
# 1 53.4190 31.2236 35.0702 0.0000 0.0000 0.0000
# 2 31.2236 132.4334 63.8598 0.0000 0.0000 0.0000
# 3 35.0702 63.8598 135.7749 0.0000 0.0000 0.0000
# 4 0.0000 0.0000 0.0000 28.3748 0.0000 0.0000
# 5 0.0000 0.0000 0.0000 0.0000 28.7814 0.0000
# 6 0.0000 0.0000 0.0000 0.0000 0.0000 15.4524
#
#
#
# Elastic Compliance Matrix: (Units=1/GPa)
#
#
# Indices 1 2 3 4 5 6 
#
# 1 0.023673 -0.003405 -0.004513 0.000000 0.000000 0.000000
# 2 -0.003405 0.010256 -0.003944 0.000000 0.000000 0.000000
# 3 -0.004513 -0.003944 0.010386 0.000000 0.000000 0.000000
# 4 0.000000 0.000000 0.000000 0.035243 0.000000 0.000000
# 5 0.000000 0.000000 0.000000 0.000000 0.034745 0.000000
# 6 0.000000 0.000000 0.000000 0.000000 0.000000 0.064715
#
#
# Mechanical properties :
#
#
# Convention : Reuss Voigt Hill
#
# Bulk Modulus (GPa) = 48.56722 64.65940 56.61331
# Shear Modulus (GPa) = 23.85444 27.28664 25.57054
#
# Velocity S-wave (km/s) = 3.32252 3.55352 3.43996
# Velocity P-wave (km/s) = 6.09872 6.83807 6.47895
#
# Compressibility (1/GPa) = 0.02059002
#
# Stress axis : x y z
#
# Youngs Moduli (GPa) = 42.24195 97.50742 96.28449
#
# Poissons Ratio (x) = 0.33203 0.43454
# Poissons Ratio (y) = 0.14384 0.37975
# Poissons Ratio (z) = 0.19064 0.38458
#
# Static dielectric constant tensor:
#      x y z
#    x 1.774420 0.000000 0.000000 
#    y 0.000000 1.739800 0.000000 
#    z 0.000000 0.000000 1.853570 
# 
# From -- ./inp_files/6027.got.cif
#   From: 2010.05.17/outbox.cif.g08.bks.cpg/sg18_4_cif.got.tgz:6027.got - 2010.06.03 22:40:56.
