data_PCOD9313520
_publ_section_title
;
Structure prediction by ZEFSAII (Michael W. Deem and Ramdas Pophale) SiO2 
 PCOD9313520
Probable space group: P 21 21 21
;
_chemical_formula_sum "Si O2"
_cell_formula_units_Z 28
_cell_length_a 19.206214
_cell_length_b 4.909545
_cell_length_c 13.282342
_cell_angle_alpha 90.000000
_cell_angle_beta 90.000000
_cell_angle_gamma 90.000000
_cell_volume 1252.442127
_symmetry_space_group_name_H-M "P 21 21 21"
_symmetry_group_IT_number 19
_symmetry_cell_setting 'orthorhombic'
loop_
_space_group_symop_operation_xyz
x,y,z
1/2-x,-y,1/2+z
1/2+x,1/2-y,-z
-x,1/2+y,1/2-z
loop_
_atom_site_type_symbol
_atom_site_label
_atom_site_fract_x
_atom_site_fract_y
_atom_site_fract_z
Si Si1 0.749738 0.752120 0.638017
Si Si2 0.673339 0.274559 0.564755
Si Si3 0.673339 0.274559 0.935245
Si Si4 0.546588 0.117216 0.250000
Si Si5 0.749738 0.752120 0.861983
Si Si6 0.046991 0.496917 0.971343
Si Si7 0.953008 0.996917 0.971343
O O1 0.682742 0.554273 0.624239
O O2 0.801593 0.666053 0.549394
O O3 0.778021 0.723889 0.750000
O O4 0.726284 0.059202 0.614872
O O5 0.698407 0.333947 0.450607
O O6 0.600724 0.119537 0.552061
O O7 0.682742 0.554273 0.875761
O O8 0.600724 0.119537 0.947939
O O9 0.726284 0.059202 0.885128
O O10 0.524189 0.431873 0.250000
O O11 0.577981 0.042442 0.358155
O O12 0.577981 0.042442 0.141845
O O13 0.021614 0.806044 0.979001
O O14 0.978386 0.306044 0.979001
#
# Coordination Sequence:
#
# PCOD9313520 Si02
#       7
#     4   4   4   4   4   4   4
#     4  10  21  38  58  81 110 143 184 233 269 314
#     4  10  21  36  58  85 107 145 186 217 279 329
#     4  10  21  36  58  85 107 145 186 217 279 329
#     4   8  16  28  44  72 104 138 168 200 260 320
#     4  10  21  38  58  81 110 143 184 233 269 314
#     4  10  19  33  53  79 112 142 174 221 271 327
#     4  10  19  33  53  79 112 142 174 221 271 327
#
# _framework density 22.356321000000001
#
# number of rings (size 3 to 8) (size 9 to 14) (size 15 to 20)
#    0.000    2.286    0.000    2.571    2.000    0.000 
#    0.000    0.000    0.000   17.143    0.000    0.000 
#    0.000    0.000    0.000    0.000    0.000    0.000 
#
# Total GULP energy -156261.028249 kJ/mol
# GULP energy per Si atom -5580.751009 kJ/mol
# Density = 2.230544 g / cm^3
# Si number density = 22.356321 Si / 1000 Ang^3
#
#
#
# Elastic Constant Matrix: (Units=GPa)
#
#
# Indices 1 2 3 4 5 6 
#
# 1 14.0769 -19.3214 -1.8796 0.0000 0.0000 0.0000
# 2 -19.3214 85.0260 9.6043 0.0000 0.0000 0.0000
# 3 -1.8796 9.6043 76.0166 0.0000 0.0000 0.0000
# 4 0.0000 0.0000 0.0000 12.2091 0.0000 0.0000
# 5 0.0000 0.0000 0.0000 0.0000 20.0391 0.0000
# 6 0.0000 0.0000 0.0000 0.0000 0.0000 10.7619
#
#
#
# Elastic Compliance Matrix: (Units=1/GPa)
#
#
# Indices 1 2 3 4 5 6 
#
# 1 0.103251 0.023510 -0.000417 0.000000 0.000000 0.000000
# 2 0.023510 0.017285 -0.001602 0.000000 0.000000 0.000000
# 3 -0.000417 -0.001602 0.013347 0.000000 0.000000 0.000000
# 4 0.000000 0.000000 0.000000 0.081906 0.000000 0.000000
# 5 0.000000 0.000000 0.000000 0.000000 0.049902 0.000000
# 6 0.000000 0.000000 0.000000 0.000000 0.000000 0.092920
#
#
# Mechanical properties :
#
#
# Convention : Reuss Voigt Hill
#
# Bulk Modulus (GPa) = 5.65407 16.88067 11.26737
# Shear Modulus (GPa) = 13.34807 21.04978 17.19892
#
# Velocity S-wave (km/s) = 2.44613 3.07181 2.77665
# Velocity P-wave (km/s) = 3.24232 4.48871 3.91543
#
# Compressibility (1/GPa) = 0.17686385
#
# Stress axis : x y z
#
# Youngs Moduli (GPa) = 9.68509 57.85500 74.92228
#
# Poissons Ratio (x) = -1.36018 0.03127
# Poissons Ratio (y) = -0.22770 0.12006
# Poissons Ratio (z) = 0.00404 0.09271
#
# Static dielectric constant tensor:
#      x y z
#    x 1.883610 0.000000 0.000000 
#    y 0.000000 1.784190 0.000000 
#    z 0.000000 0.000000 1.823790 
# 
# From -- ./inp_files/1748.got.cif
#   From: 2010.05.17/outbox.cif.g08.bks.cpg/sg19_1_cif.got.tgz:1748.got - 2010.06.03 22:46:19.
