data_PCOD9313096
_publ_section_title
;
Structure prediction by ZEFSAII (Michael W. Deem and Ramdas Pophale) SiO2 
 PCOD9313096
Probable space group: P 21 21 2
;
_chemical_formula_sum "Si O2"
_cell_formula_units_Z 24
_cell_length_a 11.097664
_cell_length_b 8.904741
_cell_length_c 9.899459
_cell_angle_alpha 90.000000
_cell_angle_beta 90.000000
_cell_angle_gamma 90.000000
_cell_volume 978.282591
_symmetry_space_group_name_H-M "P 21 21 2"
_symmetry_group_IT_number 18
_symmetry_cell_setting 'orthorhombic'
loop_
_space_group_symop_operation_xyz
x,y,z
-x,-y,z
1/2+x,1/2-y,-z
1/2-x,1/2+y,-z
loop_
_atom_site_type_symbol
_atom_site_label
_atom_site_fract_x
_atom_site_fract_y
_atom_site_fract_z
Si Si1 0.125791 0.363956 0.554672
Si Si2 0.105087 0.884297 0.092573
Si Si3 0.656269 0.229494 0.176320
Si Si4 0.123234 0.722206 0.526112
Si Si5 0.311681 0.418509 0.213572
Si Si6 0.559943 0.147252 0.899586
O O1 0.078977 0.346073 0.708226
O O2 0.140109 0.540761 0.527791
O O3 0.257976 0.288277 0.548813
O O4 0.017751 0.275125 0.477126
O O5 0.236069 0.892506 0.156378
O O6 0.054246 0.732242 0.157459
O O7 0.128905 0.875683 0.931239
O O8 0.000000 0.000000 0.123368
O O9 0.676233 0.401610 0.222650
O O10 0.608589 0.244169 0.024237
O O11 0.135420 0.821802 0.664160
O O12 0.169491 0.383011 0.199235
O O13 0.500000 0.000000 0.960509
#
# Coordination Sequence:
#
# PCOD9313096 Si02
#       6
#     4   4   4   4   4   4
#     4  11  27  49  74 105 134 190 234 303 354 426
#     4  11  23  39  62  99 139 182 227 278 346 420
#     4  11  24  40  67  98 138 181 231 282 353 416
#     4  11  27  49  75 102 142 180 244 293 362 420
#     4  11  24  41  65 101 135 183 230 286 347 424
#     4  11  23  39  62  96 141 183 224 282 342 415
#
# _framework density 24.532789999999999
#
# number of rings (size 3 to 8) (size 9 to 14) (size 15 to 20)
#    0.000    1.000    3.333    2.000    7.000    3.333 
#    3.000    0.000    0.000    0.000    0.000    0.000 
#    0.000    0.000    0.000    0.000    0.000    0.000 
#
# Total GULP energy -133792.489600 kJ/mol
# GULP energy per Si atom -5574.687067 kJ/mol
# Density = 2.447695 g / cm^3
# Si number density = 24.532790 Si / 1000 Ang^3
#
#
#
# Elastic Constant Matrix: (Units=GPa)
#
#
# Indices 1 2 3 4 5 6 
#
# 1 101.5268 29.0933 10.5219 0.0000 0.0000 0.0000
# 2 29.0933 93.5636 20.7760 0.0000 0.0000 0.0000
# 3 10.5219 20.7760 65.8507 0.0000 0.0000 0.0000
# 4 0.0000 0.0000 0.0000 -47.7624 0.0000 0.0000
# 5 0.0000 0.0000 0.0000 0.0000 16.0161 0.0000
# 6 0.0000 0.0000 0.0000 0.0000 0.0000 55.0065
#
#
#
# Elastic Compliance Matrix: (Units=1/GPa)
#
#
# Indices 1 2 3 4 5 6 
#
# 1 0.010845 -0.003212 -0.000719 0.000000 0.000000 0.000000
# 2 -0.003212 0.012445 -0.003413 0.000000 0.000000 0.000000
# 3 -0.000719 -0.003413 0.016378 0.000000 0.000000 0.000000
# 4 0.000000 0.000000 0.000000 -0.020937 0.000000 0.000000
# 5 0.000000 0.000000 0.000000 0.000000 0.062437 0.000000
# 6 0.000000 0.000000 0.000000 0.000000 0.000000 0.018180
#
#
# Mechanical properties :
#
#
# Convention : Reuss Voigt Hill
#
# Bulk Modulus (GPa) = 40.03593 42.41371 41.22482
# Shear Modulus (GPa) = 40.86236 18.02206 29.44221
#
# Velocity S-wave (km/s) = 4.08563 2.71331 3.46803
# Velocity P-wave (km/s) = 6.21380 5.20982 5.73382
#
# Compressibility (1/GPa) = 0.02497756
#
# Stress axis : x y z
#
# Youngs Moduli (GPa) = 92.21098 80.35571 61.05893
#
# Poissons Ratio (x) = 0.25813 0.04392
# Poissons Ratio (y) = 0.29622 0.20840
# Poissons Ratio (z) = 0.06633 0.27426
#
# Static dielectric constant tensor:
#      x y z
#    x 2.171880 0.000000 0.000000 
#    y 0.000000 2.249690 0.000000 
#    z 0.000000 0.000000 1.964770 
# 
# From -- ./inp_files/5493.got.cif
#   From: 2010.05.17/outbox.cif.g08.bks.cpg/sg18_3_cif.got.tgz:5493.got - 2010.06.03 22:40:56.
