data_PCOD9313998
_publ_section_title
;
Structure prediction by ZEFSAII (Michael W. Deem and Ramdas Pophale) SiO2 
 PCOD9313998
Probable space group: P 21 21 21
;
_chemical_formula_sum "Si O2"
_cell_formula_units_Z 28
_cell_length_a 12.600686
_cell_length_b 13.572460
_cell_length_c 7.817917
_cell_angle_alpha 90.000000
_cell_angle_beta 90.000000
_cell_angle_gamma 90.000000
_cell_volume 1337.038199
_symmetry_space_group_name_H-M "P 21 21 21"
_symmetry_group_IT_number 19
_symmetry_cell_setting 'orthorhombic'
loop_
_space_group_symop_operation_xyz
x,y,z
1/2-x,-y,1/2+z
1/2+x,1/2-y,-z
-x,1/2+y,1/2-z
loop_
_atom_site_type_symbol
_atom_site_label
_atom_site_fract_x
_atom_site_fract_y
_atom_site_fract_z
Si Si1 0.865910 0.005226 0.355966
Si Si2 0.081874 0.969568 0.914106
Si Si3 0.268915 0.846781 0.425458
Si Si4 0.748992 0.321800 0.456936
Si Si5 0.745412 0.186688 0.777666
Si Si6 0.854181 0.035119 0.987518
Si Si7 0.905008 0.496739 0.985422
O O1 0.849926 0.892029 0.292390
O O2 0.862617 0.069571 0.183792
O O3 0.759537 0.019088 0.467406
O O4 0.975460 0.011492 0.453788
O O5 0.143425 0.884690 0.014624
O O6 0.136253 0.074871 0.956965
O O7 0.099076 0.961705 0.711115
O O8 0.957692 0.972310 0.950390
O O9 0.267820 0.771290 0.580673
O O10 0.163089 0.914127 0.417748
O O11 0.274106 0.795783 0.239894
O O12 0.752904 0.234683 0.593034
O O13 0.657453 0.400743 0.504730
O O14 0.845024 0.122085 0.847300
#
# Coordination Sequence:
#
# PCOD9313998 Si02
#       7
#     4   4   4   4   4   4   4
#     4  10  23  41  62  87 127 173 207 257 320 383
#     4  10  20  39  67  92 130 163 210 260 320 378
#     4  10  21  39  65  97 123 166 206 269 313 365
#     4  10  21  41  67  97 125 163 215 266 312 373
#     4  10  24  42  62  96 129 157 226 262 305 383
#     4  10  23  41  62  89 124 175 204 258 320 381
#     4  10  20  39  67  94 126 165 210 256 326 375
#
# _framework density 20.941811000000001
#
# number of rings (size 3 to 8) (size 9 to 14) (size 15 to 20)
#    0.857    1.143    1.429    1.714    4.000    2.286 
#    0.000    2.857    0.000    0.000    0.000    0.000 
#    0.000    0.000    0.000    0.000    0.000    0.000 
#
# Total GULP energy -156248.810951 kJ/mol
# GULP energy per Si atom -5580.314677 kJ/mol
# Density = 2.089415 g / cm^3
# Si number density = 20.941811 Si / 1000 Ang^3
#
#
#
# Elastic Constant Matrix: (Units=GPa)
#
#
# Indices 1 2 3 4 5 6 
#
# 1 112.4480 12.8281 2.0060 0.0000 0.0000 0.0000
# 2 12.8281 55.0272 23.0822 0.0000 0.0000 0.0000
# 3 2.0060 23.0822 57.0507 0.0000 0.0000 0.0000
# 4 0.0000 0.0000 0.0000 38.3439 0.0000 0.0000
# 5 0.0000 0.0000 0.0000 0.0000 24.6212 0.0000
# 6 0.0000 0.0000 0.0000 0.0000 0.0000 8.4283
#
#
#
# Elastic Compliance Matrix: (Units=1/GPa)
#
#
# Indices 1 2 3 4 5 6 
#
# 1 0.009156 -0.002408 0.000652 0.000000 0.000000 0.000000
# 2 -0.002408 0.022521 -0.009027 0.000000 0.000000 0.000000
# 3 0.000652 -0.009027 0.021158 0.000000 0.000000 0.000000
# 4 0.000000 0.000000 0.000000 0.026080 0.000000 0.000000
# 5 0.000000 0.000000 0.000000 0.000000 0.040615 0.000000
# 6 0.000000 0.000000 0.000000 0.000000 0.000000 0.118648
#
#
# Mechanical properties :
#
#
# Convention : Reuss Voigt Hill
#
# Bulk Modulus (GPa) = 31.98070 33.37315 32.67693
# Shear Modulus (GPa) = 18.50713 26.71932 22.61323
#
# Velocity S-wave (km/s) = 2.97600 3.57583 3.28961
# Velocity P-wave (km/s) = 5.20703 5.74625 5.48328
#
# Compressibility (1/GPa) = 0.03126886
#
# Stress axis : x y z
#
# Youngs Moduli (GPa) = 109.21698 44.40340 47.26440
#
# Poissons Ratio (x) = 0.10693 -0.03083
# Poissons Ratio (y) = 0.26301 0.42666
# Poissons Ratio (z) = -0.07125 0.40083
#
# Static dielectric constant tensor:
#      x y z
#    x 1.721250 0.000000 0.000000 
#    y 0.000000 1.759640 0.000000 
#    z 0.000000 0.000000 1.805300 
# 
# From -- ./inp_files/3462.got.cif
#   From: 2010.05.17/outbox.cif.g08.bks.cpg/sg19_2_cif.got.tgz:3462.got - 2010.06.03 22:46:19.
