data_PCOD9313199
_publ_section_title
;
Structure prediction by ZEFSAII (Michael W. Deem and Ramdas Pophale) SiO2 
 PCOD9313199
Probable space group: P 21 21 2
;
_chemical_formula_sum "Si O2"
_cell_formula_units_Z 20
_cell_length_a 8.171546
_cell_length_b 18.153627
_cell_length_c 5.295203
_cell_angle_alpha 90.000000
_cell_angle_beta 90.000000
_cell_angle_gamma 90.000000
_cell_volume 785.507348
_symmetry_space_group_name_H-M "P 21 21 2"
_symmetry_group_IT_number 18
_symmetry_cell_setting 'orthorhombic'
loop_
_space_group_symop_operation_xyz
x,y,z
-x,-y,z
1/2+x,1/2-y,-z
1/2-x,1/2+y,-z
loop_
_atom_site_type_symbol
_atom_site_label
_atom_site_fract_x
_atom_site_fract_y
_atom_site_fract_z
Si Si1 0.481224 0.581326 0.982254
Si Si2 0.467991 0.728769 0.292952
Si Si3 0.999272 0.587361 0.287769
Si Si4 0.689930 0.133498 0.214421
Si Si5 0.252775 0.657309 0.634868
O O1 0.500000 0.500000 0.097681
O O2 0.640072 0.591585 0.806737
O O3 0.314043 0.594664 0.825822
O O4 0.498600 0.651622 0.161721
O O5 0.315007 0.777533 0.193604
O O6 0.413465 0.705275 0.572529
O O7 0.619083 0.783830 0.277128
O O8 0.880712 0.616654 0.509107
O O9 0.000000 0.500000 0.303935
O O10 0.173307 0.620362 0.383587
O O11 0.928323 0.607629 0.014142
#
# Coordination Sequence:
#
# PCOD9313199 Si02
#       5
#     4   4   4   4   4
#     4  12  28  46  76 112 157 200 262 328 404 467
#     4  11  27  46  78 106 153 205 268 323 389 473
#     4  11  26  48  78 110 158 198 259 318 401 466
#     4  11  27  46  76 111 152 204 257 321 388 472
#     4  11  27  46  78 109 153 207 266 322 395 472
#
# _framework density 25.461252000000002
#
# number of rings (size 3 to 8) (size 9 to 14) (size 15 to 20)
#    0.000    0.800    0.000    4.200   25.200    0.800 
#    0.000    0.000    0.000    0.000    0.000    0.000 
#    0.000    0.000    0.000    0.000    0.000    0.000 
#
# Total GULP energy -111911.580976 kJ/mol
# GULP energy per Si atom -5595.579049 kJ/mol
# Density = 2.540330 g / cm^3
# Si number density = 25.461252 Si / 1000 Ang^3
#
#
#
# Elastic Constant Matrix: (Units=GPa)
#
#
# Indices 1 2 3 4 5 6 
#
# 1 83.9847 22.3777 17.0357 0.0000 0.0000 0.0000
# 2 22.3777 197.2026 12.2208 0.0000 0.0000 0.0000
# 3 17.0357 12.2208 48.7651 0.0000 0.0000 0.0000
# 4 0.0000 0.0000 0.0000 22.3943 0.0000 0.0000
# 5 0.0000 0.0000 0.0000 0.0000 45.9803 0.0000
# 6 0.0000 0.0000 0.0000 0.0000 0.0000 34.8678
#
#
#
# Elastic Compliance Matrix: (Units=1/GPa)
#
#
# Indices 1 2 3 4 5 6 
#
# 1 0.013099 -0.001222 -0.004270 0.000000 0.000000 0.000000
# 2 -0.001222 0.005265 -0.000893 0.000000 0.000000 0.000000
# 3 -0.004270 -0.000893 0.022222 0.000000 0.000000 0.000000
# 4 0.000000 0.000000 0.000000 0.044654 0.000000 0.000000
# 5 0.000000 0.000000 0.000000 0.000000 0.021748 0.000000
# 6 0.000000 0.000000 0.000000 0.000000 0.000000 0.028680
#
#
# Mechanical properties :
#
#
# Convention : Reuss Voigt Hill
#
# Bulk Modulus (GPa) = 35.94915 48.13563 42.04239
# Shear Modulus (GPa) = 31.70415 39.20302 35.45359
#
# Velocity S-wave (km/s) = 3.53256 3.92817 3.73561
# Velocity P-wave (km/s) = 5.54873 6.28654 5.92912
#
# Compressibility (1/GPa) = 0.02781707
#
# Stress axis : x y z
#
# Youngs Moduli (GPa) = 76.34432 189.93773 45.00096
#
# Poissons Ratio (x) = 0.23206 0.19214
# Poissons Ratio (y) = 0.09328 0.04017
# Poissons Ratio (z) = 0.32597 0.16954
#
# Static dielectric constant tensor:
#      x y z
#    x 2.150140 0.000000 0.000000 
#    y 0.000000 1.968670 0.000000 
#    z 0.000000 0.000000 2.084190 
# 
# From -- ./inp_files/535.got.cif
#   From: 2010.05.17/outbox.cif.g08.bks.cpg/sg18_1_cif.got.tgz:535.got - 2010.06.03 22:40:56.
