data_PCOD9313979
_publ_section_title
;
Structure prediction by ZEFSAII (Michael W. Deem and Ramdas Pophale) SiO2 
 PCOD9313979
Probable space group: P 21 21 21
;
_chemical_formula_sum "Si O2"
_cell_formula_units_Z 28
_cell_length_a 20.651450
_cell_length_b 7.620412
_cell_length_c 8.720963
_cell_angle_alpha 90.000000
_cell_angle_beta 90.000000
_cell_angle_gamma 90.000000
_cell_volume 1372.440250
_symmetry_space_group_name_H-M "P 21 21 21"
_symmetry_group_IT_number 19
_symmetry_cell_setting 'orthorhombic'
loop_
_space_group_symop_operation_xyz
x,y,z
1/2-x,-y,1/2+z
1/2+x,1/2-y,-z
-x,1/2+y,1/2-z
loop_
_atom_site_type_symbol
_atom_site_label
_atom_site_fract_x
_atom_site_fract_y
_atom_site_fract_z
Si Si1 0.173650 0.836448 0.553370
Si Si2 0.558743 0.731874 0.683215
Si Si3 0.675750 0.339207 0.621588
Si Si4 0.918544 0.872950 0.281073
Si Si5 0.193694 0.652907 0.863865
Si Si6 0.853193 0.436139 0.411244
Si Si7 0.683933 0.217272 0.037764
O O1 0.110404 0.803059 0.450502
O O2 0.165031 0.760362 0.721579
O O3 0.239685 0.745870 0.491544
O O4 0.184441 0.044824 0.529869
O O5 0.484548 0.696017 0.644449
O O6 0.579065 0.608944 0.828460
O O7 0.569183 0.931317 0.730341
O O8 0.605483 0.253086 0.643086
O O9 0.729625 0.190244 0.632254
O O10 0.685314 0.474931 0.766464
O O11 0.858186 0.858045 0.396018
O O12 0.179018 0.446701 0.847230
O O13 0.170093 0.753640 0.017162
O O14 0.846277 0.585909 0.542485
#
# Coordination Sequence:
#
# PCOD9313979 Si02
#       7
#     4   4   4   4   4   4   4
#     4  11  23  37  61 101 130 166 217 279 328 389
#     4  11  23  42  69  93 130 166 231 272 321 398
#     4  10  20  39  62  95 125 171 222 268 324 385
#     4  11  21  42  69  94 122 177 226 269 317 391
#     4  12  20  38  61  91 137 164 207 277 329 385
#     4  10  21  39  61  93 125 168 213 269 322 386
#     4  11  22  37  63  95 129 168 218 260 331 382
#
# _framework density 20.401615
#
# number of rings (size 3 to 8) (size 9 to 14) (size 15 to 20)
#    0.000    1.143    5.714    3.429    0.000    0.000 
#    5.143    0.000    9.429    0.000    0.000    0.000 
#    0.000    0.000    0.000    0.000    0.000    0.000 
#
# Total GULP energy -155946.751956 kJ/mol
# GULP energy per Si atom -5569.526856 kJ/mol
# Density = 2.035518 g / cm^3
# Si number density = 20.401615 Si / 1000 Ang^3
#
#
#
# Elastic Constant Matrix: (Units=GPa)
#
#
# Indices 1 2 3 4 5 6 
#
# 1 69.2012 26.2955 24.5983 0.0000 0.0000 0.0000
# 2 26.2955 110.7068 21.5656 0.0000 0.0000 0.0000
# 3 24.5983 21.5656 35.8750 0.0000 0.0000 0.0000
# 4 0.0000 0.0000 0.0000 27.9405 0.0000 0.0000
# 5 0.0000 0.0000 0.0000 0.0000 18.6296 0.0000
# 6 0.0000 0.0000 0.0000 0.0000 0.0000 31.4680
#
#
#
# Elastic Compliance Matrix: (Units=1/GPa)
#
#
# Indices 1 2 3 4 5 6 
#
# 1 0.019616 -0.002310 -0.012061 0.000000 0.000000 0.000000
# 2 -0.002310 0.010503 -0.004730 0.000000 0.000000 0.000000
# 3 -0.012061 -0.004730 0.038988 0.000000 0.000000 0.000000
# 4 0.000000 0.000000 0.000000 0.035790 0.000000 0.000000
# 5 0.000000 0.000000 0.000000 0.000000 0.053678 0.000000
# 6 0.000000 0.000000 0.000000 0.000000 0.000000 0.031778
#
#
# Mechanical properties :
#
#
# Convention : Reuss Voigt Hill
#
# Bulk Modulus (GPa) = 32.35775 40.07798 36.21786
# Shear Modulus (GPa) = 20.93307 25.16252 23.04780
#
# Velocity S-wave (km/s) = 3.20668 3.51573 3.36475
# Velocity P-wave (km/s) = 5.44106 6.01395 5.73467
#
# Compressibility (1/GPa) = 0.03090450
#
# Stress axis : x y z
#
# Youngs Moduli (GPa) = 50.97984 95.21222 25.64892
#
# Poissons Ratio (x) = 0.21991 0.30936
# Poissons Ratio (y) = 0.11774 0.12132
# Poissons Ratio (z) = 0.61489 0.45035
#
# Static dielectric constant tensor:
#      x y z
#    x 1.724290 0.000000 0.000000 
#    y 0.000000 1.800950 0.000000 
#    z 0.000000 0.000000 1.799350 
# 
# From -- ./inp_files/4185.got.cif
#   From: 2010.05.17/outbox.cif.g08.bks.cpg/sg19_3_cif.got.tgz:4185.got - 2010.06.03 22:46:19.
