data_PCOD9313942
_publ_section_title
;
Structure prediction by ZEFSAII (Michael W. Deem and Ramdas Pophale) SiO2 
 PCOD9313942
Probable space group: P 21 21 21
;
_chemical_formula_sum "Si O2"
_cell_formula_units_Z 20
_cell_length_a 6.496253
_cell_length_b 17.948031
_cell_length_c 9.305010
_cell_angle_alpha 90.000000
_cell_angle_beta 90.000000
_cell_angle_gamma 90.000000
_cell_volume 1084.917178
_symmetry_space_group_name_H-M "P 21 21 21"
_symmetry_group_IT_number 19
_symmetry_cell_setting 'orthorhombic'
loop_
_space_group_symop_operation_xyz
x,y,z
1/2-x,-y,1/2+z
1/2+x,1/2-y,-z
-x,1/2+y,1/2-z
loop_
_atom_site_type_symbol
_atom_site_label
_atom_site_fract_x
_atom_site_fract_y
_atom_site_fract_z
Si Si1 0.243140 0.574534 0.115135
Si Si2 0.463239 0.851563 0.114505
Si Si3 0.122665 0.814266 0.885848
Si Si4 0.142391 0.077762 0.198722
Si Si5 0.408110 0.956293 0.372686
O O1 0.408774 0.641174 0.117993
O O2 0.374846 0.499321 0.110138
O O3 0.094906 0.576334 0.252962
O O4 0.096042 0.589702 0.978964
O O5 0.581524 0.773143 0.117841
O O6 0.428320 0.885065 0.270866
O O7 0.251544 0.837264 0.027678
O O8 0.258686 0.845141 0.753887
O O9 0.258063 0.013771 0.290281
O O10 0.169468 0.063112 0.031177
#
# Coordination Sequence:
#
# PCOD9313942 Si02
#       5
#     4   4   4   4   4
#     4  10  20  38  63  87 118 155 201 247 301 361
#     4  11  21  39  65  88 121 164 204 243 307 357
#     4  10  21  39  61  87 121 162 200 246 297 369
#     4  10  22  39  58  90 121 150 202 247 302 352
#     4  11  22  39  63  90 119 159 199 255 295 359
#
# _framework density 18.434587000000001
#
# number of rings (size 3 to 8) (size 9 to 14) (size 15 to 20)
#    0.000    1.600    2.000    4.800    0.000    1.600 
#    3.600    0.000    0.000    0.000    0.000    0.000 
#    0.000    0.000    0.000    0.000    0.000    0.000 
#
# Total GULP energy -111704.606455 kJ/mol
# GULP energy per Si atom -5585.230323 kJ/mol
# Density = 1.839263 g / cm^3
# Si number density = 18.434587 Si / 1000 Ang^3
#
#
#
# Elastic Constant Matrix: (Units=GPa)
#
#
# Indices 1 2 3 4 5 6 
#
# 1 89.7761 25.1249 44.7630 0.0000 0.0000 0.0000
# 2 25.1249 42.5218 54.8400 0.0000 0.0000 0.0000
# 3 44.7630 54.8400 169.4021 0.0000 0.0000 0.0000
# 4 0.0000 0.0000 0.0000 25.7428 0.0000 0.0000
# 5 0.0000 0.0000 0.0000 0.0000 12.9967 0.0000
# 6 0.0000 0.0000 0.0000 0.0000 0.0000 31.6016
#
#
#
# Elastic Compliance Matrix: (Units=1/GPa)
#
#
# Indices 1 2 3 4 5 6 
#
# 1 0.013627 -0.005851 -0.001707 0.000000 0.000000 0.000000
# 2 -0.005851 0.042886 -0.012337 0.000000 0.000000 0.000000
# 3 -0.001707 -0.012337 0.010348 0.000000 0.000000 0.000000
# 4 0.000000 0.000000 0.000000 0.038846 0.000000 0.000000
# 5 0.000000 0.000000 0.000000 0.000000 0.076942 0.000000
# 6 0.000000 0.000000 0.000000 0.000000 0.000000 0.031644
#
#
# Mechanical properties :
#
#
# Convention : Reuss Voigt Hill
#
# Bulk Modulus (GPa) = 36.93937 61.23954 49.08945
# Shear Modulus (GPa) = 19.00374 25.86637 22.43505
#
# Velocity S-wave (km/s) = 3.21421 3.74992 3.49235
# Velocity P-wave (km/s) = 5.81863 7.21396 6.55353
#
# Compressibility (1/GPa) = 0.02707139
#
# Stress axis : x y z
#
# Youngs Moduli (GPa) = 73.38233 23.31789 96.63672
#
# Poissons Ratio (x) = 0.13642 0.16495
# Poissons Ratio (y) = 0.42933 1.19223
# Poissons Ratio (z) = 0.12526 0.28768
#
# Static dielectric constant tensor:
#      x y z
#    x 1.649000 0.000000 0.000000 
#    y 0.000000 1.628450 0.000000 
#    z 0.000000 0.000000 1.617190 
# 
# From -- ./inp_files/306.got.cif
#   From: 2010.05.17/outbox.cif.g08.bks.cpg/sg19_1_cif.got.tgz:306.got - 2010.06.03 22:46:19.
