data_PCOD9313757
_publ_section_title
;
Structure prediction by ZEFSAII (Michael W. Deem and Ramdas Pophale) SiO2 
 PCOD9313757
Probable space group: P 21 21 21
;
_chemical_formula_sum "Si O2"
_cell_formula_units_Z 28
_cell_length_a 17.525721
_cell_length_b 6.314392
_cell_length_c 9.283241
_cell_angle_alpha 90.000000
_cell_angle_beta 90.000000
_cell_angle_gamma 90.000000
_cell_volume 1027.323111
_symmetry_space_group_name_H-M "P 21 21 21"
_symmetry_group_IT_number 19
_symmetry_cell_setting 'orthorhombic'
loop_
_space_group_symop_operation_xyz
x,y,z
1/2-x,-y,1/2+z
1/2+x,1/2-y,-z
-x,1/2+y,1/2-z
loop_
_atom_site_type_symbol
_atom_site_label
_atom_site_fract_x
_atom_site_fract_y
_atom_site_fract_z
Si Si1 0.542540 0.917512 0.021735
Si Si2 0.430144 0.774579 0.283153
Si Si3 0.081416 0.225180 0.312915
Si Si4 0.649394 0.990410 0.433094
Si Si5 0.316827 0.138865 0.899870
Si Si6 0.818263 0.354728 0.615256
Si Si7 0.708333 0.041996 0.797642
O O1 0.492805 0.826405 0.160610
O O2 0.501271 0.843320 0.871948
O O3 0.623306 0.795148 0.029565
O O4 0.541440 0.166758 0.068593
O O5 0.381226 0.584302 0.213265
O O6 0.375078 0.972851 0.310987
O O7 0.112673 0.365122 0.445607
O O8 0.123507 0.360885 0.187311
O O9 0.126941 0.007747 0.311429
O O10 0.635000 0.748516 0.473142
O O11 0.740762 0.009569 0.435508
O O12 0.293225 0.329108 0.795570
O O13 0.245576 0.005311 0.960113
O O14 0.763825 0.218384 0.722178
#
# Coordination Sequence:
#
# PCOD9313757 Si02
#       7
#     4   4   4   4   4   4   4
#     4  11  21  32  51  86 119 149 183 221 298 353
#     4  11  21  30  53  82 117 153 180 228 286 354
#     4   9  23  33  52  83 117 150 185 235 290 339
#     4  10  20  33  54  82 111 147 196 230 277 341
#     4  10  21  36  54  80 115 154 193 235 280 346
#     4  11  20  35  54  81 118 153 183 227 291 340
#     4  10  20  37  54  80 115 148 194 236 280 341
#
# _framework density 27.255303000000001
#
# number of rings (size 3 to 8) (size 9 to 14) (size 15 to 20)
#    0.000    1.714    4.286    0.000    6.000    1.143 
#    0.000    0.000    0.000    0.000   14.857    0.000 
#    0.000    0.000    0.000    0.000    0.000    0.000 
#
# Total GULP energy -156427.288778 kJ/mol
# GULP energy per Si atom -5586.688885 kJ/mol
# Density = 2.719327 g / cm^3
# Si number density = 27.255303 Si / 1000 Ang^3
#
#
#
# Elastic Constant Matrix: (Units=GPa)
#
#
# Indices 1 2 3 4 5 6 
#
# 1 155.3134 43.5087 8.9619 0.0000 0.0000 0.0000
# 2 43.5087 124.1496 -4.8779 0.0000 0.0000 0.0000
# 3 8.9619 -4.8779 21.2504 0.0000 0.0000 0.0000
# 4 0.0000 0.0000 0.0000 14.4233 0.0000 0.0000
# 5 0.0000 0.0000 0.0000 0.0000 46.0622 0.0000
# 6 0.0000 0.0000 0.0000 0.0000 0.0000 57.3043
#
#
#
# Elastic Compliance Matrix: (Units=1/GPa)
#
#
# Indices 1 2 3 4 5 6 
#
# 1 0.007426 -0.002750 -0.003763 0.000000 0.000000 0.000000
# 2 -0.002750 0.009147 0.003259 0.000000 0.000000 0.000000
# 3 -0.003763 0.003259 0.049393 0.000000 0.000000 0.000000
# 4 0.000000 0.000000 0.000000 0.069332 0.000000 0.000000
# 5 0.000000 0.000000 0.000000 0.000000 0.021710 0.000000
# 6 0.000000 0.000000 0.000000 0.000000 0.000000 0.017451
#
#
# Mechanical properties :
#
#
# Convention : Reuss Voigt Hill
#
# Bulk Modulus (GPa) = 16.81860 43.98876 30.40368
# Shear Modulus (GPa) = 24.90205 40.43264 32.66735
#
# Velocity S-wave (km/s) = 3.02596 3.85577 3.46579
# Velocity P-wave (km/s) = 4.28867 5.99977 5.21488
#
# Compressibility (1/GPa) = 0.05945797
#
# Stress axis : x y z
#
# Youngs Moduli (GPa) = 134.65793 109.32840 20.24571
#
# Poissons Ratio (x) = 0.30070 0.07619
# Poissons Ratio (y) = 0.37036 -0.06599
# Poissons Ratio (z) = 0.50674 -0.35636
#
# Static dielectric constant tensor:
#      x y z
#    x 2.174290 0.000000 0.000000 
#    y 0.000000 2.163860 0.000000 
#    z 0.000000 0.000000 2.315980 
# 
# From -- ./inp_files/1532.got.cif
#   From: 2010.05.17/outbox.cif.g08.bks.cpg/sg19_1_cif.got.tgz:1532.got - 2010.06.03 22:46:19.
