data_PCOD9313932
_publ_section_title
;
Structure prediction by ZEFSAII (Michael W. Deem and Ramdas Pophale) SiO2 
 PCOD9313932
Probable space group: P 21 21 21
;
_chemical_formula_sum "Si O2"
_cell_formula_units_Z 20
_cell_length_a 4.957554
_cell_length_b 11.872481
_cell_length_c 15.548846
_cell_angle_alpha 90.000000
_cell_angle_beta 90.000000
_cell_angle_gamma 90.000000
_cell_volume 915.181219
_symmetry_space_group_name_H-M "P 21 21 21"
_symmetry_group_IT_number 19
_symmetry_cell_setting 'orthorhombic'
loop_
_space_group_symop_operation_xyz
x,y,z
1/2-x,-y,1/2+z
1/2+x,1/2-y,-z
-x,1/2+y,1/2-z
loop_
_atom_site_type_symbol
_atom_site_label
_atom_site_fract_x
_atom_site_fract_y
_atom_site_fract_z
Si Si1 0.429008 0.181334 0.004714
Si Si2 0.278393 0.004687 0.865960
Si Si3 0.274477 0.451796 0.854707
Si Si4 0.763076 0.593106 0.824432
Si Si5 0.245199 0.355419 0.667203
O O1 0.613481 0.119546 0.075149
O O2 0.671948 0.250554 0.957046
O O3 0.281394 0.097464 0.939331
O O4 0.527363 0.922785 0.883082
O O5 0.027240 0.921323 0.855447
O O6 0.313167 0.070138 0.775292
O O7 0.559724 0.510196 0.875744
O O8 0.301019 0.376688 0.768809
O O9 0.069772 0.553369 0.833462
O O10 0.745317 0.723050 0.849048
#
# Coordination Sequence:
#
# PCOD9313932 Si02
#       5
#     4   4   4   4   4
#     4  12  24  40  62  88 122 156 192 250 304 344
#     4  10  22  37  59  91 119 151 202 240 288 360
#     4  10  22  37  59  91 119 151 202 240 288 360
#     4  10  20  38  61  86 119 157 195 243 291 344
#     4  10  20  38  61  86 119 157 195 243 291 344
#
# _framework density 21.853594999999999
#
# number of rings (size 3 to 8) (size 9 to 14) (size 15 to 20)
#    0.000    1.600    0.000    4.800    0.000    6.400 
#    0.000    4.000    0.000    0.000    0.000    0.000 
#    0.000    0.000    0.000    0.000    0.000    0.000 
#
# Total GULP energy -111730.874361 kJ/mol
# GULP energy per Si atom -5586.543718 kJ/mol
# Density = 2.180386 g / cm^3
# Si number density = 21.853595 Si / 1000 Ang^3
#
#
#
# Elastic Constant Matrix: (Units=GPa)
#
#
# Indices 1 2 3 4 5 6 
#
# 1 124.4317 33.4869 -3.1400 0.0000 0.0000 0.0000
# 2 33.4869 103.2804 11.0757 0.0000 0.0000 0.0000
# 3 -3.1400 11.0757 36.4710 0.0000 0.0000 0.0000
# 4 0.0000 0.0000 0.0000 22.5468 0.0000 0.0000
# 5 0.0000 0.0000 0.0000 0.0000 39.7277 0.0000
# 6 0.0000 0.0000 0.0000 0.0000 0.0000 27.1676
#
#
#
# Elastic Compliance Matrix: (Units=1/GPa)
#
#
# Indices 1 2 3 4 5 6 
#
# 1 0.008906 -0.003070 0.001699 0.000000 0.000000 0.000000
# 2 -0.003070 0.011066 -0.003625 0.000000 0.000000 0.000000
# 3 0.001699 -0.003625 0.028666 0.000000 0.000000 0.000000
# 4 0.000000 0.000000 0.000000 0.044352 0.000000 0.000000
# 5 0.000000 0.000000 0.000000 0.000000 0.025171 0.000000
# 6 0.000000 0.000000 0.000000 0.000000 0.000000 0.036809
#
#
# Mechanical properties :
#
#
# Convention : Reuss Voigt Hill
#
# Bulk Modulus (GPa) = 25.87548 38.55872 32.21710
# Shear Modulus (GPa) = 28.11458 32.73913 30.42686
#
# Velocity S-wave (km/s) = 3.59067 3.87474 3.73541
# Velocity P-wave (km/s) = 5.39042 6.14008 5.77742
#
# Compressibility (1/GPa) = 0.03864662
#
# Stress axis : x y z
#
# Youngs Moduli (GPa) = 112.29004 90.36363 34.88438
#
# Poissons Ratio (x) = 0.27738 -0.05927
# Poissons Ratio (y) = 0.34469 0.12646
# Poissons Ratio (z) = -0.19077 0.32757
#
# Static dielectric constant tensor:
#      x y z
#    x 1.730000 0.000000 0.000000 
#    y 0.000000 1.753650 0.000000 
#    z 0.000000 0.000000 1.804330 
# 
# From -- ./inp_files/338.got.cif
#   From: 2010.05.17/outbox.cif.g08.bks.cpg/sg19_1_cif.got.tgz:338.got - 2010.06.03 22:46:19.
