data_PCOD9313492
_publ_section_title
;
Structure prediction by ZEFSAII (Michael W. Deem and Ramdas Pophale) SiO2 
 PCOD9313492
Probable space group: P 21 21 21
;
_chemical_formula_sum "Si O2"
_cell_formula_units_Z 24
_cell_length_a 5.059268
_cell_length_b 25.347402
_cell_length_c 7.026013
_cell_angle_alpha 90.000000
_cell_angle_beta 90.000000
_cell_angle_gamma 90.000000
_cell_volume 901.010988
_symmetry_space_group_name_H-M "P 21 21 21"
_symmetry_group_IT_number 19
_symmetry_cell_setting 'orthorhombic'
loop_
_space_group_symop_operation_xyz
x,y,z
1/2-x,-y,1/2+z
1/2+x,1/2-y,-z
-x,1/2+y,1/2-z
loop_
_atom_site_type_symbol
_atom_site_label
_atom_site_fract_x
_atom_site_fract_y
_atom_site_fract_z
Si Si1 0.720546 0.420481 0.397103
Si Si2 0.219650 0.473493 0.302242
Si Si3 0.430901 0.219858 0.731358
Si Si4 0.272383 0.414839 0.897462
Si Si5 0.937817 0.182304 0.501415
Si Si6 0.785393 0.359652 0.991717
O O1 0.521049 0.468993 0.370186
O O2 0.553751 0.376536 0.511884
O O3 0.769118 0.390956 0.194486
O O4 0.006816 0.444694 0.438547
O O5 0.229717 0.442133 0.104370
O O6 0.140677 0.534171 0.280333
O O7 0.651312 0.187997 0.604232
O O8 0.472863 0.281073 0.684255
O O9 0.406787 0.196644 0.943484
O O10 0.140666 0.209784 0.647052
O O11 0.492593 0.370463 0.920680
O O12 0.995761 0.387052 0.852210
#
# Coordination Sequence:
#
# PCOD9313492 Si02
#       6
#     4   4   4   4   4   4
#     4   9  16  27  41  59  84 113 140 170 211 252
#     4  10  19  30  44  61  84 114 145 176 210 248
#     4   9  15  23  37  58  84 113 140 166 205 258
#     4  10  19  30  44  61  84 114 145 176 210 248
#     4   9  15  23  37  58  84 113 140 166 205 258
#     4   9  16  27  41  59  84 113 140 170 211 252
#
# _framework density 26.636742999999999
#
# number of rings (size 3 to 8) (size 9 to 14) (size 15 to 20)
#    0.000    2.667    0.000    6.000    0.000    0.000 
#    0.000    0.000    0.000    0.000    0.000    0.000 
#    0.000    5.333    0.000   15.333    0.000    0.000 
#
# Total GULP energy -134038.668229 kJ/mol
# GULP energy per Si atom -5584.944510 kJ/mol
# Density = 2.657612 g / cm^3
# Si number density = 26.636743 Si / 1000 Ang^3
#
#
#
# Elastic Constant Matrix: (Units=GPa)
#
#
# Indices 1 2 3 4 5 6 
#
# 1 127.5838 22.8096 7.7800 0.0000 0.0000 0.0000
# 2 22.8096 109.9237 22.4845 0.0000 0.0000 0.0000
# 3 7.7800 22.4845 67.3641 0.0000 0.0000 0.0000
# 4 0.0000 0.0000 0.0000 34.1292 0.0000 0.0000
# 5 0.0000 0.0000 0.0000 0.0000 -12.6013 0.0000
# 6 0.0000 0.0000 0.0000 0.0000 0.0000 31.8973
#
#
#
# Elastic Compliance Matrix: (Units=1/GPa)
#
#
# Indices 1 2 3 4 5 6 
#
# 1 0.008150 -0.001608 -0.000404 0.000000 0.000000 0.000000
# 2 -0.001608 0.010081 -0.003179 0.000000 0.000000 0.000000
# 3 -0.000404 -0.003179 0.015953 0.000000 0.000000 0.000000
# 4 0.000000 0.000000 0.000000 0.029300 0.000000 0.000000
# 5 0.000000 0.000000 0.000000 0.000000 -0.079357 0.000000
# 6 0.000000 0.000000 0.000000 0.000000 0.000000 0.031351
#
#
# Mechanical properties :
#
#
# Convention : Reuss Voigt Hill
#
# Bulk Modulus (GPa) = 42.01683 45.66887 43.84285
# Shear Modulus (GPa) = 147.94913 27.47155 87.71034
#
# Velocity S-wave (km/s) = 7.46082 3.21493 5.74455
# Velocity P-wave (km/s) = 9.48824 5.56447 7.77785
#
# Compressibility (1/GPa) = 0.02379999
#
# Stress axis : x y z
#
# Youngs Moduli (GPa) = 122.69620 99.19393 62.68598
#
# Poissons Ratio (x) = 0.15955 0.02535
# Poissons Ratio (y) = 0.19735 0.19929
# Poissons Ratio (z) = 0.04962 0.31535
#
# Static dielectric constant tensor:
#      x y z
#    x 1.977130 0.000000 0.000000 
#    y 0.000000 2.164610 0.000000 
#    z 0.000000 0.000000 2.204900 
# 
# From -- ./inp_files/1269.got.cif
#   From: 2010.05.17/outbox.cif.g08.bks.cpg/sg19_1_cif.got.tgz:1269.got - 2010.06.03 22:46:19.
