data_PCOD9313229
_publ_section_title
;
Structure prediction by ZEFSAII (Michael W. Deem and Ramdas Pophale) SiO2 
 PCOD9313229
Probable space group: P 21 21 2
;
_chemical_formula_sum "Si O2"
_cell_formula_units_Z 26
_cell_length_a 9.047961
_cell_length_b 8.096184
_cell_length_c 16.690647
_cell_angle_alpha 90.000000
_cell_angle_beta 90.000000
_cell_angle_gamma 90.000000
_cell_volume 1222.655939
_symmetry_space_group_name_H-M "P 21 21 2"
_symmetry_group_IT_number 18
_symmetry_cell_setting 'orthorhombic'
loop_
_space_group_symop_operation_xyz
x,y,z
-x,-y,z
1/2+x,1/2-y,-z
1/2-x,1/2+y,-z
loop_
_atom_site_type_symbol
_atom_site_label
_atom_site_fract_x
_atom_site_fract_y
_atom_site_fract_z
Si Si1 0.064725 0.257090 0.252163
Si Si2 0.000000 0.500000 0.863124
Si Si3 0.735834 0.590905 0.745656
Si Si4 0.106028 0.347675 0.079402
Si Si5 0.568065 0.664693 0.039156
Si Si6 0.073267 0.265684 0.431647
Si Si7 0.236421 0.912880 0.434322
O O1 0.132909 0.341286 0.174267
O O2 0.086345 0.331283 0.340475
O O3 0.889545 0.228298 0.237050
O O4 0.143477 0.079333 0.256792
O O5 0.135408 0.435752 0.808824
O O6 0.046674 0.663887 0.912576
O O7 0.795249 0.618222 0.655606
O O8 0.257852 0.362039 0.031486
O O9 0.000000 0.500000 0.065209
O O10 0.018039 0.191202 0.044423
O O11 0.500000 0.500000 0.078515
O O12 0.142705 0.382728 0.498106
O O13 0.904469 0.209181 0.445121
O O14 0.168128 0.096029 0.436995
#
# Coordination Sequence:
#
# PCOD9313229 Si02
#       7
#     4   2   4   4   4   4   4
#     4   9  20  40  65  89 132 176 228 273 338 422
#     4  12  24  46  70 100 138 180 232 290 362 404
#     4   9  20  38  67  94 123 181 222 274 342 417
#     4  12  26  47  71 100 139 185 228 290 358 413
#     4  12  29  46  71 106 141 179 238 295 348 430
#     4   9  19  38  59  92 124 169 221 270 330 405
#     4   9  19  37  61  88 127 167 218 271 334 398
#
# _framework density 21.265181999999999
#
# number of rings (size 3 to 8) (size 9 to 14) (size 15 to 20)
#    0.000    1.846    2.308    2.769    6.462    3.077 
#    5.538    0.000    0.000    0.000    0.000    0.000 
#    0.000    0.000    0.000    0.000    0.000    0.000 
#
# Total GULP energy -145213.030107 kJ/mol
# GULP energy per Si atom -5585.116543 kJ/mol
# Density = 2.121678 g / cm^3
# Si number density = 21.265182 Si / 1000 Ang^3
#
#
#
# Elastic Constant Matrix: (Units=GPa)
#
#
# Indices 1 2 3 4 5 6 
#
# 1 78.2558 20.8921 41.7177 0.0000 0.0000 0.0000
# 2 20.8921 73.8791 18.0159 0.0000 0.0000 0.0000
# 3 41.7177 18.0159 104.7389 0.0000 0.0000 0.0000
# 4 0.0000 0.0000 0.0000 50.0665 0.0000 0.0000
# 5 0.0000 0.0000 0.0000 0.0000 13.1736 0.0000
# 6 0.0000 0.0000 0.0000 0.0000 0.0000 32.5726
#
#
#
# Elastic Compliance Matrix: (Units=1/GPa)
#
#
# Indices 1 2 3 4 5 6 
#
# 1 0.016954 -0.003286 -0.006188 0.000000 0.000000 0.000000
# 2 -0.003286 0.014765 -0.001231 0.000000 0.000000 0.000000
# 3 -0.006188 -0.001231 0.012224 0.000000 0.000000 0.000000
# 4 0.000000 0.000000 0.000000 0.019973 0.000000 0.000000
# 5 0.000000 0.000000 0.000000 0.000000 0.075909 0.000000
# 6 0.000000 0.000000 0.000000 0.000000 0.000000 0.030701
#
#
# Mechanical properties :
#
#
# Convention : Reuss Voigt Hill
#
# Bulk Modulus (GPa) = 44.37653 46.45835 45.41744
# Shear Modulus (GPa) = 25.06930 30.91242 27.99086
#
# Velocity S-wave (km/s) = 3.43722 3.81683 3.63199
# Velocity P-wave (km/s) = 6.05526 6.42797 6.24440
#
# Compressibility (1/GPa) = 0.02253443
#
# Stress axis : x y z
#
# Youngs Moduli (GPa) = 58.98159 67.72799 81.80680
#
# Poissons Ratio (x) = 0.22252 0.50621
# Poissons Ratio (y) = 0.19379 0.10071
# Poissons Ratio (z) = 0.36497 0.08338
#
# Static dielectric constant tensor:
#      x y z
#    x 1.736900 0.000000 0.000000 
#    y 0.000000 1.821720 0.000000 
#    z 0.000000 0.000000 1.790030 
# 
# From -- ./inp_files/7325.got.cif
#   From: 2010.05.17/outbox.cif.g08.bks.cpg/sg18_4_cif.got.tgz:7325.got - 2010.06.03 22:40:56.
