data_PCOD9313566
_publ_section_title
;
Structure prediction by ZEFSAII (Michael W. Deem and Ramdas Pophale) SiO2 
 PCOD9313566
Probable space group: P 21 21 21
;
_chemical_formula_sum "Si O2"
_cell_formula_units_Z 28
_cell_length_a 7.488336
_cell_length_b 12.397691
_cell_length_c 13.042881
_cell_angle_alpha 90.000000
_cell_angle_beta 90.000000
_cell_angle_gamma 90.000000
_cell_volume 1210.875975
_symmetry_space_group_name_H-M "P 21 21 21"
_symmetry_group_IT_number 19
_symmetry_cell_setting 'orthorhombic'
loop_
_space_group_symop_operation_xyz
x,y,z
1/2-x,-y,1/2+z
1/2+x,1/2-y,-z
-x,1/2+y,1/2-z
loop_
_atom_site_type_symbol
_atom_site_label
_atom_site_fract_x
_atom_site_fract_y
_atom_site_fract_z
Si Si1 0.363545 0.379577 0.558099
Si Si2 0.683310 0.597885 0.229573
Si Si3 0.498713 0.001020 0.644430
Si Si4 0.210394 0.601407 0.540112
Si Si5 0.053749 0.820978 0.571558
Si Si6 0.760073 0.506824 0.021853
Si Si7 0.136895 0.289423 0.369145
O O1 0.257735 0.487529 0.595578
O O2 0.547720 0.435030 0.516629
O O3 0.227354 0.326632 0.476575
O O4 0.457105 0.283901 0.622777
O O5 0.872598 0.562965 0.279709
O O6 0.543607 0.611903 0.321434
O O7 0.667506 0.520471 0.131808
O O8 0.715328 0.714817 0.182294
O O9 0.618770 0.930401 0.568897
O O10 0.364881 0.058531 0.563555
O O11 0.602537 0.100856 0.692852
O O12 0.097142 0.696442 0.591687
O O13 0.390937 0.659690 0.503952
O O14 0.212808 0.883667 0.511679
#
# Coordination Sequence:
#
# PCOD9313566 Si02
#       7
#     4   4   4   4   4   4   4
#     4   9  19  35  59  85 112 151 197 239 295 353
#     4  10  21  35  57  89 118 155 202 244 292 358
#     4  10  21  38  60  86 118 155 200 247 299 357
#     4  10  21  39  61  85 116 157 200 245 298 353
#     4  10  20  38  59  83 121 158 195 247 299 348
#     4   9  19  38  60  85 116 153 198 246 297 355
#     4  10  19  35  56  83 117 153 196 250 298 346
#
# _framework density 23.123754999999999
#
# number of rings (size 3 to 8) (size 9 to 14) (size 15 to 20)
#    0.000    2.286    0.000    3.429    0.000    4.571 
#    0.000   22.857    0.000    0.000    0.000    0.000 
#    0.000    0.000    0.000    0.000    0.000    0.000 
#
# Total GULP energy -155954.398440 kJ/mol
# GULP energy per Si atom -5569.799944 kJ/mol
# Density = 2.307112 g / cm^3
# Si number density = 23.123755 Si / 1000 Ang^3
#
#
#
# Elastic Constant Matrix: (Units=GPa)
#
#
# Indices 1 2 3 4 5 6 
#
# 1 47.7586 4.9167 -10.1014 0.0000 0.0000 0.0000
# 2 4.9167 103.7009 26.1961 0.0000 0.0000 0.0000
# 3 -10.1014 26.1961 59.1560 0.0000 0.0000 0.0000
# 4 0.0000 0.0000 0.0000 28.5625 0.0000 0.0000
# 5 0.0000 0.0000 0.0000 0.0000 16.4753 0.0000
# 6 0.0000 0.0000 0.0000 0.0000 0.0000 29.7085
#
#
#
# Elastic Compliance Matrix: (Units=1/GPa)
#
#
# Indices 1 2 3 4 5 6 
#
# 1 0.022185 -0.002262 0.004790 0.000000 0.000000 0.000000
# 2 -0.002262 0.011088 -0.005296 0.000000 0.000000 0.000000
# 3 0.004790 -0.005296 0.020068 0.000000 0.000000 0.000000
# 4 0.000000 0.000000 0.000000 0.035011 0.000000 0.000000
# 5 0.000000 0.000000 0.000000 0.000000 0.060697 0.000000
# 6 0.000000 0.000000 0.000000 0.000000 0.000000 0.033660
#
#
# Mechanical properties :
#
#
# Convention : Reuss Voigt Hill
#
# Bulk Modulus (GPa) = 20.91883 28.07091 24.49487
# Shear Modulus (GPa) = 24.48814 27.58953 26.03884
#
# Velocity S-wave (km/s) = 3.25776 3.45791 3.35933
# Velocity P-wave (km/s) = 4.81838 5.30176 5.06584
#
# Compressibility (1/GPa) = 0.04780382
#
# Stress axis : x y z
#
# Youngs Moduli (GPa) = 45.07636 90.18517 49.83109
#
# Poissons Ratio (x) = 0.20398 -0.23868
# Poissons Ratio (y) = 0.10195 0.26393
# Poissons Ratio (z) = -0.21591 0.47766
#
# Static dielectric constant tensor:
#      x y z
#    x 1.918870 0.000000 0.000000 
#    y 0.000000 1.927090 0.000000 
#    z 0.000000 0.000000 1.888700 
# 
# From -- ./inp_files/3891.got.cif
#   From: 2010.05.17/outbox.cif.g08.bks.cpg/sg19_2_cif.got.tgz:3891.got - 2010.06.03 22:46:19.
