data_PCOD9313330
_publ_section_title
;
Structure prediction by ZEFSAII (Michael W. Deem and Ramdas Pophale) SiO2 
 PCOD9313330
Probable space group: P 21 21 21
;
_chemical_formula_sum "Si O2"
_cell_formula_units_Z 32
_cell_length_a 5.563386
_cell_length_b 9.012676
_cell_length_c 24.851993
_cell_angle_alpha 90.000000
_cell_angle_beta 90.000000
_cell_angle_gamma 90.000000
_cell_volume 1246.103669
_symmetry_space_group_name_H-M "P 21 21 21"
_symmetry_group_IT_number 19
_symmetry_cell_setting 'orthorhombic'
loop_
_space_group_symop_operation_xyz
x,y,z
1/2-x,-y,1/2+z
1/2+x,1/2-y,-z
-x,1/2+y,1/2-z
loop_
_atom_site_type_symbol
_atom_site_label
_atom_site_fract_x
_atom_site_fract_y
_atom_site_fract_z
Si Si1 0.107692 0.307966 0.077839
Si Si2 0.966658 0.767738 0.871644
Si Si3 0.200761 0.768888 0.334228
Si Si4 0.486155 0.513394 0.796570
Si Si5 0.520202 0.567903 0.403577
Si Si6 0.031204 0.292741 0.406751
Si Si7 0.841380 0.053595 0.013661
Si Si8 0.511646 0.351380 0.261162
O O1 0.258786 0.173784 0.103419
O O2 0.947607 0.374634 0.126111
O O3 0.960829 0.208576 0.033873
O O4 0.298212 0.415445 0.049007
O O5 0.956016 0.588763 0.876906
O O6 0.712566 0.802284 0.900225
O O7 0.982014 0.781611 0.806583
O O8 0.218441 0.799546 0.902167
O O9 0.034871 0.665142 0.297171
O O10 0.300416 0.650107 0.376428
O O11 0.431600 0.812419 0.300275
O O12 0.469543 0.604136 0.853004
O O13 0.743190 0.555310 0.772319
O O14 0.243822 0.568660 0.766839
O O15 0.432343 0.540496 0.463965
O O16 0.036156 0.408174 0.458109
#
# Coordination Sequence:
#
# PCOD9313330 Si02
#       8
#     4   4   4   4   4   4   4   4
#     4  11  18  27  40  66  94 130 174 193 231 298
#     4   9  15  29  43  61  82 114 159 195 232 271
#     4  11  22  32  49  69  97 137 174 207 248 298
#     4  10  19  35  49  68  95 126 172 206 249 290
#     4  10  17  28  44  59  91 127 163 196 238 283
#     4   9  15  27  44  57  84 120 152 188 231 269
#     4  10  17  24  39  62  87 125 167 188 223 285
#     4  10  21  32  50  70  90 129 173 209 244 292
#
# _framework density 25.680049
#
# number of rings (size 3 to 8) (size 9 to 14) (size 15 to 20)
#    0.000    2.000    7.500    0.750    1.750    0.000 
#    0.000    0.000    0.000    0.000    0.000    0.000 
#    0.000    0.000    0.000   33.750   18.250    0.000 
#
# Total GULP energy -178277.318607 kJ/mol
# GULP energy per Si atom -5571.166206 kJ/mol
# Density = 2.562160 g / cm^3
# Si number density = 25.680049 Si / 1000 Ang^3
#
#
#
# Elastic Constant Matrix: (Units=GPa)
#
#
# Indices 1 2 3 4 5 6 
#
# 1 160.8454 15.5772 32.8217 0.0000 0.0000 0.0000
# 2 15.5772 58.7025 -3.3735 0.0000 0.0000 0.0000
# 3 32.8217 -3.3735 113.0016 0.0000 0.0000 0.0000
# 4 0.0000 0.0000 0.0000 3.1793 0.0000 0.0000
# 5 0.0000 0.0000 0.0000 0.0000 25.7382 0.0000
# 6 0.0000 0.0000 0.0000 0.0000 0.0000 15.0206
#
#
#
# Elastic Compliance Matrix: (Units=1/GPa)
#
#
# Indices 1 2 3 4 5 6 
#
# 1 0.006820 -0.001927 -0.002038 0.000000 0.000000 0.000000
# 2 -0.001927 0.017609 0.001085 0.000000 0.000000 0.000000
# 3 -0.002038 0.001085 0.009474 0.000000 0.000000 0.000000
# 4 0.000000 0.000000 0.000000 0.314538 0.000000 0.000000
# 5 0.000000 0.000000 0.000000 0.000000 0.038853 0.000000
# 6 0.000000 0.000000 0.000000 0.000000 0.000000 0.066575
#
#
# Mechanical properties :
#
#
# Convention : Reuss Voigt Hill
#
# Bulk Modulus (GPa) = 35.53322 46.95559 41.24441
# Shear Modulus (GPa) = 10.66078 27.95590 19.30834
#
# Velocity S-wave (km/s) = 2.03971 3.30301 2.74502
# Velocity P-wave (km/s) = 4.40615 5.73333 5.11298
#
# Compressibility (1/GPa) = 0.02814268
#
# Stress axis : x y z
#
# Youngs Moduli (GPa) = 146.63433 56.79012 105.55343
#
# Poissons Ratio (x) = 0.10942 0.21515
# Poissons Ratio (y) = 0.28253 -0.11456
# Poissons Ratio (z) = 0.29889 -0.06164
#
# Static dielectric constant tensor:
#      x y z
#    x 2.141990 0.000000 0.000000 
#    y 0.000000 2.040960 0.000000 
#    z 0.000000 0.000000 2.335290 
# 
# From -- ./inp_files/1287.got.cif
#   From: 2010.05.17/outbox.cif.g08.bks.cpg/sg19_1_cif.got.tgz:1287.got - 2010.06.03 22:46:19.
