data_PCOD9313558
_publ_section_title
;
Structure prediction by ZEFSAII (Michael W. Deem and Ramdas Pophale) SiO2 
 PCOD9313558
Probable space group: P 21 21 21
;
_chemical_formula_sum "Si O2"
_cell_formula_units_Z 28
_cell_length_a 7.739824
_cell_length_b 24.030399
_cell_length_c 5.650845
_cell_angle_alpha 90.000000
_cell_angle_beta 90.000000
_cell_angle_gamma 90.000000
_cell_volume 1051.006645
_symmetry_space_group_name_H-M "P 21 21 21"
_symmetry_group_IT_number 19
_symmetry_cell_setting 'orthorhombic'
loop_
_space_group_symop_operation_xyz
x,y,z
1/2-x,-y,1/2+z
1/2+x,1/2-y,-z
-x,1/2+y,1/2-z
loop_
_atom_site_type_symbol
_atom_site_label
_atom_site_fract_x
_atom_site_fract_y
_atom_site_fract_z
Si Si1 0.555393 0.013132 0.292093
Si Si2 0.479957 0.195794 0.187629
Si Si3 0.279963 0.890216 0.492745
Si Si4 0.264276 0.125607 0.497904
Si Si5 0.727934 0.125016 0.385148
Si Si6 0.450392 0.324383 0.251365
Si Si7 0.948063 0.020584 0.288538
O O1 0.578859 0.077784 0.358001
O O2 0.755197 0.990206 0.266074
O O3 0.477153 0.003845 0.032610
O O4 0.476123 0.984686 0.524042
O O5 0.353518 0.163025 0.012014
O O6 0.410273 0.171413 0.439961
O O7 0.674558 0.171793 0.193824
O O8 0.457366 0.260874 0.175546
O O9 0.223540 0.911702 0.233946
O O10 0.468814 0.864406 0.445534
O O11 0.264044 0.911235 0.761343
O O12 0.097093 0.165031 0.545509
O O13 0.774007 0.154556 0.631296
O O14 0.885485 0.082791 0.342403
#
# Coordination Sequence:
#
# PCOD9313558 Si02
#       7
#     4   4   4   4   4   4   4
#     4   8  16  35  51  82 118 132 169 253 305 328
#     4  10  20  38  54  81 115 157 201 240 276 348
#     4   8  20  40  50  67 117 157 179 236 302 316
#     4   8  19  40  50  68 113 154 181 240 301 316
#     4  10  19  34  62  91 102 155 204 228 283 360
#     4  10  20  38  54  81 115 157 201 240 276 348
#     4   8  16  35  51  82 118 132 169 253 305 328
#
# _framework density 26.641124999999999
#
# number of rings (size 3 to 8) (size 9 to 14) (size 15 to 20)
#    2.571    0.571    0.000    0.857    0.000    1.143 
#   10.286    0.000    0.000    0.000    0.000   16.000 
#    0.000    0.000    0.000    0.000    0.000    0.000 
#
# Total GULP energy -155916.215998 kJ/mol
# GULP energy per Si atom -5568.436286 kJ/mol
# Density = 2.658049 g / cm^3
# Si number density = 26.641125 Si / 1000 Ang^3
#
#
#
# Elastic Constant Matrix: (Units=GPa)
#
#
# Indices 1 2 3 4 5 6 
#
# 1 72.8439 -5.1149 10.3744 0.0000 0.0000 0.0000
# 2 -5.1149 92.6948 39.3323 0.0000 0.0000 0.0000
# 3 10.3744 39.3323 220.8380 0.0000 0.0000 0.0000
# 4 0.0000 0.0000 0.0000 36.1264 0.0000 0.0000
# 5 0.0000 0.0000 0.0000 0.0000 42.9815 0.0000
# 6 0.0000 0.0000 0.0000 0.0000 0.0000 24.1797
#
#
#
# Elastic Compliance Matrix: (Units=1/GPa)
#
#
# Indices 1 2 3 4 5 6 
#
# 1 0.013929 0.001132 -0.000856 0.000000 0.000000 0.000000
# 2 0.001132 0.011762 -0.002148 0.000000 0.000000 0.000000
# 3 -0.000856 -0.002148 0.004951 0.000000 0.000000 0.000000
# 4 0.000000 0.000000 0.000000 0.027681 0.000000 0.000000
# 5 0.000000 0.000000 0.000000 0.000000 0.023266 0.000000
# 6 0.000000 0.000000 0.000000 0.000000 0.000000 0.041357
#
#
# Mechanical properties :
#
#
# Convention : Reuss Voigt Hill
#
# Bulk Modulus (GPa) = 37.17747 52.84004 45.00876
# Shear Modulus (GPa) = 36.85789 43.44317 40.15053
#
# Velocity S-wave (km/s) = 3.72357 4.04255 3.88634
# Velocity P-wave (km/s) = 5.69841 6.45497 6.08845
#
# Compressibility (1/GPa) = 0.02689801
#
# Stress axis : x y z
#
# Youngs Moduli (GPa) = 71.79085 85.01951 201.97972
#
# Poissons Ratio (x) = -0.09623 0.17288
# Poissons Ratio (y) = -0.08125 0.43386
# Poissons Ratio (z) = 0.06145 0.18263
#
# Static dielectric constant tensor:
#      x y z
#    x 2.371660 0.000000 0.000000 
#    y 0.000000 2.030730 0.000000 
#    z 0.000000 0.000000 2.113070 
# 
# From -- ./inp_files/630.got.cif
#   From: 2010.05.17/outbox.cif.g08.bks.cpg/sg19_1_cif.got.tgz:630.got - 2010.06.03 22:46:19.
