data_PCOD9313877
_publ_section_title
;
Structure prediction by ZEFSAII (Michael W. Deem and Ramdas Pophale) SiO2 
 PCOD9313877
Probable space group: P 21 21 21
;
_chemical_formula_sum "Si O2"
_cell_formula_units_Z 16
_cell_length_a 10.267750
_cell_length_b 7.236883
_cell_length_c 7.728396
_cell_angle_alpha 90.000000
_cell_angle_beta 90.000000
_cell_angle_gamma 90.000000
_cell_volume 574.270099
_symmetry_space_group_name_H-M "P 21 21 21"
_symmetry_group_IT_number 19
_symmetry_cell_setting 'orthorhombic'
loop_
_space_group_symop_operation_xyz
x,y,z
1/2-x,-y,1/2+z
1/2+x,1/2-y,-z
-x,1/2+y,1/2-z
loop_
_atom_site_type_symbol
_atom_site_label
_atom_site_fract_x
_atom_site_fract_y
_atom_site_fract_z
Si Si1 0.124842 0.527648 0.233050
Si Si2 0.177519 0.726142 0.580118
Si Si3 0.445918 0.140642 0.508815
Si Si4 0.574562 0.408740 0.289245
O O1 0.190943 0.640662 0.389689
O O2 0.192325 0.338165 0.175865
O O3 0.989898 0.469454 0.322389
O O4 0.118628 0.671158 0.075873
O O5 0.117670 0.930780 0.580167
O O6 0.065887 0.626867 0.697947
O O7 0.572526 0.223057 0.403671
O O8 0.363947 0.003687 0.385055
#
# Coordination Sequence:
#
# PCOD9313877 Si02
#       4
#     4   4   4   4
#     4  11  22  38  62  89 121 158 199 243 298 351
#     4  10  20  37  60  86 120 159 197 246 297 352
#     4  10  21  39  62  90 120 157 197 246 295 354
#     4   9  19  38  60  85 119 152 195 243 294 347
#
# _framework density 27.861456
#
# number of rings (size 3 to 8) (size 9 to 14) (size 15 to 20)
#    0.000    2.000    0.000    4.500    0.000    0.000 
#    0.000   27.500    0.000    0.000    0.000    0.000 
#    0.000    0.000    0.000    0.000    0.000    0.000 
#
# Total GULP energy -89135.847018 kJ/mol
# GULP energy per Si atom -5570.990439 kJ/mol
# Density = 2.779804 g / cm^3
# Si number density = 27.861456 Si / 1000 Ang^3
#
#
#
# Elastic Constant Matrix: (Units=GPa)
#
#
# Indices 1 2 3 4 5 6 
#
# 1 45.9177 31.6442 13.7208 0.0000 0.0000 0.0000
# 2 31.6442 117.8566 15.8392 0.0000 0.0000 0.0000
# 3 13.7208 15.8392 128.6255 0.0000 0.0000 0.0000
# 4 0.0000 0.0000 0.0000 48.8263 0.0000 0.0000
# 5 0.0000 0.0000 0.0000 0.0000 3.2969 0.0000
# 6 0.0000 0.0000 0.0000 0.0000 0.0000 26.2991
#
#
#
# Elastic Compliance Matrix: (Units=1/GPa)
#
#
# Indices 1 2 3 4 5 6 
#
# 1 0.027239 -0.007039 -0.002039 0.000000 0.000000 0.000000
# 2 -0.007039 0.010447 -0.000536 0.000000 0.000000 0.000000
# 3 -0.002039 -0.000536 0.008058 0.000000 0.000000 0.000000
# 4 0.000000 0.000000 0.000000 0.020481 0.000000 0.000000
# 5 0.000000 0.000000 0.000000 0.000000 0.303319 0.000000
# 6 0.000000 0.000000 0.000000 0.000000 0.000000 0.038024
#
#
# Mechanical properties :
#
#
# Convention : Reuss Voigt Hill
#
# Bulk Modulus (GPa) = 37.71325 46.08981 41.90153
# Shear Modulus (GPa) = 11.47753 31.09750 21.28751
#
# Velocity S-wave (km/s) = 2.03186 3.34450 2.76714
# Velocity P-wave (km/s) = 4.36692 5.61183 5.02805
#
# Compressibility (1/GPa) = 0.02651588
#
# Stress axis : x y z
#
# Youngs Moduli (GPa) = 36.71269 95.72178 124.10133
#
# Poissons Ratio (x) = 0.67383 0.25301
# Poissons Ratio (y) = 0.25844 0.06646
# Poissons Ratio (z) = 0.07485 0.05126
#
# Static dielectric constant tensor:
#      x y z
#    x 2.238330 0.000000 0.000000 
#    y 0.000000 2.245550 0.000000 
#    z 0.000000 0.000000 2.277710 
# 
# From -- ./inp_files/2544.got.cif
#   From: 2010.05.17/outbox.cif.g08.bks.cpg/sg19_2_cif.got.tgz:2544.got - 2010.06.03 22:46:19.
