data_PCOD9313607
_publ_section_title
;
Structure prediction by ZEFSAII (Michael W. Deem and Ramdas Pophale) SiO2 
 PCOD9313607
Probable space group: P 21 21 21
;
_chemical_formula_sum "Si O2"
_cell_formula_units_Z 28
_cell_length_a 7.789491
_cell_length_b 15.672676
_cell_length_c 8.664530
_cell_angle_alpha 90.000000
_cell_angle_beta 90.000000
_cell_angle_gamma 90.000000
_cell_volume 1057.784613
_symmetry_space_group_name_H-M "P 21 21 21"
_symmetry_group_IT_number 19
_symmetry_cell_setting 'orthorhombic'
loop_
_space_group_symop_operation_xyz
x,y,z
1/2-x,-y,1/2+z
1/2+x,1/2-y,-z
-x,1/2+y,1/2-z
loop_
_atom_site_type_symbol
_atom_site_label
_atom_site_fract_x
_atom_site_fract_y
_atom_site_fract_z
Si Si1 0.793322 0.422274 0.493757
Si Si2 0.358947 0.778479 0.158573
Si Si3 0.521622 0.931815 0.561326
Si Si4 0.588151 0.641521 0.293246
Si Si5 0.201533 0.501209 0.742559
Si Si6 0.555399 0.736295 0.602013
Si Si7 0.348588 0.662796 0.871412
O O1 0.840607 0.520585 0.468285
O O2 0.773185 0.397322 0.673425
O O3 0.972390 0.379323 0.433636
O O4 0.651775 0.377625 0.387595
O O5 0.528168 0.731199 0.214793
O O6 0.220425 0.758875 0.289001
O O7 0.301948 0.728582 0.004280
O O8 0.650067 0.967033 0.427697
O O9 0.512396 0.830887 0.545433
O O10 0.613219 0.957537 0.723103
O O11 0.437059 0.570608 0.285076
O O12 0.599696 0.670194 0.468560
O O13 0.216432 0.587190 0.842556
O O14 0.399553 0.704404 0.708851
#
# Coordination Sequence:
#
# PCOD9313607 Si02
#       7
#     4   4   4   4   4   4   4
#     4   8  19  36  54  78 115 153 201 235 297 370
#     4  10  20  38  54  78 120 162 191 248 305 359
#     4  10  20  35  56  89 117 152 198 254 297 358
#     4  10  20  35  57  90 117 148 206 254 300 358
#     4  10  19  36  60  88 118 154 203 253 303 346
#     4  11  22  35  58  94 122 149 203 259 305 352
#     4   9  20  35  59  85 113 158 198 243 309 365
#
# _framework density 26.470417000000001
#
# number of rings (size 3 to 8) (size 9 to 14) (size 15 to 20)
#    0.000    2.286    1.429    1.714    2.000    0.000 
#    0.000    1.429    0.000    0.000    0.000    0.000 
#    0.000    0.000    0.000    0.000    0.000    0.000 
#
# Total GULP energy -156825.168812 kJ/mol
# GULP energy per Si atom -5600.898886 kJ/mol
# Density = 2.641017 g / cm^3
# Si number density = 26.470417 Si / 1000 Ang^3
#
#
#
# Elastic Constant Matrix: (Units=GPa)
#
#
# Indices 1 2 3 4 5 6 
#
# 1 94.6441 42.1008 37.8628 0.0000 0.0000 0.0000
# 2 42.1008 156.3729 71.9550 0.0000 0.0000 0.0000
# 3 37.8628 71.9550 146.1147 0.0000 0.0000 0.0000
# 4 0.0000 0.0000 0.0000 44.7661 0.0000 0.0000
# 5 0.0000 0.0000 0.0000 0.0000 27.4497 0.0000
# 6 0.0000 0.0000 0.0000 0.0000 0.0000 27.9159
#
#
#
# Elastic Compliance Matrix: (Units=1/GPa)
#
#
# Indices 1 2 3 4 5 6 
#
# 1 0.012456 -0.002416 -0.002038 0.000000 0.000000 0.000000
# 2 -0.002416 0.008737 -0.003677 0.000000 0.000000 0.000000
# 3 -0.002038 -0.003677 0.009183 0.000000 0.000000 0.000000
# 4 0.000000 0.000000 0.000000 0.022338 0.000000 0.000000
# 5 0.000000 0.000000 0.000000 0.000000 0.036430 0.000000
# 6 0.000000 0.000000 0.000000 0.000000 0.000000 0.035822
#
#
# Mechanical properties :
#
#
# Convention : Reuss Voigt Hill
#
# Bulk Modulus (GPa) = 70.84781 77.88542 74.36662
# Shear Modulus (GPa) = 34.26252 36.37387 35.31820
#
# Velocity S-wave (km/s) = 3.60164 3.71095 3.65670
# Velocity P-wave (km/s) = 6.64219 6.91730 6.78114
#
# Compressibility (1/GPa) = 0.01411476
#
# Stress axis : x y z
#
# Youngs Moduli (GPa) = 80.28377 114.45329 108.90077
#
# Poissons Ratio (x) = 0.27649 0.22195
# Poissons Ratio (y) = 0.19394 0.40039
# Poissons Ratio (z) = 0.16362 0.42081
#
# Static dielectric constant tensor:
#      x y z
#    x 2.126750 0.000000 0.000000 
#    y 0.000000 2.066320 0.000000 
#    z 0.000000 0.000000 2.053460 
# 
# From -- ./inp_files/3558.got.cif
#   From: 2010.05.17/outbox.cif.g08.bks.cpg/sg19_2_cif.got.tgz:3558.got - 2010.06.03 22:46:19.
