data_PCOD9313985
_publ_section_title
;
Structure prediction by ZEFSAII (Michael W. Deem and Ramdas Pophale) SiO2 
 PCOD9313985
Probable space group: P 21 21 21
;
_chemical_formula_sum "Si O2"
_cell_formula_units_Z 32
_cell_length_a 20.457117
_cell_length_b 10.889530
_cell_length_c 6.887512
_cell_angle_alpha 90.000000
_cell_angle_beta 90.000000
_cell_angle_gamma 90.000000
_cell_volume 1534.319954
_symmetry_space_group_name_H-M "P 21 21 21"
_symmetry_group_IT_number 19
_symmetry_cell_setting 'orthorhombic'
loop_
_space_group_symop_operation_xyz
x,y,z
1/2-x,-y,1/2+z
1/2+x,1/2-y,-z
-x,1/2+y,1/2-z
loop_
_atom_site_type_symbol
_atom_site_label
_atom_site_fract_x
_atom_site_fract_y
_atom_site_fract_z
Si Si1 0.424881 0.237290 0.106754
Si Si2 0.685325 0.750650 0.710000
Si Si3 0.527632 0.996834 0.541324
Si Si4 0.714205 0.241424 0.864649
Si Si5 0.561733 0.150557 0.193002
Si Si6 0.612381 0.403326 0.045118
Si Si7 0.367619 0.506469 0.630489
Si Si8 0.826126 0.357247 0.607694
O O1 0.372153 0.213312 0.938828
O O2 0.445693 0.377266 0.072931
O O3 0.489930 0.155816 0.094314
O O4 0.389676 0.215772 0.312519
O O5 0.748838 0.768144 0.574113
O O6 0.665913 0.875979 0.824835
O O7 0.688265 0.651863 0.880203
O O8 0.548529 0.111713 0.411824
O O9 0.566384 0.005138 0.741375
O O10 0.450024 0.974995 0.542271
O O11 0.654927 0.336224 0.882855
O O12 0.684144 0.110854 0.805403
O O13 0.766392 0.295891 0.717992
O O14 0.588958 0.288457 0.174547
O O15 0.608927 0.055052 0.080769
O O16 0.657072 0.501924 0.154982
#
# Coordination Sequence:
#
# PCOD9313985 Si02
#       8
#     4   4   4   4   4   4   4   4
#     4   9  20  38  61  96 122 156 213 261 307 384
#     4  10  23  40  65  88 124 165 211 260 314 378
#     4  10  20  41  67  90 126 162 204 268 328 375
#     4  10  25  43  60  96 127 161 221 265 303 385
#     4  10  20  39  63  92 130 158 205 267 313 376
#     4  10  23  41  60  94 128 161 217 254 310 393
#     4  10  23  41  63  97 122 160 214 270 318 375
#     4  11  22  41  65  87 125 177 203 253 323 374
#
# _framework density 20.856145999999999
#
# number of rings (size 3 to 8) (size 9 to 14) (size 15 to 20)
#    0.000    2.000    1.250    0.750    5.250    2.000 
#    2.250    2.500    0.000    0.000    0.000    0.000 
#    0.000    0.000    0.000    0.000    0.000    0.000 
#
# Total GULP energy -178519.084116 kJ/mol
# GULP energy per Si atom -5578.721379 kJ/mol
# Density = 2.080868 g / cm^3
# Si number density = 20.856146 Si / 1000 Ang^3
#
#
#
# Elastic Constant Matrix: (Units=GPa)
#
#
# Indices 1 2 3 4 5 6 
#
# 1 55.3732 11.5943 4.9412 0.0000 0.0000 0.0000
# 2 11.5943 35.3223 14.7643 0.0000 0.0000 0.0000
# 3 4.9412 14.7643 33.6659 0.0000 0.0000 0.0000
# 4 0.0000 0.0000 0.0000 10.5745 0.0000 0.0000
# 5 0.0000 0.0000 0.0000 0.0000 16.6425 0.0000
# 6 0.0000 0.0000 0.0000 0.0000 0.0000 26.8486
#
#
#
# Elastic Compliance Matrix: (Units=1/GPa)
#
#
# Indices 1 2 3 4 5 6 
#
# 1 0.019392 -0.006337 -0.000067 0.000000 0.000000 0.000000
# 2 -0.006337 0.036736 -0.015181 0.000000 0.000000 0.000000
# 3 -0.000067 -0.015181 0.036371 0.000000 0.000000 0.000000
# 4 0.000000 0.000000 0.000000 0.094567 0.000000 0.000000
# 5 0.000000 0.000000 0.000000 0.000000 0.060087 0.000000
# 6 0.000000 0.000000 0.000000 0.000000 0.000000 0.037246
#
#
# Mechanical properties :
#
#
# Convention : Reuss Voigt Hill
#
# Bulk Modulus (GPa) = 20.27186 20.77345 20.52265
# Shear Modulus (GPa) = 14.53433 17.01721 15.77577
#
# Velocity S-wave (km/s) = 2.64272 2.85955 2.75327
# Velocity P-wave (km/s) = 4.36496 4.56998 4.46865
#
# Compressibility (1/GPa) = 0.04932947
#
# Stress axis : x y z
#
# Youngs Moduli (GPa) = 51.56716 27.22100 27.49443
#
# Poissons Ratio (x) = 0.17251 0.00184
# Poissons Ratio (y) = 0.32680 0.41739
# Poissons Ratio (z) = 0.00345 0.41323
#
# Static dielectric constant tensor:
#      x y z
#    x 1.771410 0.000000 0.000000 
#    y 0.000000 1.771500 0.000000 
#    z 0.000000 0.000000 1.744530 
# 
# From -- ./inp_files/2038.got.cif
#   From: 2010.05.17/outbox.cif.g08.bks.cpg/sg19_2_cif.got.tgz:2038.got - 2010.06.03 22:46:19.
