data_PCOD9313617
_publ_section_title
;
Structure prediction by ZEFSAII (Michael W. Deem and Ramdas Pophale) SiO2 
 PCOD9313617
Probable space group: P 21 21 21
;
_chemical_formula_sum "Si O2"
_cell_formula_units_Z 32
_cell_length_a 7.953934
_cell_length_b 12.397807
_cell_length_c 12.153550
_cell_angle_alpha 90.000000
_cell_angle_beta 90.000000
_cell_angle_gamma 90.000000
_cell_volume 1198.477835
_symmetry_space_group_name_H-M "P 21 21 21"
_symmetry_group_IT_number 19
_symmetry_cell_setting 'orthorhombic'
loop_
_space_group_symop_operation_xyz
x,y,z
1/2-x,-y,1/2+z
1/2+x,1/2-y,-z
-x,1/2+y,1/2-z
loop_
_atom_site_type_symbol
_atom_site_label
_atom_site_fract_x
_atom_site_fract_y
_atom_site_fract_z
Si Si1 0.180033 0.441439 0.632509
Si Si2 0.008821 0.168000 0.626464
Si Si3 0.749925 0.817519 0.640201
Si Si4 0.448868 0.904484 0.887547
Si Si5 0.888887 0.296005 0.823829
Si Si6 0.447993 0.706440 0.713258
Si Si7 0.338171 0.553204 0.897428
Si Si8 0.155130 0.017537 0.774740
O O1 0.209743 0.363630 0.736255
O O2 0.375086 0.470869 0.609051
O O3 0.121956 0.394530 0.515168
O O4 0.026964 0.517876 0.665978
O O5 0.067350 0.159859 0.501746
O O6 0.924284 0.265510 0.693700
O O7 0.854030 0.083580 0.628539
O O8 0.157905 0.125931 0.704339
O O9 0.612574 0.723780 0.640332
O O10 0.939156 0.783230 0.607714
O O11 0.662988 0.924356 0.588919
O O12 0.451535 0.812499 0.793554
O O13 0.297142 0.983900 0.859884
O O14 0.727684 0.223270 0.852157
O O15 0.845258 0.422071 0.817045
O O16 0.440929 0.605295 0.797174
#
# Coordination Sequence:
#
# PCOD9313617 Si02
#       8
#     4   4   4   4   4   4   4   4
#     4   9  19  35  56  81 116 150 190 236 286 355
#     4  10  19  36  62  85 118 161 189 241 309 343
#     4  10  19  38  55  84 119 150 189 242 293 351
#     4   9  20  35  55  89 118 142 197 246 289 349
#     4   9  19  35  56  81 116 150 190 236 286 355
#     4   9  20  35  55  89 118 142 197 246 289 349
#     4  10  19  36  62  85 118 161 189 241 309 343
#     4  10  19  38  55  84 119 150 189 242 293 351
#
# _framework density 26.700533
#
# number of rings (size 3 to 8) (size 9 to 14) (size 15 to 20)
#    0.000    2.500    2.500    0.000    3.500    1.000 
#   13.500    0.000    0.000    3.000    0.000    0.000 
#    0.000    0.000    0.000    0.000    0.000    0.000 
#
# Total GULP energy -178661.031641 kJ/mol
# GULP energy per Si atom -5583.157239 kJ/mol
# Density = 2.663976 g / cm^3
# Si number density = 26.700533 Si / 1000 Ang^3
#
#
#
# Elastic Constant Matrix: (Units=GPa)
#
#
# Indices 1 2 3 4 5 6 
#
# 1 140.8759 2.9643 15.4627 0.0000 0.0000 0.0000
# 2 2.9643 65.7583 11.0224 0.0000 0.0000 0.0000
# 3 15.4627 11.0224 49.9548 0.0000 0.0000 0.0000
# 4 0.0000 0.0000 0.0000 5.0455 0.0000 0.0000
# 5 0.0000 0.0000 0.0000 0.0000 26.8293 0.0000
# 6 0.0000 0.0000 0.0000 0.0000 0.0000 31.9990
#
#
#
# Elastic Compliance Matrix: (Units=1/GPa)
#
#
# Indices 1 2 3 4 5 6 
#
# 1 0.007348 0.000052 -0.002286 0.000000 0.000000 0.000000
# 2 0.000052 0.015792 -0.003500 0.000000 0.000000 0.000000
# 3 -0.002286 -0.003500 0.021498 0.000000 0.000000 0.000000
# 4 0.000000 0.000000 0.000000 0.198195 0.000000 0.000000
# 5 0.000000 0.000000 0.000000 0.000000 0.037273 0.000000
# 6 0.000000 0.000000 0.000000 0.000000 0.000000 0.031251
#
#
# Mechanical properties :
#
#
# Convention : Reuss Voigt Hill
#
# Bulk Modulus (GPa) = 30.14872 35.05420 32.60146
# Shear Modulus (GPa) = 14.97537 27.91742 21.44639
#
# Velocity S-wave (km/s) = 2.37083 3.23704 2.83719
# Velocity P-wave (km/s) = 4.33709 5.20849 4.79264
#
# Compressibility (1/GPa) = 0.03316890
#
# Stress axis : x y z
#
# Youngs Moduli (GPa) = 136.08645 63.32477 46.51578
#
# Poissons Ratio (x) = -0.00329 0.10634
# Poissons Ratio (y) = -0.00707 0.16283
# Poissons Ratio (z) = 0.31109 0.22167
#
# Static dielectric constant tensor:
#      x y z
#    x 2.190540 0.000000 0.000000 
#    y 0.000000 2.236100 0.000000 
#    z 0.000000 0.000000 2.098340 
# 
# From -- ./inp_files/6010.got.cif
#   From: 2010.05.17/outbox.cif.g08.bks.cpg/sg19_4_cif.got.tgz:6010.got - 2010.06.03 22:46:19.
