data_PCOD9313067
_publ_section_title
;
Structure prediction by ZEFSAII (Michael W. Deem and Ramdas Pophale) SiO2 
 PCOD9313067
Probable space group: P 21 21 2
;
_chemical_formula_sum "Si O2"
_cell_formula_units_Z 24
_cell_length_a 5.621130
_cell_length_b 13.615585
_cell_length_c 15.582223
_cell_angle_alpha 90.000000
_cell_angle_beta 90.000000
_cell_angle_gamma 90.000000
_cell_volume 1192.585021
_symmetry_space_group_name_H-M "P 21 21 2"
_symmetry_group_IT_number 18
_symmetry_cell_setting 'orthorhombic'
loop_
_space_group_symop_operation_xyz
x,y,z
-x,-y,z
1/2+x,1/2-y,-z
1/2-x,1/2+y,-z
loop_
_atom_site_type_symbol
_atom_site_label
_atom_site_fract_x
_atom_site_fract_y
_atom_site_fract_z
Si Si1 0.362222 0.101060 0.991339
Si Si2 0.949517 0.207385 0.463539
Si Si3 0.000000 0.500000 0.344895
Si Si4 0.360198 0.744672 0.894157
Si Si5 0.462792 0.610183 0.177233
Si Si6 0.000000 0.000000 0.549402
Si Si7 0.100387 0.707507 0.277510
O O1 0.209205 0.137763 0.071619
O O2 0.500000 0.000000 0.006231
O O3 0.520883 0.197536 0.973354
O O4 0.221170 0.091459 0.901643
O O5 0.695481 0.243275 0.502429
O O6 0.934766 0.231226 0.362738
O O7 0.974567 0.095324 0.490632
O O8 0.752517 0.490990 0.398659
O O9 0.022782 0.399702 0.290104
O O10 0.518390 0.738834 0.808831
O O11 0.162520 0.823301 0.865219
O O12 0.500000 0.500000 0.209460
O O13 0.367837 0.674661 0.256146
#
# Coordination Sequence:
#
# PCOD9313067 Si02
#       7
#     4   4   2   4   4   2   4
#     4  11  22  40  64  94 126 181 225 264 341 404
#     4  12  25  46  72 101 140 185 224 279 351 415
#     4  12  24  42  74 104 136 170 238 292 348 398
#     4  11  23  40  62  95 134 171 221 283 337 400
#     4  11  22  38  66  96 133 167 223 290 333 394
#     4  12  24  46  72 104 132 186 232 276 342 428
#     4  11  26  39  65 103 131 174 222 286 345 397
#
# _framework density 20.124351999999998
#
# number of rings (size 3 to 8) (size 9 to 14) (size 15 to 20)
#    0.000    0.667    6.667    1.000    8.167    0.000 
#    0.000    1.667    0.000    0.000    0.000    0.000 
#    0.000    0.000    0.000    0.000    0.000    0.000 
#
# Total GULP energy -133895.642723 kJ/mol
# GULP energy per Si atom -5578.985113 kJ/mol
# Density = 2.007855 g / cm^3
# Si number density = 20.124352 Si / 1000 Ang^3
#
#
#
# Elastic Constant Matrix: (Units=GPa)
#
#
# Indices 1 2 3 4 5 6 
#
# 1 74.0629 23.9814 24.0549 0.0000 0.0000 0.0000
# 2 23.9814 84.2638 48.3809 0.0000 0.0000 0.0000
# 3 24.0549 48.3809 105.1329 0.0000 0.0000 0.0000
# 4 0.0000 0.0000 0.0000 39.6357 0.0000 0.0000
# 5 0.0000 0.0000 0.0000 0.0000 15.6456 0.0000
# 6 0.0000 0.0000 0.0000 0.0000 0.0000 29.3129
#
#
#
# Elastic Compliance Matrix: (Units=1/GPa)
#
#
# Indices 1 2 3 4 5 6 
#
# 1 0.015181 -0.003162 -0.002019 0.000000 0.000000 0.000000
# 2 -0.003162 0.016788 -0.007002 0.000000 0.000000 0.000000
# 3 -0.002019 -0.007002 0.013196 0.000000 0.000000 0.000000
# 4 0.000000 0.000000 0.000000 0.025230 0.000000 0.000000
# 5 0.000000 0.000000 0.000000 0.000000 0.063916 0.000000
# 6 0.000000 0.000000 0.000000 0.000000 0.000000 0.034115
#
#
# Mechanical properties :
#
#
# Convention : Reuss Voigt Hill
#
# Bulk Modulus (GPa) = 48.07625 50.69934 49.38780
# Shear Modulus (GPa) = 25.03467 28.05499 26.54483
#
# Velocity S-wave (km/s) = 3.53086 3.73779 3.63580
# Velocity P-wave (km/s) = 6.36900 6.62388 6.49769
#
# Compressibility (1/GPa) = 0.02080029
#
# Stress axis : x y z
#
# Youngs Moduli (GPa) = 65.87015 59.56779 75.78102
#
# Poissons Ratio (x) = 0.18833 0.15297
# Poissons Ratio (y) = 0.20825 0.53062
# Poissons Ratio (z) = 0.13297 0.41710
#
# Static dielectric constant tensor:
#      x y z
#    x 1.960380 0.000000 0.000000 
#    y 0.000000 1.677230 0.000000 
#    z 0.000000 0.000000 1.699880 
# 
# From -- ./inp_files/6497.got.cif
#   From: 2010.05.17/outbox.cif.g08.bks.cpg/sg18_4_cif.got.tgz:6497.got - 2010.06.03 22:40:56.
