data_PCOD9313243
_publ_section_title
;
Structure prediction by ZEFSAII (Michael W. Deem and Ramdas Pophale) SiO2 
 PCOD9313243
Probable space group: P 21 21 2
;
_chemical_formula_sum "Si O2"
_cell_formula_units_Z 20
_cell_length_a 13.196236
_cell_length_b 12.044134
_cell_length_c 4.738560
_cell_angle_alpha 90.000000
_cell_angle_beta 90.000000
_cell_angle_gamma 90.000000
_cell_volume 753.133623
_symmetry_space_group_name_H-M "P 21 21 2"
_symmetry_group_IT_number 18
_symmetry_cell_setting 'orthorhombic'
loop_
_space_group_symop_operation_xyz
x,y,z
-x,-y,z
1/2+x,1/2-y,-z
1/2-x,1/2+y,-z
loop_
_atom_site_type_symbol
_atom_site_label
_atom_site_fract_x
_atom_site_fract_y
_atom_site_fract_z
Si Si1 0.493849 0.215725 0.957467
Si Si2 0.074156 0.404820 0.517554
Si Si3 0.277957 0.228213 0.707373
Si Si4 0.913251 0.924085 0.732104
Si Si5 0.726925 0.616795 0.209449
O O1 0.550038 0.205382 0.660488
O O2 0.377413 0.189780 0.877147
O O3 0.537151 0.124276 0.171149
O O4 0.523781 0.335128 0.084563
O O5 0.185248 0.435015 0.407286
O O6 0.000000 0.500000 0.415369
O O7 0.185740 0.146700 0.626438
O O8 0.316675 0.291523 0.428137
O O9 0.235694 0.317847 0.934249
O O10 0.849808 0.021852 0.887814
O O11 0.000000 0.000000 0.572299
#
# Coordination Sequence:
#
# PCOD9313243 Si02
#       5
#     4   4   4   4   4
#     4  12  26  50  78 113 159 210 267 330 396 480
#     4  12  25  49  79 112 154 210 261 325 405 472
#     4  12  27  50  76 114 162 201 263 338 390 480
#     4  12  27  52  81 120 157 220 267 334 404 489
#     4  12  26  48  76 112 157 206 261 328 403 467
#
# _framework density 26.555713000000001
#
# number of rings (size 3 to 8) (size 9 to 14) (size 15 to 20)
#    0.000    0.000    6.000    3.000    0.000    4.800 
#    0.000    0.000    0.000    0.000    0.000    0.000 
#    0.000    0.000    0.000    0.000    0.000    0.000 
#
# Total GULP energy -111571.034511 kJ/mol
# GULP energy per Si atom -5578.551726 kJ/mol
# Density = 2.649527 g / cm^3
# Si number density = 26.555713 Si / 1000 Ang^3
#
#
#
# Elastic Constant Matrix: (Units=GPa)
#
#
# Indices 1 2 3 4 5 6 
#
# 1 161.8144 66.3491 11.1956 0.0000 0.0000 0.0000
# 2 66.3491 116.2084 29.8889 0.0000 0.0000 0.0000
# 3 11.1956 29.8889 111.7289 0.0000 0.0000 0.0000
# 4 0.0000 0.0000 0.0000 9.9282 0.0000 0.0000
# 5 0.0000 0.0000 0.0000 0.0000 33.6532 0.0000
# 6 0.0000 0.0000 0.0000 0.0000 0.0000 69.5094
#
#
#
# Elastic Compliance Matrix: (Units=1/GPa)
#
#
# Indices 1 2 3 4 5 6 
#
# 1 0.008091 -0.004737 0.000456 0.000000 0.000000 0.000000
# 2 -0.004737 0.012014 -0.002739 0.000000 0.000000 0.000000
# 3 0.000456 -0.002739 0.009637 0.000000 0.000000 0.000000
# 4 0.000000 0.000000 0.000000 0.100723 0.000000 0.000000
# 5 0.000000 0.000000 0.000000 0.000000 0.029715 0.000000
# 6 0.000000 0.000000 0.000000 0.000000 0.000000 0.014387
#
#
# Mechanical properties :
#
#
# Convention : Reuss Voigt Hill
#
# Bulk Modulus (GPa) = 63.68257 67.17987 65.43122
# Shear Modulus (GPa) = 25.79448 41.43936 33.61692
#
# Velocity S-wave (km/s) = 3.12000 3.95456 3.56181
# Velocity P-wave (km/s) = 6.08375 6.79736 6.45043
#
# Compressibility (1/GPa) = 0.01570288
#
# Stress axis : x y z
#
# Youngs Moduli (GPa) = 123.60130 83.23491 103.76344
#
# Poissons Ratio (x) = 0.39426 -0.04736
# Poissons Ratio (y) = 0.58546 0.28424
# Poissons Ratio (z) = -0.05641 0.22801
#
# Static dielectric constant tensor:
#      x y z
#    x 2.201270 0.000000 0.000000 
#    y 0.000000 2.272240 0.000000 
#    z 0.000000 0.000000 2.041610 
# 
# From -- ./inp_files/1447.got.cif
#   From: 2010.05.17/outbox.cif.g08.bks.cpg/sg18_1_cif.got.tgz:1447.got - 2010.06.03 22:40:56.
