data_PCOD9313828
_publ_section_title
;
Structure prediction by ZEFSAII (Michael W. Deem and Ramdas Pophale) SiO2 
 PCOD9313828
Probable space group: P 21 21 21
;
_chemical_formula_sum "Si O2"
_cell_formula_units_Z 32
_cell_length_a 26.008698
_cell_length_b 8.080504
_cell_length_c 5.600634
_cell_angle_alpha 90.000000
_cell_angle_beta 90.000000
_cell_angle_gamma 90.000000
_cell_volume 1177.048218
_symmetry_space_group_name_H-M "P 21 21 21"
_symmetry_group_IT_number 19
_symmetry_cell_setting 'orthorhombic'
loop_
_space_group_symop_operation_xyz
x,y,z
1/2-x,-y,1/2+z
1/2+x,1/2-y,-z
-x,1/2+y,1/2-z
loop_
_atom_site_type_symbol
_atom_site_label
_atom_site_fract_x
_atom_site_fract_y
_atom_site_fract_z
Si Si1 0.743685 0.725263 0.440751
Si Si2 0.605398 0.578902 0.613574
Si Si3 0.402860 0.269352 0.395096
Si Si4 0.844251 0.744211 0.962658
Si Si5 0.227504 0.842183 0.075815
Si Si6 0.994454 0.532444 0.897924
Si Si7 0.347496 0.576408 0.632084
Si Si8 0.931569 0.724254 0.567370
O O1 0.706980 0.729235 0.672738
O O2 0.770166 0.541075 0.440933
O O3 0.790906 0.855696 0.433653
O O4 0.713937 0.725095 0.186594
O O5 0.603228 0.699155 0.376411
O O6 0.647764 0.439894 0.571610
O O7 0.549925 0.483809 0.595246
O O8 0.610214 0.646436 0.883891
O O9 0.462275 0.327695 0.429417
O O10 0.369764 0.431337 0.473984
O O11 0.843904 0.926928 0.082725
O O12 0.785624 0.722056 0.887016
O O13 0.889043 0.744656 0.772926
O O14 0.026300 0.365890 0.913738
O O15 0.964015 0.564690 0.649618
O O16 0.392551 0.720963 0.640312
#
# Coordination Sequence:
#
# PCOD9313828 Si02
#       8
#     4   4   4   4   4   4   4   4
#     4   9  17  31  54  87 118 143 184 244 298 343
#     4  11  26  42  59  85 120 160 199 249 301 353
#     4  11  26  42  59  85 120 160 199 249 301 353
#     4  10  22  36  62  87 115 156 199 246 292 361
#     4   9  17  31  54  87 118 143 184 244 298 343
#     4  10  22  38  60  78 116 152 200 242 288 344
#     4  10  22  36  62  87 115 156 199 246 292 361
#     4  10  20  36  54  84 114 148 198 234 294 336
#
# _framework density 27.186651999999999
#
# number of rings (size 3 to 8) (size 9 to 14) (size 15 to 20)
#    0.000    2.000    2.500    0.000    7.000    5.000 
#    0.000    0.000    0.000    1.500    0.000    0.000 
#    0.000    0.000    0.000    0.000    0.000    0.000 
#
# Total GULP energy -178449.203399 kJ/mol
# GULP energy per Si atom -5576.537606 kJ/mol
# Density = 2.712477 g / cm^3
# Si number density = 27.186652 Si / 1000 Ang^3
#
#
#
# Elastic Constant Matrix: (Units=GPa)
#
#
# Indices 1 2 3 4 5 6 
#
# 1 80.7897 11.7058 3.1981 0.0000 0.0000 0.0000
# 2 11.7058 75.1928 26.0008 0.0000 0.0000 0.0000
# 3 3.1981 26.0008 133.2037 0.0000 0.0000 0.0000
# 4 0.0000 0.0000 0.0000 47.2311 0.0000 0.0000
# 5 0.0000 0.0000 0.0000 0.0000 62.5868 0.0000
# 6 0.0000 0.0000 0.0000 0.0000 0.0000 83.0802
#
#
#
# Elastic Compliance Matrix: (Units=1/GPa)
#
#
# Indices 1 2 3 4 5 6 
#
# 1 0.012664 -0.002002 0.000087 0.000000 0.000000 0.000000
# 2 -0.002002 0.014578 -0.002798 0.000000 0.000000 0.000000
# 3 0.000087 -0.002798 0.008051 0.000000 0.000000 0.000000
# 4 0.000000 0.000000 0.000000 0.021173 0.000000 0.000000
# 5 0.000000 0.000000 0.000000 0.000000 0.015978 0.000000
# 6 0.000000 0.000000 0.000000 0.000000 0.000000 0.012037
#
#
# Mechanical properties :
#
#
# Convention : Reuss Voigt Hill
#
# Bulk Modulus (GPa) = 38.65640 41.22174 39.93907
# Shear Modulus (GPa) = 48.76694 55.13171 51.94933
#
# Velocity S-wave (km/s) = 4.23990 4.50810 4.37606
# Velocity P-wave (km/s) = 6.18213 6.50329 6.34474
#
# Compressibility (1/GPa) = 0.02586894
#
# Stress axis : x y z
#
# Youngs Moduli (GPa) = 78.96154 68.59604 124.20380
#
# Poissons Ratio (x) = 0.13730 -0.01076
# Poissons Ratio (y) = 0.15804 0.34746
# Poissons Ratio (z) = -0.00684 0.19190
#
# Static dielectric constant tensor:
#      x y z
#    x 2.032450 0.000000 0.000000 
#    y 0.000000 2.171180 0.000000 
#    z 0.000000 0.000000 1.941120 
# 
# From -- ./inp_files/2337.got.cif
#   From: 2010.05.17/outbox.cif.g08.bks.cpg/sg19_2_cif.got.tgz:2337.got - 2010.06.03 22:46:19.
