data_PCOD9313333
_publ_section_title
;
Structure prediction by ZEFSAII (Michael W. Deem and Ramdas Pophale) SiO2 
 PCOD9313333
Probable space group: P 21 21 21
;
_chemical_formula_sum "Si O2"
_cell_formula_units_Z 28
_cell_length_a 22.290301
_cell_length_b 8.439826
_cell_length_c 5.333321
_cell_angle_alpha 90.000000
_cell_angle_beta 90.000000
_cell_angle_gamma 90.000000
_cell_volume 1003.337743
_symmetry_space_group_name_H-M "P 21 21 21"
_symmetry_group_IT_number 19
_symmetry_cell_setting 'orthorhombic'
loop_
_space_group_symop_operation_xyz
x,y,z
1/2-x,-y,1/2+z
1/2+x,1/2-y,-z
-x,1/2+y,1/2-z
loop_
_atom_site_type_symbol
_atom_site_label
_atom_site_fract_x
_atom_site_fract_y
_atom_site_fract_z
Si Si1 0.991600 0.012614 0.702401
Si Si2 0.113875 0.002586 0.380731
Si Si3 0.047785 0.802052 0.069249
Si Si4 0.570677 0.198489 0.861782
Si Si5 0.162671 0.470777 0.439822
Si Si6 0.261875 0.281806 0.175937
Si Si7 0.289036 0.833932 0.167333
O O1 0.946223 0.870299 0.630993
O O2 0.050676 0.011403 0.526044
O O3 0.954752 0.171643 0.648073
O O4 0.022706 0.967270 0.958831
O O5 0.115160 0.156621 0.196680
O O6 0.166198 0.026371 0.582032
O O7 0.108406 0.846228 0.211415
O O8 0.994441 0.757440 0.255595
O O9 0.600439 0.052892 0.705102
O O10 0.178412 0.630716 0.583491
O O11 0.171146 0.325692 0.633368
O O12 0.214874 0.428268 0.234480
O O13 0.237781 0.179011 0.942392
O O14 0.258697 0.188123 0.438739
#
# Coordination Sequence:
#
# PCOD9313333 Si02
#       7
#     4   4   4   4   4   4   4
#     4  10  20  33  52  75 108 145 183 230 279 341
#     4   9  19  33  52  74 103 142 181 234 272 336
#     4  10  20  34  51  77 108 143 193 223 288 333
#     4   9  19  34  50  78 107 144 175 230 281 338
#     4   9  17  29  48  73 113 140 178 225 284 332
#     4  10  17  29  46  77 110 140 180 221 282 334
#     4   9  18  28  47  74 107 136 174 223 278 326
#
# _framework density 27.906853999999999
#
# number of rings (size 3 to 8) (size 9 to 14) (size 15 to 20)
#    0.857    1.714    1.429    0.857    2.000    4.571 
#    0.000    0.000    0.000    0.000    0.000    2.000 
#    0.000    0.000    0.000    0.000    0.000    0.000 
#
# Total GULP energy -156519.930037 kJ/mol
# GULP energy per Si atom -5589.997501 kJ/mol
# Density = 2.784334 g / cm^3
# Si number density = 27.906854 Si / 1000 Ang^3
#
#
#
# Elastic Constant Matrix: (Units=GPa)
#
#
# Indices 1 2 3 4 5 6 
#
# 1 110.6812 18.3899 42.4588 0.0000 0.0000 0.0000
# 2 18.3899 75.4546 35.2620 0.0000 0.0000 0.0000
# 3 42.4588 35.2620 110.6167 0.0000 0.0000 0.0000
# 4 0.0000 0.0000 0.0000 27.2391 0.0000 0.0000
# 5 0.0000 0.0000 0.0000 0.0000 52.8907 0.0000
# 6 0.0000 0.0000 0.0000 0.0000 0.0000 38.9816
#
#
#
# Elastic Compliance Matrix: (Units=1/GPa)
#
#
# Indices 1 2 3 4 5 6 
#
# 1 0.010636 -0.000804 -0.003826 0.000000 0.000000 0.000000
# 2 -0.000804 0.015634 -0.004675 0.000000 0.000000 0.000000
# 3 -0.003826 -0.004675 0.011999 0.000000 0.000000 0.000000
# 4 0.000000 0.000000 0.000000 0.036712 0.000000 0.000000
# 5 0.000000 0.000000 0.000000 0.000000 0.018907 0.000000
# 6 0.000000 0.000000 0.000000 0.000000 0.000000 0.025653
#
#
# Mechanical properties :
#
#
# Convention : Reuss Voigt Hill
#
# Bulk Modulus (GPa) = 50.86890 54.33044 52.59967
# Shear Modulus (GPa) = 34.55304 37.19840 35.87572
#
# Velocity S-wave (km/s) = 3.52256 3.65492 3.58935
# Velocity P-wave (km/s) = 5.90019 6.10917 6.00559
#
# Compressibility (1/GPa) = 0.01965838
#
# Stress axis : x y z
#
# Youngs Moduli (GPa) = 94.01691 63.96418 83.33906
#
# Poissons Ratio (x) = 0.05144 0.31888
# Poissons Ratio (y) = 0.07561 0.38961
# Poissons Ratio (z) = 0.35974 0.29903
#
# Static dielectric constant tensor:
#      x y z
#    x 2.102120 0.000000 0.000000 
#    y 0.000000 2.273180 0.000000 
#    z 0.000000 0.000000 2.149410 
# 
# From -- ./inp_files/2297.got.cif
#   From: 2010.05.17/outbox.cif.g08.bks.cpg/sg19_2_cif.got.tgz:2297.got - 2010.06.03 22:46:19.
