data_PCOD9313727
_publ_section_title
;
Structure prediction by ZEFSAII (Michael W. Deem and Ramdas Pophale) SiO2 
 PCOD9313727
Probable space group: P 21 21 21
;
_chemical_formula_sum "Si O2"
_cell_formula_units_Z 24
_cell_length_a 8.981231
_cell_length_b 9.497264
_cell_length_c 11.705237
_cell_angle_alpha 90.000000
_cell_angle_beta 90.000000
_cell_angle_gamma 90.000000
_cell_volume 998.423027
_symmetry_space_group_name_H-M "P 21 21 21"
_symmetry_group_IT_number 19
_symmetry_cell_setting 'orthorhombic'
loop_
_space_group_symop_operation_xyz
x,y,z
1/2-x,-y,1/2+z
1/2+x,1/2-y,-z
-x,1/2+y,1/2-z
loop_
_atom_site_type_symbol
_atom_site_label
_atom_site_fract_x
_atom_site_fract_y
_atom_site_fract_z
Si Si1 0.275066 0.992579 0.419913
Si Si2 0.166614 0.707554 0.683654
Si Si3 0.183232 0.731946 0.262579
Si Si4 0.018544 0.438091 0.755884
Si Si5 0.905776 0.752257 0.121484
Si Si6 0.063254 0.551862 0.464505
O O1 0.406185 0.071121 0.349670
O O2 0.151604 0.110905 0.439859
O O3 0.212531 0.873698 0.334862
O O4 0.384491 0.929862 0.515814
O O5 0.066911 0.600494 0.763622
O O6 0.314438 0.731095 0.757916
O O7 0.161372 0.623159 0.564788
O O8 0.079282 0.852340 0.652856
O O9 0.336271 0.654154 0.236667
O O10 0.098891 0.626327 0.346593
O O11 0.079264 0.752340 0.154033
O O12 0.884527 0.891785 0.048470
#
# Coordination Sequence:
#
# PCOD9313727 Si02
#       6
#     4   4   4   4   4   4
#     4  10  25  46  64 105 138 186 237 286 356 416
#     4  10  22  42  68  98 137 183 227 282 357 417
#     4  12  23  43  71 101 133 184 237 293 346 420
#     4  10  19  42  69  93 136 180 225 287 347 408
#     4  11  25  44  71 101 143 179 239 297 348 418
#     4  11  24  43  69 100 143 184 233 281 362 419
#
# _framework density 24.037904999999999
#
# number of rings (size 3 to 8) (size 9 to 14) (size 15 to 20)
#    0.000    1.333    5.000    1.000    2.333    2.667 
#    0.000    3.333    0.000    0.000    0.000    0.000 
#    0.000    0.000    0.000    0.000    0.000    0.000 
#
# Total GULP energy -134024.480727 kJ/mol
# GULP energy per Si atom -5584.353364 kJ/mol
# Density = 2.398319 g / cm^3
# Si number density = 24.037905 Si / 1000 Ang^3
#
#
#
# Elastic Constant Matrix: (Units=GPa)
#
#
# Indices 1 2 3 4 5 6 
#
# 1 88.1012 10.0252 -6.7144 0.0000 0.0000 0.0000
# 2 10.0252 95.3323 5.5515 0.0000 0.0000 0.0000
# 3 -6.7144 5.5515 8.9172 0.0000 0.0000 0.0000
# 4 0.0000 0.0000 0.0000 39.1243 0.0000 0.0000
# 5 0.0000 0.0000 0.0000 0.0000 31.6614 0.0000
# 6 0.0000 0.0000 0.0000 0.0000 0.0000 40.4208
#
#
#
# Elastic Compliance Matrix: (Units=1/GPa)
#
#
# Indices 1 2 3 4 5 6 
#
# 1 0.012369 -0.001912 0.010504 0.000000 0.000000 0.000000
# 2 -0.001912 0.011180 -0.008400 0.000000 0.000000 0.000000
# 3 0.010504 -0.008400 0.125282 0.000000 0.000000 0.000000
# 4 0.000000 0.000000 0.000000 0.025560 0.000000 0.000000
# 5 0.000000 0.000000 0.000000 0.000000 0.031584 0.000000
# 6 0.000000 0.000000 0.000000 0.000000 0.000000 0.024740
#
#
# Mechanical properties :
#
#
# Convention : Reuss Voigt Hill
#
# Bulk Modulus (GPa) = 6.70183 23.34170 15.02177
# Shear Modulus (GPa) = 17.85275 34.47386 26.16330
#
# Velocity S-wave (km/s) = 2.72819 3.79112 3.30270
# Velocity P-wave (km/s) = 3.56625 5.37540 4.56142
#
# Compressibility (1/GPa) = 0.14921301
#
# Stress axis : x y z
#
# Youngs Moduli (GPa) = 80.84907 89.44623 7.98201
#
# Poissons Ratio (x) = 0.17105 -0.08384
# Poissons Ratio (y) = 0.15461 0.06705
# Poissons Ratio (z) = -0.84923 0.75137
#
# Static dielectric constant tensor:
#      x y z
#    x 1.982920 0.000000 0.000000 
#    y 0.000000 2.003420 0.000000 
#    z 0.000000 0.000000 2.010660 
# 
# From -- ./inp_files/2788.got.cif
#   From: 2010.05.17/outbox.cif.g08.bks.cpg/sg19_2_cif.got.tgz:2788.got - 2010.06.03 22:46:19.
