data_PCOD9313531
_publ_section_title
;
Structure prediction by ZEFSAII (Michael W. Deem and Ramdas Pophale) SiO2 
 PCOD9313531
Probable space group: P 21 21 21
;
_chemical_formula_sum "Si O2"
_cell_formula_units_Z 28
_cell_length_a 28.185846
_cell_length_b 5.067251
_cell_length_c 9.368831
_cell_angle_alpha 90.000000
_cell_angle_beta 90.000000
_cell_angle_gamma 90.000000
_cell_volume 1338.101005
_symmetry_space_group_name_H-M "P 21 21 21"
_symmetry_group_IT_number 19
_symmetry_cell_setting 'orthorhombic'
loop_
_space_group_symop_operation_xyz
x,y,z
1/2-x,-y,1/2+z
1/2+x,1/2-y,-z
-x,1/2+y,1/2-z
loop_
_atom_site_type_symbol
_atom_site_label
_atom_site_fract_x
_atom_site_fract_y
_atom_site_fract_z
Si Si1 0.736600 0.261312 0.464544
Si Si2 0.630055 0.224453 0.563008
Si Si3 0.886779 0.280660 0.886104
Si Si4 0.981182 0.989929 0.813470
Si Si5 0.437085 0.816493 0.687433
Si Si6 0.217894 0.750525 0.728563
Si Si7 0.022817 0.693170 0.084324
O O1 0.684977 0.288869 0.539943
O O2 0.742286 0.508225 0.357670
O O3 0.770512 0.241479 0.602789
O O4 0.733863 0.008849 0.359744
O O5 0.604380 0.432471 0.455133
O O6 0.608805 0.255629 0.719219
O O7 0.622401 0.924435 0.514899
O O8 0.931533 0.146525 0.810197
O O9 0.838917 0.284271 0.793682
O O10 0.016537 0.236977 0.789620
O O11 0.995957 0.840982 0.957528
O O12 0.452523 0.590291 0.577617
O O13 0.481764 0.828962 0.796778
O O14 0.435419 0.106168 0.624496
#
# Coordination Sequence:
#
# PCOD9313531 Si02
#       7
#     4   4   4   4   4   4   4
#     4  10  21  38  64  94 122 158 198 250 302 367
#     4  10  19  35  61  87 112 148 200 242 286 354
#     4  10  21  37  59  83 114 156 205 234 279 358
#     4  12  24  38  56  78 117 159 201 240 276 349
#     4  10  19  33  56  80 106 137 185 248 281 330
#     4  10  21  40  64  93 122 158 202 246 308 361
#     4  10  21  33  52  79 107 144 185 238 294 313
#
# _framework density 20.925177999999999
#
# number of rings (size 3 to 8) (size 9 to 14) (size 15 to 20)
#    0.000    1.714    1.429    3.429    4.000    0.000 
#    0.000    4.286    0.000    0.000    0.000    0.000 
#    0.000    0.000    0.000    0.000    0.000    0.000 
#
# Total GULP energy -156118.524295 kJ/mol
# GULP energy per Si atom -5575.661582 kJ/mol
# Density = 2.087755 g / cm^3
# Si number density = 20.925178 Si / 1000 Ang^3
#
#
#
# Elastic Constant Matrix: (Units=GPa)
#
#
# Indices 1 2 3 4 5 6 
#
# 1 22.9460 -9.0948 5.7502 0.0000 0.0000 0.0000
# 2 -9.0948 79.7460 28.5595 0.0000 0.0000 0.0000
# 3 5.7502 28.5595 54.2654 0.0000 0.0000 0.0000
# 4 0.0000 0.0000 0.0000 20.4353 0.0000 0.0000
# 5 0.0000 0.0000 0.0000 0.0000 27.4248 0.0000
# 6 0.0000 0.0000 0.0000 0.0000 0.0000 18.8381
#
#
#
# Elastic Compliance Matrix: (Units=1/GPa)
#
#
# Indices 1 2 3 4 5 6 
#
# 1 0.049835 0.009334 -0.010193 0.000000 0.000000 0.000000
# 2 0.009334 0.017201 -0.010042 0.000000 0.000000 0.000000
# 3 -0.010193 -0.010042 0.024793 0.000000 0.000000 0.000000
# 4 0.000000 0.000000 0.000000 0.048935 0.000000 0.000000
# 5 0.000000 0.000000 0.000000 0.000000 0.036463 0.000000
# 6 0.000000 0.000000 0.000000 0.000000 0.000000 0.053084
#
#
# Mechanical properties :
#
#
# Convention : Reuss Voigt Hill
#
# Bulk Modulus (GPa) = 14.28028 23.04301 18.66165
# Shear Modulus (GPa) = 18.15186 22.12247 20.13717
#
# Velocity S-wave (km/s) = 2.94847 3.25502 3.10553
# Velocity P-wave (km/s) = 4.29308 5.01626 4.66869
#
# Compressibility (1/GPa) = 0.07002663
#
# Stress axis : x y z
#
# Youngs Moduli (GPa) = 20.06637 58.13775 40.33422
#
# Poissons Ratio (x) = -0.54266 0.41113
# Poissons Ratio (y) = -0.18730 0.40502
# Poissons Ratio (z) = 0.20454 0.58379
#
# Static dielectric constant tensor:
#      x y z
#    x 1.770540 0.000000 0.000000 
#    y 0.000000 1.745270 0.000000 
#    z 0.000000 0.000000 1.798680 
# 
# From -- ./inp_files/4388.got.cif
#   From: 2010.05.17/outbox.cif.g08.bks.cpg/sg19_3_cif.got.tgz:4388.got - 2010.06.03 22:46:19.
