data_PCOD9313082
_publ_section_title
;
Structure prediction by ZEFSAII (Michael W. Deem and Ramdas Pophale) SiO2 
 PCOD9313082
Probable space group: P 21 21 2
;
_chemical_formula_sum "Si O2"
_cell_formula_units_Z 12
_cell_length_a 7.821900
_cell_length_b 5.013909
_cell_length_c 12.766143
_cell_angle_alpha 90.000000
_cell_angle_beta 90.000000
_cell_angle_gamma 90.000000
_cell_volume 500.666360
_symmetry_space_group_name_H-M "P 21 21 2"
_symmetry_group_IT_number 18
_symmetry_cell_setting 'orthorhombic'
loop_
_space_group_symop_operation_xyz
x,y,z
-x,-y,z
1/2+x,1/2-y,-z
1/2-x,1/2+y,-z
loop_
_atom_site_type_symbol
_atom_site_label
_atom_site_fract_x
_atom_site_fract_y
_atom_site_fract_z
Si Si1 0.858707 0.163928 0.014212
Si Si2 0.149684 0.794466 0.364141
Si Si3 0.000000 0.500000 0.199269
Si Si4 0.000000 0.500000 0.560562
O O1 0.954356 0.267527 0.117792
O O2 0.782979 0.435340 0.966233
O O3 0.000000 0.000000 0.948517
O O4 0.149711 0.542866 0.284673
O O5 0.085859 0.709337 0.479491
O O6 0.340346 0.899795 0.372969
O O7 0.000000 0.000000 0.327576
#
# Coordination Sequence:
#
# PCOD9313082 Si02
#       4
#     4   4   2   2
#     4  12  24  48  78 106 147 199 253 317 400 459
#     4  11  23  42  70 105 154 195 265 318 385 458
#     4  11  26  46  71 110 156 198 255 334 380 461
#     4  11  22  42  71 100 146 214 247 318 390 449
#
# _framework density 23.968056000000001
#
# number of rings (size 3 to 8) (size 9 to 14) (size 15 to 20)
#    0.000    0.667    6.667    1.000    0.000    0.000 
#    6.000    0.000    0.000    0.000    0.000    0.000 
#    0.000    0.000    0.000    0.000    0.000    0.000 
#
# Total GULP energy -66803.064766 kJ/mol
# GULP energy per Si atom -5566.922064 kJ/mol
# Density = 2.391350 g / cm^3
# Si number density = 23.968056 Si / 1000 Ang^3
#
#
#
# Elastic Constant Matrix: (Units=GPa)
#
#
# Indices 1 2 3 4 5 6 
#
# 1 189.1540 83.0613 54.1198 0.0000 0.0000 0.0000
# 2 83.0613 172.1969 49.0905 0.0000 0.0000 0.0000
# 3 54.1198 49.0905 83.3602 0.0000 0.0000 0.0000
# 4 0.0000 0.0000 0.0000 -50.4156 0.0000 0.0000
# 5 0.0000 0.0000 0.0000 0.0000 -0.3175 0.0000
# 6 0.0000 0.0000 0.0000 0.0000 0.0000 71.0475
#
#
#
# Elastic Compliance Matrix: (Units=1/GPa)
#
#
# Indices 1 2 3 4 5 6 
#
# 1 0.007368 -0.002632 -0.003233 0.000000 0.000000 0.000000
# 2 -0.002632 0.007919 -0.002955 0.000000 0.000000 0.000000
# 3 -0.003233 -0.002955 0.015835 0.000000 0.000000 0.000000
# 4 0.000000 0.000000 0.000000 -0.019835 0.000000 0.000000
# 5 0.000000 0.000000 0.000000 0.000000 -3.149359 0.000000
# 6 0.000000 0.000000 0.000000 0.000000 0.000000 0.014075
#
#
# Mechanical properties :
#
#
# Convention : Reuss Voigt Hill
#
# Bulk Modulus (GPa) = 74.17333 90.80604 82.48969
# Shear Modulus (GPa) = -1.61193 21.29219 9.84013
#
# Velocity S-wave (km/s) = -0.82097 2.98377 2.02841
# Velocity P-wave (km/s) = 5.48774 7.05967 6.32275
#
# Compressibility (1/GPa) = 0.01348193
#
# Stress axis : x y z
#
# Youngs Moduli (GPa) = 135.72991 126.27378 63.15014
#
# Poissons Ratio (x) = 0.33237 0.20418
# Poissons Ratio (y) = 0.35726 0.18660
# Poissons Ratio (z) = 0.43884 0.37311
#
# Static dielectric constant tensor:
#      x y z
#    x 2.180320 0.000000 0.000000 
#    y 0.000000 2.138230 0.000000 
#    z 0.000000 0.000000 1.907730 
# 
# From -- ./inp_files/5338.got.cif
#   From: 2010.05.17/outbox.cif.g08.bks.cpg/sg18_3_cif.got.tgz:5338.got - 2010.06.03 22:40:56.
