data_PCOD9313428
_publ_section_title
;
Structure prediction by ZEFSAII (Michael W. Deem and Ramdas Pophale) SiO2 
 PCOD9313428
Probable space group: P 21 21 21
;
_chemical_formula_sum "Si O2"
_cell_formula_units_Z 28
_cell_length_a 5.196369
_cell_length_b 11.979658
_cell_length_c 19.683522
_cell_angle_alpha 90.000000
_cell_angle_beta 90.000000
_cell_angle_gamma 90.000000
_cell_volume 1225.313485
_symmetry_space_group_name_H-M "P 21 21 21"
_symmetry_group_IT_number 19
_symmetry_cell_setting 'orthorhombic'
loop_
_space_group_symop_operation_xyz
x,y,z
1/2-x,-y,1/2+z
1/2+x,1/2-y,-z
-x,1/2+y,1/2-z
loop_
_atom_site_type_symbol
_atom_site_label
_atom_site_fract_x
_atom_site_fract_y
_atom_site_fract_z
Si Si1 0.219467 0.914117 0.708150
Si Si2 0.003403 0.102506 0.791690
Si Si3 0.930477 0.775818 0.603557
Si Si4 0.981600 0.397218 0.530475
Si Si5 0.417431 0.898876 0.568538
Si Si6 0.002810 0.290523 0.268845
Si Si7 0.984102 0.201927 0.416957
O O1 0.099153 0.980813 0.770371
O O2 0.353128 0.965278 0.639778
O O3 0.424508 0.826079 0.734435
O O4 0.991339 0.846939 0.671676
O O5 0.031238 0.149896 0.868455
O O6 0.218410 0.170345 0.748823
O O7 0.718092 0.125988 0.762737
O O8 0.652682 0.813957 0.579457
O O9 0.161272 0.823654 0.556493
O O10 0.984291 0.512195 0.488879
O O11 0.981767 0.296317 0.475329
O O12 0.717595 0.382157 0.570349
O O13 0.223768 0.369952 0.578017
O O14 0.025594 0.268246 0.347945
#
# Coordination Sequence:
#
# PCOD9313428 Si02
#       7
#     4   4   4   4   4   4   4
#     4   9  22  31  55  76 108 142 177 212 282 318
#     4  11  20  33  53  75 110 146 167 220 270 321
#     4   9  19  32  45  78 102 127 185 206 255 324
#     4  10  20  33  51  74 102 146 181 208 264 323
#     4  10  18  34  50  72 105 135 175 220 249 317
#     4  11  22  36  51  80 116 140 179 223 265 335
#     4  10  21  33  49  77 107 140 182 215 259 324
#
# _framework density 22.851298
#
# number of rings (size 3 to 8) (size 9 to 14) (size 15 to 20)
#    0.857    1.143    1.429    2.571    4.000    1.143 
#    0.000    0.000    0.000    0.000    0.000    4.000 
#    0.000    0.000    0.000    0.000    0.000    0.000 
#
# Total GULP energy -156183.032004 kJ/mol
# GULP energy per Si atom -5577.965429 kJ/mol
# Density = 2.279929 g / cm^3
# Si number density = 22.851298 Si / 1000 Ang^3
#
#
#
# Elastic Constant Matrix: (Units=GPa)
#
#
# Indices 1 2 3 4 5 6 
#
# 1 102.8574 -5.6694 11.5019 0.0000 0.0000 0.0000
# 2 -5.6694 36.5117 21.8682 0.0000 0.0000 0.0000
# 3 11.5019 21.8682 22.9326 0.0000 0.0000 0.0000
# 4 0.0000 0.0000 0.0000 27.5376 0.0000 0.0000
# 5 0.0000 0.0000 0.0000 0.0000 12.3342 0.0000
# 6 0.0000 0.0000 0.0000 0.0000 0.0000 -9.7989
#
#
#
# Elastic Compliance Matrix: (Units=1/GPa)
#
#
# Indices 1 2 3 4 5 6 
#
# 1 0.012593 0.013380 -0.019075 0.000000 0.000000 0.000000
# 2 0.013380 0.078080 -0.081166 0.000000 0.000000 0.000000
# 3 -0.019075 -0.081166 0.130572 0.000000 0.000000 0.000000
# 4 0.000000 0.000000 0.000000 0.036314 0.000000 0.000000
# 5 0.000000 0.000000 0.000000 0.000000 0.081075 0.000000
# 6 0.000000 0.000000 0.000000 0.000000 0.000000 -0.102052
#
#
# Mechanical properties :
#
#
# Convention : Reuss Voigt Hill
#
# Bulk Modulus (GPa) = 21.04290 24.18925 22.61607
# Shear Modulus (GPa) = 11.73309 14.98799 13.36054
#
# Velocity S-wave (km/s) = 2.26841 2.56382 2.42062
# Velocity P-wave (km/s) = 4.01118 4.40144 4.21083
#
# Compressibility (1/GPa) = 0.04752197
#
# Stress axis : x y z
#
# Youngs Moduli (GPa) = 79.41103 12.80744 7.65859
#
# Poissons Ratio (x) = -0.17136 0.14609
# Poissons Ratio (y) = -1.06252 0.62162
# Poissons Ratio (z) = 1.51475 1.03953
#
# Static dielectric constant tensor:
#      x y z
#    x 1.838220 0.000000 0.000000 
#    y 0.000000 1.974850 0.000000 
#    z 0.000000 0.000000 1.914380 
# 
# From -- ./inp_files/6880.got.cif
#   From: 2010.05.17/outbox.cif.g08.bks.cpg/sg19_4_cif.got.tgz:6880.got - 2010.06.03 22:46:19.
