data_PCOD9313608
_publ_section_title
;
Structure prediction by ZEFSAII (Michael W. Deem and Ramdas Pophale) SiO2 
 PCOD9313608
Probable space group: P 21 21 21
;
_chemical_formula_sum "Si O2"
_cell_formula_units_Z 28
_cell_length_a 9.978941
_cell_length_b 5.284545
_cell_length_c 25.898281
_cell_angle_alpha 90.000000
_cell_angle_beta 90.000000
_cell_angle_gamma 90.000000
_cell_volume 1365.724166
_symmetry_space_group_name_H-M "P 21 21 21"
_symmetry_group_IT_number 19
_symmetry_cell_setting 'orthorhombic'
loop_
_space_group_symop_operation_xyz
x,y,z
1/2-x,-y,1/2+z
1/2+x,1/2-y,-z
-x,1/2+y,1/2-z
loop_
_atom_site_type_symbol
_atom_site_label
_atom_site_fract_x
_atom_site_fract_y
_atom_site_fract_z
Si Si1 0.762218 0.119034 0.549634
Si Si2 0.092779 0.981533 0.749064
Si Si3 0.840434 0.156275 0.438437
Si Si4 0.496797 0.192629 0.071687
Si Si5 0.508272 0.852291 0.541177
Si Si6 0.139802 0.920000 0.860367
Si Si7 0.351766 0.862046 0.139427
O O1 0.749237 0.206098 0.490218
O O2 0.755851 0.303376 0.598733
O O3 0.663375 0.881864 0.557044
O O4 0.917211 0.039735 0.550453
O O5 0.180074 0.949579 0.800957
O O6 0.006496 0.723071 0.741381
O O7 0.174545 0.042844 0.697077
O O8 0.748602 0.168579 0.387573
O O9 0.939577 0.394945 0.437838
O O10 0.925441 0.896637 0.442966
O O11 0.586225 0.321244 0.115396
O O12 0.363990 0.092845 0.098656
O O13 0.486265 0.363047 0.021362
O O14 0.001991 0.754149 0.857480
#
# Coordination Sequence:
#
# PCOD9313608 Si02
#       7
#     4   4   4   4   4   4   4
#     4  10  23  37  57  85 127 163 205 251 294 373
#     4  10  20  35  58  92 125 153 195 253 312 364
#     4  11  25  37  59  89 124 171 198 248 311 360
#     4  10  20  35  58  85 120 164 199 248 311 357
#     4  11  25  38  56  89 125 163 210 243 302 372
#     4  10  19  36  60  90 120 163 199 249 313 356
#     4  10  22  36  58  90 129 155 198 256 307 372
#
# _framework density 20.501942
#
# number of rings (size 3 to 8) (size 9 to 14) (size 15 to 20)
#    0.000    1.714    2.857    0.857   12.000    0.000 
#    0.000    0.000    0.000    0.000    3.714    0.000 
#    0.000    0.000    0.000    0.000    0.000    0.000 
#
# Total GULP energy -156039.306022 kJ/mol
# GULP energy per Si atom -5572.832358 kJ/mol
# Density = 2.045528 g / cm^3
# Si number density = 20.501942 Si / 1000 Ang^3
#
#
#
# Elastic Constant Matrix: (Units=GPa)
#
#
# Indices 1 2 3 4 5 6 
#
# 1 43.7846 18.7118 36.0991 0.0000 0.0000 0.0000
# 2 18.7118 88.9911 16.5715 0.0000 0.0000 0.0000
# 3 36.0991 16.5715 85.2323 0.0000 0.0000 0.0000
# 4 0.0000 0.0000 0.0000 17.6436 0.0000 0.0000
# 5 0.0000 0.0000 0.0000 0.0000 11.3858 0.0000
# 6 0.0000 0.0000 0.0000 0.0000 0.0000 31.6719
#
#
#
# Elastic Compliance Matrix: (Units=1/GPa)
#
#
# Indices 1 2 3 4 5 6 
#
# 1 0.037173 -0.005068 -0.014759 0.000000 0.000000 0.000000
# 2 -0.005068 0.012350 -0.000255 0.000000 0.000000 0.000000
# 3 -0.014759 -0.000255 0.018033 0.000000 0.000000 0.000000
# 4 0.000000 0.000000 0.000000 0.056678 0.000000 0.000000
# 5 0.000000 0.000000 0.000000 0.000000 0.087829 0.000000
# 6 0.000000 0.000000 0.000000 0.000000 0.000000 0.031574
#
#
# Mechanical properties :
#
#
# Convention : Reuss Voigt Hill
#
# Bulk Modulus (GPa) = 36.50530 40.08587 38.29559
# Shear Modulus (GPa) = 17.06887 21.91530 19.49209
#
# Velocity S-wave (km/s) = 2.88852 3.27301 3.08676
# Velocity P-wave (km/s) = 5.38230 5.82049 5.60568
#
# Compressibility (1/GPa) = 0.02739328
#
# Stress axis : x y z
#
# Youngs Moduli (GPa) = 26.90115 80.97088 55.45348
#
# Poissons Ratio (x) = 0.41035 0.81843
# Poissons Ratio (y) = 0.13633 0.01413
# Poissons Ratio (z) = 0.39703 0.02063
#
# Static dielectric constant tensor:
#      x y z
#    x 1.748610 0.000000 0.000000 
#    y 0.000000 1.826830 0.000000 
#    z 0.000000 0.000000 1.801180 
# 
# From -- ./inp_files/7480.got.cif
#   From: 2010.05.17/outbox.cif.g08.bks.cpg/sg19_4_cif.got.tgz:7480.got - 2010.06.03 22:46:19.
