data_PCOD9313680
_publ_section_title
;
Structure prediction by ZEFSAII (Michael W. Deem and Ramdas Pophale) SiO2 
 PCOD9313680
Probable space group: P 21 21 21
;
_chemical_formula_sum "Si O2"
_cell_formula_units_Z 28
_cell_length_a 5.133625
_cell_length_b 14.747963
_cell_length_c 14.992480
_cell_angle_alpha 90.000000
_cell_angle_beta 90.000000
_cell_angle_gamma 90.000000
_cell_volume 1135.088330
_symmetry_space_group_name_H-M "P 21 21 21"
_symmetry_group_IT_number 19
_symmetry_cell_setting 'orthorhombic'
loop_
_space_group_symop_operation_xyz
x,y,z
1/2-x,-y,1/2+z
1/2+x,1/2-y,-z
-x,1/2+y,1/2-z
loop_
_atom_site_type_symbol
_atom_site_label
_atom_site_fract_x
_atom_site_fract_y
_atom_site_fract_z
Si Si1 0.584288 0.818328 0.879225
Si Si2 0.653839 0.437801 0.177911
Si Si3 0.926738 0.955219 0.572720
Si Si4 0.954573 0.962341 0.963373
Si Si5 0.809958 0.644560 0.936053
Si Si6 0.760276 0.690986 0.519821
Si Si7 0.876660 0.032158 0.247884
O O1 0.502773 0.874719 0.792454
O O2 0.736843 0.723813 0.868669
O O3 0.394020 0.812076 0.966626
O O4 0.804326 0.887573 0.910066
O O5 0.684715 0.345283 0.121487
O O6 0.365046 0.470832 0.209152
O O7 0.875959 0.463816 0.248330
O O8 0.699469 0.506884 0.094111
O O9 0.760444 0.931957 0.658867
O O10 0.164882 0.890334 0.547143
O O11 0.732128 0.955599 0.488077
O O12 0.997367 0.062200 0.584279
O O13 0.048749 0.911873 0.050074
O O14 0.514448 0.758637 0.516892
#
# Coordination Sequence:
#
# PCOD9313680 Si02
#       7
#     4   4   4   4   4   4   4
#     4  10  20  36  63 102 128 175 222 276 338 398
#     4  11  22  45  70  98 129 188 232 274 349 410
#     4  11  26  43  66 103 137 186 228 289 359 406
#     4  10  19  38  69  91 131 174 231 274 324 429
#     4  11  19  36  68  95 131 176 230 274 327 423
#     4  12  25  45  75  98 131 187 250 291 323 419
#     4  11  25  43  69  99 149 176 217 292 358 407
#
# _framework density 24.667686
#
# number of rings (size 3 to 8) (size 9 to 14) (size 15 to 20)
#    0.000    1.143    4.286    3.429    2.000    0.000 
#    5.143    0.000    0.000    0.000    0.000    0.000 
#    0.000    0.000    0.000    0.000    0.000    0.000 
#
# Total GULP energy -155948.619035 kJ/mol
# GULP energy per Si atom -5569.593537 kJ/mol
# Density = 2.461154 g / cm^3
# Si number density = 24.667686 Si / 1000 Ang^3
#
#
#
# Elastic Constant Matrix: (Units=GPa)
#
#
# Indices 1 2 3 4 5 6 
#
# 1 109.0588 23.3243 -1.5995 0.0000 0.0000 0.0000
# 2 23.3243 95.5131 16.1218 0.0000 0.0000 0.0000
# 3 -1.5995 16.1218 46.9997 0.0000 0.0000 0.0000
# 4 0.0000 0.0000 0.0000 13.7931 0.0000 0.0000
# 5 0.0000 0.0000 0.0000 0.0000 22.0813 0.0000
# 6 0.0000 0.0000 0.0000 0.0000 0.0000 37.0377
#
#
#
# Elastic Compliance Matrix: (Units=1/GPa)
#
#
# Indices 1 2 3 4 5 6 
#
# 1 0.009740 -0.002584 0.001218 0.000000 0.000000 0.000000
# 2 -0.002584 0.011799 -0.004135 0.000000 0.000000 0.000000
# 3 0.001218 -0.004135 0.022737 0.000000 0.000000 0.000000
# 4 0.000000 0.000000 0.000000 0.072500 0.000000 0.000000
# 5 0.000000 0.000000 0.000000 0.000000 0.045287 0.000000
# 6 0.000000 0.000000 0.000000 0.000000 0.000000 0.027000
#
#
# Mechanical properties :
#
#
# Convention : Reuss Voigt Hill
#
# Bulk Modulus (GPa) = 30.05479 36.36275 33.20877
# Shear Modulus (GPa) = 23.67925 28.83076 26.25500
#
# Velocity S-wave (km/s) = 3.10163 3.42243 3.26597
# Velocity P-wave (km/s) = 5.00372 5.51275 5.26439
#
# Compressibility (1/GPa) = 0.03327257
#
# Stress axis : x y z
#
# Youngs Moduli (GPa) = 102.67071 84.75460 43.98193
#
# Poissons Ratio (x) = 0.21901 -0.05356
# Poissons Ratio (y) = 0.26531 0.18187
# Poissons Ratio (z) = -0.12504 0.35047
#
# Static dielectric constant tensor:
#      x y z
#    x 1.996210 0.000000 0.000000 
#    y 0.000000 2.019500 0.000000 
#    z 0.000000 0.000000 2.213320 
# 
# From -- ./inp_files/5708.got.cif
#   From: 2010.05.17/outbox.cif.g08.bks.cpg/sg19_3_cif.got.tgz:5708.got - 2010.06.03 22:46:19.
