data_PCOD9313359
_publ_section_title
;
Structure prediction by ZEFSAII (Michael W. Deem and Ramdas Pophale) SiO2 
 PCOD9313359
Probable space group: P 21 21 21
;
_chemical_formula_sum "Si O2"
_cell_formula_units_Z 32
_cell_length_a 11.291293
_cell_length_b 12.372085
_cell_length_c 11.521527
_cell_angle_alpha 90.000000
_cell_angle_beta 90.000000
_cell_angle_gamma 90.000000
_cell_volume 1609.520876
_symmetry_space_group_name_H-M "P 21 21 21"
_symmetry_group_IT_number 19
_symmetry_cell_setting 'orthorhombic'
loop_
_space_group_symop_operation_xyz
x,y,z
1/2-x,-y,1/2+z
1/2+x,1/2-y,-z
-x,1/2+y,1/2-z
loop_
_atom_site_type_symbol
_atom_site_label
_atom_site_fract_x
_atom_site_fract_y
_atom_site_fract_z
Si Si1 0.459848 0.738322 0.455954
Si Si2 0.439225 0.364644 0.857239
Si Si3 0.182585 0.350023 0.269076
Si Si4 0.305602 0.854735 0.608942
Si Si5 0.059361 0.572102 0.702305
Si Si6 0.333443 0.548922 0.997876
Si Si7 0.063300 0.981275 0.584174
Si Si8 0.916305 0.044412 0.379550
O O1 0.540277 0.754317 0.572790
O O2 0.331710 0.779102 0.496681
O O3 0.515927 0.823208 0.367764
O O4 0.470295 0.618562 0.412466
O O5 0.570218 0.418594 0.877637
O O6 0.344994 0.438991 0.921921
O O7 0.420401 0.365815 0.721140
O O8 0.195061 0.230788 0.214986
O O9 0.313819 0.401549 0.258952
O O10 0.140397 0.359371 0.402167
O O11 0.103157 0.430046 0.188738
O O12 0.192155 0.927815 0.592833
O O13 0.082367 0.475937 0.608543
O O14 0.965414 0.548300 0.801665
O O15 0.201613 0.561877 0.045576
O O16 0.028730 0.040375 0.464651
#
# Coordination Sequence:
#
# PCOD9313359 Si02
#       8
#     4   4   4   4   4   4   4   4
#     4   9  20  39  55  85 120 156 197 249 289 356
#     4   8  19  36  54  82 118 149 192 245 289 349
#     4  10  17  34  58  83 113 151 198 248 294 343
#     4  10  21  36  57  82 122 159 187 253 302 354
#     4  10  20  35  57  88 120 149 198 250 289 361
#     4   9  18  34  57  83 113 146 194 251 287 337
#     4  12  21  34  62  90 113 163 203 236 313 366
#     4  10  18  32  58  87 107 153 205 236 295 358
#
# _framework density 19.881692000000001
#
# number of rings (size 3 to 8) (size 9 to 14) (size 15 to 20)
#    0.750    1.500    3.750    0.000    0.000    1.000 
#    0.000    2.500    0.000    0.000    0.000    0.000 
#    0.000    0.000    0.000    0.000    0.000    0.000 
#
# Total GULP energy -178160.633963 kJ/mol
# GULP energy per Si atom -5567.519811 kJ/mol
# Density = 1.983644 g / cm^3
# Si number density = 19.881692 Si / 1000 Ang^3
#
#
#
# Elastic Constant Matrix: (Units=GPa)
#
#
# Indices 1 2 3 4 5 6 
#
# 1 47.7133 -10.2740 5.8876 0.0000 0.0000 0.0000
# 2 -10.2740 22.9829 11.2850 0.0000 0.0000 0.0000
# 3 5.8876 11.2850 96.9782 0.0000 0.0000 0.0000
# 4 0.0000 0.0000 0.0000 9.4571 0.0000 0.0000
# 5 0.0000 0.0000 0.0000 0.0000 22.8073 0.0000
# 6 0.0000 0.0000 0.0000 0.0000 0.0000 20.0743
#
#
#
# Elastic Compliance Matrix: (Units=1/GPa)
#
#
# Indices 1 2 3 4 5 6 
#
# 1 0.023916 0.012095 -0.002859 0.000000 0.000000 0.000000
# 2 0.012095 0.052264 -0.006816 0.000000 0.000000 0.000000
# 3 -0.002859 -0.006816 0.011278 0.000000 0.000000 0.000000
# 4 0.000000 0.000000 0.000000 0.105740 0.000000 0.000000
# 5 0.000000 0.000000 0.000000 0.000000 0.043846 0.000000
# 6 0.000000 0.000000 0.000000 0.000000 0.000000 0.049815
#
#
# Mechanical properties :
#
#
# Convention : Reuss Voigt Hill
#
# Bulk Modulus (GPa) = 10.83454 20.16351 15.49902
# Shear Modulus (GPa) = 15.98536 21.18613 18.58575
#
# Velocity S-wave (km/s) = 2.83861 3.26791 3.06079
# Velocity P-wave (km/s) = 4.02553 4.93991 4.50598
#
# Compressibility (1/GPa) = 0.09229745
#
# Stress axis : x y z
#
# Youngs Moduli (GPa) = 41.81347 19.13352 88.66537
#
# Poissons Ratio (x) = -0.23142 0.25353
# Poissons Ratio (y) = -0.50574 0.60435
# Poissons Ratio (z) = 0.11956 0.13042
#
# Static dielectric constant tensor:
#      x y z
#    x 1.716950 0.000000 0.000000 
#    y 0.000000 1.690810 0.000000 
#    z 0.000000 0.000000 1.750720 
# 
# From -- ./inp_files/5107.got.cif
#   From: 2010.05.17/outbox.cif.g08.bks.cpg/sg19_3_cif.got.tgz:5107.got - 2010.06.03 22:46:19.
