data_PCOD9313658
_publ_section_title
;
Structure prediction by ZEFSAII (Michael W. Deem and Ramdas Pophale) SiO2 
 PCOD9313658
Probable space group: P 21 21 21
;
_chemical_formula_sum "Si O2"
_cell_formula_units_Z 32
_cell_length_a 5.494621
_cell_length_b 16.279921
_cell_length_c 17.778313
_cell_angle_alpha 90.000000
_cell_angle_beta 90.000000
_cell_angle_gamma 90.000000
_cell_volume 1590.305580
_symmetry_space_group_name_H-M "P 21 21 21"
_symmetry_group_IT_number 19
_symmetry_cell_setting 'orthorhombic'
loop_
_space_group_symop_operation_xyz
x,y,z
1/2-x,-y,1/2+z
1/2+x,1/2-y,-z
-x,1/2+y,1/2-z
loop_
_atom_site_type_symbol
_atom_site_label
_atom_site_fract_x
_atom_site_fract_y
_atom_site_fract_z
Si Si1 0.136195 0.009792 0.069458
Si Si2 0.723759 0.694547 0.100271
Si Si3 0.382731 0.442188 0.562520
Si Si4 0.679683 0.253560 0.049827
Si Si5 0.998251 0.430959 0.694728
Si Si6 0.759217 0.563456 0.593439
Si Si7 0.139419 0.417348 0.866478
Si Si8 0.445687 0.651364 0.955761
O O1 0.902780 0.044200 0.113385
O O2 0.394097 0.046912 0.094525
O O3 0.143650 0.911043 0.076485
O O4 0.097996 0.032111 0.981131
O O5 0.630480 0.656590 0.177798
O O6 0.854169 0.781403 0.102065
O O7 0.898717 0.621801 0.072590
O O8 0.529010 0.698830 0.031789
O O9 0.211294 0.429798 0.633553
O O10 0.487868 0.533583 0.571018
O O11 0.257601 0.411630 0.486457
O O12 0.706061 0.339699 0.094451
O O13 0.657740 0.176630 0.105713
O O14 0.429360 0.255536 0.999899
O O15 0.090765 0.432449 0.778628
O O16 0.839619 0.509658 0.665908
#
# Coordination Sequence:
#
# PCOD9313658 Si02
#       8
#     4   4   4   4   4   4   4   4
#     4  12  24  42  72  97 137 177 237 292 339 415
#     4  10  20  35  63  95 133 174 224 270 344 407
#     4  10  19  37  66  91 137 171 228 268 354 414
#     4  12  25  44  75 104 133 174 241 305 342 410
#     4  10  25  43  68  92 145 192 222 286 369 435
#     4  11  22  41  72 101 128 185 233 285 356 413
#     4  12  27  48  68 101 141 183 236 295 359 408
#     4  11  20  34  64 105 126 176 225 293 325 414
#
# _framework density 20.121918999999998
#
# number of rings (size 3 to 8) (size 9 to 14) (size 15 to 20)
#    0.000    1.000    7.500    0.750    5.250    0.000 
#    2.250    0.000    0.000    0.000    0.000    0.000 
#    0.000    0.000    0.000    0.000    0.000    0.000 
#
# Total GULP energy -178400.232138 kJ/mol
# GULP energy per Si atom -5575.007254 kJ/mol
# Density = 2.007612 g / cm^3
# Si number density = 20.121919 Si / 1000 Ang^3
#
#
#
# Elastic Constant Matrix: (Units=GPa)
#
#
# Indices 1 2 3 4 5 6 
#
# 1 70.4744 20.6864 3.1154 0.0000 0.0000 0.0000
# 2 20.6864 137.1656 21.9453 0.0000 0.0000 0.0000
# 3 3.1154 21.9453 59.8178 0.0000 0.0000 0.0000
# 4 0.0000 0.0000 0.0000 22.9041 0.0000 0.0000
# 5 0.0000 0.0000 0.0000 0.0000 17.8931 0.0000
# 6 0.0000 0.0000 0.0000 0.0000 0.0000 31.8888
#
#
#
# Elastic Compliance Matrix: (Units=1/GPa)
#
#
# Indices 1 2 3 4 5 6 
#
# 1 0.014847 -0.002247 0.000051 0.000000 0.000000 0.000000
# 2 -0.002247 0.008085 -0.002849 0.000000 0.000000 0.000000
# 3 0.000051 -0.002849 0.017760 0.000000 0.000000 0.000000
# 4 0.000000 0.000000 0.000000 0.043660 0.000000 0.000000
# 5 0.000000 0.000000 0.000000 0.000000 0.055888 0.000000
# 6 0.000000 0.000000 0.000000 0.000000 0.000000 0.031359
#
#
# Mechanical properties :
#
#
# Convention : Reuss Voigt Hill
#
# Bulk Modulus (GPa) = 32.67798 39.88358 36.28078
# Shear Modulus (GPa) = 26.05657 29.31790 27.68724
#
# Velocity S-wave (km/s) = 3.60242 3.82123 3.71344
# Velocity P-wave (km/s) = 5.79470 6.27160 6.03786
#
# Compressibility (1/GPa) = 0.03060165
#
# Stress axis : x y z
#
# Youngs Moduli (GPa) = 67.35398 123.68233 56.30615
#
# Poissons Ratio (x) = 0.27795 -0.00288
# Poissons Ratio (y) = 0.15137 0.16043
# Poissons Ratio (z) = -0.00345 0.35239
#
# Static dielectric constant tensor:
#      x y z
#    x 1.832720 0.000000 0.000000 
#    y 0.000000 1.735580 0.000000 
#    z 0.000000 0.000000 1.692730 
# 
# From -- ./inp_files/6467.got.cif
#   From: 2010.05.17/outbox.cif.g08.bks.cpg/sg19_4_cif.got.tgz:6467.got - 2010.06.03 22:46:19.
