data_PCOD9313024
_publ_section_title
;
Structure prediction by ZEFSAII (Michael W. Deem and Ramdas Pophale) SiO2 
 PCOD9313024
Probable space group: P 21 21 2
;
_chemical_formula_sum "Si O2"
_cell_formula_units_Z 30
_cell_length_a 18.140448
_cell_length_b 12.957092
_cell_length_c 6.537623
_cell_angle_alpha 90.000000
_cell_angle_beta 90.000000
_cell_angle_gamma 90.000000
_cell_volume 1536.651639
_symmetry_space_group_name_H-M "P 21 21 2"
_symmetry_group_IT_number 18
_symmetry_cell_setting 'orthorhombic'
loop_
_space_group_symop_operation_xyz
x,y,z
-x,-y,z
1/2+x,1/2-y,-z
1/2-x,1/2+y,-z
loop_
_atom_site_type_symbol
_atom_site_label
_atom_site_fract_x
_atom_site_fract_y
_atom_site_fract_z
Si Si1 0.240152 0.386414 0.621251
Si Si2 0.375035 0.741687 0.534075
Si Si3 0.875412 0.122471 0.685485
Si Si4 0.500000 0.500000 0.848765
Si Si5 0.833358 0.242803 0.067597
Si Si6 0.767425 0.894239 0.170975
Si Si7 0.537787 0.706618 0.648934
Si Si8 0.108635 0.091436 0.836599
O O1 0.163885 0.349273 0.522058
O O2 0.300937 0.377795 0.443986
O O3 0.268464 0.303981 0.790982
O O4 0.243732 0.500004 0.718853
O O5 0.317282 0.674059 0.671159
O O6 0.453805 0.744116 0.647533
O O7 0.389387 0.686880 0.315534
O O8 0.931294 0.201630 0.581125
O O9 0.902647 0.006054 0.689982
O O10 0.860472 0.153268 0.916852
O O11 0.542857 0.584796 0.714949
O O12 0.546207 0.423867 0.993998
O O13 0.903471 0.267064 0.211237
O O14 0.801181 0.330192 0.919192
O O15 0.817256 0.915969 0.970697
#
# Coordination Sequence:
#
# PCOD9313024 Si02
#       8
#     4   4   4   2   4   4   4   4
#     4  11  23  40  63  99 126 167 221 266 320 396
#     4  12  24  38  63 100 133 166 221 275 329 389
#     4  11  20  38  61  89 131 164 205 263 328 381
#     4  12  20  36  58  96 136 158 198 270 336 406
#     4  11  23  41  62  94 130 171 210 267 329 395
#     4  12  23  40  66  97 126 171 225 264 326 398
#     4  11  24  37  58  99 132 168 212 263 334 395
#     4  12  21  35  61  95 132 162 199 265 337 388
#
# _framework density 19.522967000000001
#
# number of rings (size 3 to 8) (size 9 to 14) (size 15 to 20)
#    0.000    0.533    8.000    2.400    0.000    0.000 
#    0.000    0.000    0.000    0.800    6.933    0.000 
#    0.000    0.000    0.000    0.000    0.000    0.000 
#
# Total GULP energy -167435.235059 kJ/mol
# GULP energy per Si atom -5581.174502 kJ/mol
# Density = 1.947853 g / cm^3
# Si number density = 19.522967 Si / 1000 Ang^3
#
#
#
# Elastic Constant Matrix: (Units=GPa)
#
#
# Indices 1 2 3 4 5 6 
#
# 1 91.9550 30.9739 17.8915 0.0000 0.0000 0.0000
# 2 30.9739 43.0166 2.3428 0.0000 0.0000 0.0000
# 3 17.8915 2.3428 59.5042 0.0000 0.0000 0.0000
# 4 0.0000 0.0000 0.0000 26.6146 0.0000 0.0000
# 5 0.0000 0.0000 0.0000 0.0000 27.2189 0.0000
# 6 0.0000 0.0000 0.0000 0.0000 0.0000 21.8143
#
#
#
# Elastic Compliance Matrix: (Units=1/GPa)
#
#
# Indices 1 2 3 4 5 6 
#
# 1 0.015330 -0.010811 -0.004184 0.000000 0.000000 0.000000
# 2 -0.010811 0.030920 0.002033 0.000000 0.000000 0.000000
# 3 -0.004184 0.002033 0.017983 0.000000 0.000000 0.000000
# 4 0.000000 0.000000 0.000000 0.037573 0.000000 0.000000
# 5 0.000000 0.000000 0.000000 0.000000 0.036739 0.000000
# 6 0.000000 0.000000 0.000000 0.000000 0.000000 0.045841
#
#
# Mechanical properties :
#
#
# Convention : Reuss Voigt Hill
#
# Bulk Modulus (GPa) = 26.10194 32.98802 29.54498
# Shear Modulus (GPa) = 22.41333 24.68073 23.54703
#
# Velocity S-wave (km/s) = 3.39196 3.55940 3.47669
# Velocity P-wave (km/s) = 5.36092 5.81603 5.59310
#
# Compressibility (1/GPa) = 0.03831134
#
# Stress axis : x y z
#
# Youngs Moduli (GPa) = 65.22989 32.34115 55.60664
#
# Poissons Ratio (x) = 0.34963 0.23265
# Poissons Ratio (y) = 0.70518 -0.11306
# Poissons Ratio (z) = 0.27291 -0.06575
#
# Static dielectric constant tensor:
#      x y z
#    x 1.753280 0.000000 0.000000 
#    y 0.000000 1.701730 0.000000 
#    z 0.000000 0.000000 1.706520 
# 
# From -- ./inp_files/1239.got.cif
#   From: 2010.05.17/outbox.cif.g08.bks.cpg/sg18_1_cif.got.tgz:1239.got - 2010.06.03 22:40:56.
