data_PCOD9313063
_publ_section_title
;
Structure prediction by ZEFSAII (Michael W. Deem and Ramdas Pophale) SiO2 
 PCOD9313063
Probable space group: P 21 21 2
;
_chemical_formula_sum "Si O2"
_cell_formula_units_Z 16
_cell_length_a 5.303775
_cell_length_b 14.359950
_cell_length_c 10.190315
_cell_angle_alpha 90.000000
_cell_angle_beta 90.000000
_cell_angle_gamma 90.000000
_cell_volume 776.114198
_symmetry_space_group_name_H-M "P 21 21 2"
_symmetry_group_IT_number 18
_symmetry_cell_setting 'orthorhombic'
loop_
_space_group_symop_operation_xyz
x,y,z
-x,-y,z
1/2+x,1/2-y,-z
1/2-x,1/2+y,-z
loop_
_atom_site_type_symbol
_atom_site_label
_atom_site_fract_x
_atom_site_fract_y
_atom_site_fract_z
Si Si1 0.148857 0.092653 0.725528
Si Si2 0.058192 0.600678 0.003052
Si Si3 0.450667 0.222413 0.575341
Si Si4 0.249939 0.263201 0.175741
O O1 0.274099 0.079209 0.868029
O O2 0.352884 0.119566 0.615343
O O3 0.967386 0.181954 0.745867
O O4 0.000000 0.000000 0.690755
O O5 0.000000 0.500000 0.944910
O O6 0.833342 0.661603 0.066152
O O7 0.177177 0.669848 0.898193
O O8 0.206668 0.271112 0.509836
O O9 0.531742 0.259373 0.719341
#
# Coordination Sequence:
#
# PCOD9313063 Si02
#       4
#     4   4   4   4
#     4  11  22  40  71 105 138 181 239 286 352 424
#     4  11  22  37  67 109 146 180 231 291 363 431
#     4  11  24  45  71  96 137 189 236 291 344 409
#     4  11  22  39  70 101 144 187 225 295 356 415
#
# _framework density 20.615521999999999
#
# number of rings (size 3 to 8) (size 9 to 14) (size 15 to 20)
#    0.000    1.000    7.500    0.000    0.000    0.000 
#    0.000    0.000   11.000    0.000    0.000    0.000 
#    0.000    0.000    0.000    0.000    0.000    0.000 
#
# Total GULP energy -89258.790856 kJ/mol
# GULP energy per Si atom -5578.674429 kJ/mol
# Density = 2.056860 g / cm^3
# Si number density = 20.615522 Si / 1000 Ang^3
#
#
#
# Elastic Constant Matrix: (Units=GPa)
#
#
# Indices 1 2 3 4 5 6 
#
# 1 103.0129 51.4995 34.6390 0.0000 0.0000 0.0000
# 2 51.4995 146.8243 52.9095 0.0000 0.0000 0.0000
# 3 34.6390 52.9095 58.1362 0.0000 0.0000 0.0000
# 4 0.0000 0.0000 0.0000 15.2013 0.0000 0.0000
# 5 0.0000 0.0000 0.0000 0.0000 20.6240 0.0000
# 6 0.0000 0.0000 0.0000 0.0000 0.0000 40.3533
#
#
#
# Elastic Compliance Matrix: (Units=1/GPa)
#
#
# Indices 1 2 3 4 5 6 
#
# 1 0.012766 -0.002584 -0.005255 0.000000 0.000000 0.000000
# 2 -0.002584 0.010658 -0.008160 0.000000 0.000000 0.000000
# 3 -0.005255 -0.008160 0.027758 0.000000 0.000000 0.000000
# 4 0.000000 0.000000 0.000000 0.065784 0.000000 0.000000
# 5 0.000000 0.000000 0.000000 0.000000 0.048487 0.000000
# 6 0.000000 0.000000 0.000000 0.000000 0.000000 0.024781
#
#
# Mechanical properties :
#
#
# Convention : Reuss Voigt Hill
#
# Bulk Modulus (GPa) = 52.12457 65.11880 58.62169
# Shear Modulus (GPa) = 21.86970 26.49740 24.18355
#
# Velocity S-wave (km/s) = 3.26058 3.58902 3.42873
# Velocity P-wave (km/s) = 6.28603 6.98789 6.64623
#
# Compressibility (1/GPa) = 0.01918481
#
# Stress axis : x y z
#
# Youngs Moduli (GPa) = 78.33051 93.82792 36.02574
#
# Poissons Ratio (x) = 0.24249 0.18930
# Poissons Ratio (y) = 0.20244 0.29396
# Poissons Ratio (z) = 0.41159 0.76562
#
# Static dielectric constant tensor:
#      x y z
#    x 1.864570 0.000000 0.000000 
#    y 0.000000 1.698530 0.000000 
#    z 0.000000 0.000000 1.750680 
# 
# From -- ./inp_files/4078.got.cif
#   From: 2010.05.17/outbox.cif.g08.bks.cpg/sg18_3_cif.got.tgz:4078.got - 2010.06.03 22:40:56.
