data_PCOD9313891
_publ_section_title
;
Structure prediction by ZEFSAII (Michael W. Deem and Ramdas Pophale) SiO2 
 PCOD9313891
Probable space group: P 21 21 21
;
_chemical_formula_sum "Si O2"
_cell_formula_units_Z 32
_cell_length_a 13.274844
_cell_length_b 5.996726
_cell_length_c 17.040300
_cell_angle_alpha 90.000000
_cell_angle_beta 90.000000
_cell_angle_gamma 90.000000
_cell_volume 1356.503342
_symmetry_space_group_name_H-M "P 21 21 21"
_symmetry_group_IT_number 19
_symmetry_cell_setting 'orthorhombic'
loop_
_space_group_symop_operation_xyz
x,y,z
1/2-x,-y,1/2+z
1/2+x,1/2-y,-z
-x,1/2+y,1/2-z
loop_
_atom_site_type_symbol
_atom_site_label
_atom_site_fract_x
_atom_site_fract_y
_atom_site_fract_z
Si Si1 0.050140 0.720830 0.740488
Si Si2 0.400895 0.414465 0.750254
Si Si3 0.614588 0.586791 0.416492
Si Si4 0.801825 0.270286 0.402595
Si Si5 0.490894 0.276418 0.508134
Si Si6 0.922464 0.453189 0.145137
Si Si7 0.252195 0.708647 0.834692
Si Si8 0.686249 0.964349 0.514082
O O1 0.086270 0.739323 0.650267
O O2 0.143168 0.745220 0.800039
O O3 0.008110 0.464021 0.749440
O O4 0.351692 0.266065 0.681873
O O5 0.511235 0.478684 0.721646
O O6 0.322254 0.610516 0.765433
O O7 0.409666 0.303866 0.835979
O O8 0.710109 0.439495 0.392718
O O9 0.519604 0.422665 0.432311
O O10 0.652012 0.714684 0.494813
O O11 0.753336 0.048079 0.440420
O O12 0.885854 0.336768 0.468331
O O13 0.506586 0.459096 0.576795
O O14 0.582915 0.105616 0.514829
O O15 0.814892 0.572759 0.140612
O O16 0.252350 0.541239 0.909079
#
# Coordination Sequence:
#
# PCOD9313891 Si02
#       8
#     4   4   4   4   4   4   4   4
#     4  12  32  53  78 109 150 215 271 318 372 458
#     4  11  20  37  66  99 141 181 226 290 385 455
#     4  11  24  47  72  99 145 198 251 317 378 460
#     4  10  23  40  66  99 139 185 237 304 377 447
#     4   9  22  41  64 101 142 178 235 306 374 458
#     4  10  20  37  63 105 140 173 229 298 383 456
#     4  11  24  43  70 100 143 191 245 316 370 454
#     4  10  23  42  67 100 140 181 248 307 383 444
#
# _framework density 23.590064000000002
#
# number of rings (size 3 to 8) (size 9 to 14) (size 15 to 20)
#    0.000    1.500    1.250    2.250    8.750    1.000 
#    0.000    0.000    0.000    0.000    0.000    0.000 
#    0.000    0.000    0.000    0.000    0.000    0.000 
#
# Total GULP energy -178554.317835 kJ/mol
# GULP energy per Si atom -5579.822432 kJ/mol
# Density = 2.353637 g / cm^3
# Si number density = 23.590064 Si / 1000 Ang^3
#
#
#
# Elastic Constant Matrix: (Units=GPa)
#
#
# Indices 1 2 3 4 5 6 
#
# 1 91.6006 24.6778 20.9488 0.0000 0.0000 0.0000
# 2 24.6778 57.0068 16.0967 0.0000 0.0000 0.0000
# 3 20.9488 16.0967 80.5951 0.0000 0.0000 0.0000
# 4 0.0000 0.0000 0.0000 44.9752 0.0000 0.0000
# 5 0.0000 0.0000 0.0000 0.0000 37.2748 0.0000
# 6 0.0000 0.0000 0.0000 0.0000 0.0000 24.6637
#
#
#
# Elastic Compliance Matrix: (Units=1/GPa)
#
#
# Indices 1 2 3 4 5 6 
#
# 1 0.012764 -0.004863 -0.002346 0.000000 0.000000 0.000000
# 2 -0.004863 0.020443 -0.002819 0.000000 0.000000 0.000000
# 3 -0.002346 -0.002819 0.013581 0.000000 0.000000 0.000000
# 4 0.000000 0.000000 0.000000 0.022234 0.000000 0.000000
# 5 0.000000 0.000000 0.000000 0.000000 0.026828 0.000000
# 6 0.000000 0.000000 0.000000 0.000000 0.000000 0.040545
#
#
# Mechanical properties :
#
#
# Convention : Reuss Voigt Hill
#
# Bulk Modulus (GPa) = 37.40997 39.18324 38.29660
# Shear Modulus (GPa) = 30.23684 32.54801 31.39242
#
# Velocity S-wave (km/s) = 3.58405 3.71851 3.65190
# Velocity P-wave (km/s) = 5.74631 5.92305 5.83535
#
# Compressibility (1/GPa) = 0.02673084
#
# Stress axis : x y z
#
# Youngs Moduli (GPa) = 78.34761 48.91702 73.63439
#
# Poissons Ratio (x) = 0.23787 0.17278
# Poissons Ratio (y) = 0.38098 0.20757
# Poissons Ratio (z) = 0.18384 0.13789
#
# Static dielectric constant tensor:
#      x y z
#    x 1.885380 0.000000 0.000000 
#    y 0.000000 1.943920 0.000000 
#    z 0.000000 0.000000 1.982330 
# 
# From -- ./inp_files/6793.got.cif
#   From: 2010.05.17/outbox.cif.g08.bks.cpg/sg19_4_cif.got.tgz:6793.got - 2010.06.03 22:46:19.
