data_PCOD9313081
_publ_section_title
;
Structure prediction by ZEFSAII (Michael W. Deem and Ramdas Pophale) SiO2 
 PCOD9313081
Probable space group: P 21 21 2
;
_chemical_formula_sum "Si O2"
_cell_formula_units_Z 18
_cell_length_a 7.832434
_cell_length_b 10.387861
_cell_length_c 8.882548
_cell_angle_alpha 90.000000
_cell_angle_beta 90.000000
_cell_angle_gamma 90.000000
_cell_volume 722.703964
_symmetry_space_group_name_H-M "P 21 21 2"
_symmetry_group_IT_number 18
_symmetry_cell_setting 'orthorhombic'
loop_
_space_group_symop_operation_xyz
x,y,z
-x,-y,z
1/2+x,1/2-y,-z
1/2-x,1/2+y,-z
loop_
_atom_site_type_symbol
_atom_site_label
_atom_site_fract_x
_atom_site_fract_y
_atom_site_fract_z
Si Si1 0.078621 0.218110 0.703609
Si Si2 0.773179 0.140298 0.516609
Si Si3 0.591391 0.136470 0.827778
Si Si4 0.554449 0.630585 0.996434
Si Si5 0.500000 0.000000 0.348607
O O1 0.249283 0.254387 0.615073
O O2 0.996362 0.361815 0.734294
O O3 0.960722 0.143559 0.583626
O O4 0.071392 0.142978 0.858391
O O5 0.660691 0.172497 0.663435
O O6 0.673405 0.017697 0.446406
O O7 0.756285 0.126405 0.936990
O O8 0.500000 0.000000 0.821324
O O9 0.473246 0.246416 0.895182
O O10 0.500000 0.500000 0.914300
#
# Coordination Sequence:
#
# PCOD9313081 Si02
#       5
#     4   4   4   4   2
#     4   9  20  37  61  88 122 156 198 249 301 361
#     4   9  19  37  62  88 120 155 201 243 306 355
#     4  11  22  42  66  87 126 165 203 260 307 372
#     4  11  25  41  60  96 123 163 211 254 312 369
#     4   8  18  38  58  90 120 146 204 244 296 358
#
# _framework density 24.906464
#
# number of rings (size 3 to 8) (size 9 to 14) (size 15 to 20)
#    1.333    0.889    1.111    1.333    1.556    7.111 
#    0.000    1.111    0.000    0.000    0.000    0.000 
#    0.000    0.000    0.000    0.000    0.000    0.000 
#
# Total GULP energy -100593.092291 kJ/mol
# GULP energy per Si atom -5588.505127 kJ/mol
# Density = 2.484978 g / cm^3
# Si number density = 24.906464 Si / 1000 Ang^3
#
#
#
# Elastic Constant Matrix: (Units=GPa)
#
#
# Indices 1 2 3 4 5 6 
#
# 1 62.6751 19.3882 25.6235 0.0000 0.0000 0.0000
# 2 19.3882 128.1158 24.5248 0.0000 0.0000 0.0000
# 3 25.6235 24.5248 61.4318 0.0000 0.0000 0.0000
# 4 0.0000 0.0000 0.0000 8.0612 0.0000 0.0000
# 5 0.0000 0.0000 0.0000 0.0000 26.8203 0.0000
# 6 0.0000 0.0000 0.0000 0.0000 0.0000 32.8198
#
#
#
# Elastic Compliance Matrix: (Units=1/GPa)
#
#
# Indices 1 2 3 4 5 6 
#
# 1 0.019501 -0.001509 -0.007532 0.000000 0.000000 0.000000
# 2 -0.001509 0.008568 -0.002791 0.000000 0.000000 0.000000
# 3 -0.007532 -0.002791 0.020534 0.000000 0.000000 0.000000
# 4 0.000000 0.000000 0.000000 0.124052 0.000000 0.000000
# 5 0.000000 0.000000 0.000000 0.000000 0.037285 0.000000
# 6 0.000000 0.000000 0.000000 0.000000 0.000000 0.030469
#
#
# Mechanical properties :
#
#
# Convention : Reuss Voigt Hill
#
# Bulk Modulus (GPa) = 40.09709 43.47731 41.78720
# Shear Modulus (GPa) = 18.35627 25.71934 22.03780
#
# Velocity S-wave (km/s) = 2.71773 3.21695 2.97782
# Velocity P-wave (km/s) = 5.09727 5.59397 5.35139
#
# Compressibility (1/GPa) = 0.02493947
#
# Stress axis : x y z
#
# Youngs Moduli (GPa) = 51.27845 116.71151 48.70006
#
# Poissons Ratio (x) = 0.17617 0.36679
# Poissons Ratio (y) = 0.07740 0.13592
# Poissons Ratio (z) = 0.38620 0.32574
#
# Static dielectric constant tensor:
#      x y z
#    x 2.008320 0.000000 0.000000 
#    y 0.000000 2.076250 0.000000 
#    z 0.000000 0.000000 1.933310 
# 
# From -- ./inp_files/5376.got.cif
#   From: 2010.05.17/outbox.cif.g08.bks.cpg/sg18_3_cif.got.tgz:5376.got - 2010.06.03 22:40:56.
