data_PCOD9313432
_publ_section_title
;
Structure prediction by ZEFSAII (Michael W. Deem and Ramdas Pophale) SiO2 
 PCOD9313432
Probable space group: P 21 21 21
;
_chemical_formula_sum "Si O2"
_cell_formula_units_Z 28
_cell_length_a 14.170126
_cell_length_b 4.969938
_cell_length_c 19.689325
_cell_angle_alpha 90.000000
_cell_angle_beta 90.000000
_cell_angle_gamma 90.000000
_cell_volume 1386.613776
_symmetry_space_group_name_H-M "P 21 21 21"
_symmetry_group_IT_number 19
_symmetry_cell_setting 'orthorhombic'
loop_
_space_group_symop_operation_xyz
x,y,z
1/2-x,-y,1/2+z
1/2+x,1/2-y,-z
-x,1/2+y,1/2-z
loop_
_atom_site_type_symbol
_atom_site_label
_atom_site_fract_x
_atom_site_fract_y
_atom_site_fract_z
Si Si1 0.704851 0.978086 0.068139
Si Si2 0.881488 0.585493 0.235089
Si Si3 0.098599 0.512925 0.489493
Si Si4 0.486925 0.988044 0.058538
Si Si5 0.797360 0.540951 0.663848
Si Si6 0.016424 0.348462 0.790824
Si Si7 0.464420 0.416810 0.837044
O O1 0.790908 0.934506 0.016317
O O2 0.692564 0.726747 0.119039
O O3 0.598618 0.033809 0.041849
O O4 0.740421 0.232676 0.111967
O O5 0.773162 0.516004 0.225284
O O6 0.900895 0.886348 0.209427
O O7 0.929982 0.544088 0.307797
O O8 0.935195 0.386668 0.182120
O O9 0.053699 0.503670 0.414111
O O10 0.078943 0.810356 0.516761
O O11 0.042787 0.310896 0.538509
O O12 0.474339 0.050558 0.138155
O O13 0.891886 0.674139 0.690826
O O14 0.041697 0.619885 0.749574
#
# Coordination Sequence:
#
# PCOD9313432 Si02
#       7
#     4   4   4   4   4   4   4
#     4  11  22  39  62  91 120 165 217 250 296 381
#     4  10  18  34  54  92 117 154 195 243 292 351
#     4  12  21  40  63  91 126 169 199 254 319 365
#     4  11  25  40  63  91 122 159 211 259 307 377
#     4  11  19  37  64  89 118 158 214 252 291 373
#     4  11  23  42  63  88 118 159 211 267 312 354
#     4  10  20  32  57  86 127 148 191 243 299 367
#
# _framework density 20.193078
#
# number of rings (size 3 to 8) (size 9 to 14) (size 15 to 20)
#    0.000    1.143    2.857    6.000    0.000    0.000 
#    0.000    4.286    0.000    0.000    0.000    0.000 
#    0.000    0.000    0.000    0.000    0.000    0.000 
#
# Total GULP energy -156309.806281 kJ/mol
# GULP energy per Si atom -5582.493081 kJ/mol
# Density = 2.014712 g / cm^3
# Si number density = 20.193078 Si / 1000 Ang^3
#
#
#
# Elastic Constant Matrix: (Units=GPa)
#
#
# Indices 1 2 3 4 5 6 
#
# 1 57.1490 -3.3491 16.8426 0.0000 0.0000 0.0000
# 2 -3.3491 75.3209 8.7758 0.0000 0.0000 0.0000
# 3 16.8426 8.7758 56.5639 0.0000 0.0000 0.0000
# 4 0.0000 0.0000 0.0000 35.2760 0.0000 0.0000
# 5 0.0000 0.0000 0.0000 0.0000 25.7148 0.0000
# 6 0.0000 0.0000 0.0000 0.0000 0.0000 27.2159
#
#
#
# Elastic Compliance Matrix: (Units=1/GPa)
#
#
# Indices 1 2 3 4 5 6 
#
# 1 0.019360 0.001561 -0.006007 0.000000 0.000000 0.000000
# 2 0.001561 0.013647 -0.002582 0.000000 0.000000 0.000000
# 3 -0.006007 -0.002582 0.019868 0.000000 0.000000 0.000000
# 4 0.000000 0.000000 0.000000 0.028348 0.000000 0.000000
# 5 0.000000 0.000000 0.000000 0.000000 0.038888 0.000000
# 6 0.000000 0.000000 0.000000 0.000000 0.000000 0.036743
#
#
# Mechanical properties :
#
#
# Convention : Reuss Voigt Hill
#
# Bulk Modulus (GPa) = 25.76075 25.95250 25.85662
# Shear Modulus (GPa) = 27.19611 28.75898 27.97754
#
# Velocity S-wave (km/s) = 3.67386 3.77795 3.72627
# Velocity P-wave (km/s) = 5.54809 5.64895 5.59875
#
# Compressibility (1/GPa) = 0.03881875
#
# Stress axis : x y z
#
# Youngs Moduli (GPa) = 51.65328 73.27750 50.33139
#
# Poissons Ratio (x) = -0.11436 0.30233
# Poissons Ratio (y) = -0.08061 0.12996
# Poissons Ratio (z) = 0.31027 0.18920
#
# Static dielectric constant tensor:
#      x y z
#    x 1.776230 0.000000 0.000000 
#    y 0.000000 1.709370 0.000000 
#    z 0.000000 0.000000 1.720860 
# 
# From -- ./inp_files/6761.got.cif
#   From: 2010.05.17/outbox.cif.g08.bks.cpg/sg19_4_cif.got.tgz:6761.got - 2010.06.03 22:46:19.
