data_PCOD9313862
_publ_section_title
;
Structure prediction by ZEFSAII (Michael W. Deem and Ramdas Pophale) SiO2 
 PCOD9313862
Probable space group: P 21 21 21
;
_chemical_formula_sum "Si O2"
_cell_formula_units_Z 28
_cell_length_a 12.631052
_cell_length_b 8.139590
_cell_length_c 12.427593
_cell_angle_alpha 90.000000
_cell_angle_beta 90.000000
_cell_angle_gamma 90.000000
_cell_volume 1277.700528
_symmetry_space_group_name_H-M "P 21 21 21"
_symmetry_group_IT_number 19
_symmetry_cell_setting 'orthorhombic'
loop_
_space_group_symop_operation_xyz
x,y,z
1/2-x,-y,1/2+z
1/2+x,1/2-y,-z
-x,1/2+y,1/2-z
loop_
_atom_site_type_symbol
_atom_site_label
_atom_site_fract_x
_atom_site_fract_y
_atom_site_fract_z
Si Si1 0.374481 0.439683 0.458795
Si Si2 0.785158 0.575210 0.241568
Si Si3 0.771237 0.278104 0.380972
Si Si4 0.920431 0.587153 0.639709
Si Si5 0.887207 0.524024 0.023068
Si Si6 0.115397 0.428352 0.735915
Si Si7 0.278844 0.765314 0.535877
O O1 0.342274 0.275664 0.519687
O O2 0.490118 0.489217 0.500008
O O3 0.374207 0.438304 0.330523
O O4 0.293609 0.581604 0.495519
O O5 0.823602 0.409028 0.302160
O O6 0.668902 0.524529 0.197954
O O7 0.858092 0.601984 0.138159
O O8 0.781843 0.708828 0.336169
O O9 0.667999 0.365441 0.431636
O O10 0.726640 0.124955 0.314252
O O11 0.924886 0.761494 0.703950
O O12 0.873637 0.632848 0.523010
O O13 0.031519 0.495354 0.650093
O O14 0.827087 0.350148 0.010314
#
# Coordination Sequence:
#
# PCOD9313862 Si02
#       7
#     4   4   4   4   4   4   4
#     4  11  23  38  60  89 118 152 196 242 292 350
#     4   9  19  38  57  79 118 157 191 239 292 342
#     4  10  23  39  58  87 120 153 196 244 288 347
#     4   9  19  34  57  82 110 153 196 242 292 341
#     4  10  22  41  61  84 119 158 196 240 290 347
#     4  10  20  37  57  83 116 149 196 249 289 339
#     4   9  20  37  56  84 117 152 195 240 289 346
#
# _framework density 21.914366999999999
#
# number of rings (size 3 to 8) (size 9 to 14) (size 15 to 20)
#    0.000    2.286    0.000    3.429    0.000   12.571 
#    0.000    1.429    0.000    0.000    0.000    0.000 
#    0.000    0.000    0.000    0.000    0.000    0.000 
#
# Total GULP energy -156491.088512 kJ/mol
# GULP energy per Si atom -5588.967447 kJ/mol
# Density = 2.186449 g / cm^3
# Si number density = 21.914367 Si / 1000 Ang^3
#
#
#
# Elastic Constant Matrix: (Units=GPa)
#
#
# Indices 1 2 3 4 5 6 
#
# 1 29.2931 -2.6264 -10.9470 0.0000 0.0000 0.0000
# 2 -2.6264 23.5657 0.3396 0.0000 0.0000 0.0000
# 3 -10.9470 0.3396 91.0416 0.0000 0.0000 0.0000
# 4 0.0000 0.0000 0.0000 39.3608 0.0000 0.0000
# 5 0.0000 0.0000 0.0000 0.0000 23.2952 0.0000
# 6 0.0000 0.0000 0.0000 0.0000 0.0000 24.4809
#
#
#
# Elastic Compliance Matrix: (Units=1/GPa)
#
#
# Indices 1 2 3 4 5 6 
#
# 1 0.036110 0.003962 0.004327 0.000000 0.000000 0.000000
# 2 0.003962 0.042872 0.000317 0.000000 0.000000 0.000000
# 3 0.004327 0.000317 0.011503 0.000000 0.000000 0.000000
# 4 0.000000 0.000000 0.000000 0.025406 0.000000 0.000000
# 5 0.000000 0.000000 0.000000 0.000000 0.042927 0.000000
# 6 0.000000 0.000000 0.000000 0.000000 0.000000 0.040848
#
#
# Mechanical properties :
#
#
# Convention : Reuss Voigt Hill
#
# Bulk Modulus (GPa) = 9.28537 13.04808 11.16673
# Shear Modulus (GPa) = 22.89867 27.90301 25.40084
#
# Velocity S-wave (km/s) = 3.23602 3.57217 3.40824
# Velocity P-wave (km/s) = 4.26717 4.79384 4.53815
#
# Compressibility (1/GPa) = 0.10769625
#
# Stress axis : x y z
#
# Youngs Moduli (GPa) = 27.69311 23.32550 86.93295
#
# Poissons Ratio (x) = -0.09242 -0.37617
# Poissons Ratio (y) = -0.10972 -0.02751
# Poissons Ratio (z) = -0.11983 -0.00738
#
# Static dielectric constant tensor:
#      x y z
#    x 1.764370 0.000000 0.000000 
#    y 0.000000 1.864910 0.000000 
#    z 0.000000 0.000000 1.806470 
# 
# From -- ./inp_files/3464.got.cif
#   From: 2010.05.17/outbox.cif.g08.bks.cpg/sg19_2_cif.got.tgz:3464.got - 2010.06.03 22:46:19.
