data_PCOD9313840
_publ_section_title
;
Structure prediction by ZEFSAII (Michael W. Deem and Ramdas Pophale) SiO2 
 PCOD9313840
Probable space group: P 21 21 21
;
_chemical_formula_sum "Si O2"
_cell_formula_units_Z 28
_cell_length_a 7.930612
_cell_length_b 10.343220
_cell_length_c 16.308690
_cell_angle_alpha 90.000000
_cell_angle_beta 90.000000
_cell_angle_gamma 90.000000
_cell_volume 1337.770278
_symmetry_space_group_name_H-M "P 21 21 21"
_symmetry_group_IT_number 19
_symmetry_cell_setting 'orthorhombic'
loop_
_space_group_symop_operation_xyz
x,y,z
1/2-x,-y,1/2+z
1/2+x,1/2-y,-z
-x,1/2+y,1/2-z
loop_
_atom_site_type_symbol
_atom_site_label
_atom_site_fract_x
_atom_site_fract_y
_atom_site_fract_z
Si Si1 0.039317 0.955514 0.651980
Si Si2 0.766535 0.221915 0.142856
Si Si3 0.151131 0.667075 0.950340
Si Si4 0.421997 0.874009 0.901148
Si Si5 0.032652 0.494222 0.414488
Si Si6 0.770664 0.401143 0.001628
Si Si7 0.862866 0.466530 0.250288
O O1 0.132811 0.871348 0.581881
O O2 0.182064 0.980693 0.718698
O O3 0.874245 0.875761 0.677696
O O4 0.979925 0.092179 0.610217
O O5 0.925848 0.138230 0.115741
O O6 0.819367 0.336244 0.202157
O O7 0.705684 0.286242 0.057595
O O8 0.251432 0.788407 0.911180
O O9 0.303630 0.564218 0.956697
O O10 0.062926 0.690959 0.038865
O O11 0.446429 0.922333 0.807646
O O12 0.395947 0.012037 0.945193
O O13 0.880340 0.505174 0.476142
O O14 0.974975 0.428968 0.329444
#
# Coordination Sequence:
#
# PCOD9313840 Si02
#       7
#     4   4   4   4   4   4   4
#     4   9  20  37  58  87 121 159 193 248 301 350
#     4  10  20  36  58  84 114 158 201 241 296 355
#     4  10  21  38  61  87 119 160 202 246 296 353
#     4  10  21  38  60  89 117 158 202 244 295 358
#     4  10  21  38  59  86 120 158 194 250 301 347
#     4   9  18  37  59  85 116 152 200 243 294 356
#     4  10  23  38  57  88 125 155 202 244 301 359
#
# _framework density 20.930350000000001
#
# number of rings (size 3 to 8) (size 9 to 14) (size 15 to 20)
#    0.000    2.286    0.000    1.714    4.000    1.143 
#    0.000    5.714    0.000    0.000    0.000    0.000 
#    0.000    0.000    0.000    0.000    0.000    0.000 
#
# Total GULP energy -155989.080262 kJ/mol
# GULP energy per Si atom -5571.038581 kJ/mol
# Density = 2.088271 g / cm^3
# Si number density = 20.930350 Si / 1000 Ang^3
#
#
#
# Elastic Constant Matrix: (Units=GPa)
#
#
# Indices 1 2 3 4 5 6 
#
# 1 58.8495 0.2677 18.2154 0.0000 0.0000 0.0000
# 2 0.2677 61.0382 24.0732 0.0000 0.0000 0.0000
# 3 18.2154 24.0732 73.1105 0.0000 0.0000 0.0000
# 4 0.0000 0.0000 0.0000 21.9550 0.0000 0.0000
# 5 0.0000 0.0000 0.0000 0.0000 18.3880 0.0000
# 6 0.0000 0.0000 0.0000 0.0000 0.0000 35.4830
#
#
#
# Elastic Compliance Matrix: (Units=1/GPa)
#
#
# Indices 1 2 3 4 5 6 
#
# 1 0.018624 0.002009 -0.005302 0.000000 0.000000 0.000000
# 2 0.002009 0.019045 -0.006772 0.000000 0.000000 0.000000
# 3 -0.005302 -0.006772 0.017229 0.000000 0.000000 0.000000
# 4 0.000000 0.000000 0.000000 0.045548 0.000000 0.000000
# 5 0.000000 0.000000 0.000000 0.000000 0.054383 0.000000
# 6 0.000000 0.000000 0.000000 0.000000 0.000000 0.028183
#
#
# Mechanical properties :
#
#
# Convention : Reuss Voigt Hill
#
# Bulk Modulus (GPa) = 28.76063 30.90122 29.83092
# Shear Modulus (GPa) = 23.28506 25.19464 24.23985
#
# Velocity S-wave (km/s) = 3.33904 3.47326 3.40681
# Velocity P-wave (km/s) = 5.35131 5.55703 5.45514
#
# Compressibility (1/GPa) = 0.03476976
#
# Stress axis : x y z
#
# Youngs Moduli (GPa) = 53.69293 52.50700 58.04299
#
# Poissons Ratio (x) = -0.10551 0.30774
# Poissons Ratio (y) = -0.10789 0.39305
# Poissons Ratio (z) = 0.28467 0.35556
#
# Static dielectric constant tensor:
#      x y z
#    x 1.749720 0.000000 0.000000 
#    y 0.000000 1.809560 0.000000 
#    z 0.000000 0.000000 1.798520 
# 
# From -- ./inp_files/5875.got.cif
#   From: 2010.05.17/outbox.cif.g08.bks.cpg/sg19_3_cif.got.tgz:5875.got - 2010.06.03 22:46:19.
