data_PCOD9313793
_publ_section_title
;
Structure prediction by ZEFSAII (Michael W. Deem and Ramdas Pophale) SiO2 
 PCOD9313793
Probable space group: P 21 21 21
;
_chemical_formula_sum "Si O2"
_cell_formula_units_Z 32
_cell_length_a 5.493922
_cell_length_b 11.044643
_cell_length_c 25.167467
_cell_angle_alpha 90.000000
_cell_angle_beta 90.000000
_cell_angle_gamma 90.000000
_cell_volume 1527.121810
_symmetry_space_group_name_H-M "P 21 21 21"
_symmetry_group_IT_number 19
_symmetry_cell_setting 'orthorhombic'
loop_
_space_group_symop_operation_xyz
x,y,z
1/2-x,-y,1/2+z
1/2+x,1/2-y,-z
-x,1/2+y,1/2-z
loop_
_atom_site_type_symbol
_atom_site_label
_atom_site_fract_x
_atom_site_fract_y
_atom_site_fract_z
Si Si1 0.871958 0.895024 0.274436
Si Si2 0.214308 0.034746 0.116938
Si Si3 0.925963 0.133903 0.873532
Si Si4 0.713370 0.263552 0.967729
Si Si5 0.211213 0.345490 0.848541
Si Si6 0.071990 0.786588 0.163336
Si Si7 0.260875 0.934017 0.832715
Si Si8 0.897750 0.856637 0.763022
O O1 0.705108 0.008846 0.258492
O O2 0.070321 0.957671 0.312614
O O3 0.709481 0.825949 0.318599
O O4 0.960011 0.843839 0.217981
O O5 0.230376 0.104176 0.060636
O O6 0.476019 0.065510 0.144337
O O7 0.970976 0.096485 0.141244
O O8 0.153954 0.892992 0.123965
O O9 0.744935 0.160440 0.921848
O O10 0.142067 0.230264 0.883925
O O11 0.043862 0.001912 0.864267
O O12 0.452047 0.251328 0.995529
O O13 0.206241 0.295796 0.788802
O O14 0.898124 0.679508 0.141014
O O15 0.303873 0.715103 0.186047
O O16 0.176702 0.877122 0.775868
#
# Coordination Sequence:
#
# PCOD9313793 Si02
#       8
#     4   4   4   4   4   4   4   4
#     4  10  20  35  56  89 133 185 218 261 310 395
#     4  11  25  41  66  98 133 173 218 292 337 398
#     4  10  23  37  65  93 130 168 220 278 340 403
#     4  11  25  46  72 104 124 163 228 296 362 400
#     4  11  22  37  61  92 135 177 221 260 327 380
#     4  11  22  35  60  93 142 181 228 258 329 409
#     4  10  22  36  55  90 131 186 225 268 320 392
#     4  10  21  33  51  89 130 189 222 249 303 387
#
# _framework density 20.954450999999999
#
# number of rings (size 3 to 8) (size 9 to 14) (size 15 to 20)
#    0.000    1.500    1.250    3.750   12.250    2.000 
#    0.000    0.000    0.000    0.000    9.750    0.000 
#    0.000    0.000    0.000    0.000    0.000    0.000 
#
# Total GULP energy -178209.411766 kJ/mol
# GULP energy per Si atom -5569.044118 kJ/mol
# Density = 2.090676 g / cm^3
# Si number density = 20.954451 Si / 1000 Ang^3
#
#
#
# Elastic Constant Matrix: (Units=GPa)
#
#
# Indices 1 2 3 4 5 6 
#
# 1 76.3728 16.3913 15.5561 0.0000 0.0000 0.0000
# 2 16.3913 96.3753 13.2207 0.0000 0.0000 0.0000
# 3 15.5561 13.2207 62.2224 0.0000 0.0000 0.0000
# 4 0.0000 0.0000 0.0000 21.3123 0.0000 0.0000
# 5 0.0000 0.0000 0.0000 0.0000 28.8334 0.0000
# 6 0.0000 0.0000 0.0000 0.0000 0.0000 30.5305
#
#
#
# Elastic Compliance Matrix: (Units=1/GPa)
#
#
# Indices 1 2 3 4 5 6 
#
# 1 0.014154 -0.001979 -0.003118 0.000000 0.000000 0.000000
# 2 -0.001979 0.010964 -0.001835 0.000000 0.000000 0.000000
# 3 -0.003118 -0.001835 0.017241 0.000000 0.000000 0.000000
# 4 0.000000 0.000000 0.000000 0.046921 0.000000 0.000000
# 5 0.000000 0.000000 0.000000 0.000000 0.034682 0.000000
# 6 0.000000 0.000000 0.000000 0.000000 0.000000 0.032754
#
#
# Mechanical properties :
#
#
# Convention : Reuss Voigt Hill
#
# Bulk Modulus (GPa) = 35.09462 36.14518 35.61990
# Shear Modulus (GPa) = 27.76563 28.78873 28.27718
#
# Velocity S-wave (km/s) = 3.64407 3.71060 3.67748
# Velocity P-wave (km/s) = 5.87282 5.97034 5.92178
#
# Compressibility (1/GPa) = 0.02849440
#
# Stress axis : x y z
#
# Youngs Moduli (GPa) = 70.65348 91.20370 58.00219
#
# Poissons Ratio (x) = 0.18054 0.18085
# Poissons Ratio (y) = 0.13986 0.10642
# Poissons Ratio (z) = 0.22029 0.16734
#
# Static dielectric constant tensor:
#      x y z
#    x 1.872980 0.000000 0.000000 
#    y 0.000000 1.816130 0.000000 
#    z 0.000000 0.000000 1.805870 
# 
# From -- ./inp_files/7462.got.cif
#   From: 2010.05.17/outbox.cif.g08.bks.cpg/sg19_4_cif.got.tgz:7462.got - 2010.06.03 22:46:19.
