data_PCOD9313434
_publ_section_title
;
Structure prediction by ZEFSAII (Michael W. Deem and Ramdas Pophale) SiO2 
 PCOD9313434
Probable space group: P 21 21 21
;
_chemical_formula_sum "Si O2"
_cell_formula_units_Z 28
_cell_length_a 11.805895
_cell_length_b 9.533467
_cell_length_c 8.922717
_cell_angle_alpha 90.000000
_cell_angle_beta 90.000000
_cell_angle_gamma 90.000000
_cell_volume 1004.261706
_symmetry_space_group_name_H-M "P 21 21 21"
_symmetry_group_IT_number 19
_symmetry_cell_setting 'orthorhombic'
loop_
_space_group_symop_operation_xyz
x,y,z
1/2-x,-y,1/2+z
1/2+x,1/2-y,-z
-x,1/2+y,1/2-z
loop_
_atom_site_type_symbol
_atom_site_label
_atom_site_fract_x
_atom_site_fract_y
_atom_site_fract_z
Si Si1 0.946565 0.943421 0.685332
Si Si2 0.887100 0.279137 0.011379
Si Si3 0.184702 0.989356 0.986659
Si Si4 0.567400 0.283778 0.409089
Si Si5 0.147744 0.149624 0.266364
Si Si6 0.828954 0.227232 0.345482
Si Si7 0.747407 0.061689 0.826576
O O1 0.969246 0.865165 0.841798
O O2 0.998009 0.839690 0.561041
O O3 0.814336 0.979720 0.694875
O O4 0.007106 0.091441 0.677133
O O5 0.792021 0.400869 0.986277
O O6 0.838907 0.139027 0.932325
O O7 0.888204 0.253881 0.188288
O O8 0.107336 0.076308 0.112259
O O9 0.240609 0.936421 0.826188
O O10 0.133676 0.836364 0.031533
O O11 0.572198 0.333072 0.582263
O O12 0.697603 0.281125 0.348501
O O13 0.177185 0.310371 0.235317
O O14 0.827020 0.065127 0.390082
#
# Coordination Sequence:
#
# PCOD9313434 Si02
#       7
#     4   4   4   4   4   4   4
#     4  11  19  36  56  91 119 151 199 260 301 341
#     4  11  20  36  59  88 121 152 201 257 295 355
#     4  10  18  34  58  86 114 155 202 247 292 361
#     4  10  21  35  59  89 122 151 204 252 300 358
#     4  10  20  36  55  92 119 156 203 252 304 362
#     4  10  20  34  54  88 115 156 192 250 299 354
#     4  10  24  33  57  90 124 153 199 258 307 355
#
# _framework density 27.881178999999999
#
# number of rings (size 3 to 8) (size 9 to 14) (size 15 to 20)
#    0.000    1.714    5.714    0.000    6.000    0.000 
#    0.000    0.000    0.000    0.000   66.857    0.000 
#    0.000    0.000    0.000    0.000    0.000    0.000 
#
# Total GULP energy -156047.138332 kJ/mol
# GULP energy per Si atom -5573.112083 kJ/mol
# Density = 2.781772 g / cm^3
# Si number density = 27.881179 Si / 1000 Ang^3
#
#
#
# Elastic Constant Matrix: (Units=GPa)
#
#
# Indices 1 2 3 4 5 6 
#
# 1 42.1908 18.6322 36.2946 0.0000 0.0000 0.0000
# 2 18.6322 215.8608 72.4700 0.0000 0.0000 0.0000
# 3 36.2946 72.4700 106.7716 0.0000 0.0000 0.0000
# 4 0.0000 0.0000 0.0000 11.4064 0.0000 0.0000
# 5 0.0000 0.0000 0.0000 0.0000 41.2976 0.0000
# 6 0.0000 0.0000 0.0000 0.0000 0.0000 30.5107
#
#
#
# Elastic Compliance Matrix: (Units=1/GPa)
#
#
# Indices 1 2 3 4 5 6 
#
# 1 0.033742 0.001215 -0.012294 0.000000 0.000000 0.000000
# 2 0.001215 0.006044 -0.004515 0.000000 0.000000 0.000000
# 3 -0.012294 -0.004515 0.016610 0.000000 0.000000 0.000000
# 4 0.000000 0.000000 0.000000 0.087670 0.000000 0.000000
# 5 0.000000 0.000000 0.000000 0.000000 0.024215 0.000000
# 6 0.000000 0.000000 0.000000 0.000000 0.000000 0.032775
#
#
# Mechanical properties :
#
#
# Convention : Reuss Voigt Hill
#
# Bulk Modulus (GPa) = 39.67322 68.84630 54.25976
# Shear Modulus (GPa) = 20.77745 32.47135 26.62440
#
# Velocity S-wave (km/s) = 2.73282 3.41637 3.09354
# Velocity P-wave (km/s) = 4.92118 6.34890 5.68008
#
# Compressibility (1/GPa) = 0.02520592
#
# Stress axis : x y z
#
# Youngs Moduli (GPa) = 29.63709 165.46585 60.20642
#
# Poissons Ratio (x) = -0.20106 0.74020
# Poissons Ratio (y) = -0.03601 0.27183
# Poissons Ratio (z) = 0.36437 0.74708
#
# Static dielectric constant tensor:
#      x y z
#    x 4.093830 0.000000 0.000000 
#    y 0.000000 2.114960 0.000000 
#    z 0.000000 0.000000 2.333370 
# 
# From -- ./inp_files/5213.got.cif
#   From: 2010.05.17/outbox.cif.g08.bks.cpg/sg19_3_cif.got.tgz:5213.got - 2010.06.03 22:46:19.
