data_PCOD9313258
_publ_section_title
;
Structure prediction by ZEFSAII (Michael W. Deem and Ramdas Pophale) SiO2 
 PCOD9313258
Probable space group: P 21 21 2
;
_chemical_formula_sum "Si O2"
_cell_formula_units_Z 16
_cell_length_a 8.589174
_cell_length_b 8.371910
_cell_length_c 9.525612
_cell_angle_alpha 90.000000
_cell_angle_beta 90.000000
_cell_angle_gamma 90.000000
_cell_volume 684.965724
_symmetry_space_group_name_H-M "P 21 21 2"
_symmetry_group_IT_number 18
_symmetry_cell_setting 'orthorhombic'
loop_
_space_group_symop_operation_xyz
x,y,z
-x,-y,z
1/2+x,1/2-y,-z
1/2-x,1/2+y,-z
loop_
_atom_site_type_symbol
_atom_site_label
_atom_site_fract_x
_atom_site_fract_y
_atom_site_fract_z
Si Si1 0.068782 0.677108 0.650519
Si Si2 0.382002 0.381136 0.095345
Si Si3 0.621845 0.880665 0.880119
Si Si4 0.055254 0.181018 0.359513
O O1 0.028817 0.784735 0.784645
O O2 0.257284 0.679683 0.647918
O O3 0.000000 0.500000 0.663713
O O4 0.999674 0.754618 0.510400
O O5 0.500000 0.500000 0.017118
O O6 0.255375 0.496989 0.164461
O O7 0.316157 0.252113 0.987280
O O8 0.530092 0.792839 0.755498
O O9 0.500000 0.000000 0.955709
O O10 0.000000 0.000000 0.340985
#
# Coordination Sequence:
#
# PCOD9313258 Si02
#       4
#     4   4   4   4
#     4  12  28  50  79 115 153 201 251 315 382 458
#     4  12  28  46  78 110 151 200 259 311 382 452
#     4  12  26  51  75 111 154 202 252 319 380 447
#     4  12  28  48  80 113 155 197 255 316 384 452
#
# _framework density 23.358830999999999
#
# number of rings (size 3 to 8) (size 9 to 14) (size 15 to 20)
#    0.000    0.000    2.500    6.000   14.000    0.000 
#    0.000    0.000    0.000    0.000    0.000    0.000 
#    0.000    0.000    0.000    0.000    0.000    0.000 
#
# Total GULP energy -89602.457012 kJ/mol
# GULP energy per Si atom -5600.153563 kJ/mol
# Density = 2.330567 g / cm^3
# Si number density = 23.358831 Si / 1000 Ang^3
#
#
#
# Elastic Constant Matrix: (Units=GPa)
#
#
# Indices 1 2 3 4 5 6 
#
# 1 80.9276 62.4978 26.6442 0.0000 0.0000 0.0000
# 2 62.4978 197.4516 75.0372 0.0000 0.0000 0.0000
# 3 26.6442 75.0372 126.8376 0.0000 0.0000 0.0000
# 4 0.0000 0.0000 0.0000 30.2446 0.0000 0.0000
# 5 0.0000 0.0000 0.0000 0.0000 30.6181 0.0000
# 6 0.0000 0.0000 0.0000 0.0000 0.0000 54.4437
#
#
#
# Elastic Compliance Matrix: (Units=1/GPa)
#
#
# Indices 1 2 3 4 5 6 
#
# 1 0.016377 -0.005001 -0.000482 0.000000 0.000000 0.000000
# 2 -0.005001 0.008060 -0.003718 0.000000 0.000000 0.000000
# 3 -0.000482 -0.003718 0.010185 0.000000 0.000000 0.000000
# 4 0.000000 0.000000 0.000000 0.033064 0.000000 0.000000
# 5 0.000000 0.000000 0.000000 0.000000 0.032660 0.000000
# 6 0.000000 0.000000 0.000000 0.000000 0.000000 0.018368
#
#
# Mechanical properties :
#
#
# Convention : Reuss Voigt Hill
#
# Bulk Modulus (GPa) = 61.64732 81.50838 71.57785
# Shear Modulus (GPa) = 35.08222 39.13045 37.10634
#
# Velocity S-wave (km/s) = 3.87962 4.09735 3.98997
# Velocity P-wave (km/s) = 6.82036 7.57325 7.20664
#
# Compressibility (1/GPa) = 0.01622130
#
# Stress axis : x y z
#
# Youngs Moduli (GPa) = 61.06053 124.06510 98.18442
#
# Poissons Ratio (x) = 0.62040 0.04732
# Poissons Ratio (y) = 0.30534 0.36505
# Poissons Ratio (z) = 0.02943 0.46128
#
# Static dielectric constant tensor:
#      x y z
#    x 1.978610 0.000000 0.000000 
#    y 0.000000 1.972200 0.000000 
#    z 0.000000 0.000000 1.815280 
# 
# From -- ./inp_files/2774.got.cif
#   From: 2010.05.17/outbox.cif.g08.bks.cpg/sg18_2_cif.got.tgz:2774.got - 2010.06.03 22:40:56.
