data_PCOD9313463
_publ_section_title
;
Structure prediction by ZEFSAII (Michael W. Deem and Ramdas Pophale) SiO2 
 PCOD9313463
Probable space group: P 21 21 21
;
_chemical_formula_sum "Si O2"
_cell_formula_units_Z 28
_cell_length_a 9.398467
_cell_length_b 7.452756
_cell_length_c 21.553754
_cell_angle_alpha 90.000000
_cell_angle_beta 90.000000
_cell_angle_gamma 90.000000
_cell_volume 1509.721520
_symmetry_space_group_name_H-M "P 21 21 21"
_symmetry_group_IT_number 19
_symmetry_cell_setting 'orthorhombic'
loop_
_space_group_symop_operation_xyz
x,y,z
1/2-x,-y,1/2+z
1/2+x,1/2-y,-z
-x,1/2+y,1/2-z
loop_
_atom_site_type_symbol
_atom_site_label
_atom_site_fract_x
_atom_site_fract_y
_atom_site_fract_z
Si Si1 0.955848 0.503412 0.599096
Si Si2 0.953581 0.170506 0.023849
Si Si3 0.879143 0.187945 0.682220
Si Si4 0.669427 0.442141 0.523418
Si Si5 0.196565 0.009267 0.097379
Si Si6 0.096615 0.374625 0.390218
Si Si7 0.942775 0.328873 0.818129
O O1 0.966140 0.312549 0.633474
O O2 0.798543 0.496161 0.569212
O O3 0.984481 0.658410 0.648983
O O4 0.050422 0.559084 0.539924
O O5 0.110486 0.152774 0.054593
O O6 0.860805 0.059411 0.073968
O O7 0.918861 0.376382 0.014012
O O8 0.716151 0.174310 0.659153
O O9 0.892641 0.275976 0.749561
O O10 0.946855 0.991980 0.684298
O O11 0.728661 0.389419 0.455670
O O12 0.590824 0.280681 0.557759
O O13 0.308972 0.101182 0.141764
O O14 0.065660 0.908845 0.131396
#
# Coordination Sequence:
#
# PCOD9313463 Si02
#       7
#     4   4   4   4   4   4   4
#     4  10  21  37  60  91 117 157 202 250 300 365
#     4   9  19  38  60  93 121 155 193 250 321 358
#     4  11  24  41  65  84 124 169 207 258 298 369
#     4  10  18  37  61  88 125 157 193 248 310 375
#     4   9  22  38  58  94 122 154 204 251 306 368
#     4   9  22  41  57  94 125 156 202 250 320 356
#     4  12  22  42  61  90 120 160 221 249 299 367
#
# _framework density 18.546468000000001
#
# number of rings (size 3 to 8) (size 9 to 14) (size 15 to 20)
#    0.857    1.143    2.857    0.857    2.000    0.000 
#    7.714    4.286    0.000    0.000    0.000    0.000 
#    0.000    0.000    0.000    0.000    0.000    0.000 
#
# Total GULP energy -155909.014479 kJ/mol
# GULP energy per Si atom -5568.179089 kJ/mol
# Density = 1.850426 g / cm^3
# Si number density = 18.546468 Si / 1000 Ang^3
#
#
#
# Elastic Constant Matrix: (Units=GPa)
#
#
# Indices 1 2 3 4 5 6 
#
# 1 37.2783 8.8014 16.0910 0.0000 0.0000 0.0000
# 2 8.8014 51.2644 -4.0311 0.0000 0.0000 0.0000
# 3 16.0910 -4.0311 67.1089 0.0000 0.0000 0.0000
# 4 0.0000 0.0000 0.0000 32.7756 0.0000 0.0000
# 5 0.0000 0.0000 0.0000 0.0000 18.4299 0.0000
# 6 0.0000 0.0000 0.0000 0.0000 0.0000 27.5887
#
#
#
# Elastic Compliance Matrix: (Units=1/GPa)
#
#
# Indices 1 2 3 4 5 6 
#
# 1 0.031696 -0.006068 -0.007964 0.000000 0.000000 0.000000
# 2 -0.006068 0.020761 0.002702 0.000000 0.000000 0.000000
# 3 -0.007964 0.002702 0.016973 0.000000 0.000000 0.000000
# 4 0.000000 0.000000 0.000000 0.030511 0.000000 0.000000
# 5 0.000000 0.000000 0.000000 0.000000 0.054260 0.000000
# 6 0.000000 0.000000 0.000000 0.000000 0.000000 0.036247
#
#
# Mechanical properties :
#
#
# Convention : Reuss Voigt Hill
#
# Bulk Modulus (GPa) = 21.38159 21.93046 21.65603
# Shear Modulus (GPa) = 21.86298 24.74484 23.30391
#
# Velocity S-wave (km/s) = 3.43712 3.65664 3.54858
# Velocity P-wave (km/s) = 5.22546 5.44778 5.33778
#
# Compressibility (1/GPa) = 0.04676921
#
# Stress axis : x y z
#
# Youngs Moduli (GPa) = 31.55002 48.16731 58.91673
#
# Poissons Ratio (x) = 0.29228 0.46923
# Poissons Ratio (y) = 0.19144 -0.15919
# Poissons Ratio (z) = 0.25127 -0.13015
#
# Static dielectric constant tensor:
#      x y z
#    x 1.655660 0.000000 0.000000 
#    y 0.000000 1.641470 0.000000 
#    z 0.000000 0.000000 1.634870 
# 
# From -- ./inp_files/7015.got.cif
#   From: 2010.05.17/outbox.cif.g08.bks.cpg/sg19_4_cif.got.tgz:7015.got - 2010.06.03 22:46:19.
