data_PCOD9313268
_publ_section_title
;
Structure prediction by ZEFSAII (Michael W. Deem and Ramdas Pophale) SiO2 
 PCOD9313268
Probable space group: P 21 21 2
;
_chemical_formula_sum "Si O2"
_cell_formula_units_Z 16
_cell_length_a 16.659211
_cell_length_b 7.649095
_cell_length_c 5.108180
_cell_angle_alpha 90.000000
_cell_angle_beta 90.000000
_cell_angle_gamma 90.000000
_cell_volume 650.924587
_symmetry_space_group_name_H-M "P 21 21 2"
_symmetry_group_IT_number 18
_symmetry_cell_setting 'orthorhombic'
loop_
_space_group_symop_operation_xyz
x,y,z
-x,-y,z
1/2+x,1/2-y,-z
1/2-x,1/2+y,-z
loop_
_atom_site_type_symbol
_atom_site_label
_atom_site_fract_x
_atom_site_fract_y
_atom_site_fract_z
Si Si1 0.159887 0.468777 0.896629
Si Si2 0.061656 0.785066 0.076507
Si Si3 0.549419 0.241673 0.418945
Si Si4 0.168361 0.108350 0.228942
O O1 0.092076 0.434678 0.677127
O O2 0.243092 0.528592 0.770183
O O3 0.168665 0.292115 0.069649
O O4 0.124717 0.627171 0.064602
O O5 0.001913 0.747707 0.317052
O O6 0.889545 0.037026 0.106162
O O7 0.008701 0.794059 0.815145
O O8 0.627940 0.358019 0.488596
#
# Coordination Sequence:
#
# PCOD9313268 Si02
#       4
#     4   4   4   4
#     4  12  29  54  83 121 168 219 271 336 415 488
#     4  12  30  54  84 120 168 214 282 336 402 494
#     4  12  30  52  86 122 160 218 274 340 404 480
#     4  12  29  54  83 121 168 219 271 336 415 488
#
# _framework density 24.58042
#
# number of rings (size 3 to 8) (size 9 to 14) (size 15 to 20)
#    0.000    0.000    5.000    1.500   14.000    4.000 
#    0.000    0.000    0.000    0.000    0.000    0.000 
#    0.000    0.000    0.000    0.000    0.000    0.000 
#
# Total GULP energy -89726.935030 kJ/mol
# GULP energy per Si atom -5607.933439 kJ/mol
# Density = 2.452447 g / cm^3
# Si number density = 24.580420 Si / 1000 Ang^3
#
#
#
# Elastic Constant Matrix: (Units=GPa)
#
#
# Indices 1 2 3 4 5 6 
#
# 1 85.1892 19.3620 0.7902 0.0000 0.0000 0.0000
# 2 19.3620 152.5451 11.8359 0.0000 0.0000 0.0000
# 3 0.7902 11.8359 104.3104 0.0000 0.0000 0.0000
# 4 0.0000 0.0000 0.0000 20.3741 0.0000 0.0000
# 5 0.0000 0.0000 0.0000 0.0000 25.0363 0.0000
# 6 0.0000 0.0000 0.0000 0.0000 0.0000 58.3569
#
#
#
# Elastic Compliance Matrix: (Units=1/GPa)
#
#
# Indices 1 2 3 4 5 6 
#
# 1 0.012088 -0.001541 0.000083 0.000000 0.000000 0.000000
# 2 -0.001541 0.006810 -0.000761 0.000000 0.000000 0.000000
# 3 0.000083 -0.000761 0.009672 0.000000 0.000000 0.000000
# 4 0.000000 0.000000 0.000000 0.049082 0.000000 0.000000
# 5 0.000000 0.000000 0.000000 0.000000 0.039942 0.000000
# 6 0.000000 0.000000 0.000000 0.000000 0.000000 0.017136
#
#
# Mechanical properties :
#
#
# Convention : Reuss Voigt Hill
#
# Bulk Modulus (GPa) = 41.43630 45.11347 43.27489
# Shear Modulus (GPa) = 33.96464 41.42391 37.69428
#
# Velocity S-wave (km/s) = 3.72126 4.10962 3.92025
# Velocity P-wave (km/s) = 5.94624 6.39624 6.17534
#
# Compressibility (1/GPa) = 0.02413343
#
# Stress axis : x y z
#
# Youngs Moduli (GPa) = 82.72678 146.84184 103.38596
#
# Poissons Ratio (x) = 0.22625 -0.00861
# Poissons Ratio (y) = 0.12746 0.07868
# Poissons Ratio (z) = -0.00689 0.11175
#
# Static dielectric constant tensor:
#      x y z
#    x 1.910130 0.000000 0.000000 
#    y 0.000000 2.003130 0.000000 
#    z 0.000000 0.000000 1.940850 
# 
# From -- ./inp_files/1704.got.cif
#   From: 2010.05.17/outbox.cif.g08.bks.cpg/sg18_1_cif.got.tgz:1704.got - 2010.06.03 22:40:56.
