data_PCOD9313776
_publ_section_title
;
Structure prediction by ZEFSAII (Michael W. Deem and Ramdas Pophale) SiO2 
 PCOD9313776
Probable space group: P 21 21 21
;
_chemical_formula_sum "Si O2"
_cell_formula_units_Z 24
_cell_length_a 9.155314
_cell_length_b 5.118747
_cell_length_c 21.026369
_cell_angle_alpha 90.000000
_cell_angle_beta 90.000000
_cell_angle_gamma 90.000000
_cell_volume 985.374207
_symmetry_space_group_name_H-M "P 21 21 21"
_symmetry_group_IT_number 19
_symmetry_cell_setting 'orthorhombic'
loop_
_space_group_symop_operation_xyz
x,y,z
1/2-x,-y,1/2+z
1/2+x,1/2-y,-z
-x,1/2+y,1/2-z
loop_
_atom_site_type_symbol
_atom_site_label
_atom_site_fract_x
_atom_site_fract_y
_atom_site_fract_z
Si Si1 0.295906 0.451897 0.756873
Si Si2 0.578503 0.132490 0.132218
Si Si3 0.558807 0.164125 0.422376
Si Si4 0.805457 0.157112 0.018877
Si Si5 0.381396 0.959696 0.683847
Si Si6 0.608356 0.551028 0.960863
O O1 0.154375 0.449019 0.801764
O O2 0.314920 0.676917 0.703039
O O3 0.446448 0.468892 0.797580
O O4 0.300126 0.166479 0.727464
O O5 0.515555 0.423360 0.117285
O O6 0.451912 0.922556 0.118752
O O7 0.709754 0.097541 0.080585
O O8 0.699846 0.040942 0.457874
O O9 0.462587 0.233018 0.485653
O O10 0.749736 0.428068 0.992365
O O11 0.975497 0.166174 0.036440
O O12 0.372320 0.075328 0.613341
#
# Coordination Sequence:
#
# PCOD9313776 Si02
#       6
#     4   4   4   4   4   4
#     4  10  20  34  56  86 118 163 202 247 308 348
#     4  11  19  39  57  88 123 156 199 249 303 373
#     4   9  22  33  60  85 117 157 193 246 306 366
#     4   9  20  38  61  94 120 162 196 258 309 367
#     4  10  20  34  56  86 122 157 202 257 294 362
#     4   9  19  40  58  95 124 159 202 253 316 364
#
# _framework density 24.35623
#
# number of rings (size 3 to 8) (size 9 to 14) (size 15 to 20)
#    1.000    1.333    1.667    1.000    0.000    5.333 
#    0.000    0.000    0.000    4.000    0.000    0.000 
#    0.000    0.000    0.000    0.000    0.000    0.000 
#
# Total GULP energy -133846.412462 kJ/mol
# GULP energy per Si atom -5576.933853 kJ/mol
# Density = 2.430079 g / cm^3
# Si number density = 24.356230 Si / 1000 Ang^3
#
#
#
# Elastic Constant Matrix: (Units=GPa)
#
#
# Indices 1 2 3 4 5 6 
#
# 1 60.6128 8.5639 3.7775 0.0000 0.0000 0.0000
# 2 8.5639 70.1204 -20.7638 0.0000 0.0000 0.0000
# 3 3.7775 -20.7638 57.5199 0.0000 0.0000 0.0000
# 4 0.0000 0.0000 0.0000 17.7426 0.0000 0.0000
# 5 0.0000 0.0000 0.0000 0.0000 45.9120 0.0000
# 6 0.0000 0.0000 0.0000 0.0000 0.0000 16.0320
#
#
#
# Elastic Compliance Matrix: (Units=1/GPa)
#
#
# Indices 1 2 3 4 5 6 
#
# 1 0.017009 -0.002696 -0.002090 0.000000 0.000000 0.000000
# 2 -0.002696 0.016396 0.006096 0.000000 0.000000 0.000000
# 3 -0.002090 0.006096 0.019723 0.000000 0.000000 0.000000
# 4 0.000000 0.000000 0.000000 0.056362 0.000000 0.000000
# 5 0.000000 0.000000 0.000000 0.000000 0.021781 0.000000
# 6 0.000000 0.000000 0.000000 0.000000 0.000000 0.062375
#
#
# Mechanical properties :
#
#
# Convention : Reuss Voigt Hill
#
# Bulk Modulus (GPa) = 17.93866 19.04537 18.49201
# Shear Modulus (GPa) = 23.85383 29.04901 26.45142
#
# Velocity S-wave (km/s) = 3.13289 3.45726 3.29906
# Velocity P-wave (km/s) = 4.52413 4.87579 4.70325
#
# Compressibility (1/GPa) = 0.05574554
#
# Stress axis : x y z
#
# Youngs Moduli (GPa) = 58.79101 60.99230 50.70221
#
# Poissons Ratio (x) = 0.16446 0.10599
# Poissons Ratio (y) = 0.15852 -0.30906
# Poissons Ratio (z) = 0.12290 -0.37179
#
# Static dielectric constant tensor:
#      x y z
#    x 2.022570 0.000000 0.000000 
#    y 0.000000 2.015830 0.000000 
#    z 0.000000 0.000000 2.008870 
# 
# From -- ./inp_files/7111.got.cif
#   From: 2010.05.17/outbox.cif.g08.bks.cpg/sg19_4_cif.got.tgz:7111.got - 2010.06.03 22:46:19.
