data_PCOD9313753
_publ_section_title
;
Structure prediction by ZEFSAII (Michael W. Deem and Ramdas Pophale) SiO2 
 PCOD9313753
Probable space group: P 21 21 21
;
_chemical_formula_sum "Si O2"
_cell_formula_units_Z 32
_cell_length_a 6.912886
_cell_length_b 9.226576
_cell_length_c 20.565909
_cell_angle_alpha 90.000000
_cell_angle_beta 90.000000
_cell_angle_gamma 90.000000
_cell_volume 1311.740321
_symmetry_space_group_name_H-M "P 21 21 21"
_symmetry_group_IT_number 19
_symmetry_cell_setting 'orthorhombic'
loop_
_space_group_symop_operation_xyz
x,y,z
1/2-x,-y,1/2+z
1/2+x,1/2-y,-z
-x,1/2+y,1/2-z
loop_
_atom_site_type_symbol
_atom_site_label
_atom_site_fract_x
_atom_site_fract_y
_atom_site_fract_z
Si Si1 0.317788 0.834607 0.666579
Si Si2 0.929080 0.837499 0.454829
Si Si3 0.375834 0.836561 0.415496
Si Si4 0.317788 0.165393 0.666579
Si Si5 0.225639 0.335023 0.793477
Si Si6 0.570920 0.837499 0.954829
Si Si7 0.274361 0.335023 0.293477
Si Si8 0.375834 0.163439 0.415496
O O1 0.303878 0.736164 0.602196
O O2 0.547897 0.839136 0.684604
O O3 0.221279 0.765718 0.730212
O O4 0.258425 1.000000 0.653621
O O5 0.943313 0.736455 0.517745
O O6 0.144333 0.849294 0.426523
O O7 0.862444 1.000000 0.472216
O O8 0.391309 0.732735 0.353445
O O9 0.448908 0.000000 0.404745
O O10 0.221279 0.234282 0.730212
O O11 0.303878 0.263836 0.602196
O O12 0.547897 0.160864 0.684604
O O13 0.169003 0.500000 0.778599
O O14 0.355667 0.849294 0.926523
O O15 0.556687 0.736455 0.017745
O O16 0.391309 0.267265 0.353445
#
# Coordination Sequence:
#
# PCOD9313753 Si02
#       8
#     4   4   4   4   4   4   4   4
#     4   9  16  27  45  69  96 125 159 200 242 283
#     4  10  20  33  50  73 100 130 164 201 242 289
#     4  10  20  33  50  73 100 130 164 201 242 289
#     4   9  16  27  45  69  96 125 159 200 242 283
#     4   9  16  27  45  69  96 125 159 200 242 283
#     4  10  20  33  50  73 100 130 164 201 242 289
#     4   9  16  27  45  69  96 125 159 200 242 283
#     4  10  20  33  50  73 100 130 164 201 242 289
#
# _framework density 24.395073
#
# number of rings (size 3 to 8) (size 9 to 14) (size 15 to 20)
#    0.000    2.500    0.000    3.000    0.000    9.000 
#    0.000    0.000    0.000    1.500    0.000    0.000 
#    0.000    0.000    0.000    0.000    0.000    0.000 
#
# Total GULP energy -179256.147602 kJ/mol
# GULP energy per Si atom -5601.754613 kJ/mol
# Density = 2.433955 g / cm^3
# Si number density = 24.395073 Si / 1000 Ang^3
#
#
#
# Elastic Constant Matrix: (Units=GPa)
#
#
# Indices 1 2 3 4 5 6 
#
# 1 58.9985 -11.4563 -4.1428 0.0000 0.0000 0.0000
# 2 -11.4563 207.9053 68.5152 0.0000 0.0000 0.0000
# 3 -4.1428 68.5152 127.1058 0.0000 0.0000 0.0000
# 4 0.0000 0.0000 0.0000 44.6475 0.0000 0.0000
# 5 0.0000 0.0000 0.0000 0.0000 43.4747 0.0000
# 6 0.0000 0.0000 0.0000 0.0000 0.0000 26.5572
#
#
#
# Elastic Compliance Matrix: (Units=1/GPa)
#
#
# Indices 1 2 3 4 5 6 
#
# 1 0.017133 0.000924 0.000060 0.000000 0.000000 0.000000
# 2 0.000924 0.005899 -0.003150 0.000000 0.000000 0.000000
# 3 0.000060 -0.003150 0.009567 0.000000 0.000000 0.000000
# 4 0.000000 0.000000 0.000000 0.022398 0.000000 0.000000
# 5 0.000000 0.000000 0.000000 0.000000 0.023002 0.000000
# 6 0.000000 0.000000 0.000000 0.000000 0.000000 0.037655
#
#
# Mechanical properties :
#
#
# Convention : Reuss Voigt Hill
#
# Bulk Modulus (GPa) = 35.37438 55.53798 45.45618
# Shear Modulus (GPa) = 38.63793 45.67544 42.15668
#
# Velocity S-wave (km/s) = 3.98407 4.33173 4.16153
# Velocity P-wave (km/s) = 5.97460 6.91621 6.46258
#
# Compressibility (1/GPa) = 0.02826904
#
# Stress axis : x y z
#
# Youngs Moduli (GPa) = 58.36596 169.52770 104.52433
#
# Poissons Ratio (x) = -0.15669 -0.00629
# Poissons Ratio (y) = -0.05395 0.32920
# Poissons Ratio (z) = -0.00351 0.53393
#
# Static dielectric constant tensor:
#      x y z
#    x 2.069590 0.000000 0.000000 
#    y 0.000000 1.858670 0.000000 
#    z 0.000000 0.000000 1.823980 
# 
# From -- ./inp_files/6667.got.cif
#   From: 2010.05.17/outbox.cif.g08.bks.cpg/sg19_4_cif.got.tgz:6667.got - 2010.06.03 22:46:19.
