data_PCOD9313058
_publ_section_title
;
Structure prediction by ZEFSAII (Michael W. Deem and Ramdas Pophale) SiO2 
 PCOD9313058
Probable space group: P 21 21 2
;
_chemical_formula_sum "Si O2"
_cell_formula_units_Z 24
_cell_length_a 15.137279
_cell_length_b 7.622105
_cell_length_c 9.894603
_cell_angle_alpha 90.000000
_cell_angle_beta 90.000000
_cell_angle_gamma 90.000000
_cell_volume 1141.618812
_symmetry_space_group_name_H-M "P 21 21 2"
_symmetry_group_IT_number 18
_symmetry_cell_setting 'orthorhombic'
loop_
_space_group_symop_operation_xyz
x,y,z
-x,-y,z
1/2+x,1/2-y,-z
1/2-x,1/2+y,-z
loop_
_atom_site_type_symbol
_atom_site_label
_atom_site_fract_x
_atom_site_fract_y
_atom_site_fract_z
Si Si1 0.278008 0.118979 0.663260
Si Si2 0.278836 0.216832 0.351905
Si Si3 0.622379 0.361480 0.839463
Si Si4 0.626210 0.335962 0.143016
Si Si5 0.066816 0.731625 0.152343
Si Si6 0.071912 0.748456 0.848784
O O1 0.286078 0.177384 0.509341
O O2 0.202435 0.214080 0.752480
O O3 0.369932 0.139532 0.741465
O O4 0.243298 0.921665 0.660552
O O5 0.195027 0.135123 0.276185
O O6 0.366573 0.170436 0.267292
O O7 0.590676 0.561780 0.849848
O O8 0.537439 0.236649 0.814144
O O9 0.656527 0.305082 0.988154
O O10 0.600720 0.544496 0.147527
O O11 0.533161 0.242768 0.174034
O O12 0.084998 0.670144 0.998820
#
# Coordination Sequence:
#
# PCOD9313058 Si02
#       6
#     4   4   4   4   4   4
#     4  11  22  34  51  77 109 142 175 213 258 309
#     4  11  22  34  51  77 109 142 175 213 258 309
#     4   9  18  35  58  79 100 131 172 217 265 315
#     4   8  16  33  56  78  99 130 174 218 261 312
#     4   9  18  35  58  79 100 131 172 217 265 315
#     4   8  16  33  56  78  99 130 174 218 261 312
#
# _framework density 21.022777000000001
#
# number of rings (size 3 to 8) (size 9 to 14) (size 15 to 20)
#    0.000    2.667    0.000    4.000    0.000    2.000 
#    0.000    5.000    0.000    7.000    0.000    0.000 
#    0.000    0.000    0.000    0.000    0.000    0.000 
#
# Total GULP energy -133973.890007 kJ/mol
# GULP energy per Si atom -5582.245417 kJ/mol
# Density = 2.097493 g / cm^3
# Si number density = 21.022777 Si / 1000 Ang^3
#
#
#
# Elastic Constant Matrix: (Units=GPa)
#
#
# Indices 1 2 3 4 5 6 
#
# 1 78.0077 13.1299 82.8631 0.0000 0.0000 0.0000
# 2 13.1299 28.4443 17.5554 0.0000 0.0000 0.0000
# 3 82.8631 17.5554 156.5527 0.0000 0.0000 0.0000
# 4 0.0000 0.0000 0.0000 37.7986 0.0000 0.0000
# 5 0.0000 0.0000 0.0000 0.0000 1377.8306 0.0000
# 6 0.0000 0.0000 0.0000 0.0000 0.0000 -26.3717
#
#
#
# Elastic Compliance Matrix: (Units=1/GPa)
#
#
# Indices 1 2 3 4 5 6 
#
# 1 0.029769 -0.004315 -0.015273 0.000000 0.000000 0.000000
# 2 -0.004315 0.038396 -0.002022 0.000000 0.000000 0.000000
# 3 -0.015273 -0.002022 0.014698 0.000000 0.000000 0.000000
# 4 0.000000 0.000000 0.000000 0.026456 0.000000 0.000000
# 5 0.000000 0.000000 0.000000 0.000000 0.000726 0.000000
# 6 0.000000 0.000000 0.000000 0.000000 0.000000 -0.037919
#
#
# Mechanical properties :
#
#
# Convention : Reuss Voigt Hill
#
# Bulk Modulus (GPa) = 25.22450 54.45573 39.84011
# Shear Modulus (GPa) = 38.89251 287.81524 163.35387
#
# Velocity S-wave (km/s) = 4.30585 11.71339 8.82451
# Velocity P-wave (km/s) = 6.06178 14.45329 11.08248
#
# Compressibility (1/GPa) = 0.03964400
#
# Stress axis : x y z
#
# Youngs Moduli (GPa) = 33.59203 26.04435 68.03566
#
# Poissons Ratio (x) = 0.11239 1.03909
# Poissons Ratio (y) = 0.14496 0.13754
# Poissons Ratio (z) = 0.51304 0.05265
#
# Static dielectric constant tensor:
#      x y z
#    x 1.729970 0.000000 0.000000 
#    y 0.000000 1.566000 0.000000 
#    z 0.000000 0.000000 2.037210 
# 
# From -- ./inp_files/4159.got.cif
#   From: 2010.05.17/outbox.cif.g08.bks.cpg/sg18_3_cif.got.tgz:4159.got - 2010.06.03 22:40:56.
