data_PCOD9313435
_publ_section_title
;
Structure prediction by ZEFSAII (Michael W. Deem and Ramdas Pophale) SiO2 
 PCOD9313435
Probable space group: P 21 21 21
;
_chemical_formula_sum "Si O2"
_cell_formula_units_Z 32
_cell_length_a 11.586864
_cell_length_b 7.868436
_cell_length_c 17.490242
_cell_angle_alpha 90.000000
_cell_angle_beta 90.000000
_cell_angle_gamma 90.000000
_cell_volume 1594.594070
_symmetry_space_group_name_H-M "P 21 21 21"
_symmetry_group_IT_number 19
_symmetry_cell_setting 'orthorhombic'
loop_
_space_group_symop_operation_xyz
x,y,z
1/2-x,-y,1/2+z
1/2+x,1/2-y,-z
-x,1/2+y,1/2-z
loop_
_atom_site_type_symbol
_atom_site_label
_atom_site_fract_x
_atom_site_fract_y
_atom_site_fract_z
Si Si1 0.292721 0.732929 0.744329
Si Si2 0.916796 0.420299 0.830225
Si Si3 0.476946 0.919334 0.319229
Si Si4 0.539198 0.501150 0.834048
Si Si5 0.264124 0.112459 0.562886
Si Si6 0.719913 0.104762 0.322262
Si Si7 0.868745 0.272637 0.205013
Si Si8 0.258327 0.926993 0.884156
O O1 0.167814 0.805745 0.721294
O O2 0.376107 0.865837 0.705184
O O3 0.299949 0.553255 0.702824
O O4 0.295111 0.760477 0.835234
O O5 0.963419 0.565002 0.773346
O O6 0.836821 0.501067 0.895654
O O7 0.009299 0.274150 0.850085
O O8 0.592238 0.031636 0.332246
O O9 0.368529 0.007554 0.359844
O O10 0.607792 0.549866 0.911018
O O11 0.546951 0.656862 0.773286
O O12 0.421324 0.394409 0.835116
O O13 0.253979 0.297488 0.601331
O O14 0.242692 0.106058 0.473543
O O15 0.750783 0.231942 0.251885
O O16 0.842990 0.421971 0.145073
#
# Coordination Sequence:
#
# PCOD9313435 Si02
#       8
#     4   4   4   4   4   4   4   4
#     4   8  17  34  54  76 102 144 193 232 266 328
#     4   9  17  31  55  80 105 142 193 235 273 328
#     4  10  18  34  59  82 105 147 197 239 280 331
#     4   9  18  34  56  79 109 149 191 227 274 330
#     4  10  21  36  52  82 122 150 178 234 292 341
#     4  10  19  35  59  79 103 144 198 237 273 328
#     4  10  19  34  58  84 109 149 196 237 273 332
#     4  10  21  36  53  82 121 147 182 237 291 338
#
# _framework density 20.067803999999999
#
# number of rings (size 3 to 8) (size 9 to 14) (size 15 to 20)
#    0.000    2.500    0.000    4.500    0.000    1.000 
#    0.000   11.250    0.000    0.000    0.000    0.000 
#    0.000    0.000    0.000    0.000    0.000    0.000 
#
# Total GULP energy -178184.919750 kJ/mol
# GULP energy per Si atom -5568.278742 kJ/mol
# Density = 2.002213 g / cm^3
# Si number density = 20.067804 Si / 1000 Ang^3
#
#
#
# Elastic Constant Matrix: (Units=GPa)
#
#
# Indices 1 2 3 4 5 6 
#
# 1 49.6894 11.7207 6.3842 0.0000 0.0000 0.0000
# 2 11.7207 98.2235 34.4851 0.0000 0.0000 0.0000
# 3 6.3842 34.4851 135.3015 0.0000 0.0000 0.0000
# 4 0.0000 0.0000 0.0000 18.7428 0.0000 0.0000
# 5 0.0000 0.0000 0.0000 0.0000 16.5037 0.0000
# 6 0.0000 0.0000 0.0000 0.0000 0.0000 28.8377
#
#
#
# Elastic Compliance Matrix: (Units=1/GPa)
#
#
# Indices 1 2 3 4 5 6 
#
# 1 0.020726 -0.002339 -0.000382 0.000000 0.000000 0.000000
# 2 -0.002339 0.011445 -0.002807 0.000000 0.000000 0.000000
# 3 -0.000382 -0.002807 0.008124 0.000000 0.000000 0.000000
# 4 0.000000 0.000000 0.000000 0.053354 0.000000 0.000000
# 5 0.000000 0.000000 0.000000 0.000000 0.060592 0.000000
# 6 0.000000 0.000000 0.000000 0.000000 0.000000 0.034677
#
#
# Mechanical properties :
#
#
# Convention : Reuss Voigt Hill
#
# Bulk Modulus (GPa) = 34.19952 43.15495 38.67723
# Shear Modulus (GPa) = 23.84124 28.19180 26.01652
#
# Velocity S-wave (km/s) = 3.45053 3.75217 3.60450
# Velocity P-wave (km/s) = 5.74054 6.35004 6.05297
#
# Compressibility (1/GPa) = 0.02924018
#
# Stress axis : x y z
#
# Youngs Moduli (GPa) = 48.24900 87.37128 123.08752
#
# Poissons Ratio (x) = 0.20437 0.04699
# Poissons Ratio (y) = 0.11286 0.34548
# Poissons Ratio (z) = 0.01842 0.24523
#
# Static dielectric constant tensor:
#      x y z
#    x 1.832180 0.000000 0.000000 
#    y 0.000000 1.789630 0.000000 
#    z 0.000000 0.000000 1.671670 
# 
# From -- ./inp_files/6740.got.cif
#   From: 2010.05.17/outbox.cif.g08.bks.cpg/sg19_4_cif.got.tgz:6740.got - 2010.06.03 22:46:19.
