data_PCOD9313740
_publ_section_title
;
Structure prediction by ZEFSAII (Michael W. Deem and Ramdas Pophale) SiO2 
 PCOD9313740
Probable space group: P 21 21 21
;
_chemical_formula_sum "Si O2"
_cell_formula_units_Z 20
_cell_length_a 5.174381
_cell_length_b 17.580014
_cell_length_c 9.392755
_cell_angle_alpha 90.000000
_cell_angle_beta 90.000000
_cell_angle_gamma 90.000000
_cell_volume 854.418444
_symmetry_space_group_name_H-M "P 21 21 21"
_symmetry_group_IT_number 19
_symmetry_cell_setting 'orthorhombic'
loop_
_space_group_symop_operation_xyz
x,y,z
1/2-x,-y,1/2+z
1/2+x,1/2-y,-z
-x,1/2+y,1/2-z
loop_
_atom_site_type_symbol
_atom_site_label
_atom_site_fract_x
_atom_site_fract_y
_atom_site_fract_z
Si Si1 0.525400 0.264494 0.679085
Si Si2 0.264766 0.860254 0.581807
Si Si3 0.490526 0.642248 0.135153
Si Si4 0.533112 0.972402 0.392013
Si Si5 0.547538 0.605819 0.710251
O O1 0.593722 0.291227 0.840843
O O2 0.767866 0.303036 0.598028
O O3 0.506506 0.173293 0.678149
O O4 0.267061 0.308515 0.636979
O O5 0.059385 0.882940 0.701871
O O6 0.469270 0.924135 0.534323
O O7 0.119312 0.848036 0.434635
O O8 0.468555 0.560240 0.064187
O O9 0.301384 0.947688 0.283080
O O10 0.799425 0.945120 0.322930
#
# Coordination Sequence:
#
# PCOD9313740 Si02
#       5
#     4   4   4   4   4
#     4  10  20  31  50  74 103 127 158 200 248 290
#     4   8  22  28  52  74 102 128 154 200 242 298
#     4  10  20  32  47  73 106 129 160 193 242 295
#     4  10  20  32  47  73 106 129 160 193 242 295
#     4  10  20  31  50  74 103 127 158 200 248 290
#
# _framework density 23.407736
#
# number of rings (size 3 to 8) (size 9 to 14) (size 15 to 20)
#    2.400    0.000    0.000    3.600    5.600    0.000 
#    0.000    0.000    0.000    0.000    0.000    5.600 
#    0.000    0.000    0.000    0.000    0.000    0.000 
#
# Total GULP energy -111428.628791 kJ/mol
# GULP energy per Si atom -5571.431440 kJ/mol
# Density = 2.335446 g / cm^3
# Si number density = 23.407736 Si / 1000 Ang^3
#
#
#
# Elastic Constant Matrix: (Units=GPa)
#
#
# Indices 1 2 3 4 5 6 
#
# 1 190.5333 76.4031 3.8310 0.0000 0.0000 0.0000
# 2 76.4031 195.1946 26.5792 0.0000 0.0000 0.0000
# 3 3.8310 26.5792 28.1327 0.0000 0.0000 0.0000
# 4 0.0000 0.0000 0.0000 33.4469 0.0000 0.0000
# 5 0.0000 0.0000 0.0000 0.0000 12.2648 0.0000
# 6 0.0000 0.0000 0.0000 0.0000 0.0000 24.6841
#
#
#
# Elastic Compliance Matrix: (Units=1/GPa)
#
#
# Indices 1 2 3 4 5 6 
#
# 1 0.006295 -0.002694 0.001688 0.000000 0.000000 0.000000
# 2 -0.002694 0.007032 -0.006277 0.000000 0.000000 0.000000
# 3 0.001688 -0.006277 0.041246 0.000000 0.000000 0.000000
# 4 0.000000 0.000000 0.000000 0.029898 0.000000 0.000000
# 5 0.000000 0.000000 0.000000 0.000000 0.081534 0.000000
# 6 0.000000 0.000000 0.000000 0.000000 0.000000 0.040512
#
#
# Mechanical properties :
#
#
# Convention : Reuss Voigt Hill
#
# Bulk Modulus (GPa) = 24.99548 69.72081 47.35815
# Shear Modulus (GPa) = 21.32932 34.54898 27.93915
#
# Velocity S-wave (km/s) = 3.02190 3.84600 3.45858
# Velocity P-wave (km/s) = 4.78302 7.04076 6.01870
#
# Compressibility (1/GPa) = 0.04000723
#
# Stress axis : x y z
#
# Youngs Moduli (GPa) = 158.86539 142.20345 24.24456
#
# Poissons Ratio (x) = 0.38305 -0.04092
# Poissons Ratio (y) = 0.42793 0.15218
# Poissons Ratio (z) = -0.26812 0.89262
#
# Static dielectric constant tensor:
#      x y z
#    x 1.839070 0.000000 0.000000 
#    y 0.000000 1.894770 0.000000 
#    z 0.000000 0.000000 1.992150 
# 
# From -- ./inp_files/975.got.cif
#   From: 2010.05.17/outbox.cif.g08.bks.cpg/sg19_1_cif.got.tgz:975.got - 2010.06.03 22:46:19.
