data_PCOD9313370
_publ_section_title
;
Structure prediction by ZEFSAII (Michael W. Deem and Ramdas Pophale) SiO2 
 PCOD9313370
Probable space group: P 21 21 21
;
_chemical_formula_sum "Si O2"
_cell_formula_units_Z 32
_cell_length_a 6.758942
_cell_length_b 17.054357
_cell_length_c 11.213686
_cell_angle_alpha 90.000000
_cell_angle_beta 90.000000
_cell_angle_gamma 90.000000
_cell_volume 1292.594967
_symmetry_space_group_name_H-M "P 21 21 21"
_symmetry_group_IT_number 19
_symmetry_cell_setting 'orthorhombic'
loop_
_space_group_symop_operation_xyz
x,y,z
1/2-x,-y,1/2+z
1/2+x,1/2-y,-z
-x,1/2+y,1/2-z
loop_
_atom_site_type_symbol
_atom_site_label
_atom_site_fract_x
_atom_site_fract_y
_atom_site_fract_z
Si Si1 0.887145 0.642838 0.429499
Si Si2 0.651681 0.758079 0.290721
Si Si3 0.589913 0.928797 0.344418
Si Si4 0.776761 0.508683 0.252264
Si Si5 0.285138 0.591390 0.075337
Si Si6 0.483973 0.135438 0.647977
Si Si7 0.190748 0.715876 0.259576
Si Si8 0.780487 0.363865 0.593913
O O1 0.743038 0.716676 0.408233
O O2 0.784958 0.574681 0.353064
O O3 0.943294 0.606952 0.554958
O O4 0.092822 0.667611 0.366746
O O5 0.691500 0.850818 0.294062
O O6 0.416230 0.741770 0.283426
O O7 0.742897 0.712787 0.174988
O O8 0.435099 0.966272 0.251998
O O9 0.725606 0.997885 0.401385
O O10 0.937815 0.444987 0.286145
O O11 0.832636 0.557241 0.132061
O O12 0.163819 0.657984 0.144715
O O13 0.500989 0.607664 0.132729
O O14 0.328629 0.618427 0.939695
O O15 0.433524 0.205810 0.736245
O O16 0.307411 0.149292 0.545791
#
# Coordination Sequence:
#
# PCOD9313370 Si02
#       8
#     4   4   4   4   4   4   4   4
#     4  11  25  43  67 101 139 183 231 287 350 418
#     4  10  22  41  63  95 137 179 228 281 344 415
#     4  11  21  41  70  98 140 183 230 285 347 423
#     4  10  17  37  66  91 131 179 217 278 343 400
#     4   8  19  39  59  94 132 170 223 283 333 406
#     4  10  18  36  66  93 128 178 224 276 347 403
#     4  11  23  43  68  96 140 178 226 299 342 405
#     4   7  17  34  55  90 125 160 219 269 322 404
#
# _framework density 24.756402000000001
#
# number of rings (size 3 to 8) (size 9 to 14) (size 15 to 20)
#    0.750    1.500    2.500    0.750    1.750    2.000 
#    2.250    2.500    0.000    1.500    0.000    0.000 
#    0.000    0.000    0.000    0.000    0.000    0.000 
#
# Total GULP energy -178460.086517 kJ/mol
# GULP energy per Si atom -5576.877704 kJ/mol
# Density = 2.470006 g / cm^3
# Si number density = 24.756402 Si / 1000 Ang^3
#
#
#
# Elastic Constant Matrix: (Units=GPa)
#
#
# Indices 1 2 3 4 5 6 
#
# 1 78.9944 28.6642 3.9405 0.0000 0.0000 0.0000
# 2 28.6642 166.0648 23.8986 0.0000 0.0000 0.0000
# 3 3.9405 23.8986 56.2104 0.0000 0.0000 0.0000
# 4 0.0000 0.0000 0.0000 35.1140 0.0000 0.0000
# 5 0.0000 0.0000 0.0000 0.0000 27.4774 0.0000
# 6 0.0000 0.0000 0.0000 0.0000 0.0000 53.4677
#
#
#
# Elastic Compliance Matrix: (Units=1/GPa)
#
#
# Indices 1 2 3 4 5 6 
#
# 1 0.013505 -0.002338 0.000047 0.000000 0.000000 0.000000
# 2 -0.002338 0.006819 -0.002735 0.000000 0.000000 0.000000
# 3 0.000047 -0.002735 0.018950 0.000000 0.000000 0.000000
# 4 0.000000 0.000000 0.000000 0.028479 0.000000 0.000000
# 5 0.000000 0.000000 0.000000 0.000000 0.036393 0.000000
# 6 0.000000 0.000000 0.000000 0.000000 0.000000 0.018703
#
#
# Mechanical properties :
#
#
# Convention : Reuss Voigt Hill
#
# Bulk Modulus (GPa) = 34.22064 46.03070 40.12567
# Shear Modulus (GPa) = 35.05291 39.52959 37.29125
#
# Velocity S-wave (km/s) = 3.76694 4.00026 3.88535
# Velocity P-wave (km/s) = 5.72475 6.32218 6.03087
#
# Compressibility (1/GPa) = 0.02922213
#
# Stress axis : x y z
#
# Youngs Moduli (GPa) = 74.04608 146.65072 52.77066
#
# Poissons Ratio (x) = 0.34285 -0.00249
# Poissons Ratio (y) = 0.17311 0.14434
# Poissons Ratio (z) = -0.00350 0.40113
#
# Static dielectric constant tensor:
#      x y z
#    x 2.141220 0.000000 0.000000 
#    y 0.000000 1.980860 0.000000 
#    z 0.000000 0.000000 2.007450 
# 
# From -- ./inp_files/4714.got.cif
#   From: 2010.05.17/outbox.cif.g08.bks.cpg/sg19_3_cif.got.tgz:4714.got - 2010.06.03 22:46:19.
