data_PCOD9313855
_publ_section_title
;
Structure prediction by ZEFSAII (Michael W. Deem and Ramdas Pophale) SiO2 
 PCOD9313855
Probable space group: P 21 21 21
;
_chemical_formula_sum "Si O2"
_cell_formula_units_Z 28
_cell_length_a 14.763903
_cell_length_b 11.602835
_cell_length_c 8.525045
_cell_angle_alpha 90.000000
_cell_angle_beta 90.000000
_cell_angle_gamma 90.000000
_cell_volume 1460.366896
_symmetry_space_group_name_H-M "P 21 21 21"
_symmetry_group_IT_number 19
_symmetry_cell_setting 'orthorhombic'
loop_
_space_group_symop_operation_xyz
x,y,z
1/2-x,-y,1/2+z
1/2+x,1/2-y,-z
-x,1/2+y,1/2-z
loop_
_atom_site_type_symbol
_atom_site_label
_atom_site_fract_x
_atom_site_fract_y
_atom_site_fract_z
Si Si1 0.021765 0.758423 0.233773
Si Si2 0.433453 0.038957 0.966840
Si Si3 0.583640 0.856799 0.062495
Si Si4 0.823740 0.108068 0.105956
Si Si5 0.340510 0.228281 0.167534
Si Si6 0.667995 0.317666 0.623606
Si Si7 0.780500 0.888744 0.924627
O O1 0.039412 0.878028 0.322115
O O2 0.084024 0.660168 0.318073
O O3 0.915837 0.728479 0.228327
O O4 0.054363 0.747766 0.053388
O O5 0.356950 0.947499 0.918983
O O6 0.395686 0.122106 0.099915
O O7 0.515619 0.960542 0.027981
O O8 0.591787 0.812466 0.238652
O O9 0.683338 0.894114 0.010603
O O10 0.748248 0.096909 0.243218
O O11 0.796576 0.202432 0.976748
O O12 0.836297 0.989894 0.009780
O O13 0.261555 0.191268 0.284535
O O14 0.676623 0.233979 0.471924
#
# Coordination Sequence:
#
# PCOD9313855 Si02
#       7
#     4   4   4   4   4   4   4
#     4   9  21  39  62  86 126 165 205 254 319 369
#     4  10  22  41  61  88 128 161 205 258 311 374
#     4   9  20  40  59  89 122 160 209 256 307 368
#     4  10  21  39  61  93 122 164 206 266 312 370
#     4  10  22  41  61  92 124 163 212 256 313 376
#     4  10  22  38  62  89 121 166 205 254 311 373
#     4  10  20  36  62  87 121 157 214 254 309 370
#
# _framework density 19.173264
#
# number of rings (size 3 to 8) (size 9 to 14) (size 15 to 20)
#    0.000    2.286    0.000    1.714    8.000    4.571 
#   10.286    2.857    0.000    0.000    0.000    0.000 
#    0.000    0.000    0.000    0.000    0.000    0.000 
#
# Total GULP energy -156130.697498 kJ/mol
# GULP energy per Si atom -5576.096339 kJ/mol
# Density = 1.912962 g / cm^3
# Si number density = 19.173264 Si / 1000 Ang^3
#
#
#
# Elastic Constant Matrix: (Units=GPa)
#
#
# Indices 1 2 3 4 5 6 
#
# 1 40.6917 20.7896 27.0788 0.0000 0.0000 0.0000
# 2 20.7896 110.5752 68.7581 0.0000 0.0000 0.0000
# 3 27.0788 68.7581 110.4560 0.0000 0.0000 0.0000
# 4 0.0000 0.0000 0.0000 23.6058 0.0000 0.0000
# 5 0.0000 0.0000 0.0000 0.0000 17.8170 0.0000
# 6 0.0000 0.0000 0.0000 0.0000 0.0000 13.1889
#
#
#
# Elastic Compliance Matrix: (Units=1/GPa)
#
#
# Indices 1 2 3 4 5 6 
#
# 1 0.029564 -0.001716 -0.006180 0.000000 0.000000 0.000000
# 2 -0.001716 0.014855 -0.008826 0.000000 0.000000 0.000000
# 3 -0.006180 -0.008826 0.016063 0.000000 0.000000 0.000000
# 4 0.000000 0.000000 0.000000 0.042362 0.000000 0.000000
# 5 0.000000 0.000000 0.000000 0.000000 0.056126 0.000000
# 6 0.000000 0.000000 0.000000 0.000000 0.000000 0.075821
#
#
# Mechanical properties :
#
#
# Convention : Reuss Voigt Hill
#
# Bulk Modulus (GPa) = 36.98528 54.99732 45.99130
# Shear Modulus (GPa) = 18.03447 20.59544 19.31496
#
# Velocity S-wave (km/s) = 3.07026 3.28102 3.17738
# Velocity P-wave (km/s) = 5.64806 6.56507 6.12375
#
# Compressibility (1/GPa) = 0.02703779
#
# Stress axis : x y z
#
# Youngs Moduli (GPa) = 33.82497 67.31947 62.25638
#
# Poissons Ratio (x) = 0.11550 0.38473
# Poissons Ratio (y) = 0.05804 0.54949
# Poissons Ratio (z) = 0.20903 0.59418
#
# Static dielectric constant tensor:
#      x y z
#    x 1.661470 0.000000 0.000000 
#    y 0.000000 1.679120 0.000000 
#    z 0.000000 0.000000 1.694020 
# 
# From -- ./inp_files/3902.got.cif
#   From: 2010.05.17/outbox.cif.g08.bks.cpg/sg19_2_cif.got.tgz:3902.got - 2010.06.03 22:46:19.
