data_PCOD9313443
_publ_section_title
;
Structure prediction by ZEFSAII (Michael W. Deem and Ramdas Pophale) SiO2 
 PCOD9313443
Probable space group: P 21 21 21
;
_chemical_formula_sum "Si O2"
_cell_formula_units_Z 32
_cell_length_a 7.490151
_cell_length_b 18.911213
_cell_length_c 7.887346
_cell_angle_alpha 90.000000
_cell_angle_beta 90.000000
_cell_angle_gamma 90.000000
_cell_volume 1117.225532
_symmetry_space_group_name_H-M "P 21 21 21"
_symmetry_group_IT_number 19
_symmetry_cell_setting 'orthorhombic'
loop_
_space_group_symop_operation_xyz
x,y,z
1/2-x,-y,1/2+z
1/2+x,1/2-y,-z
-x,1/2+y,1/2-z
loop_
_atom_site_type_symbol
_atom_site_label
_atom_site_fract_x
_atom_site_fract_y
_atom_site_fract_z
Si Si1 0.034872 0.069626 0.938424
Si Si2 0.077438 0.330344 0.940531
Si Si3 0.156335 0.957052 0.178011
Si Si4 0.677812 0.056141 0.308903
Si Si5 0.550351 0.153109 0.595130
Si Si6 0.159416 0.195997 0.116667
Si Si7 0.953170 0.613089 0.047606
Si Si8 0.181179 0.233592 0.626092
O O1 0.212626 0.054860 0.832257
O O2 0.072560 0.030292 0.117846
O O3 0.029423 0.152194 0.987464
O O4 0.886677 0.024446 0.835239
O O5 0.862847 0.325592 0.925964
O O6 0.153373 0.406874 0.876326
O O7 0.155958 0.278998 0.792931
O O8 0.131084 0.280996 0.102492
O O9 0.297403 0.936279 0.026295
O O10 0.980845 0.909642 0.227006
O O11 0.541764 0.101813 0.426663
O O12 0.865107 0.074296 0.400953
O O13 0.367135 0.194526 0.621303
O O14 0.681815 0.211401 0.528249
O O15 0.111001 0.162086 0.296914
O O16 0.964415 0.672112 0.898187
#
# Coordination Sequence:
#
# PCOD9313443 Si02
#       8
#     4   4   4   4   4   4   4   4
#     4  11  23  44  67  92 132 177 226 279 342 411
#     4  11  23  42  65  97 135 175 225 281 342 407
#     4  10  21  39  63  90 122 169 220 275 336 405
#     4  10  22  40  63  91 129 172 223 281 336 405
#     4   9  18  32  57  87 116 158 206 258 323 388
#     4  12  25  42  67 100 139 182 226 284 349 416
#     4  11  22  38  63  96 131 170 221 278 342 410
#     4  10  18  35  59  87 124 161 209 266 328 400
#
# _framework density 28.642381
#
# number of rings (size 3 to 8) (size 9 to 14) (size 15 to 20)
#    0.000    1.500    0.000    9.000    0.000    2.000 
#    0.000    2.500    0.000    0.000    0.000    0.000 
#    0.000    0.000    0.000    0.000    0.000    0.000 
#
# Total GULP energy -178784.867818 kJ/mol
# GULP energy per Si atom -5587.027119 kJ/mol
# Density = 2.857719 g / cm^3
# Si number density = 28.642381 Si / 1000 Ang^3
#
#
#
# Elastic Constant Matrix: (Units=GPa)
#
#
# Indices 1 2 3 4 5 6 
#
# 1 86.8745 28.8549 11.0720 0.0000 0.0000 0.0000
# 2 28.8549 106.0399 12.8358 0.0000 0.0000 0.0000
# 3 11.0720 12.8358 71.3207 0.0000 0.0000 0.0000
# 4 0.0000 0.0000 0.0000 52.9502 0.0000 0.0000
# 5 0.0000 0.0000 0.0000 0.0000 30.2154 0.0000
# 6 0.0000 0.0000 0.0000 0.0000 0.0000 52.7857
#
#
#
# Elastic Compliance Matrix: (Units=1/GPa)
#
#
# Indices 1 2 3 4 5 6 
#
# 1 0.012788 -0.003312 -0.001389 0.000000 0.000000 0.000000
# 2 -0.003312 0.010498 -0.001375 0.000000 0.000000 0.000000
# 3 -0.001389 -0.001375 0.014484 0.000000 0.000000 0.000000
# 4 0.000000 0.000000 0.000000 0.018886 0.000000 0.000000
# 5 0.000000 0.000000 0.000000 0.000000 0.033096 0.000000
# 6 0.000000 0.000000 0.000000 0.000000 0.000000 0.018945
#
#
# Mechanical properties :
#
#
# Convention : Reuss Voigt Hill
#
# Bulk Modulus (GPa) = 39.03497 41.08452 40.05974
# Shear Modulus (GPa) = 38.64356 41.28841 39.96599
#
# Velocity S-wave (km/s) = 3.67710 3.80085 3.73948
# Velocity P-wave (km/s) = 5.62903 5.79974 5.71503
#
# Compressibility (1/GPa) = 0.02561806
#
# Stress axis : x y z
#
# Youngs Moduli (GPa) = 78.19926 95.25615 69.04003
#
# Poissons Ratio (x) = 0.31545 0.09591
# Poissons Ratio (y) = 0.25896 0.09495
# Poissons Ratio (z) = 0.10864 0.13100
#
# Static dielectric constant tensor:
#      x y z
#    x 2.206280 0.000000 0.000000 
#    y 0.000000 2.384960 0.000000 
#    z 0.000000 0.000000 2.410140 
# 
# From -- ./inp_files/3123.got.cif
#   From: 2010.05.17/outbox.cif.g08.bks.cpg/sg19_2_cif.got.tgz:3123.got - 2010.06.03 22:46:19.
