data_PCOD9313627
_publ_section_title
;
Structure prediction by ZEFSAII (Michael W. Deem and Ramdas Pophale) SiO2 
 PCOD9313627
Probable space group: P 21 21 21
;
_chemical_formula_sum "Si O2"
_cell_formula_units_Z 32
_cell_length_a 17.663079
_cell_length_b 5.247752
_cell_length_c 14.828973
_cell_angle_alpha 90.000000
_cell_angle_beta 90.000000
_cell_angle_gamma 90.000000
_cell_volume 1374.519130
_symmetry_space_group_name_H-M "P 21 21 21"
_symmetry_group_IT_number 19
_symmetry_cell_setting 'orthorhombic'
loop_
_space_group_symop_operation_xyz
x,y,z
1/2-x,-y,1/2+z
1/2+x,1/2-y,-z
-x,1/2+y,1/2-z
loop_
_atom_site_type_symbol
_atom_site_label
_atom_site_fract_x
_atom_site_fract_y
_atom_site_fract_z
Si Si1 0.189936 0.696041 0.236101
Si Si2 0.927570 0.837148 0.702759
Si Si3 0.819829 0.453270 0.768421
Si Si4 0.569932 0.848141 0.378107
Si Si5 0.278490 0.403556 0.376495
Si Si6 0.634071 0.942406 0.950587
Si Si7 0.969020 0.352657 0.218159
Si Si8 0.030504 0.071357 0.041357
O O1 0.213988 0.577099 0.332156
O O2 0.161250 0.520401 0.153198
O O3 0.118846 0.873006 0.257731
O O4 0.265525 0.825477 0.196754
O O5 0.892916 0.557653 0.715231
O O6 0.003450 0.851230 0.646803
O O7 0.939496 0.936086 0.803128
O O8 0.859651 0.996083 0.660260
O O9 0.850251 0.279948 0.850331
O O10 0.770265 0.343428 0.686000
O O11 0.540367 0.950633 0.472734
O O12 0.294423 0.391801 0.482276
O O13 0.579339 0.691128 0.956278
O O14 0.590876 0.201073 0.980398
O O15 0.998530 0.641484 0.210777
O O16 0.991757 0.187653 0.130771
#
# Coordination Sequence:
#
# PCOD9313627 Si02
#       8
#     4   4   4   4   4   4   4   4
#     4  11  26  48  74 100 152 189 248 307 377 442
#     4  10  19  36  63  96 138 185 232 288 356 439
#     4  10  23  42  64 101 143 193 231 299 375 428
#     4  11  21  35  67  98 145 179 242 292 363 428
#     4  10  24  44  69 104 140 196 237 295 375 445
#     4  12  26  47  76 106 144 191 248 298 371 441
#     4  12  25  51  78 105 135 192 250 309 363 428
#     4  12  26  45  75 110 139 187 252 308 352 439
#
# _framework density 23.280868999999999
#
# number of rings (size 3 to 8) (size 9 to 14) (size 15 to 20)
#    0.000    1.000    5.000    0.750    8.750    0.000 
#    9.000    0.000    0.000    0.000    0.000    0.000 
#    0.000    0.000    0.000    0.000    0.000    0.000 
#
# Total GULP energy -178227.287613 kJ/mol
# GULP energy per Si atom -5569.602738 kJ/mol
# Density = 2.322788 g / cm^3
# Si number density = 23.280869 Si / 1000 Ang^3
#
#
#
# Elastic Constant Matrix: (Units=GPa)
#
#
# Indices 1 2 3 4 5 6 
#
# 1 67.5252 -6.4939 7.7861 0.0000 0.0000 0.0000
# 2 -6.4939 44.6337 -10.0210 0.0000 0.0000 0.0000
# 3 7.7861 -10.0210 85.3773 0.0000 0.0000 0.0000
# 4 0.0000 0.0000 0.0000 18.3808 0.0000 0.0000
# 5 0.0000 0.0000 0.0000 0.0000 36.7639 0.0000
# 6 0.0000 0.0000 0.0000 0.0000 0.0000 18.6692
#
#
#
# Elastic Compliance Matrix: (Units=1/GPa)
#
#
# Indices 1 2 3 4 5 6 
#
# 1 0.015129 0.001943 -0.001152 0.000000 0.000000 0.000000
# 2 0.001943 0.023260 0.002553 0.000000 0.000000 0.000000
# 3 -0.001152 0.002553 0.012117 0.000000 0.000000 0.000000
# 4 0.000000 0.000000 0.000000 0.054405 0.000000 0.000000
# 5 0.000000 0.000000 0.000000 0.000000 0.027201 0.000000
# 6 0.000000 0.000000 0.000000 0.000000 0.000000 0.053564
#
#
# Mechanical properties :
#
#
# Convention : Reuss Voigt Hill
#
# Bulk Modulus (GPa) = 17.48420 20.00873 18.74646
# Shear Modulus (GPa) = 25.24577 28.51378 26.87978
#
# Velocity S-wave (km/s) = 3.29659 3.50347 3.40161
# Velocity P-wave (km/s) = 4.69217 4.99789 4.84744
#
# Compressibility (1/GPa) = 0.05719449
#
# Stress axis : x y z
#
# Youngs Moduli (GPa) = 66.09859 42.99150 82.52592
#
# Poissons Ratio (x) = -0.08351 0.09505
# Poissons Ratio (y) = -0.12840 -0.21069
# Poissons Ratio (z) = 0.07613 -0.10976
#
# Static dielectric constant tensor:
#      x y z
#    x 1.924250 0.000000 0.000000 
#    y 0.000000 2.095280 0.000000 
#    z 0.000000 0.000000 1.976570 
# 
# From -- ./inp_files/6320.got.cif
#   From: 2010.05.17/outbox.cif.g08.bks.cpg/sg19_4_cif.got.tgz:6320.got - 2010.06.03 22:46:19.
