data_PCOD9313138
_publ_section_title
;
Structure prediction by ZEFSAII (Michael W. Deem and Ramdas Pophale) SiO2 
 PCOD9313138
Probable space group: P 21 21 2
;
_chemical_formula_sum "Si O2"
_cell_formula_units_Z 16
_cell_length_a 8.112107
_cell_length_b 4.837569
_cell_length_c 17.536178
_cell_angle_alpha 90.000000
_cell_angle_beta 90.000000
_cell_angle_gamma 90.000000
_cell_volume 688.170082
_symmetry_space_group_name_H-M "P 21 21 2"
_symmetry_group_IT_number 18
_symmetry_cell_setting 'orthorhombic'
loop_
_space_group_symop_operation_xyz
x,y,z
-x,-y,z
1/2+x,1/2-y,-z
1/2-x,1/2+y,-z
loop_
_atom_site_type_symbol
_atom_site_label
_atom_site_fract_x
_atom_site_fract_y
_atom_site_fract_z
Si Si1 0.312259 0.903795 0.955707
Si Si2 0.684189 0.881525 0.716690
Si Si3 0.321700 0.142973 0.541099
Si Si4 0.180843 0.626603 0.802073
O O1 0.245583 0.762094 0.879561
O O2 0.500000 0.000000 0.947570
O O3 0.293781 0.671119 0.020923
O O4 0.710662 0.791087 0.629611
O O5 0.707488 0.625204 0.772862
O O6 0.500000 0.000000 0.723608
O O7 0.806301 0.128568 0.740223
O O8 0.304204 0.416635 0.491428
O O9 0.500000 0.000000 0.535683
O O10 0.000000 0.500000 0.810912
#
# Coordination Sequence:
#
# PCOD9313138 Si02
#       4
#     4   4   4   4
#     4  12  27  49  74 104 141 182 227 281 342 410
#     4  11  25  45  68  99 139 185 231 284 347 412
#     4  11  24  42  67  99 138 181 232 288 347 411
#     4  12  26  46  71 102 138 180 230 285 342 409
#
# _framework density 23.250067999999999
#
# number of rings (size 3 to 8) (size 9 to 14) (size 15 to 20)
#    0.000    0.500    0.000    7.500    0.000   14.000 
#    0.000    1.250    0.000    0.000    0.000    0.000 
#    0.000    0.000    0.000    0.000    0.000    0.000 
#
# Total GULP energy -89783.518265 kJ/mol
# GULP energy per Si atom -5611.469892 kJ/mol
# Density = 2.319715 g / cm^3
# Si number density = 23.250068 Si / 1000 Ang^3
#
#
#
# Elastic Constant Matrix: (Units=GPa)
#
#
# Indices 1 2 3 4 5 6 
#
# 1 125.9421 38.7045 65.8276 0.0000 0.0000 0.0000
# 2 38.7045 111.4776 23.5871 0.0000 0.0000 0.0000
# 3 65.8276 23.5871 100.5425 0.0000 0.0000 0.0000
# 4 0.0000 0.0000 0.0000 119.3702 0.0000 0.0000
# 5 0.0000 0.0000 0.0000 0.0000 160.9426 0.0000
# 6 0.0000 0.0000 0.0000 0.0000 0.0000 47.0201
#
#
#
# Elastic Compliance Matrix: (Units=1/GPa)
#
#
# Indices 1 2 3 4 5 6 
#
# 1 0.012864 -0.002824 -0.007760 0.000000 0.000000 0.000000
# 2 -0.002824 0.010059 -0.000511 0.000000 0.000000 0.000000
# 3 -0.007760 -0.000511 0.015146 0.000000 0.000000 0.000000
# 4 0.000000 0.000000 0.000000 0.008377 0.000000 0.000000
# 5 0.000000 0.000000 0.000000 0.000000 0.006213 0.000000
# 6 0.000000 0.000000 0.000000 0.000000 0.000000 0.021268
#
#
# Mechanical properties :
#
#
# Convention : Reuss Voigt Hill
#
# Bulk Modulus (GPa) = 62.97316 66.02227 64.49771
# Shear Modulus (GPa) = 49.30445 79.45612 64.38029
#
# Velocity S-wave (km/s) = 4.61001 5.85224 5.26787
# Velocity P-wave (km/s) = 7.44850 8.60949 8.04995
#
# Compressibility (1/GPa) = 0.01587978
#
# Stress axis : x y z
#
# Youngs Moduli (GPa) = 77.73585 99.41249 66.02254
#
# Poissons Ratio (x) = 0.28079 0.51232
# Poissons Ratio (y) = 0.21956 0.03371
# Poissons Ratio (z) = 0.60321 0.05076
#
# Static dielectric constant tensor:
#      x y z
#    x 1.854150 0.000000 0.000000 
#    y 0.000000 1.790570 0.000000 
#    z 0.000000 0.000000 1.856400 
# 
# From -- ./inp_files/7248.got.cif
#   From: 2010.05.17/outbox.cif.g08.bks.cpg/sg18_4_cif.got.tgz:7248.got - 2010.06.03 22:40:56.
