data_PCOD9313104
_publ_section_title
;
Structure prediction by ZEFSAII (Michael W. Deem and Ramdas Pophale) SiO2 
 PCOD9313104
Probable space group: P 21 21 2
;
_chemical_formula_sum "Si O2"
_cell_formula_units_Z 20
_cell_length_a 14.934781
_cell_length_b 9.129863
_cell_length_c 4.786136
_cell_angle_alpha 90.000000
_cell_angle_beta 90.000000
_cell_angle_gamma 90.000000
_cell_volume 652.601630
_symmetry_space_group_name_H-M "P 21 21 2"
_symmetry_group_IT_number 18
_symmetry_cell_setting 'orthorhombic'
loop_
_space_group_symop_operation_xyz
x,y,z
-x,-y,z
1/2+x,1/2-y,-z
1/2-x,1/2+y,-z
loop_
_atom_site_type_symbol
_atom_site_label
_atom_site_fract_x
_atom_site_fract_y
_atom_site_fract_z
Si Si1 0.000000 0.500000 0.794674
Si Si2 0.146427 0.557944 0.403673
Si Si3 0.651518 0.704421 0.074064
Si Si4 0.845065 0.681015 0.829305
Si Si5 0.500000 0.500000 0.834169
Si Si6 0.157661 0.043954 0.546347
O O1 0.061476 0.603087 0.594546
O O2 0.068690 0.398832 0.963676
O O3 0.146390 0.643534 0.108892
O O4 0.146607 0.387188 0.513380
O O5 0.243261 0.596233 0.543390
O O6 0.748816 0.645012 0.959301
O O7 0.560809 0.620026 0.986404
O O8 0.658422 0.628475 0.383446
O O9 0.855048 0.853930 0.817495
O O10 0.573295 0.423665 0.638258
#
# Coordination Sequence:
#
# PCOD9313104 Si02
#       6
#     2   4   4   4   2   4
#     4   8  16  40  78  96 120 196 226 282 338 424
#     4   9  20  44  68  98 135 185 230 282 344 415
#     4  11  23  42  67 106 138 183 235 290 349 419
#     4   9  20  44  68  98 135 185 230 282 344 415
#     4  12  22  44  66 100 140 194 220 302 344 434
#     4  11  23  42  67 106 138 183 235 290 349 419
#
# _framework density 30.646564999999999
#
# number of rings (size 3 to 8) (size 9 to 14) (size 15 to 20)
#    1.200    0.800    2.000    1.800    0.000    0.000 
#   14.400    9.000    0.000    0.000    0.000    0.000 
#    0.000    0.000    0.000    0.000    0.000    0.000 
#
# Total GULP energy -111525.794797 kJ/mol
# GULP energy per Si atom -5576.289740 kJ/mol
# Density = 3.057681 g / cm^3
# Si number density = 30.646565 Si / 1000 Ang^3
#
#
#
# Elastic Constant Matrix: (Units=GPa)
#
#
# Indices 1 2 3 4 5 6 
#
# 1 222.4834 27.9437 29.2614 0.0000 0.0000 0.0000
# 2 27.9437 162.8933 5.9985 0.0000 0.0000 0.0000
# 3 29.2614 5.9985 113.3547 0.0000 0.0000 0.0000
# 4 0.0000 0.0000 0.0000 44.0935 0.0000 0.0000
# 5 0.0000 0.0000 0.0000 0.0000 44.3539 0.0000
# 6 0.0000 0.0000 0.0000 0.0000 0.0000 48.6147
#
#
#
# Elastic Compliance Matrix: (Units=1/GPa)
#
#
# Indices 1 2 3 4 5 6 
#
# 1 0.004747 -0.000771 -0.001185 0.000000 0.000000 0.000000
# 2 -0.000771 0.006276 -0.000133 0.000000 0.000000 0.000000
# 3 -0.001185 -0.000133 0.009135 0.000000 0.000000 0.000000
# 4 0.000000 0.000000 0.000000 0.022679 0.000000 0.000000
# 5 0.000000 0.000000 0.000000 0.000000 0.022546 0.000000
# 6 0.000000 0.000000 0.000000 0.000000 0.000000 0.020570
#
#
# Mechanical properties :
#
#
# Convention : Reuss Voigt Hill
#
# Bulk Modulus (GPa) = 62.57444 69.45984 66.01714
# Shear Modulus (GPa) = 52.37945 56.44762 54.41353
#
# Velocity S-wave (km/s) = 4.13867 4.29638 4.21826
# Velocity P-wave (km/s) = 6.58031 6.87938 6.73151
#
# Compressibility (1/GPa) = 0.01598097
#
# Stress axis : x y z
#
# Youngs Moduli (GPa) = 210.64448 159.33435 109.47238
#
# Poissons Ratio (x) = 0.12281 0.12969
# Poissons Ratio (y) = 0.16236 0.01458
# Poissons Ratio (z) = 0.24955 0.02122
#
# Static dielectric constant tensor:
#      x y z
#    x 2.433640 0.000000 0.000000 
#    y 0.000000 2.577260 0.000000 
#    z 0.000000 0.000000 2.486710 
# 
# From -- ./inp_files/1432.got.cif
#   From: 2010.05.17/outbox.cif.g08.bks.cpg/sg18_1_cif.got.tgz:1432.got - 2010.06.03 22:40:56.
