data_PCOD9313195
_publ_section_title
;
Structure prediction by ZEFSAII (Michael W. Deem and Ramdas Pophale) SiO2 
 PCOD9313195
Probable space group: P 21 21 2
;
_chemical_formula_sum "Si O2"
_cell_formula_units_Z 18
_cell_length_a 25.126576
_cell_length_b 5.297574
_cell_length_c 4.881291
_cell_angle_alpha 90.000000
_cell_angle_beta 90.000000
_cell_angle_gamma 90.000000
_cell_volume 649.748136
_symmetry_space_group_name_H-M "P 21 21 2"
_symmetry_group_IT_number 18
_symmetry_cell_setting 'orthorhombic'
loop_
_space_group_symop_operation_xyz
x,y,z
-x,-y,z
1/2+x,1/2-y,-z
1/2-x,1/2+y,-z
loop_
_atom_site_type_symbol
_atom_site_label
_atom_site_fract_x
_atom_site_fract_y
_atom_site_fract_z
Si Si1 0.000000 0.000000 0.317338
Si Si2 0.424919 0.893108 0.477974
Si Si3 0.686529 0.265694 0.404354
Si Si4 0.295155 0.240754 0.766673
Si Si5 0.906763 0.276767 0.007662
O O1 0.976695 0.775003 0.499857
O O2 0.050895 0.918120 0.133904
O O3 0.375983 0.736256 0.347115
O O4 0.413854 0.985928 0.785526
O O5 0.423844 0.138827 0.290135
O O6 0.694883 0.012840 0.588308
O O7 0.731792 0.256792 0.167713
O O8 0.696955 0.516462 0.575499
O O9 0.342958 0.268296 0.983273
#
# Coordination Sequence:
#
# PCOD9313195 Si02
#       5
#     2   4   4   4   4
#     4  12  26  50  80 108 160 210 262 324 394 470
#     4  11  26  47  73 113 150 202 263 319 390 467
#     4   9  18  40  72 109 153 200 254 320 391 467
#     4   9  18  40  72 109 153 200 254 320 391 467
#     4  11  26  47  73 113 150 202 263 319 390 467
#
# _framework density 27.703043000000001
#
# number of rings (size 3 to 8) (size 9 to 14) (size 15 to 20)
#    0.000    1.778    2.222    0.667    0.000    7.111 
#    0.000   17.778    0.000    0.000    0.000    0.000 
#    0.000    0.000    0.000    0.000    0.000    0.000 
#
# Total GULP energy -100882.527664 kJ/mol
# GULP energy per Si atom -5604.584870 kJ/mol
# Density = 2.763999 g / cm^3
# Si number density = 27.703043 Si / 1000 Ang^3
#
#
#
# Elastic Constant Matrix: (Units=GPa)
#
#
# Indices 1 2 3 4 5 6 
#
# 1 185.4425 18.6413 38.9330 0.0000 0.0000 0.0000
# 2 18.6413 133.4009 18.9029 0.0000 0.0000 0.0000
# 3 38.9330 18.9029 71.6242 0.0000 0.0000 0.0000
# 4 0.0000 0.0000 0.0000 31.4567 0.0000 0.0000
# 5 0.0000 0.0000 0.0000 0.0000 38.9343 0.0000
# 6 0.0000 0.0000 0.0000 0.0000 0.0000 77.6931
#
#
#
# Elastic Compliance Matrix: (Units=1/GPa)
#
#
# Indices 1 2 3 4 5 6 
#
# 1 0.006107 -0.000398 -0.003215 0.000000 0.000000 0.000000
# 2 -0.000398 0.007813 -0.001846 0.000000 0.000000 0.000000
# 3 -0.003215 -0.001846 0.016196 0.000000 0.000000 0.000000
# 4 0.000000 0.000000 0.000000 0.031790 0.000000 0.000000
# 5 0.000000 0.000000 0.000000 0.000000 0.025684 0.000000
# 6 0.000000 0.000000 0.000000 0.000000 0.000000 0.012871
#
#
# Mechanical properties :
#
#
# Convention : Reuss Voigt Hill
#
# Bulk Modulus (GPa) = 52.08296 60.38022 56.23159
# Shear Modulus (GPa) = 42.45222 50.54951 46.50087
#
# Velocity S-wave (km/s) = 3.91884 4.27628 4.10145
# Velocity P-wave (km/s) = 6.27038 6.79889 6.53997
#
# Compressibility (1/GPa) = 0.01920014
#
# Stress axis : x y z
#
# Youngs Moduli (GPa) = 163.73443 127.98604 61.74216
#
# Poissons Ratio (x) = 0.05093 0.19849
# Poissons Ratio (y) = 0.06515 0.11396
# Poissons Ratio (z) = 0.52638 0.23623
#
# Static dielectric constant tensor:
#      x y z
#    x 2.232720 0.000000 0.000000 
#    y 0.000000 2.174520 0.000000 
#    z 0.000000 0.000000 2.068080 
# 
# From -- ./inp_files/2155.got.cif
#   From: 2010.05.17/outbox.cif.g08.bks.cpg/sg18_2_cif.got.tgz:2155.got - 2010.06.03 22:40:56.
