data_PCOD9313459
_publ_section_title
;
Structure prediction by ZEFSAII (Michael W. Deem and Ramdas Pophale) SiO2 
 PCOD9313459
Probable space group: P 21 21 21
;
_chemical_formula_sum "Si O2"
_cell_formula_units_Z 32
_cell_length_a 13.101541
_cell_length_b 11.335905
_cell_length_c 9.006814
_cell_angle_alpha 90.000000
_cell_angle_beta 90.000000
_cell_angle_gamma 90.000000
_cell_volume 1337.672418
_symmetry_space_group_name_H-M "P 21 21 21"
_symmetry_group_IT_number 19
_symmetry_cell_setting 'orthorhombic'
loop_
_space_group_symop_operation_xyz
x,y,z
1/2-x,-y,1/2+z
1/2+x,1/2-y,-z
-x,1/2+y,1/2-z
loop_
_atom_site_type_symbol
_atom_site_label
_atom_site_fract_x
_atom_site_fract_y
_atom_site_fract_z
Si Si1 0.636661 0.747013 0.097731
Si Si2 0.900283 0.559095 0.946047
Si Si3 0.394078 0.423489 0.635156
Si Si4 0.594611 0.178236 0.461717
Si Si5 0.941726 0.042656 0.798540
Si Si6 0.076175 0.695767 0.437022
Si Si7 0.269395 0.148138 0.122727
Si Si8 0.604973 0.178417 0.813823
O O1 0.700152 0.660209 0.202016
O O2 0.619734 0.862021 0.202487
O O3 0.664963 0.818304 0.949043
O O4 0.528916 0.686362 0.059379
O O5 0.801338 0.476335 0.947839
O O6 0.968932 0.505005 0.813124
O O7 0.869593 0.692956 0.909930
O O8 0.985790 0.573919 0.077706
O O9 0.391948 0.391464 0.806847
O O10 0.356992 0.557098 0.612830
O O11 0.622015 0.066808 0.360841
O O12 0.617437 0.166867 0.636478
O O13 0.980502 0.117051 0.939130
O O14 0.165851 0.759552 0.525166
O O15 0.011184 0.799226 0.360384
O O16 0.158047 0.203366 0.127161
#
# Coordination Sequence:
#
# PCOD9313459 Si02
#       8
#     4   4   4   4   4   4   4   4
#     4   9  20  37  62  88 123 161 209 270 322 375
#     4  10  20  37  62  90 127 165 207 267 319 383
#     4  10  20  37  67  88 123 174 218 265 328 394
#     4  10  18  36  65  89 118 168 211 256 327 386
#     4   9  18  33  64  88 111 163 213 251 323 385
#     4  11  21  40  64  92 127 171 211 272 330 383
#     4  11  24  40  62  95 136 166 220 279 321 396
#     4  12  23  38  66  96 129 174 221 264 338 394
#
# _framework density 23.922149000000001
#
# number of rings (size 3 to 8) (size 9 to 14) (size 15 to 20)
#    0.000    2.000    6.250    0.000    0.000    1.000 
#    2.250    0.000    8.250    0.000    0.000    0.000 
#    0.000    0.000    0.000    0.000    0.000    0.000 
#
# Total GULP energy -178518.329649 kJ/mol
# GULP energy per Si atom -5578.697802 kJ/mol
# Density = 2.386770 g / cm^3
# Si number density = 23.922149 Si / 1000 Ang^3
#
#
#
# Elastic Constant Matrix: (Units=GPa)
#
#
# Indices 1 2 3 4 5 6 
#
# 1 35.6728 7.4727 12.9822 0.0000 0.0000 0.0000
# 2 7.4727 64.2936 -5.2449 0.0000 0.0000 0.0000
# 3 12.9822 -5.2449 87.7354 0.0000 0.0000 0.0000
# 4 0.0000 0.0000 0.0000 39.8279 0.0000 0.0000
# 5 0.0000 0.0000 0.0000 0.0000 20.8681 0.0000
# 6 0.0000 0.0000 0.0000 0.0000 0.0000 29.5867
#
#
#
# Elastic Compliance Matrix: (Units=1/GPa)
#
#
# Indices 1 2 3 4 5 6 
#
# 1 0.030592 -0.003944 -0.004762 0.000000 0.000000 0.000000
# 2 -0.003944 0.016138 0.001548 0.000000 0.000000 0.000000
# 3 -0.004762 0.001548 0.012195 0.000000 0.000000 0.000000
# 4 0.000000 0.000000 0.000000 0.025108 0.000000 0.000000
# 5 0.000000 0.000000 0.000000 0.000000 0.047920 0.000000
# 6 0.000000 0.000000 0.000000 0.000000 0.000000 0.033799
#
#
# Mechanical properties :
#
#
# Convention : Reuss Voigt Hill
#
# Bulk Modulus (GPa) = 22.41698 24.23575 23.32636
# Shear Modulus (GPa) = 25.64910 29.55600 27.60255
#
# Velocity S-wave (km/s) = 3.27798 3.51879 3.40052
# Velocity P-wave (km/s) = 4.87012 5.16355 5.01898
#
# Compressibility (1/GPa) = 0.04460905
#
# Stress axis : x y z
#
# Youngs Moduli (GPa) = 32.68833 61.96412 81.99957
#
# Poissons Ratio (x) = 0.24439 0.39052
# Poissons Ratio (y) = 0.12893 -0.12697
# Poissons Ratio (z) = 0.15568 -0.09594
#
# Static dielectric constant tensor:
#      x y z
#    x 1.999480 0.000000 0.000000 
#    y 0.000000 1.943620 0.000000 
#    z 0.000000 0.000000 1.943140 
# 
# From -- ./inp_files/3983.got.cif
#   From: 2010.05.17/outbox.cif.g08.bks.cpg/sg19_2_cif.got.tgz:3983.got - 2010.06.03 22:46:19.
