data_PCOD9313578
_publ_section_title
;
Structure prediction by ZEFSAII (Michael W. Deem and Ramdas Pophale) SiO2 
 PCOD9313578
Probable space group: P 21 21 21
;
_chemical_formula_sum "Si O2"
_cell_formula_units_Z 24
_cell_length_a 7.464786
_cell_length_b 11.994382
_cell_length_c 11.037323
_cell_angle_alpha 90.000000
_cell_angle_beta 90.000000
_cell_angle_gamma 90.000000
_cell_volume 988.232176
_symmetry_space_group_name_H-M "P 21 21 21"
_symmetry_group_IT_number 19
_symmetry_cell_setting 'orthorhombic'
loop_
_space_group_symop_operation_xyz
x,y,z
1/2-x,-y,1/2+z
1/2+x,1/2-y,-z
-x,1/2+y,1/2-z
loop_
_atom_site_type_symbol
_atom_site_label
_atom_site_fract_x
_atom_site_fract_y
_atom_site_fract_z
Si Si1 0.148494 0.154137 0.375931
Si Si2 0.778654 0.052502 0.378885
Si Si3 0.681440 0.697348 0.873718
Si Si4 0.818559 0.697348 0.626282
Si Si5 0.721346 0.052502 0.121115
Si Si6 0.648494 0.654137 0.375931
O O1 0.268831 0.149131 0.495863
O O2 0.250000 0.143459 0.250000
O O3 0.992499 0.063365 0.388023
O O4 0.026938 0.267463 0.369980
O O5 0.715797 0.181443 0.371775
O O6 0.750000 0.995658 0.250000
O O7 0.703898 1.000000 0.500000
O O8 0.750000 0.639846 0.750000
O O9 0.715797 0.818557 0.628225
O O10 0.768831 0.649131 0.495863
O O11 0.026938 0.732537 0.630020
O O12 0.507501 0.063365 0.111977
#
# Coordination Sequence:
#
# PCOD9313578 Si02
#       6
#     4   4   4   4   4   4
#     4  10  19  35  60  81 113 144 186 233 272 328
#     4   9  21  39  56  81 115 151 182 227 281 329
#     4   9  19  34  58  84 110 143 186 227 277 327
#     4   9  19  34  58  84 110 143 186 227 277 327
#     4   9  21  39  56  81 115 151 182 227 281 329
#     4  10  19  35  60  81 113 144 186 233 272 328
#
# _framework density 24.285788
#
# number of rings (size 3 to 8) (size 9 to 14) (size 15 to 20)
#    2.000    0.667    0.000    2.000    0.000    1.333 
#    0.000    3.333    0.000    0.000    0.000    0.000 
#    0.000    0.000    0.000    0.000    0.000    0.000 
#
# Total GULP energy -133764.099528 kJ/mol
# GULP energy per Si atom -5573.504147 kJ/mol
# Density = 2.423051 g / cm^3
# Si number density = 24.285788 Si / 1000 Ang^3
#
#
#
# Elastic Constant Matrix: (Units=GPa)
#
#
# Indices 1 2 3 4 5 6 
#
# 1 53.1706 7.8388 29.5205 0.0000 0.0000 0.0000
# 2 7.8388 32.7277 37.0653 0.0000 0.0000 0.0000
# 3 29.5205 37.0653 254.0385 0.0000 0.0000 0.0000
# 4 0.0000 0.0000 0.0000 14.4352 0.0000 0.0000
# 5 0.0000 0.0000 0.0000 0.0000 50.5485 0.0000
# 6 0.0000 0.0000 0.0000 0.0000 0.0000 122.3450
#
#
#
# Elastic Compliance Matrix: (Units=1/GPa)
#
#
# Indices 1 2 3 4 5 6 
#
# 1 0.020291 -0.002623 -0.001975 0.000000 0.000000 0.000000
# 2 -0.002623 0.036943 -0.005085 0.000000 0.000000 0.000000
# 3 -0.001975 -0.005085 0.004908 0.000000 0.000000 0.000000
# 4 0.000000 0.000000 0.000000 0.069275 0.000000 0.000000
# 5 0.000000 0.000000 0.000000 0.000000 0.019783 0.000000
# 6 0.000000 0.000000 0.000000 0.000000 0.000000 0.008174
#
#
# Mechanical properties :
#
#
# Convention : Reuss Voigt Hill
#
# Bulk Modulus (GPa) = 23.37851 54.30958 38.84404
# Shear Modulus (GPa) = 25.90698 55.16653 40.53676
#
# Velocity S-wave (km/s) = 3.26966 4.77126 4.08996
# Velocity P-wave (km/s) = 4.88893 7.26391 6.19137
#
# Compressibility (1/GPa) = 0.04277433
#
# Stress axis : x y z
#
# Youngs Moduli (GPa) = 49.28367 27.06898 203.75299
#
# Poissons Ratio (x) = 0.07100 0.40245
# Poissons Ratio (y) = 0.12927 1.03614
# Poissons Ratio (z) = 0.09734 0.13765
#
# Static dielectric constant tensor:
#      x y z
#    x 1.910900 0.000000 0.000000 
#    y 0.000000 2.021190 0.000000 
#    z 0.000000 0.000000 1.289170 
# 
# From -- ./inp_files/3048.got.cif
#   From: 2010.05.17/outbox.cif.g08.bks.cpg/sg19_2_cif.got.tgz:3048.got - 2010.06.03 22:46:19.
