data_PCOD9313100
_publ_section_title
;
Structure prediction by ZEFSAII (Michael W. Deem and Ramdas Pophale) SiO2 
 PCOD9313100
Probable space group: P 21 21 2
;
_chemical_formula_sum "Si O2"
_cell_formula_units_Z 24
_cell_length_a 5.351304
_cell_length_b 17.091834
_cell_length_c 11.221994
_cell_angle_alpha 90.000000
_cell_angle_beta 90.000000
_cell_angle_gamma 90.000000
_cell_volume 1026.403967
_symmetry_space_group_name_H-M "P 21 21 2"
_symmetry_group_IT_number 18
_symmetry_cell_setting 'orthorhombic'
loop_
_space_group_symop_operation_xyz
x,y,z
-x,-y,z
1/2+x,1/2-y,-z
1/2-x,1/2+y,-z
loop_
_atom_site_type_symbol
_atom_site_label
_atom_site_fract_x
_atom_site_fract_y
_atom_site_fract_z
Si Si1 0.500000 0.500000 0.931915
Si Si2 0.483848 0.229477 0.203783
Si Si3 0.573933 0.087085 0.838101
Si Si4 0.423871 0.616801 0.307938
Si Si5 0.500000 0.500000 0.516779
Si Si6 0.266248 0.662141 0.000922
Si Si7 0.192719 0.435439 0.718280
O O1 0.286332 0.472363 0.841597
O O2 0.411747 0.578966 0.997634
O O3 0.485717 0.292608 0.310427
O O4 0.617694 0.278445 0.096646
O O5 0.603174 0.150711 0.252563
O O6 0.240159 0.198285 0.131752
O O7 0.840670 0.085191 0.772480
O O8 0.514976 0.139934 0.953823
O O9 0.351014 0.114378 0.750663
O O10 0.500000 0.000000 0.873414
O O11 0.388106 0.562326 0.422420
O O12 0.388040 0.438328 0.611853
O O13 0.000000 0.500000 0.671016
#
# Coordination Sequence:
#
# PCOD9313100 Si02
#       7
#     2   4   4   4   2   4   4
#     4  11  24  43  72 108 148 203 246 285 372 470
#     4  11  24  45  67 114 144 194 241 315 363 457
#     4  11  23  40  71 110 149 189 241 292 364 450
#     4  11  25  47  75 106 145 188 255 312 366 436
#     4  11  26  49  76 100 136 197 252 315 386 424
#     4  11  24  39  74 106 158 193 243 290 388 446
#     4  11  25  48  70  99 144 191 249 307 369 447
#
# _framework density 23.382608999999999
#
# number of rings (size 3 to 8) (size 9 to 14) (size 15 to 20)
#    0.000    1.000    3.333    2.000    9.333    1.333 
#    3.000    0.000    0.000    0.000    0.000    0.000 
#    0.000    0.000    0.000    0.000    0.000    0.000 
#
# Total GULP energy -133723.213689 kJ/mol
# GULP energy per Si atom -5571.800570 kJ/mol
# Density = 2.332939 g / cm^3
# Si number density = 23.382609 Si / 1000 Ang^3
#
#
#
# Elastic Constant Matrix: (Units=GPa)
#
#
# Indices 1 2 3 4 5 6 
#
# 1 50.9467 -1.1481 11.9243 0.0000 0.0000 0.0000
# 2 -1.1481 183.1512 35.3993 0.0000 0.0000 0.0000
# 3 11.9243 35.3993 88.7587 0.0000 0.0000 0.0000
# 4 0.0000 0.0000 0.0000 10.5969 0.0000 0.0000
# 5 0.0000 0.0000 0.0000 0.0000 330.3249 0.0000
# 6 0.0000 0.0000 0.0000 0.0000 0.0000 36.6557
#
#
#
# Elastic Compliance Matrix: (Units=1/GPa)
#
#
# Indices 1 2 3 4 5 6 
#
# 1 0.020351 0.000711 -0.003017 0.000000 0.000000 0.000000
# 2 0.000711 0.005941 -0.002465 0.000000 0.000000 0.000000
# 3 -0.003017 -0.002465 0.012655 0.000000 0.000000 0.000000
# 4 0.000000 0.000000 0.000000 0.094367 0.000000 0.000000
# 5 0.000000 0.000000 0.000000 0.000000 0.003027 0.000000
# 6 0.000000 0.000000 0.000000 0.000000 0.000000 0.027281
#
#
# Mechanical properties :
#
#
# Convention : Reuss Voigt Hill
#
# Bulk Modulus (GPa) = 34.00980 46.13418 40.07199
# Shear Modulus (GPa) = 27.32750 93.96092 60.64421
#
# Velocity S-wave (km/s) = 3.42235 6.34597 5.09823
# Velocity P-wave (km/s) = 5.49483 8.57135 7.19935
#
# Compressibility (1/GPa) = 0.02940329
#
# Stress axis : x y z
#
# Youngs Moduli (GPa) = 49.13858 168.32669 79.02062
#
# Poissons Ratio (x) = -0.11964 0.23844
# Poissons Ratio (y) = -0.03493 0.19477
# Poissons Ratio (z) = 0.14827 0.41490
#
# Static dielectric constant tensor:
#      x y z
#    x 2.064490 0.000000 0.000000 
#    y 0.000000 1.730830 0.000000 
#    z 0.000000 0.000000 1.901220 
# 
# From -- ./inp_files/5161.got.cif
#   From: 2010.05.17/outbox.cif.g08.bks.cpg/sg18_3_cif.got.tgz:5161.got - 2010.06.03 22:40:56.
