data_PCOD9313478
_publ_section_title
;
Structure prediction by ZEFSAII (Michael W. Deem and Ramdas Pophale) SiO2 
 PCOD9313478
Probable space group: P 21 21 21
;
_chemical_formula_sum "Si O2"
_cell_formula_units_Z 20
_cell_length_a 6.933947
_cell_length_b 17.568648
_cell_length_c 6.293963
_cell_angle_alpha 90.000000
_cell_angle_beta 90.000000
_cell_angle_gamma 90.000000
_cell_volume 766.731039
_symmetry_space_group_name_H-M "P 21 21 21"
_symmetry_group_IT_number 19
_symmetry_cell_setting 'orthorhombic'
loop_
_space_group_symop_operation_xyz
x,y,z
1/2-x,-y,1/2+z
1/2+x,1/2-y,-z
-x,1/2+y,1/2-z
loop_
_atom_site_type_symbol
_atom_site_label
_atom_site_fract_x
_atom_site_fract_y
_atom_site_fract_z
Si Si1 0.186422 0.413600 0.118693
Si Si2 0.837267 0.393165 0.613475
Si Si3 0.889096 0.784875 0.695142
Si Si4 0.486840 0.966719 0.122737
Si Si5 0.509665 0.839216 0.603821
O O1 0.093463 0.336075 0.025768
O O2 0.313125 0.422837 0.328826
O O3 0.036646 0.480484 0.080364
O O4 0.364200 0.413760 0.948148
O O5 0.699818 0.415243 0.418892
O O6 0.684551 0.360356 0.783511
O O7 0.935499 0.469814 0.701301
O O8 0.998356 0.327713 0.618502
O O9 0.661206 0.788499 0.736548
O O10 0.969063 0.705085 0.615897
#
# Coordination Sequence:
#
# PCOD9313478 Si02
#       5
#     4   4   4   4   4
#     4   9  21  36  61  92 125 157 204 260 304 367
#     4  11  21  36  63  90 121 168 200 256 312 373
#     4   9  20  36  67  87 122 164 212 250 306 369
#     4  11  22  39  61  97 126 162 205 257 320 369
#     4  10  18  39  66  86 124 161 217 245 310 366
#
# _framework density 26.084769000000001
#
# number of rings (size 3 to 8) (size 9 to 14) (size 15 to 20)
#    1.200    0.800    2.000    2.400    0.000    0.000 
#    0.000    0.000    8.800    0.000    0.000    0.000 
#    0.000    0.000    0.000    0.000    0.000    0.000 
#
# Total GULP energy -111471.956557 kJ/mol
# GULP energy per Si atom -5573.597828 kJ/mol
# Density = 2.602540 g / cm^3
# Si number density = 26.084769 Si / 1000 Ang^3
#
#
#
# Elastic Constant Matrix: (Units=GPa)
#
#
# Indices 1 2 3 4 5 6 
#
# 1 114.5200 32.9215 22.8617 0.0000 0.0000 0.0000
# 2 32.9215 74.5857 41.1778 0.0000 0.0000 0.0000
# 3 22.8617 41.1778 34.6724 0.0000 0.0000 0.0000
# 4 0.0000 0.0000 0.0000 22.9485 0.0000 0.0000
# 5 0.0000 0.0000 0.0000 0.0000 50.5051 0.0000
# 6 0.0000 0.0000 0.0000 0.0000 0.0000 45.8502
#
#
#
# Elastic Compliance Matrix: (Units=1/GPa)
#
#
# Indices 1 2 3 4 5 6 
#
# 1 0.010189 -0.002289 -0.003999 0.000000 0.000000 0.000000
# 2 -0.002289 0.039452 -0.045345 0.000000 0.000000 0.000000
# 3 -0.003999 -0.045345 0.085331 0.000000 0.000000 0.000000
# 4 0.000000 0.000000 0.000000 0.043576 0.000000 0.000000
# 5 0.000000 0.000000 0.000000 0.000000 0.019800 0.000000
# 6 0.000000 0.000000 0.000000 0.000000 0.000000 0.021810
#
#
# Mechanical properties :
#
#
# Convention : Reuss Voigt Hill
#
# Bulk Modulus (GPa) = 31.54072 46.41112 38.97592
# Shear Modulus (GPa) = 14.97036 32.31523 23.64280
#
# Velocity S-wave (km/s) = 2.39824 3.52355 3.01389
# Velocity P-wave (km/s) = 4.44822 5.86387 5.20440
#
# Compressibility (1/GPa) = 0.03170504
#
# Stress axis : x y z
#
# Youngs Moduli (GPa) = 98.14934 25.34709 11.71904
#
# Poissons Ratio (x) = 0.05803 0.04687
# Poissons Ratio (y) = 0.22469 0.53140
# Poissons Ratio (z) = 0.39252 1.14937
#
# Static dielectric constant tensor:
#      x y z
#    x 1.994560 0.000000 0.000000 
#    y 0.000000 2.054330 0.000000 
#    z 0.000000 0.000000 2.136890 
# 
# From -- ./inp_files/2874.got.cif
#   From: 2010.05.17/outbox.cif.g08.bks.cpg/sg19_2_cif.got.tgz:2874.got - 2010.06.03 22:46:19.
