data_PCOD9313530
_publ_section_title
;
Structure prediction by ZEFSAII (Michael W. Deem and Ramdas Pophale) SiO2 
 PCOD9313530
Probable space group: P 21 21 21
;
_chemical_formula_sum "Si O2"
_cell_formula_units_Z 28
_cell_length_a 8.082824
_cell_length_b 11.103363
_cell_length_c 11.692594
_cell_angle_alpha 90.000000
_cell_angle_beta 90.000000
_cell_angle_gamma 90.000000
_cell_volume 1049.369726
_symmetry_space_group_name_H-M "P 21 21 21"
_symmetry_group_IT_number 19
_symmetry_cell_setting 'orthorhombic'
loop_
_space_group_symop_operation_xyz
x,y,z
1/2-x,-y,1/2+z
1/2+x,1/2-y,-z
-x,1/2+y,1/2-z
loop_
_atom_site_type_symbol
_atom_site_label
_atom_site_fract_x
_atom_site_fract_y
_atom_site_fract_z
Si Si1 0.908534 0.642111 0.879399
Si Si2 0.053210 0.542767 0.176691
Si Si3 0.776352 0.244657 0.168092
Si Si4 0.843498 0.105040 0.798273
Si Si5 0.161328 0.401106 0.529538
Si Si6 0.119885 0.027635 0.112936
Si Si7 0.994980 0.766871 0.516311
O O1 0.824609 0.676154 0.755939
O O2 0.880102 0.760905 0.954665
O O3 0.792556 0.534167 0.922829
O O4 0.090193 0.619479 0.828721
O O5 0.131003 0.649751 0.254261
O O6 0.149148 0.418046 0.200405
O O7 0.137502 0.578140 0.053739
O O8 0.882713 0.538249 0.247753
O O9 0.653838 0.170548 0.082987
O O10 0.890390 0.320038 0.081615
O O11 0.892711 0.213292 0.881579
O O12 0.904799 0.981845 0.861259
O O13 0.040609 0.449761 0.429734
O O14 0.085679 0.152206 0.048291
#
# Coordination Sequence:
#
# PCOD9313530 Si02
#       7
#     4   4   4   4   4   4   4
#     4  10  19  33  56  78 108 138 181 229 261 313
#     4   8  17  34  54  72 107 148 168 213 270 319
#     4   9  18  33  52  76 105 137 174 219 266 313
#     4   8  17  34  54  72 107 148 168 213 270 319
#     4   8  18  36  54  72 118 142 172 216 280 326
#     4  10  19  33  56  78 108 138 181 229 261 313
#     4   9  18  33  52  76 105 137 174 219 266 313
#
# _framework density 26.682683000000001
#
# number of rings (size 3 to 8) (size 9 to 14) (size 15 to 20)
#    0.857    2.286    0.000    0.000    0.000    3.429 
#    0.000    0.000   28.286    0.000    0.000    0.000 
#    0.000    0.000    0.000    0.000    0.000    0.000 
#
# Total GULP energy -155907.036231 kJ/mol
# GULP energy per Si atom -5568.108437 kJ/mol
# Density = 2.662195 g / cm^3
# Si number density = 26.682683 Si / 1000 Ang^3
#
#
#
# Elastic Constant Matrix: (Units=GPa)
#
#
# Indices 1 2 3 4 5 6 
#
# 1 32.3523 -5.2842 -4.8728 0.0000 0.0000 0.0000
# 2 -5.2842 27.8385 16.4612 0.0000 0.0000 0.0000
# 3 -4.8728 16.4612 123.5715 0.0000 0.0000 0.0000
# 4 0.0000 0.0000 0.0000 20.1802 0.0000 0.0000
# 5 0.0000 0.0000 0.0000 0.0000 29.0170 0.0000
# 6 0.0000 0.0000 0.0000 0.0000 0.0000 35.6049
#
#
#
# Elastic Compliance Matrix: (Units=1/GPa)
#
#
# Indices 1 2 3 4 5 6 
#
# 1 0.031926 0.005770 0.000490 0.000000 0.000000 0.000000
# 2 0.005770 0.040036 -0.005106 0.000000 0.000000 0.000000
# 3 0.000490 -0.005106 0.008792 0.000000 0.000000 0.000000
# 4 0.000000 0.000000 0.000000 0.049553 0.000000 0.000000
# 5 0.000000 0.000000 0.000000 0.000000 0.034463 0.000000
# 6 0.000000 0.000000 0.000000 0.000000 0.000000 0.028086
#
#
# Mechanical properties :
#
#
# Convention : Reuss Voigt Hill
#
# Bulk Modulus (GPa) = 12.03902 21.81897 16.92899
# Shear Modulus (GPa) = 22.91118 28.79098 25.85108
#
# Velocity S-wave (km/s) = 2.93346 3.28840 3.11599
# Velocity P-wave (km/s) = 3.99941 4.75532 4.39365
#
# Compressibility (1/GPa) = 0.08306325
#
# Stress axis : x y z
#
# Youngs Moduli (GPa) = 31.32246 24.97762 113.74033
#
# Poissons Ratio (x) = -0.14413 -0.05576
# Poissons Ratio (y) = -0.18074 0.58073
# Poissons Ratio (z) = -0.01536 0.12753
#
# Static dielectric constant tensor:
#      x y z
#    x 2.335650 0.000000 0.000000 
#    y 0.000000 2.095570 0.000000 
#    z 0.000000 0.000000 2.153620 
# 
# From -- ./inp_files/4024.got.cif
#   From: 2010.05.17/outbox.cif.g08.bks.cpg/sg19_3_cif.got.tgz:4024.got - 2010.06.03 22:46:19.
