data_PCOD9313294
_publ_section_title
;
Structure prediction by ZEFSAII (Michael W. Deem and Ramdas Pophale) SiO2 
 PCOD9313294
Probable space group: P 21 21 2
;
_chemical_formula_sum "Si O2"
_cell_formula_units_Z 16
_cell_length_a 9.000000
_cell_length_b 9.000000
_cell_length_c 9.000000
_cell_angle_alpha 90.000000
_cell_angle_beta 90.000000
_cell_angle_gamma 90.000000
_cell_volume 729.000000
_symmetry_space_group_name_H-M "P 21 21 2"
_symmetry_group_IT_number 18
_symmetry_cell_setting 'orthorhombic'
loop_
_space_group_symop_operation_xyz
x,y,z
-x,-y,z
1/2+x,1/2-y,-z
1/2-x,1/2+y,-z
loop_
_atom_site_type_symbol
_atom_site_label
_atom_site_fract_x
_atom_site_fract_y
_atom_site_fract_z
Si Si1 0.106381 0.268789 0.305345
Si Si2 0.864189 0.383388 0.820677
Si Si3 0.324869 0.103319 0.822539
Si Si4 0.452190 0.664746 0.371011
O O1 0.191863 0.127497 0.233152
O O2 0.152950 0.431938 0.234938
O O3 0.108927 0.252968 0.484773
O O4 0.934478 0.281006 0.258500
O O5 0.000000 0.500000 0.791938
O O6 0.915807 0.248826 0.712752
O O7 0.851417 0.380014 0.000502
O O8 0.164990 0.147101 0.762125
O O9 0.500000 0.500000 0.421465
#
# Coordination Sequence:
#
# PCOD9313294 Si02
#       4
#     4   4   4   4
#     4  11  25  47  73 108 149 199 246 311 373 444
#     4  12  26  47  76 111 148 201 247 315 379 446
#     4  11  25  49  72 106 155 197 256 304 373 457
#     4  12  27  46  75 112 150 198 254 312 384 452
#
# _framework density 21.947873999999999
#
# number of rings (size 3 to 8) (size 9 to 14) (size 15 to 20)
#    0.000    0.500    5.000    3.000    7.000    0.000 
#    0.000    0.000    0.000    0.000    0.000    0.000 
#    0.000    0.000    0.000    0.000    0.000    0.000 
#
# Total GULP energy -89099.011339 kJ/mol
# GULP energy per Si atom -5568.688209 kJ/mol
# Density = 2.189792 g / cm^3
# Si number density = 21.947874 Si / 1000 Ang^3
#
#
#
# Elastic Constant Matrix: (Units=GPa)
#
#
# Indices 1 2 3 4 5 6 
#
# 1 51.9817 12.6348 4.5527 0.0000 0.0000 0.0000
# 2 12.6348 69.4242 45.4123 0.0000 0.0000 0.0000
# 3 4.5527 45.4123 165.4448 0.0000 0.0000 0.0000
# 4 0.0000 0.0000 0.0000 22.9256 0.0000 0.0000
# 5 0.0000 0.0000 0.0000 0.0000 38.3003 0.0000
# 6 0.0000 0.0000 0.0000 0.0000 0.0000 48.8217
#
#
#
# Elastic Compliance Matrix: (Units=1/GPa)
#
#
# Indices 1 2 3 4 5 6 
#
# 1 0.020169 -0.004031 0.000552 0.000000 0.000000 0.000000
# 2 -0.004031 0.018362 -0.004929 0.000000 0.000000 0.000000
# 3 0.000552 -0.004929 0.007382 0.000000 0.000000 0.000000
# 4 0.000000 0.000000 0.000000 0.043619 0.000000 0.000000
# 5 0.000000 0.000000 0.000000 0.000000 0.026109 0.000000
# 6 0.000000 0.000000 0.000000 0.000000 0.000000 0.020483
#
#
# Mechanical properties :
#
#
# Convention : Reuss Voigt Hill
#
# Bulk Modulus (GPa) = 34.36988 45.78336 40.07662
# Shear Modulus (GPa) = 30.74241 36.95958 33.85099
#
# Velocity S-wave (km/s) = 3.74665 4.10807 3.93152
# Velocity P-wave (km/s) = 5.86603 6.58840 6.23768
#
# Compressibility (1/GPa) = 0.02909524
#
# Stress axis : x y z
#
# Youngs Moduli (GPa) = 49.58077 54.45954 135.46194
#
# Poissons Ratio (x) = 0.21955 -0.07472
# Poissons Ratio (y) = 0.19988 0.66773
# Poissons Ratio (z) = -0.02735 0.26844
#
# Static dielectric constant tensor:
#      x y z
#    x 1.957170 0.000000 0.000000 
#    y 0.000000 1.850910 0.000000 
#    z 0.000000 0.000000 1.735120 
# 
# From -- ./inp_files/2779.got.cif
#   From: 2010.05.17/outbox.ucp.g08.bks.cvg/sg18_2_cif.got.tgz:2779.got - 2010.06.11 13:13:23.
