data_PCOD9313545
_publ_section_title
;
Structure prediction by ZEFSAII (Michael W. Deem and Ramdas Pophale) SiO2 
 PCOD9313545
Probable space group: P 21 21 21
;
_chemical_formula_sum "Si O2"
_cell_formula_units_Z 28
_cell_length_a 17.884551
_cell_length_b 7.422638
_cell_length_c 8.037556
_cell_angle_alpha 90.000000
_cell_angle_beta 90.000000
_cell_angle_gamma 90.000000
_cell_volume 1066.989962
_symmetry_space_group_name_H-M "P 21 21 21"
_symmetry_group_IT_number 19
_symmetry_cell_setting 'orthorhombic'
loop_
_space_group_symop_operation_xyz
x,y,z
1/2-x,-y,1/2+z
1/2+x,1/2-y,-z
-x,1/2+y,1/2-z
loop_
_atom_site_type_symbol
_atom_site_label
_atom_site_fract_x
_atom_site_fract_y
_atom_site_fract_z
Si Si1 0.584015 0.188480 0.702088
Si Si2 0.811682 0.297689 0.489436
Si Si3 0.526548 0.616545 0.043386
Si Si4 0.419702 0.896465 0.188917
Si Si5 0.669102 0.854927 0.645775
Si Si6 0.969006 0.411355 0.116779
Si Si7 0.770001 0.389502 0.850469
O O1 0.647763 0.064197 0.628699
O O2 0.560230 0.129108 0.884248
O O3 0.501211 0.103771 0.646182
O O4 0.574770 0.396492 0.664790
O O5 0.897831 0.268132 0.543772
O O6 0.794996 0.173594 0.329269
O O7 0.767995 0.306835 0.665234
O O8 0.801700 0.498678 0.410587
O O9 0.453842 0.711550 0.121686
O O10 0.550376 0.434825 0.128130
O O11 0.333208 0.951615 0.165929
O O12 0.458343 0.055151 0.083934
O O13 0.589103 0.753060 0.649937
O O14 0.711164 0.757174 0.492951
#
# Coordination Sequence:
#
# PCOD9313545 Si02
#       7
#     4   4   4   4   4   4   4
#     4  11  20  34  57  90 123 157 206 253 317 368
#     4  11  20  39  62  96 115 169 226 242 313 397
#     4  10  21  35  59  91 124 154 213 256 314 381
#     4   9  21  35  54  89 119 155 198 265 308 364
#     4  11  21  38  62  85 127 164 199 262 313 364
#     4  10  19  34  54  85 121 159 202 251 307 372
#     4  10  22  37  64  88 123 166 212 261 312 376
#
# _framework density 26.242046999999999
#
# number of rings (size 3 to 8) (size 9 to 14) (size 15 to 20)
#    0.000    1.714    4.286    0.857    6.000    0.000 
#    0.000    0.000    0.000   10.286    0.000    0.000 
#    0.000    0.000    0.000    0.000    0.000    0.000 
#
# Total GULP energy -155942.678411 kJ/mol
# GULP energy per Si atom -5569.381372 kJ/mol
# Density = 2.618232 g / cm^3
# Si number density = 26.242047 Si / 1000 Ang^3
#
#
#
# Elastic Constant Matrix: (Units=GPa)
#
#
# Indices 1 2 3 4 5 6 
#
# 1 74.0016 56.2583 24.2765 0.0000 0.0000 0.0000
# 2 56.2583 130.8469 44.1298 0.0000 0.0000 0.0000
# 3 24.2765 44.1298 116.6536 0.0000 0.0000 0.0000
# 4 0.0000 0.0000 0.0000 32.1290 0.0000 0.0000
# 5 0.0000 0.0000 0.0000 0.0000 33.3333 0.0000
# 6 0.0000 0.0000 0.0000 0.0000 0.0000 49.9848
#
#
#
# Elastic Compliance Matrix: (Units=1/GPa)
#
#
# Indices 1 2 3 4 5 6 
#
# 1 0.020187 -0.008325 -0.001052 0.000000 0.000000 0.000000
# 2 -0.008325 0.012193 -0.002880 0.000000 0.000000 0.000000
# 3 -0.001052 -0.002880 0.009881 0.000000 0.000000 0.000000
# 4 0.000000 0.000000 0.000000 0.031125 0.000000 0.000000
# 5 0.000000 0.000000 0.000000 0.000000 0.030000 0.000000
# 6 0.000000 0.000000 0.000000 0.000000 0.000000 0.020006
#
#
# Mechanical properties :
#
#
# Convention : Reuss Voigt Hill
#
# Bulk Modulus (GPa) = 56.34611 63.42570 59.88591
# Shear Modulus (GPa) = 32.50529 36.21193 34.35861
#
# Velocity S-wave (km/s) = 3.52330 3.71876 3.62235
# Velocity P-wave (km/s) = 6.17007 6.53153 6.35337
#
# Compressibility (1/GPa) = 0.01774745
#
# Stress axis : x y z
#
# Youngs Moduli (GPa) = 49.53676 82.01305 101.20574
#
# Poissons Ratio (x) = 0.68274 0.10645
# Poissons Ratio (y) = 0.41238 0.29149
# Poissons Ratio (z) = 0.05210 0.23621
#
# Static dielectric constant tensor:
#      x y z
#    x 2.153400 0.000000 0.000000 
#    y 0.000000 2.017130 0.000000 
#    z 0.000000 0.000000 2.348140 
# 
# From -- ./inp_files/3219.got.cif
#   From: 2010.05.17/outbox.cif.g08.bks.cpg/sg19_2_cif.got.tgz:3219.got - 2010.06.03 22:46:19.
