data_PCOD9313626
_publ_section_title
;
Structure prediction by ZEFSAII (Michael W. Deem and Ramdas Pophale) SiO2 
 PCOD9313626
Probable space group: P 21 21 21
;
_chemical_formula_sum "Si O2"
_cell_formula_units_Z 28
_cell_length_a 8.498748
_cell_length_b 17.454926
_cell_length_c 7.459410
_cell_angle_alpha 90.000000
_cell_angle_beta 90.000000
_cell_angle_gamma 90.000000
_cell_volume 1106.566306
_symmetry_space_group_name_H-M "P 21 21 21"
_symmetry_group_IT_number 19
_symmetry_cell_setting 'orthorhombic'
loop_
_space_group_symop_operation_xyz
x,y,z
1/2-x,-y,1/2+z
1/2+x,1/2-y,-z
-x,1/2+y,1/2-z
loop_
_atom_site_type_symbol
_atom_site_label
_atom_site_fract_x
_atom_site_fract_y
_atom_site_fract_z
Si Si1 0.837742 0.233861 0.351121
Si Si2 0.440435 0.340923 0.992886
Si Si3 0.728326 0.459860 0.471103
Si Si4 0.772283 0.379692 0.862118
Si Si5 0.015654 0.328723 0.627249
Si Si6 0.905956 0.108852 0.636174
Si Si7 0.408644 0.523469 0.943864
O O1 0.864634 0.217847 0.144419
O O2 0.653039 0.232703 0.380619
O O3 0.897781 0.157789 0.454766
O O4 0.913536 0.305151 0.452553
O O5 0.624501 0.337343 0.944673
O O6 0.397055 0.431841 0.960835
O O7 0.394362 0.333519 0.198413
O O8 0.735032 0.416329 0.662646
O O9 0.688787 0.549686 0.490026
O O10 0.579088 0.428993 0.358780
O O11 0.906363 0.464147 0.388619
O O12 0.921114 0.329451 0.810756
O O13 0.085429 0.414875 0.607989
O O14 0.752479 0.053428 0.649270
#
# Coordination Sequence:
#
# PCOD9313626 Si02
#       7
#     4   4   4   4   4   4   4
#     4  11  24  43  69  93 132 187 222 279 347 409
#     4  11  23  42  65 102 135 171 229 286 337 409
#     4  10  19  36  63  95 133 170 217 276 329 395
#     4  10  20  38  64  99 131 177 220 274 345 393
#     4  10  22  43  68  95 137 183 223 278 346 413
#     4  11  23  40  66  93 135 175 222 281 334 402
#     4   9  23  38  65 101 129 177 225 274 338 405
#
# _framework density 25.303498000000001
#
# number of rings (size 3 to 8) (size 9 to 14) (size 15 to 20)
#    0.000    1.714    1.429    3.429    8.000    0.000 
#    2.571    4.286    3.143    0.000    0.000    0.000 
#    0.000    0.000    0.000    0.000    0.000    0.000 
#
# Total GULP energy -156246.213812 kJ/mol
# GULP energy per Si atom -5580.221922 kJ/mol
# Density = 2.524591 g / cm^3
# Si number density = 25.303498 Si / 1000 Ang^3
#
#
#
# Elastic Constant Matrix: (Units=GPa)
#
#
# Indices 1 2 3 4 5 6 
#
# 1 96.4349 13.7183 17.3892 0.0000 0.0000 0.0000
# 2 13.7183 76.4355 -7.2809 0.0000 0.0000 0.0000
# 3 17.3892 -7.2809 84.2600 0.0000 0.0000 0.0000
# 4 0.0000 0.0000 0.0000 37.0749 0.0000 0.0000
# 5 0.0000 0.0000 0.0000 0.0000 30.2262 0.0000
# 6 0.0000 0.0000 0.0000 0.0000 0.0000 34.6959
#
#
#
# Elastic Compliance Matrix: (Units=1/GPa)
#
#
# Indices 1 2 3 4 5 6 
#
# 1 0.011137 -0.002236 -0.002492 0.000000 0.000000 0.000000
# 2 -0.002236 0.013640 0.001640 0.000000 0.000000 0.000000
# 3 -0.002492 0.001640 0.012524 0.000000 0.000000 0.000000
# 4 0.000000 0.000000 0.000000 0.026972 0.000000 0.000000
# 5 0.000000 0.000000 0.000000 0.000000 0.033084 0.000000
# 6 0.000000 0.000000 0.000000 0.000000 0.000000 0.028822
#
#
# Mechanical properties :
#
#
# Convention : Reuss Voigt Hill
#
# Bulk Modulus (GPa) = 32.12725 33.86485 32.99605
# Shear Modulus (GPa) = 35.03108 35.95299 35.49204
#
# Velocity S-wave (km/s) = 3.72484 3.77353 3.74926
# Velocity P-wave (km/s) = 5.58780 5.69198 5.64013
#
# Compressibility (1/GPa) = 0.03112623
#
# Stress axis : x y z
#
# Youngs Moduli (GPa) = 89.79006 73.31114 79.84690
#
# Poissons Ratio (x) = 0.16394 0.19895
# Poissons Ratio (y) = 0.20079 -0.13096
# Poissons Ratio (z) = 0.22373 -0.12024
#
# Static dielectric constant tensor:
#      x y z
#    x 2.076130 0.000000 0.000000 
#    y 0.000000 2.051110 0.000000 
#    z 0.000000 0.000000 1.983260 
# 
# From -- ./inp_files/2974.got.cif
#   From: 2010.05.17/outbox.cif.g08.bks.cpg/sg19_2_cif.got.tgz:2974.got - 2010.06.03 22:46:19.
