data_PCOD9313962
_publ_section_title
;
Structure prediction by ZEFSAII (Michael W. Deem and Ramdas Pophale) SiO2 
 PCOD9313962
Probable space group: P 21 21 21
;
_chemical_formula_sum "Si O2"
_cell_formula_units_Z 20
_cell_length_a 10.419632
_cell_length_b 14.500860
_cell_length_c 4.967111
_cell_angle_alpha 90.000000
_cell_angle_beta 90.000000
_cell_angle_gamma 90.000000
_cell_volume 750.498806
_symmetry_space_group_name_H-M "P 21 21 21"
_symmetry_group_IT_number 19
_symmetry_cell_setting 'orthorhombic'
loop_
_space_group_symop_operation_xyz
x,y,z
1/2-x,-y,1/2+z
1/2+x,1/2-y,-z
-x,1/2+y,1/2-z
loop_
_atom_site_type_symbol
_atom_site_label
_atom_site_fract_x
_atom_site_fract_y
_atom_site_fract_z
Si Si1 0.184974 0.646682 0.109377
Si Si2 0.414563 0.828875 0.929735
Si Si3 0.666698 0.480520 0.204701
Si Si4 0.823275 0.269779 0.900812
Si Si5 0.961218 0.871351 0.851147
O O1 0.206604 0.734818 0.303699
O O2 0.315445 0.591462 0.166775
O O3 0.040399 0.618143 0.181850
O O4 0.172894 0.680748 0.800686
O O5 0.289288 0.827134 0.744488
O O6 0.448513 0.720343 0.964860
O O7 0.385116 0.880768 0.208566
O O8 0.716406 0.515219 0.497392
O O9 0.556394 0.545764 0.083199
O O10 0.959045 0.322930 0.891898
#
# Coordination Sequence:
#
# PCOD9313962 Si02
#       5
#     4   4   4   4   4
#     4  10  22  38  67 102 139 184 242 297 368 428
#     4  10  23  46  73 112 149 195 253 313 376 449
#     4  12  28  47  75 113 151 201 259 307 374 465
#     4  10  20  38  68 101 134 191 241 290 358 446
#     4  10  23  43  73 102 145 195 239 309 374 440
#
# _framework density 26.648944
#
# number of rings (size 3 to 8) (size 9 to 14) (size 15 to 20)
#    0.000    1.600    2.000    1.200    5.600    6.400 
#    0.000    6.000    0.000    0.000    0.000    0.000 
#    0.000    0.000    0.000    0.000    0.000    0.000 
#
# Total GULP energy -111629.150948 kJ/mol
# GULP energy per Si atom -5581.457547 kJ/mol
# Density = 2.658829 g / cm^3
# Si number density = 26.648944 Si / 1000 Ang^3
#
#
#
# Elastic Constant Matrix: (Units=GPa)
#
#
# Indices 1 2 3 4 5 6 
#
# 1 162.6432 12.1124 31.3901 0.0000 0.0000 0.0000
# 2 12.1124 75.1763 35.1112 0.0000 0.0000 0.0000
# 3 31.3901 35.1112 109.3727 0.0000 0.0000 0.0000
# 4 0.0000 0.0000 0.0000 34.3104 0.0000 0.0000
# 5 0.0000 0.0000 0.0000 0.0000 26.1668 0.0000
# 6 0.0000 0.0000 0.0000 0.0000 0.0000 42.2582
#
#
#
# Elastic Compliance Matrix: (Units=1/GPa)
#
#
# Indices 1 2 3 4 5 6 
#
# 1 0.006512 -0.000207 -0.001802 0.000000 0.000000 0.000000
# 2 -0.000207 0.015655 -0.004966 0.000000 0.000000 0.000000
# 3 -0.001802 -0.004966 0.011255 0.000000 0.000000 0.000000
# 4 0.000000 0.000000 0.000000 0.029146 0.000000 0.000000
# 5 0.000000 0.000000 0.000000 0.000000 0.038216 0.000000
# 6 0.000000 0.000000 0.000000 0.000000 0.000000 0.023664
#
#
# Mechanical properties :
#
#
# Convention : Reuss Voigt Hill
#
# Bulk Modulus (GPa) = 51.36206 56.04663 53.70435
# Shear Modulus (GPa) = 34.50929 38.45234 36.48081
#
# Velocity S-wave (km/s) = 3.60246 3.80270 3.70393
# Velocity P-wave (km/s) = 6.05137 6.35278 6.20390
#
# Compressibility (1/GPa) = 0.01946962
#
# Stress axis : x y z
#
# Youngs Moduli (GPa) = 153.56937 63.87782 88.85311
#
# Poissons Ratio (x) = 0.01325 0.16014
# Poissons Ratio (y) = 0.03185 0.44125
# Poissons Ratio (z) = 0.27678 0.31722
#
# Static dielectric constant tensor:
#      x y z
#    x 2.183630 0.000000 0.000000 
#    y 0.000000 2.163840 0.000000 
#    z 0.000000 0.000000 2.005080 
# 
# From -- ./inp_files/856.got.cif
#   From: 2010.05.17/outbox.cif.g08.bks.cpg/sg19_1_cif.got.tgz:856.got - 2010.06.03 22:46:19.
