data_PCOD9313973
_publ_section_title
;
Structure prediction by ZEFSAII (Michael W. Deem and Ramdas Pophale) SiO2 
 PCOD9313973
Probable space group: P 21 21 21
;
_chemical_formula_sum "Si O2"
_cell_formula_units_Z 32
_cell_length_a 8.422366
_cell_length_b 8.881466
_cell_length_c 15.597269
_cell_angle_alpha 90.000000
_cell_angle_beta 90.000000
_cell_angle_gamma 90.000000
_cell_volume 1166.721847
_symmetry_space_group_name_H-M "P 21 21 21"
_symmetry_group_IT_number 19
_symmetry_cell_setting 'orthorhombic'
loop_
_space_group_symop_operation_xyz
x,y,z
1/2-x,-y,1/2+z
1/2+x,1/2-y,-z
-x,1/2+y,1/2-z
loop_
_atom_site_type_symbol
_atom_site_label
_atom_site_fract_x
_atom_site_fract_y
_atom_site_fract_z
Si Si1 0.591858 0.361815 0.358184
Si Si2 0.912626 0.480504 0.317401
Si Si3 0.096542 0.202532 0.971375
Si Si4 0.366066 0.495786 0.580281
Si Si5 0.491512 0.176066 0.209283
Si Si6 0.199272 0.985355 0.376540
Si Si7 0.482166 0.602929 0.044855
Si Si8 0.648008 0.202458 0.762737
O O1 0.765847 0.429806 0.377054
O O2 0.604786 0.234442 0.284183
O O3 0.498607 0.501318 0.315531
O O4 0.506788 0.284154 0.438912
O O5 0.839025 0.444394 0.221065
O O6 0.946250 0.658248 0.307513
O O7 0.062341 0.369329 0.319466
O O8 0.273815 0.154824 0.940623
O O9 0.010375 0.238601 0.881160
O O10 0.113743 0.354733 0.023087
O O11 0.015597 0.051054 0.012058
O O12 0.542175 0.428554 0.593330
O O13 0.208736 0.408002 0.554649
O O14 0.330434 0.563740 0.674013
O O15 0.318724 0.222181 0.243977
O O16 0.371315 0.059615 0.390510
#
# Coordination Sequence:
#
# PCOD9313973 Si02
#       8
#     4   4   4   4   4   4   4   4
#     4  11  22  38  60  92 121 159 205 251 317 377
#     4  10  21  36  56  88 129 146 207 248 312 370
#     4  10  20  39  61  89 117 163 206 249 297 366
#     4  11  21  37  66  88 121 160 211 247 301 362
#     4  11  21  38  62  87 123 161 204 253 313 365
#     4   9  20  36  56  90 116 149 205 246 293 368
#     4  10  21  37  63  86 119 161 194 257 304 349
#     4  10  22  35  58  90 116 163 192 261 301 363
#
# _framework density 27.427274000000001
#
# number of rings (size 3 to 8) (size 9 to 14) (size 15 to 20)
#    0.750    1.000    2.500    3.000    3.500    0.000 
#    0.000    0.000    8.250    0.000    0.000    0.000 
#    0.000    0.000    0.000    0.000    0.000    0.000 
#
# Total GULP energy -178297.997163 kJ/mol
# GULP energy per Si atom -5571.812411 kJ/mol
# Density = 2.736485 g / cm^3
# Si number density = 27.427274 Si / 1000 Ang^3
#
#
#
# Elastic Constant Matrix: (Units=GPa)
#
#
# Indices 1 2 3 4 5 6 
#
# 1 122.0735 24.3056 -1.2845 0.0000 0.0000 0.0000
# 2 24.3056 131.4929 23.1724 0.0000 0.0000 0.0000
# 3 -1.2845 23.1724 29.9427 0.0000 0.0000 0.0000
# 4 0.0000 0.0000 0.0000 51.7331 0.0000 0.0000
# 5 0.0000 0.0000 0.0000 0.0000 23.8273 0.0000
# 6 0.0000 0.0000 0.0000 0.0000 0.0000 25.9043
#
#
#
# Elastic Compliance Matrix: (Units=1/GPa)
#
#
# Indices 1 2 3 4 5 6 
#
# 1 0.008592 -0.001914 0.001850 0.000000 0.000000 0.000000
# 2 -0.001914 0.009232 -0.007227 0.000000 0.000000 0.000000
# 3 0.001850 -0.007227 0.039069 0.000000 0.000000 0.000000
# 4 0.000000 0.000000 0.000000 0.019330 0.000000 0.000000
# 5 0.000000 0.000000 0.000000 0.000000 0.041969 0.000000
# 6 0.000000 0.000000 0.000000 0.000000 0.000000 0.038604
#
#
# Mechanical properties :
#
#
# Convention : Reuss Voigt Hill
#
# Bulk Modulus (GPa) = 23.63413 41.76625 32.70019
# Shear Modulus (GPa) = 26.95667 36.11397 31.53532
#
# Velocity S-wave (km/s) = 3.13843 3.63260 3.39452
# Velocity P-wave (km/s) = 4.66570 5.73196 5.22609
#
# Compressibility (1/GPa) = 0.04231169
#
# Stress axis : x y z
#
# Youngs Moduli (GPa) = 116.38200 108.31426 25.59551
#
# Poissons Ratio (x) = 0.20734 -0.04735
# Poissons Ratio (y) = 0.22279 0.18498
# Poissons Ratio (z) = -0.21531 0.78279
#
# Static dielectric constant tensor:
#      x y z
#    x 2.182490 0.000000 0.000000 
#    y 0.000000 2.236150 0.000000 
#    z 0.000000 0.000000 2.289700 
# 
# From -- ./inp_files/7077.got.cif
#   From: 2010.05.17/outbox.cif.g08.bks.cpg/sg19_4_cif.got.tgz:7077.got - 2010.06.03 22:46:19.
