data_PCOD9313167
_publ_section_title
;
Structure prediction by ZEFSAII (Michael W. Deem and Ramdas Pophale) SiO2 
 PCOD9313167
Probable space group: P 21 21 2
;
_chemical_formula_sum "Si O2"
_cell_formula_units_Z 24
_cell_length_a 7.909422
_cell_length_b 11.445822
_cell_length_c 12.117708
_cell_angle_alpha 90.000000
_cell_angle_beta 90.000000
_cell_angle_gamma 90.000000
_cell_volume 1097.014122
_symmetry_space_group_name_H-M "P 21 21 2"
_symmetry_group_IT_number 18
_symmetry_cell_setting 'orthorhombic'
loop_
_space_group_symop_operation_xyz
x,y,z
-x,-y,z
1/2+x,1/2-y,-z
1/2-x,1/2+y,-z
loop_
_atom_site_type_symbol
_atom_site_label
_atom_site_fract_x
_atom_site_fract_y
_atom_site_fract_z
Si Si1 0.683462 0.943003 0.279709
Si Si2 0.683462 0.056997 0.779709
Si Si3 0.296470 0.767172 0.591846
Si Si4 0.826977 0.179765 0.352405
Si Si5 0.296470 0.232828 0.091847
Si Si6 0.826977 0.820235 0.852405
O O1 0.676368 0.838067 0.368090
O O2 0.739711 0.881157 0.166218
O O3 0.500000 0.000000 0.264596
O O4 0.806543 0.044188 0.321789
O O5 0.806543 0.955812 0.821789
O O6 0.500000 0.000000 0.764596
O O7 0.739711 0.118843 0.666218
O O8 0.676368 0.161933 0.868090
O O9 0.274752 0.793958 0.464329
O O10 0.483118 0.722360 0.624128
O O11 0.750000 0.250000 0.250000
O O12 0.483118 0.277640 0.124128
O O13 0.274752 0.206042 0.964329
#
# Coordination Sequence:
#
# PCOD9313167 Si02
#       6
#     4   4   4   4   4   4
#     4  11  24  48  74 104 149 191 244 304 368 433
#     4  11  24  48  74 104 149 191 244 304 368 433
#     4  11  27  47  75 110 146 194 252 300 371 441
#     4  12  26  47  77 106 147 194 246 304 371 437
#     4  11  27  47  75 110 146 194 252 300 371 441
#     4  12  26  47  77 106 147 194 246 304 371 437
#
# _framework density 21.877565000000001
#
# number of rings (size 3 to 8) (size 9 to 14) (size 15 to 20)
#    0.000    0.667    3.333    3.000    9.333    1.333 
#    0.000    0.000    0.000    0.000    0.000    0.000 
#    0.000    0.000    0.000    0.000    0.000    0.000 
#
# Total GULP energy -134422.662397 kJ/mol
# GULP energy per Si atom -5600.944267 kJ/mol
# Density = 2.182777 g / cm^3
# Si number density = 21.877565 Si / 1000 Ang^3
#
#
#
# Elastic Constant Matrix: (Units=GPa)
#
#
# Indices 1 2 3 4 5 6 
#
# 1 35.4515 37.5569 29.1118 0.0000 0.0000 0.0000
# 2 37.5569 160.3168 102.3742 0.0000 0.0000 0.0000
# 3 29.1118 102.3742 208.7220 0.0000 0.0000 0.0000
# 4 0.0000 0.0000 0.0000 8.3201 0.0000 0.0000
# 5 0.0000 0.0000 0.0000 0.0000 23.3132 0.0000
# 6 0.0000 0.0000 0.0000 0.0000 0.0000 38.2306
#
#
#
# Elastic Compliance Matrix: (Units=1/GPa)
#
#
# Indices 1 2 3 4 5 6 
#
# 1 0.037779 -0.007987 -0.001352 0.000000 0.000000 0.000000
# 2 -0.007987 0.010771 -0.004169 0.000000 0.000000 0.000000
# 3 -0.001352 -0.004169 0.007024 0.000000 0.000000 0.000000
# 4 0.000000 0.000000 0.000000 0.120190 0.000000 0.000000
# 5 0.000000 0.000000 0.000000 0.000000 0.042894 0.000000
# 6 0.000000 0.000000 0.000000 0.000000 0.000000 0.026157
#
#
# Mechanical properties :
#
#
# Convention : Reuss Voigt Hill
#
# Bulk Modulus (GPa) = 35.01560 82.50847 58.76203
# Shear Modulus (GPa) = 17.77138 29.66928 23.72033
#
# Velocity S-wave (km/s) = 2.85320 3.68659 3.29634
# Velocity P-wave (km/s) = 5.18597 7.47776 6.43472
#
# Compressibility (1/GPa) = 0.02855870
#
# Stress axis : x y z
#
# Youngs Moduli (GPa) = 26.46967 92.84235 142.36158
#
# Poissons Ratio (x) = 0.74155 0.19243
# Poissons Ratio (y) = 0.21142 0.59349
# Poissons Ratio (z) = 0.03578 0.38705
#
# Static dielectric constant tensor:
#      x y z
#    x 1.848690 0.000000 0.000000 
#    y 0.000000 1.795080 0.000000 
#    z 0.000000 0.000000 1.751920 
# 
# From -- ./inp_files/5483.got.cif
#   From: 2010.05.17/outbox.cif.g08.bks.cpg/sg18_3_cif.got.tgz:5483.got - 2010.06.03 22:40:56.
