data_PCOD9313638
_publ_section_title
;
Structure prediction by ZEFSAII (Michael W. Deem and Ramdas Pophale) SiO2 
 PCOD9313638
Probable space group: P 21 21 21
;
_chemical_formula_sum "Si O2"
_cell_formula_units_Z 28
_cell_length_a 13.288214
_cell_length_b 4.798607
_cell_length_c 15.375565
_cell_angle_alpha 90.000000
_cell_angle_beta 90.000000
_cell_angle_gamma 90.000000
_cell_volume 980.421622
_symmetry_space_group_name_H-M "P 21 21 21"
_symmetry_group_IT_number 19
_symmetry_cell_setting 'orthorhombic'
loop_
_space_group_symop_operation_xyz
x,y,z
1/2-x,-y,1/2+z
1/2+x,1/2-y,-z
-x,1/2+y,1/2-z
loop_
_atom_site_type_symbol
_atom_site_label
_atom_site_fract_x
_atom_site_fract_y
_atom_site_fract_z
Si Si1 0.878463 0.460689 0.231392
Si Si2 0.580517 0.425164 0.456237
Si Si3 0.330766 0.665220 0.271965
Si Si4 0.284151 0.279353 0.612291
Si Si5 0.705020 0.131557 0.049339
Si Si6 0.415018 0.526203 0.882465
Si Si7 0.462737 0.945039 0.387220
O O1 0.872798 0.377245 0.334079
O O2 0.889730 0.772043 0.198970
O O3 0.761941 0.380468 0.211639
O O4 0.947315 0.248640 0.173991
O O5 0.523070 0.224443 0.389071
O O6 0.699008 0.416659 0.432141
O O7 0.555452 0.262520 0.546089
O O8 0.531266 0.720242 0.437975
O O9 0.286970 0.549070 0.182265
O O10 0.327956 0.479738 0.359253
O O11 0.431017 0.840391 0.291391
O O12 0.323731 0.481535 0.538720
O O13 0.823979 0.116917 0.061721
O O14 0.641165 0.414065 0.058030
#
# Coordination Sequence:
#
# PCOD9313638 Si02
#       7
#     4   4   4   4   4   4   4
#     4   9  19  35  59  87 112 153 205 261 290 351
#     4  11  23  37  59  92 128 166 197 250 317 396
#     4   7  18  35  56  88 120 159 199 260 304 361
#     4   9  19  38  62  95 118 161 221 247 315 367
#     4   8  18  37  60  86 122 166 205 254 302 378
#     4  10  19  37  59  83 121 159 206 250 298 356
#     4  10  22  37  57  87 131 162 197 252 322 373
#
# _framework density 28.559139999999999
#
# number of rings (size 3 to 8) (size 9 to 14) (size 15 to 20)
#    1.714    1.143    0.000    0.857    2.000    2.286 
#    0.000    4.286    0.000    3.429    0.000    0.000 
#    0.000    0.000    0.000    0.000    0.000    0.000 
#
# Total GULP energy -155965.284489 kJ/mol
# GULP energy per Si atom -5570.188732 kJ/mol
# Density = 2.849414 g / cm^3
# Si number density = 28.559140 Si / 1000 Ang^3
#
#
#
# Elastic Constant Matrix: (Units=GPa)
#
#
# Indices 1 2 3 4 5 6 
#
# 1 74.4209 13.2075 22.8576 0.0000 0.0000 0.0000
# 2 13.2075 108.4757 26.6872 0.0000 0.0000 0.0000
# 3 22.8576 26.6872 164.5679 0.0000 0.0000 0.0000
# 4 0.0000 0.0000 0.0000 37.8321 0.0000 0.0000
# 5 0.0000 0.0000 0.0000 0.0000 45.6885 0.0000
# 6 0.0000 0.0000 0.0000 0.0000 0.0000 32.6835
#
#
#
# Elastic Compliance Matrix: (Units=1/GPa)
#
#
# Indices 1 2 3 4 5 6 
#
# 1 0.014209 -0.001296 -0.001763 0.000000 0.000000 0.000000
# 2 -0.001296 0.009720 -0.001396 0.000000 0.000000 0.000000
# 3 -0.001763 -0.001396 0.006548 0.000000 0.000000 0.000000
# 4 0.000000 0.000000 0.000000 0.026433 0.000000 0.000000
# 5 0.000000 0.000000 0.000000 0.000000 0.021887 0.000000
# 6 0.000000 0.000000 0.000000 0.000000 0.000000 0.030596
#
#
# Mechanical properties :
#
#
# Convention : Reuss Voigt Hill
#
# Bulk Modulus (GPa) = 46.37118 52.55212 49.46165
# Shear Modulus (GPa) = 39.84295 42.22163 41.03229
#
# Velocity S-wave (km/s) = 3.73916 3.84916 3.79456
# Velocity P-wave (km/s) = 5.90880 6.18028 6.04606
#
# Compressibility (1/GPa) = 0.02156512
#
# Stress axis : x y z
#
# Youngs Moduli (GPa) = 70.37937 102.88098 152.72182
#
# Poissons Ratio (x) = 0.13335 0.26930
# Poissons Ratio (y) = 0.09122 0.21323
# Poissons Ratio (z) = 0.12410 0.14364
#
# Static dielectric constant tensor:
#      x y z
#    x 2.439850 0.000000 0.000000 
#    y 0.000000 2.188380 0.000000 
#    z 0.000000 0.000000 2.470890 
# 
# From -- ./inp_files/6288.got.cif
#   From: 2010.05.17/outbox.cif.g08.bks.cpg/sg19_4_cif.got.tgz:6288.got - 2010.06.03 22:46:19.
