data_PCOD9313624
_publ_section_title
;
Structure prediction by ZEFSAII (Michael W. Deem and Ramdas Pophale) SiO2 
 PCOD9313624
Probable space group: P 21 21 21
;
_chemical_formula_sum "Si O2"
_cell_formula_units_Z 28
_cell_length_a 16.782173
_cell_length_b 8.595784
_cell_length_c 8.603534
_cell_angle_alpha 90.000000
_cell_angle_beta 90.000000
_cell_angle_gamma 90.000000
_cell_volume 1241.110834
_symmetry_space_group_name_H-M "P 21 21 21"
_symmetry_group_IT_number 19
_symmetry_cell_setting 'orthorhombic'
loop_
_space_group_symop_operation_xyz
x,y,z
1/2-x,-y,1/2+z
1/2+x,1/2-y,-z
-x,1/2+y,1/2-z
loop_
_atom_site_type_symbol
_atom_site_label
_atom_site_fract_x
_atom_site_fract_y
_atom_site_fract_z
Si Si1 0.761947 0.324086 0.128732
Si Si2 0.827891 0.237099 0.694952
Si Si3 0.490215 0.883263 0.648486
Si Si4 0.137535 0.573013 0.525695
Si Si5 0.165888 0.030994 0.612906
Si Si6 0.096122 0.792634 0.133607
Si Si7 0.639438 0.251515 0.651677
O O1 0.785578 0.163425 0.045894
O O2 0.691752 0.350127 0.251262
O O3 0.838582 0.344623 0.240201
O O4 0.762912 0.454020 0.993073
O O5 0.864646 0.380456 0.794938
O O6 0.862007 0.243329 0.523864
O O7 0.732985 0.263784 0.690284
O O8 0.847889 0.081824 0.791121
O O9 0.552768 0.843564 0.512366
O O10 0.546996 0.851725 0.797008
O O11 0.413822 0.779008 0.695390
O O12 0.459326 0.056454 0.618466
O O13 0.131591 0.411285 0.437169
O O14 0.117355 0.119844 0.480027
#
# Coordination Sequence:
#
# PCOD9313624 Si02
#       7
#     4   4   4   4   4   4   4
#     4  10  19  36  63  93 132 171 224 278 337 402
#     4  11  25  43  71 101 141 177 240 303 332 420
#     4  11  23  45  71  95 138 188 227 274 360 429
#     4  10  26  42  64 104 141 181 230 295 356 410
#     4  11  19  37  65  99 129 181 230 281 344 407
#     4  11  21  44  67  96 134 181 223 284 347 413
#     4  12  23  41  71 100 137 185 236 283 358 417
#
# _framework density 22.560434000000001
#
# number of rings (size 3 to 8) (size 9 to 14) (size 15 to 20)
#    0.000    1.143    5.714    0.000    2.000    0.000 
#    2.571    1.429    0.000    0.000    0.000    0.000 
#    0.000    0.000    0.000    0.000    0.000    0.000 
#
# Total GULP energy -156088.714883 kJ/mol
# GULP energy per Si atom -5574.596960 kJ/mol
# Density = 2.250909 g / cm^3
# Si number density = 22.560434 Si / 1000 Ang^3
#
#
#
# Elastic Constant Matrix: (Units=GPa)
#
#
# Indices 1 2 3 4 5 6 
#
# 1 62.9433 9.9400 35.5860 0.0000 0.0000 0.0000
# 2 9.9400 66.0567 18.2166 0.0000 0.0000 0.0000
# 3 35.5860 18.2166 115.5837 0.0000 0.0000 0.0000
# 4 0.0000 0.0000 0.0000 25.0306 0.0000 0.0000
# 5 0.0000 0.0000 0.0000 0.0000 16.9242 0.0000
# 6 0.0000 0.0000 0.0000 0.0000 0.0000 24.1634
#
#
#
# Elastic Compliance Matrix: (Units=1/GPa)
#
#
# Indices 1 2 3 4 5 6 
#
# 1 0.019346 -0.001326 -0.005747 0.000000 0.000000 0.000000
# 2 -0.001326 0.015917 -0.002100 0.000000 0.000000 0.000000
# 3 -0.005747 -0.002100 0.010752 0.000000 0.000000 0.000000
# 4 0.000000 0.000000 0.000000 0.039951 0.000000 0.000000
# 5 0.000000 0.000000 0.000000 0.000000 0.059087 0.000000
# 6 0.000000 0.000000 0.000000 0.000000 0.000000 0.041385
#
#
# Mechanical properties :
#
#
# Convention : Reuss Voigt Hill
#
# Bulk Modulus (GPa) = 36.14285 41.34099 38.74192
# Shear Modulus (GPa) = 23.36351 25.27971 24.32161
#
# Velocity S-wave (km/s) = 3.22156 3.35107 3.28695
# Velocity P-wave (km/s) = 5.46746 5.77384 5.62274
#
# Compressibility (1/GPa) = 0.02766799
#
# Stress axis : x y z
#
# Youngs Moduli (GPa) = 51.69013 62.82476 93.00387
#
# Poissons Ratio (x) = 0.08332 0.53452
# Poissons Ratio (y) = 0.06855 0.19534
# Poissons Ratio (z) = 0.29708 0.13195
#
# Static dielectric constant tensor:
#      x y z
#    x 1.879910 0.000000 0.000000 
#    y 0.000000 1.918100 0.000000 
#    z 0.000000 0.000000 1.816600 
# 
# From -- ./inp_files/2944.got.cif
#   From: 2010.05.17/outbox.cif.g08.bks.cpg/sg19_2_cif.got.tgz:2944.got - 2010.06.03 22:46:19.
