data_PCOD9313584
_publ_section_title
;
Structure prediction by ZEFSAII (Michael W. Deem and Ramdas Pophale) SiO2 
 PCOD9313584
Probable space group: P 21 21 21
;
_chemical_formula_sum "Si O2"
_cell_formula_units_Z 32
_cell_length_a 12.724874
_cell_length_b 12.038911
_cell_length_c 7.113854
_cell_angle_alpha 90.000000
_cell_angle_beta 90.000000
_cell_angle_gamma 90.000000
_cell_volume 1089.797086
_symmetry_space_group_name_H-M "P 21 21 21"
_symmetry_group_IT_number 19
_symmetry_cell_setting 'orthorhombic'
loop_
_space_group_symop_operation_xyz
x,y,z
1/2-x,-y,1/2+z
1/2+x,1/2-y,-z
-x,1/2+y,1/2-z
loop_
_atom_site_type_symbol
_atom_site_label
_atom_site_fract_x
_atom_site_fract_y
_atom_site_fract_z
Si Si1 0.000377 0.453179 0.544903
Si Si2 0.233448 0.414757 0.508514
Si Si3 0.195772 0.231019 0.814861
Si Si4 0.132115 0.371730 0.131308
Si Si5 0.970829 0.200755 0.632331
Si Si6 0.219798 0.753272 0.751861
Si Si7 0.551998 0.517059 0.474439
Si Si8 0.221274 0.945335 0.049558
O O1 0.980608 0.321294 0.525332
O O2 0.998739 0.474207 0.767264
O O3 0.892316 0.502692 0.458167
O O4 0.116263 0.484349 0.478177
O O5 0.214705 0.344247 0.701310
O O6 0.301501 0.524842 0.565038
O O7 0.341736 0.341666 0.414120
O O8 0.201139 0.262224 0.040824
O O9 0.267185 0.136758 0.726276
O O10 0.078592 0.196793 0.765764
O O11 0.013746 0.397480 0.101907
O O12 0.181700 0.330295 0.326184
O O13 0.895619 0.247815 0.830553
O O14 0.020876 0.108855 0.476165
O O15 0.234950 0.865444 0.868003
O O16 0.676733 0.522368 0.455719
#
# Coordination Sequence:
#
# PCOD9313584 Si02
#       8
#     4   4   4   4   4   4   4   4
#     4  10  19  40  62  83 133 169 196 272 318 365
#     4   8  17  33  57  80 117 157 190 251 313 341
#     4   9  16  37  61  81 119 162 195 248 320 361
#     4  10  19  35  60  87 119 159 206 260 303 370
#     4   9  18  37  61  84 121 167 197 249 323 362
#     4   8  18  37  58  84 121 157 203 260 302 377
#     4  11  21  36  65  90 122 168 212 256 318 390
#     4   9  20  37  62  89 120 169 209 252 327 376
#
# _framework density 29.363261999999999
#
# number of rings (size 3 to 8) (size 9 to 14) (size 15 to 20)
#    0.750    2.000    2.500    0.750    0.000    1.000 
#    4.500    7.500    0.000    0.000    0.000    0.000 
#    0.000    0.000    0.000    0.000    0.000    0.000 
#
# Total GULP energy -178294.550191 kJ/mol
# GULP energy per Si atom -5571.704693 kJ/mol
# Density = 2.929643 g / cm^3
# Si number density = 29.363262 Si / 1000 Ang^3
#
#
#
# Elastic Constant Matrix: (Units=GPa)
#
#
# Indices 1 2 3 4 5 6 
#
# 1 230.3374 23.2438 49.7654 0.0000 0.0000 0.0000
# 2 23.2438 102.1674 36.3458 0.0000 0.0000 0.0000
# 3 49.7654 36.3458 151.7365 0.0000 0.0000 0.0000
# 4 0.0000 0.0000 0.0000 43.1656 0.0000 0.0000
# 5 0.0000 0.0000 0.0000 0.0000 52.9784 0.0000
# 6 0.0000 0.0000 0.0000 0.0000 0.0000 53.4365
#
#
#
# Elastic Compliance Matrix: (Units=1/GPa)
#
#
# Indices 1 2 3 4 5 6 
#
# 1 0.004703 -0.000570 -0.001406 0.000000 0.000000 0.000000
# 2 -0.000570 0.010769 -0.002393 0.000000 0.000000 0.000000
# 3 -0.001406 -0.002393 0.007625 0.000000 0.000000 0.000000
# 4 0.000000 0.000000 0.000000 0.023167 0.000000 0.000000
# 5 0.000000 0.000000 0.000000 0.000000 0.018876 0.000000
# 6 0.000000 0.000000 0.000000 0.000000 0.000000 0.018714
#
#
# Mechanical properties :
#
#
# Convention : Reuss Voigt Hill
#
# Bulk Modulus (GPa) = 69.64046 78.10572 73.87309
# Shear Modulus (GPa) = 51.34798 54.90852 53.12825
#
# Velocity S-wave (km/s) = 4.18630 4.32901 4.25825
# Velocity P-wave (km/s) = 6.86551 7.18642 7.02780
#
# Compressibility (1/GPa) = 0.01435947
#
# Stress axis : x y z
#
# Youngs Moduli (GPa) = 212.64377 92.86233 131.15508
#
# Poissons Ratio (x) = 0.05291 0.18439
# Poissons Ratio (y) = 0.12116 0.31380
# Poissons Ratio (z) = 0.29895 0.22218
#
# Static dielectric constant tensor:
#      x y z
#    x 2.268100 0.000000 0.000000 
#    y 0.000000 2.388030 0.000000 
#    z 0.000000 0.000000 2.641700 
# 
# From -- ./inp_files/3595.got.cif
#   From: 2010.05.17/outbox.cif.g08.bks.cpg/sg19_2_cif.got.tgz:3595.got - 2010.06.03 22:46:19.
