data_PCOD9313565
_publ_section_title
;
Structure prediction by ZEFSAII (Michael W. Deem and Ramdas Pophale) SiO2 
 PCOD9313565
Probable space group: P 21 21 21
;
_chemical_formula_sum "Si O2"
_cell_formula_units_Z 28
_cell_length_a 12.502007
_cell_length_b 7.853528
_cell_length_c 12.684166
_cell_angle_alpha 90.000000
_cell_angle_beta 90.000000
_cell_angle_gamma 90.000000
_cell_volume 1245.393089
_symmetry_space_group_name_H-M "P 21 21 21"
_symmetry_group_IT_number 19
_symmetry_cell_setting 'orthorhombic'
loop_
_space_group_symop_operation_xyz
x,y,z
1/2-x,-y,1/2+z
1/2+x,1/2-y,-z
-x,1/2+y,1/2-z
loop_
_atom_site_type_symbol
_atom_site_label
_atom_site_fract_x
_atom_site_fract_y
_atom_site_fract_z
Si Si1 0.802386 0.183887 0.565163
Si Si2 0.070009 0.979283 0.826905
Si Si3 0.089683 0.826298 0.142582
Si Si4 0.782071 0.321615 0.141047
Si Si5 0.098164 0.149632 0.433583
Si Si6 0.476716 0.549958 0.405129
Si Si7 0.457252 0.387764 0.975991
O O1 0.858807 0.314599 0.645602
O O2 0.836355 0.255530 0.451264
O O3 0.675567 0.189997 0.568723
O O4 0.854080 0.004178 0.591143
O O5 0.155385 0.138019 0.838178
O O6 0.022381 0.943194 0.712012
O O7 0.975682 0.010957 0.912682
O O8 0.159142 0.831766 0.246356
O O9 0.993572 0.688417 0.151027
O O10 0.033650 0.002590 0.103130
O O11 0.823661 0.492486 0.083147
O O12 0.844697 0.173814 0.075142
O O13 0.037779 0.110696 0.541256
O O14 0.495625 0.704374 0.485684
#
# Coordination Sequence:
#
# PCOD9313565 Si02
#       7
#     4   4   4   4   4   4   4
#     4   9  19  34  53  78 109 147 187 228 278 336
#     4  10  20  36  57  80 111 151 190 232 287 343
#     4  10  19  35  56  80 114 150 187 233 284 339
#     4  10  20  36  57  80 111 151 190 232 287 343
#     4   9  19  34  53  78 109 147 187 228 278 336
#     4  10  19  35  56  80 114 150 187 233 284 339
#     4  10  22  36  56  88 116 144 194 246 286 340
#
# _framework density 22.482862999999998
#
# number of rings (size 3 to 8) (size 9 to 14) (size 15 to 20)
#    0.000    2.286    0.000    2.571    0.000    2.286 
#    0.000    1.429    0.000    5.143    0.000    0.000 
#    0.000    0.000    0.000    0.000    0.000    0.000 
#
# Total GULP energy -155997.449579 kJ/mol
# GULP energy per Si atom -5571.337485 kJ/mol
# Density = 2.243169 g / cm^3
# Si number density = 22.482863 Si / 1000 Ang^3
#
#
#
# Elastic Constant Matrix: (Units=GPa)
#
#
# Indices 1 2 3 4 5 6 
#
# 1 107.0893 -6.8620 36.8794 0.0000 0.0000 0.0000
# 2 -6.8620 74.3316 -2.0032 0.0000 0.0000 0.0000
# 3 36.8794 -2.0032 80.4025 0.0000 0.0000 0.0000
# 4 0.0000 0.0000 0.0000 -21.9955 0.0000 0.0000
# 5 0.0000 0.0000 0.0000 0.0000 11.7432 0.0000
# 6 0.0000 0.0000 0.0000 0.0000 0.0000 35.3841
#
#
#
# Elastic Compliance Matrix: (Units=1/GPa)
#
#
# Indices 1 2 3 4 5 6 
#
# 1 0.011149 0.000892 -0.005091 0.000000 0.000000 0.000000
# 2 0.000892 0.013534 -0.000072 0.000000 0.000000 0.000000
# 3 -0.005091 -0.000072 0.014771 0.000000 0.000000 0.000000
# 4 0.000000 0.000000 0.000000 -0.045464 0.000000 0.000000
# 5 0.000000 0.000000 0.000000 0.000000 0.085156 0.000000
# 6 0.000000 0.000000 0.000000 0.000000 0.000000 0.028261
#
#
# Mechanical properties :
#
#
# Convention : Reuss Voigt Hill
#
# Bulk Modulus (GPa) = 32.35161 35.31686 33.83424
# Shear Modulus (GPa) = 39.60305 20.61364 30.10834
#
# Velocity S-wave (km/s) = 4.20155 3.03125 3.66344
# Velocity P-wave (km/s) = 6.16101 5.29092 5.74247
#
# Compressibility (1/GPa) = 0.03091036
#
# Stress axis : x y z
#
# Youngs Moduli (GPa) = 89.69782 73.88994 67.70024
#
# Poissons Ratio (x) = -0.06591 0.34469
# Poissons Ratio (y) = -0.08001 0.00487
# Poissons Ratio (z) = 0.45669 0.00532
#
# Static dielectric constant tensor:
#      x y z
#    x 1.890530 0.000000 0.000000 
#    y 0.000000 1.972440 0.000000 
#    z 0.000000 0.000000 1.121920 
# 
# From -- ./inp_files/3524.got.cif
#   From: 2010.05.17/outbox.cif.g08.bks.cpg/sg19_2_cif.got.tgz:3524.got - 2010.06.03 22:46:19.
