data_PCOD9313611
_publ_section_title
;
Structure prediction by ZEFSAII (Michael W. Deem and Ramdas Pophale) SiO2 
 PCOD9313611
Probable space group: P 21 21 21
;
_chemical_formula_sum "Si O2"
_cell_formula_units_Z 28
_cell_length_a 12.522487
_cell_length_b 12.209008
_cell_length_c 8.331328
_cell_angle_alpha 90.000000
_cell_angle_beta 90.000000
_cell_angle_gamma 90.000000
_cell_volume 1273.752943
_symmetry_space_group_name_H-M "P 21 21 21"
_symmetry_group_IT_number 19
_symmetry_cell_setting 'orthorhombic'
loop_
_space_group_symop_operation_xyz
x,y,z
1/2-x,-y,1/2+z
1/2+x,1/2-y,-z
-x,1/2+y,1/2-z
loop_
_atom_site_type_symbol
_atom_site_label
_atom_site_fract_x
_atom_site_fract_y
_atom_site_fract_z
Si Si1 0.491104 0.504120 0.819748
Si Si2 0.155073 0.437490 0.042014
Si Si3 0.119489 0.654340 0.541454
Si Si4 0.649529 0.370653 0.628276
Si Si5 0.689691 0.291923 0.971054
Si Si6 0.499693 0.409963 0.353306
Si Si7 0.624858 0.528872 0.102965
O O1 0.399080 0.556763 0.715886
O O2 0.590200 0.477838 0.702985
O O3 0.447682 0.388442 0.890949
O O4 0.534899 0.565093 0.976162
O O5 0.283305 0.434717 0.058581
O O6 0.134039 0.318062 0.962267
O O7 0.099645 0.534554 0.945047
O O8 0.184477 0.765270 0.514341
O O9 0.049433 0.653504 0.701543
O O10 0.660174 0.293567 0.782723
O O11 0.575241 0.343902 0.476351
O O12 0.771177 0.397960 0.587259
O O13 0.661036 0.406622 0.047556
O O14 0.573410 0.506589 0.276091
#
# Coordination Sequence:
#
# PCOD9313611 Si02
#       7
#     4   4   4   4   4   4   4
#     4   9  18  36  59  83 114 157 179 233 295 342
#     4   9  19  36  59  86 116 145 193 241 284 332
#     4   9  19  36  60  85 117 144 193 237 290 334
#     4  10  20  39  55  80 123 149 192 231 284 341
#     4   9  21  38  56  83 119 145 194 246 268 338
#     4  10  19  36  61  85 114 161 183 237 295 346
#     4  10  20  39  58  82 119 155 196 225 290 349
#
# _framework density 21.982284
#
# number of rings (size 3 to 8) (size 9 to 14) (size 15 to 20)
#    0.857    1.714    0.000    2.571    0.000    0.000 
#   25.714    4.286    0.000    0.000    0.000    0.000 
#    0.000    0.000    0.000    0.000    0.000    0.000 
#
# Total GULP energy -155958.896679 kJ/mol
# GULP energy per Si atom -5569.960596 kJ/mol
# Density = 2.193225 g / cm^3
# Si number density = 21.982284 Si / 1000 Ang^3
#
#
#
# Elastic Constant Matrix: (Units=GPa)
#
#
# Indices 1 2 3 4 5 6 
#
# 1 100.7673 2.5702 27.1921 0.0000 0.0000 0.0000
# 2 2.5702 20.6992 -3.4322 0.0000 0.0000 0.0000
# 3 27.1921 -3.4322 53.4753 0.0000 0.0000 0.0000
# 4 0.0000 0.0000 0.0000 16.4054 0.0000 0.0000
# 5 0.0000 0.0000 0.0000 0.0000 36.8068 0.0000
# 6 0.0000 0.0000 0.0000 0.0000 0.0000 22.3643
#
#
#
# Elastic Compliance Matrix: (Units=1/GPa)
#
#
# Indices 1 2 3 4 5 6 
#
# 1 0.011624 -0.002449 -0.006068 0.000000 0.000000 0.000000
# 2 -0.002449 0.049347 0.004413 0.000000 0.000000 0.000000
# 3 -0.006068 0.004413 0.022069 0.000000 0.000000 0.000000
# 4 0.000000 0.000000 0.000000 0.060956 0.000000 0.000000
# 5 0.000000 0.000000 0.000000 0.000000 0.027169 0.000000
# 6 0.000000 0.000000 0.000000 0.000000 0.000000 0.044714
#
#
# Mechanical properties :
#
#
# Convention : Reuss Voigt Hill
#
# Bulk Modulus (GPa) = 13.36351 25.28910 19.32631
# Shear Modulus (GPa) = 20.07783 25.02274 22.55029
#
# Velocity S-wave (km/s) = 3.02547 3.37755 3.20635
# Velocity P-wave (km/s) = 4.27750 5.17105 4.74536
#
# Compressibility (1/GPa) = 0.07483065
#
# Stress axis : x y z
#
# Youngs Moduli (GPa) = 86.03079 20.26466 45.31250
#
# Poissons Ratio (x) = 0.04964 0.27495
# Poissons Ratio (y) = 0.21073 -0.19996
# Poissons Ratio (z) = 0.52202 -0.08942
#
# Static dielectric constant tensor:
#      x y z
#    x 1.832840 0.000000 0.000000 
#    y 0.000000 1.839330 0.000000 
#    z 0.000000 0.000000 1.827580 
# 
# From -- ./inp_files/3682.got.cif
#   From: 2010.05.17/outbox.cif.g08.bks.cpg/sg19_2_cif.got.tgz:3682.got - 2010.06.03 22:46:19.
