data_PCOD9313827
_publ_section_title
;
Structure prediction by ZEFSAII (Michael W. Deem and Ramdas Pophale) SiO2 
 PCOD9313827
Probable space group: P 21 21 21
;
_chemical_formula_sum "Si O2"
_cell_formula_units_Z 24
_cell_length_a 9.588873
_cell_length_b 25.009112
_cell_length_c 5.115326
_cell_angle_alpha 90.000000
_cell_angle_beta 90.000000
_cell_angle_gamma 90.000000
_cell_volume 1226.702230
_symmetry_space_group_name_H-M "P 21 21 21"
_symmetry_group_IT_number 19
_symmetry_cell_setting 'orthorhombic'
loop_
_space_group_symop_operation_xyz
x,y,z
1/2-x,-y,1/2+z
1/2+x,1/2-y,-z
-x,1/2+y,1/2-z
loop_
_atom_site_type_symbol
_atom_site_label
_atom_site_fract_x
_atom_site_fract_y
_atom_site_fract_z
Si Si1 0.576592 0.019687 0.260008
Si Si2 0.194293 0.237629 0.239299
Si Si3 0.282614 0.033974 0.456391
Si Si4 0.879570 0.051557 0.256128
Si Si5 0.520993 0.264134 0.267178
Si Si6 0.593030 0.367307 0.539081
O O1 0.575634 0.992786 0.974012
O O2 0.434910 0.047825 0.345976
O O3 0.713085 0.056017 0.284845
O O4 0.593061 0.971370 0.468222
O O5 0.357217 0.251705 0.247675
O O6 0.101011 0.259601 0.479988
O O7 0.177578 0.173521 0.276692
O O8 0.112253 0.252969 0.979269
O O9 0.194125 0.084978 0.543743
O O10 0.288296 0.994766 0.705595
O O11 0.964184 0.104742 0.316532
O O12 0.538205 0.328174 0.312716
#
# Coordination Sequence:
#
# PCOD9313827 Si02
#       6
#     4   4   4   4   4   4
#     4  10  20  36  53  85 121 165 197 244 288 357
#     4  10  23  43  68  91 127 167 216 274 338 388
#     4  12  22  36  61  90 129 166 204 253 298 375
#     4  10  20  36  59  79 122 159 203 241 300 357
#     4  10  23  43  68  93 126 167 215 279 334 388
#     4  10  24  38  67  90 127 166 213 255 330 377
#
# _framework density 19.564648999999999
#
# number of rings (size 3 to 8) (size 9 to 14) (size 15 to 20)
#    1.000    0.667    3.333    1.000    4.667    0.000 
#    3.000    0.000    0.000    0.000    0.000    0.000 
#    0.000    0.000    0.000    0.000    0.000    0.000 
#
# Total GULP energy -133757.887178 kJ/mol
# GULP energy per Si atom -5573.245299 kJ/mol
# Density = 1.952012 g / cm^3
# Si number density = 19.564649 Si / 1000 Ang^3
#
#
#
# Elastic Constant Matrix: (Units=GPa)
#
#
# Indices 1 2 3 4 5 6 
#
# 1 162.1609 34.5224 13.0161 0.0000 0.0000 0.0000
# 2 34.5224 49.7372 2.0317 0.0000 0.0000 0.0000
# 3 13.0161 2.0317 86.9261 0.0000 0.0000 0.0000
# 4 0.0000 0.0000 0.0000 4.3896 0.0000 0.0000
# 5 0.0000 0.0000 0.0000 0.0000 32.9712 0.0000
# 6 0.0000 0.0000 0.0000 0.0000 0.0000 43.0940
#
#
#
# Elastic Compliance Matrix: (Units=1/GPa)
#
#
# Indices 1 2 3 4 5 6 
#
# 1 0.007318 -0.005039 -0.000978 0.000000 0.000000 0.000000
# 2 -0.005039 0.023595 0.000203 0.000000 0.000000 0.000000
# 3 -0.000978 0.000203 0.011646 0.000000 0.000000 0.000000
# 4 0.000000 0.000000 0.000000 0.227814 0.000000 0.000000
# 5 0.000000 0.000000 0.000000 0.000000 0.030330 0.000000
# 6 0.000000 0.000000 0.000000 0.000000 0.000000 0.023205
#
#
# Mechanical properties :
#
#
# Convention : Reuss Voigt Hill
#
# Bulk Modulus (GPa) = 32.33076 44.21828 38.27452
# Shear Modulus (GPa) = 14.45730 32.70789 23.58260
#
# Velocity S-wave (km/s) = 2.72131 4.09318 3.47561
# Velocity P-wave (km/s) = 5.14150 6.70739 5.97595
#
# Compressibility (1/GPa) = 0.03093030
#
# Stress axis : x y z
#
# Youngs Moduli (GPa) = 136.64803 42.38141 85.86840
#
# Poissons Ratio (x) = 0.21358 0.08398
# Poissons Ratio (y) = 0.68864 -0.01744
# Poissons Ratio (z) = 0.13364 -0.00861
#
# Static dielectric constant tensor:
#      x y z
#    x 1.705230 0.000000 0.000000 
#    y 0.000000 1.679710 0.000000 
#    z 0.000000 0.000000 1.712460 
# 
# From -- ./inp_files/591.got.cif
#   From: 2010.05.17/outbox.cif.g08.bks.cpg/sg19_1_cif.got.tgz:591.got - 2010.06.03 22:46:19.
