data_PCOD9313495
_publ_section_title
;
Structure prediction by ZEFSAII (Michael W. Deem and Ramdas Pophale) SiO2 
 PCOD9313495
Probable space group: P 21 21 21
;
_chemical_formula_sum "Si O2"
_cell_formula_units_Z 32
_cell_length_a 13.555883
_cell_length_b 14.729227
_cell_length_c 5.672936
_cell_angle_alpha 90.000000
_cell_angle_beta 90.000000
_cell_angle_gamma 90.000000
_cell_volume 1132.701958
_symmetry_space_group_name_H-M "P 21 21 21"
_symmetry_group_IT_number 19
_symmetry_cell_setting 'orthorhombic'
loop_
_space_group_symop_operation_xyz
x,y,z
1/2-x,-y,1/2+z
1/2+x,1/2-y,-z
-x,1/2+y,1/2-z
loop_
_atom_site_type_symbol
_atom_site_label
_atom_site_fract_x
_atom_site_fract_y
_atom_site_fract_z
Si Si1 0.881830 0.004788 0.753918
Si Si2 0.586688 0.793695 0.245513
Si Si3 0.618036 0.483974 0.744317
Si Si4 0.785711 0.712198 0.743006
Si Si5 0.212425 0.214458 0.257301
Si Si6 0.548386 0.733302 0.745513
Si Si7 0.087488 0.445656 0.245991
Si Si8 0.379256 0.990113 0.255674
O O1 0.856196 0.110964 0.749505
O O2 0.856696 0.959444 0.502179
O O3 0.002332 0.005946 0.755211
O O4 0.856131 0.960840 0.007066
O O5 0.668994 0.715246 0.243403
O O6 0.530687 0.783357 0.494121
O O7 0.531416 0.784434 0.995696
O O8 0.666327 0.385231 0.743602
O O9 0.499656 0.477608 0.744983
O O10 0.648091 0.530059 0.498528
O O11 0.648289 0.529903 0.990142
O O12 0.814582 0.756793 0.494543
O O13 0.666290 0.714049 0.743867
O O14 0.835956 0.612324 0.744063
O O15 0.814815 0.757067 0.991183
O O16 0.480610 0.644149 0.748031
#
# Coordination Sequence:
#
# PCOD9313495 Si02
#       8
#     4   4   4   4   4   4   4   4
#     4  10  19  31  45  62  87 122 155 185 218 258
#     4  10  19  31  45  62  87 122 155 185 218 258
#     4   8  14  25  39  57  82 110 138 178 211 247
#     4   8  14  25  39  57  82 110 138 178 211 247
#     4   8  14  25  39  57  81 112 144 176 206 248
#     4  10  19  31  46  66  90 120 152 185 220 261
#     4  10  19  31  46  66  90 120 152 185 220 261
#     4   8  14  25  39  57  81 112 144 176 206 248
#
# _framework density 28.251031999999999
#
# number of rings (size 3 to 8) (size 9 to 14) (size 15 to 20)
#    0.000    3.000    0.000    1.500    0.000    0.000 
#    0.000   20.000    0.000    0.000    0.000    0.000 
#    0.000    0.000    0.000  360.000    0.000    0.000 
#
# Total GULP energy -178868.705745 kJ/mol
# GULP energy per Si atom -5589.647055 kJ/mol
# Density = 2.818673 g / cm^3
# Si number density = 28.251032 Si / 1000 Ang^3
#
#
#
# Elastic Constant Matrix: (Units=GPa)
#
#
# Indices 1 2 3 4 5 6 
#
# 1 121.0575 11.9035 8.1958 0.0000 0.0000 0.0000
# 2 11.9035 129.3770 77.9934 0.0000 0.0000 0.0000
# 3 8.1958 77.9934 408.3370 0.0000 0.0000 0.0000
# 4 0.0000 0.0000 0.0000 -23.6103 0.0000 0.0000
# 5 0.0000 0.0000 0.0000 0.0000 -55.5821 0.0000
# 6 0.0000 0.0000 0.0000 0.0000 0.0000 37.9011
#
#
#
# Elastic Compliance Matrix: (Units=1/GPa)
#
#
# Indices 1 2 3 4 5 6 
#
# 1 0.008336 -0.000753 -0.000024 0.000000 0.000000 0.000000
# 2 -0.000753 0.008803 -0.001666 0.000000 0.000000 0.000000
# 3 -0.000024 -0.001666 0.002768 0.000000 0.000000 0.000000
# 4 0.000000 0.000000 0.000000 -0.042354 0.000000 0.000000
# 5 0.000000 0.000000 0.000000 0.000000 -0.017991 0.000000
# 6 0.000000 0.000000 0.000000 0.000000 0.000000 0.026384
#
#
# Mechanical properties :
#
#
# Convention : Reuss Voigt Hill
#
# Bulk Modulus (GPa) = 66.57033 94.99521 80.78277
# Shear Modulus (GPa) = -1201.42118 29.12031 -586.15044
#
# Velocity S-wave (km/s) = -20.64436 3.21404 -14.41977
# Velocity P-wave (km/s) = 23.33747 6.88998 15.76651
#
# Compressibility (1/GPa) = 0.01502171
#
# Stress axis : x y z
#
# Youngs Moduli (GPa) = 119.95946 113.59603 361.31097
#
# Poissons Ratio (x) = 0.08551 0.00850
# Poissons Ratio (y) = 0.09030 0.60206
# Poissons Ratio (z) = 0.00282 0.18929
#
# Static dielectric constant tensor:
#      x y z
#    x 2.164940 0.000000 0.000000 
#    y 0.000000 2.127130 0.000000 
#    z 0.000000 0.000000 2.229890 
# 
# From -- ./inp_files/1633.got.cif
#   From: 2010.05.17/outbox.cif.g08.bks.cpg/sg19_1_cif.got.tgz:1633.got - 2010.06.03 22:46:19.
