data_PCOD9313462
_publ_section_title
;
Structure prediction by ZEFSAII (Michael W. Deem and Ramdas Pophale) SiO2 
 PCOD9313462
Probable space group: P 21 21 21
;
_chemical_formula_sum "Si O2"
_cell_formula_units_Z 32
_cell_length_a 11.279685
_cell_length_b 8.484471
_cell_length_c 17.647325
_cell_angle_alpha 90.000000
_cell_angle_beta 90.000000
_cell_angle_gamma 90.000000
_cell_volume 1688.887126
_symmetry_space_group_name_H-M "P 21 21 21"
_symmetry_group_IT_number 19
_symmetry_cell_setting 'orthorhombic'
loop_
_space_group_symop_operation_xyz
x,y,z
1/2-x,-y,1/2+z
1/2+x,1/2-y,-z
-x,1/2+y,1/2-z
loop_
_atom_site_type_symbol
_atom_site_label
_atom_site_fract_x
_atom_site_fract_y
_atom_site_fract_z
Si Si1 0.347760 0.601397 0.308451
Si Si2 0.942462 0.794742 0.185702
Si Si3 0.066721 0.686232 0.722967
Si Si4 0.276167 0.922693 0.733774
Si Si5 0.143463 0.587547 0.415705
Si Si6 0.569069 0.205432 0.859191
Si Si7 0.795167 0.019647 0.913642
Si Si8 0.292704 0.271620 0.679933
O O1 0.416173 0.438197 0.291364
O O2 0.438571 0.741943 0.291984
O O3 0.276709 0.620477 0.385809
O O4 0.242516 0.606157 0.245925
O O5 0.851693 0.648875 0.196214
O O6 0.958586 0.855069 0.273329
O O7 0.069627 0.732900 0.160790
O O8 0.898460 0.933142 0.131496
O O9 0.152191 0.834002 0.738167
O O10 0.118933 0.601241 0.648188
O O11 0.350125 0.857674 0.661463
O O12 0.264508 0.104962 0.717982
O O13 0.153620 0.550713 0.504023
O O14 0.050418 0.728916 0.397558
O O15 0.661828 0.092339 0.902170
O O16 0.782019 0.835744 0.890799
#
# Coordination Sequence:
#
# PCOD9313462 Si02
#       8
#     4   4   4   4   4   4   4   4
#     4  11  21  37  63  90 119 168 216 255 312 377
#     4  10  18  36  68  93 110 158 228 274 300 362
#     4  10  21  40  58  87 128 166 211 256 315 391
#     4   9  18  34  65  85 115 151 216 277 295 359
#     4  12  21  39  65  91 132 166 209 271 324 382
#     4   9  20  37  64  92 118 164 221 267 302 372
#     4  10  25  38  57  93 141 165 201 265 334 390
#     4  11  20  37  62  95 119 160 214 277 318 359
#
# _framework density 18.947388
#
# number of rings (size 3 to 8) (size 9 to 14) (size 15 to 20)
#    0.750    1.000    3.750    1.500    3.500    0.000 
#    0.000    3.750    5.500    0.000    0.000    0.000 
#    0.000    0.000    0.000    0.000    0.000    0.000 
#
# Total GULP energy -178199.337585 kJ/mol
# GULP energy per Si atom -5568.729300 kJ/mol
# Density = 1.890426 g / cm^3
# Si number density = 18.947388 Si / 1000 Ang^3
#
#
#
# Elastic Constant Matrix: (Units=GPa)
#
#
# Indices 1 2 3 4 5 6 
#
# 1 101.0294 35.0373 10.9248 0.0000 0.0000 0.0000
# 2 35.0373 72.5665 11.8959 0.0000 0.0000 0.0000
# 3 10.9248 11.8959 67.7384 0.0000 0.0000 0.0000
# 4 0.0000 0.0000 0.0000 20.0810 0.0000 0.0000
# 5 0.0000 0.0000 0.0000 0.0000 22.3732 0.0000
# 6 0.0000 0.0000 0.0000 0.0000 0.0000 39.3433
#
#
#
# Elastic Compliance Matrix: (Units=1/GPa)
#
#
# Indices 1 2 3 4 5 6 
#
# 1 0.011947 -0.005614 -0.000941 0.000000 0.000000 0.000000
# 2 -0.005614 0.016827 -0.002050 0.000000 0.000000 0.000000
# 3 -0.000941 -0.002050 0.015274 0.000000 0.000000 0.000000
# 4 0.000000 0.000000 0.000000 0.049798 0.000000 0.000000
# 5 0.000000 0.000000 0.000000 0.000000 0.044696 0.000000
# 6 0.000000 0.000000 0.000000 0.000000 0.000000 0.025417
#
#
# Mechanical properties :
#
#
# Convention : Reuss Voigt Hill
#
# Bulk Modulus (GPa) = 37.25901 39.67224 38.46563
# Shear Modulus (GPa) = 26.29978 28.59126 27.44552
#
# Velocity S-wave (km/s) = 3.72969 3.88878 3.81006
# Velocity P-wave (km/s) = 6.18503 6.41459 6.30086
#
# Compressibility (1/GPa) = 0.02683914
#
# Stress axis : x y z
#
# Youngs Moduli (GPa) = 83.70435 59.42799 65.46915
#
# Poissons Ratio (x) = 0.33363 0.06160
# Poissons Ratio (y) = 0.46992 0.13419
# Poissons Ratio (z) = 0.07876 0.12181
#
# Static dielectric constant tensor:
#      x y z
#    x 1.691600 0.000000 0.000000 
#    y 0.000000 1.709290 0.000000 
#    z 0.000000 0.000000 1.659810 
# 
# From -- ./inp_files/6752.got.cif
#   From: 2010.05.17/outbox.cif.g08.bks.cpg/sg19_4_cif.got.tgz:6752.got - 2010.06.03 22:46:19.
