data_PCOD9313606
_publ_section_title
;
Structure prediction by ZEFSAII (Michael W. Deem and Ramdas Pophale) SiO2 
 PCOD9313606
Probable space group: P 21 21 21
;
_chemical_formula_sum "Si O2"
_cell_formula_units_Z 24
_cell_length_a 9.203048
_cell_length_b 8.211195
_cell_length_c 17.524039
_cell_angle_alpha 90.000000
_cell_angle_beta 90.000000
_cell_angle_gamma 90.000000
_cell_volume 1324.256960
_symmetry_space_group_name_H-M "P 21 21 21"
_symmetry_group_IT_number 19
_symmetry_cell_setting 'orthorhombic'
loop_
_space_group_symop_operation_xyz
x,y,z
1/2-x,-y,1/2+z
1/2+x,1/2-y,-z
-x,1/2+y,1/2-z
loop_
_atom_site_type_symbol
_atom_site_label
_atom_site_fract_x
_atom_site_fract_y
_atom_site_fract_z
Si Si1 0.335508 0.310698 0.578766
Si Si2 0.618036 0.885784 0.680774
Si Si3 0.664274 0.189064 0.578788
Si Si4 0.838338 0.684051 0.779067
Si Si5 0.837938 0.315797 0.720962
Si Si6 0.117679 0.386135 0.180759
O O1 0.499839 0.249696 0.569779
O O2 0.249900 0.303090 0.499983
O O3 0.254505 0.204788 0.643644
O O4 0.342028 0.493439 0.612726
O O5 0.757625 0.796621 0.716570
O O6 0.500322 0.749673 0.660765
O O7 0.658121 0.006309 0.612746
O O8 0.557835 0.999750 0.749993
O O9 0.745038 0.295163 0.643684
O O10 0.841328 0.499932 0.749995
O O11 0.000255 0.749752 0.791994
O O12 0.757116 0.203420 0.783491
#
# Coordination Sequence:
#
# PCOD9313606 Si02
#       6
#     4   4   4   4   4   4
#     4  11  23  39  58  82 116 152 187 231 285 335
#     4  10  19  36  60  85 111 147 192 232 277 332
#     4  11  23  39  58  82 116 152 187 231 285 335
#     4  11  21  37  61  87 114 147 189 233 277 333
#     4  11  21  37  61  87 114 147 189 233 277 333
#     4  10  19  36  60  85 111 147 192 232 277 332
#
# _framework density 18.123370999999999
#
# number of rings (size 3 to 8) (size 9 to 14) (size 15 to 20)
#    0.000    1.333    0.000   11.000    0.000    0.000 
#    0.000   11.667    0.000    0.000    0.000    0.000 
#    0.000    0.000    0.000    0.000    0.000    0.000 
#
# Total GULP energy -134167.434101 kJ/mol
# GULP energy per Si atom -5590.309754 kJ/mol
# Density = 1.808212 g / cm^3
# Si number density = 18.123371 Si / 1000 Ang^3
#
#
#
# Elastic Constant Matrix: (Units=GPa)
#
#
# Indices 1 2 3 4 5 6 
#
# 1 167.6151 60.2831 93.5521 0.0000 0.0000 0.0000
# 2 60.2831 137.3358 76.5119 0.0000 0.0000 0.0000
# 3 93.5521 76.5119 132.7584 0.0000 0.0000 0.0000
# 4 0.0000 0.0000 0.0000 12.5784 0.0000 0.0000
# 5 0.0000 0.0000 0.0000 0.0000 1.5335 0.0000
# 6 0.0000 0.0000 0.0000 0.0000 0.0000 33.7213
#
#
#
# Elastic Compliance Matrix: (Units=1/GPa)
#
#
# Indices 1 2 3 4 5 6 
#
# 1 0.009876 -0.000674 -0.006571 0.000000 0.000000 0.000000
# 2 -0.000674 0.010771 -0.005732 0.000000 0.000000 0.000000
# 3 -0.006571 -0.005732 0.015466 0.000000 0.000000 0.000000
# 4 0.000000 0.000000 0.000000 0.079501 0.000000 0.000000
# 5 0.000000 0.000000 0.000000 0.000000 0.652117 0.000000
# 6 0.000000 0.000000 0.000000 0.000000 0.000000 0.029655
#
#
# Mechanical properties :
#
#
# Convention : Reuss Voigt Hill
#
# Bulk Modulus (GPa) = 98.44006 99.82260 99.13133
# Shear Modulus (GPa) = 6.04795 23.39079 14.71937
#
# Velocity S-wave (km/s) = 1.82875 3.59645 2.85296
# Velocity P-wave (km/s) = 7.67422 8.51146 8.10366
#
# Compressibility (1/GPa) = 0.01015847
#
# Stress axis : x y z
#
# Youngs Moduli (GPa) = 101.25613 92.84153 64.65608
#
# Poissons Ratio (x) = 0.06261 0.42484
# Poissons Ratio (y) = 0.06828 0.37063
# Poissons Ratio (z) = 0.66533 0.53220
#
# Static dielectric constant tensor:
#      x y z
#    x 1.619050 0.000000 0.000000 
#    y 0.000000 1.618080 0.000000 
#    z 0.000000 0.000000 1.592610 
# 
# From -- ./inp_files/2888.got.cif
#   From: 2010.05.17/outbox.cif.g08.bks.cpg/sg19_2_cif.got.tgz:2888.got - 2010.06.03 22:46:19.
