data_PCOD9313121
_publ_section_title
;
Structure prediction by ZEFSAII (Michael W. Deem and Ramdas Pophale) SiO2 
 PCOD9313121
Probable space group: P 21 21 2
;
_chemical_formula_sum "Si O2"
_cell_formula_units_Z 26
_cell_length_a 25.213568
_cell_length_b 8.091307
_cell_length_c 5.316940
_cell_angle_alpha 90.000000
_cell_angle_beta 90.000000
_cell_angle_gamma 90.000000
_cell_volume 1084.712754
_symmetry_space_group_name_H-M "P 21 21 2"
_symmetry_group_IT_number 18
_symmetry_cell_setting 'orthorhombic'
loop_
_space_group_symop_operation_xyz
x,y,z
-x,-y,z
1/2+x,1/2-y,-z
1/2-x,1/2+y,-z
loop_
_atom_site_type_symbol
_atom_site_label
_atom_site_fract_x
_atom_site_fract_y
_atom_site_fract_z
Si Si1 0.796993 0.204104 0.191852
Si Si2 0.929386 0.897918 0.663291
Si Si3 0.000000 0.000000 0.274382
Si Si4 0.352458 0.863783 0.465434
Si Si5 0.385292 0.040153 0.955033
Si Si6 0.761019 0.037232 0.673022
Si Si7 0.966327 0.220631 0.889358
O O1 0.851171 0.302338 0.138989
O O2 0.797043 0.080149 0.429824
O O3 0.754968 0.349104 0.263661
O O4 0.781394 0.116683 0.931490
O O5 0.873663 0.813346 0.629598
O O6 0.964176 0.870210 0.418224
O O7 0.970161 0.803948 0.853157
O O8 0.935371 0.095699 0.699769
O O9 0.957802 0.112186 0.135388
O O10 0.295123 0.881512 0.589420
O O11 0.388174 0.929149 0.702321
O O12 0.355748 0.966970 0.203286
O O13 0.440862 0.104094 0.068996
#
# Coordination Sequence:
#
# PCOD9313121 Si02
#       7
#     4   4   2   4   4   4   4
#     4  11  23  45  68  95 133 171 216 272 332 389
#     4   9  21  41  64  91 128 171 219 266 312 387
#     4   8  18  40  62  82 132 156 220 260 318 356
#     4  11  25  43  65  97 136 167 215 274 331 385
#     4  11  25  43  65  97 136 167 215 274 331 385
#     4  11  23  45  68  95 133 171 216 272 332 389
#     4   9  21  41  64  91 128 171 219 266 312 387
#
# _framework density 23.969479
#
# number of rings (size 3 to 8) (size 9 to 14) (size 15 to 20)
#    0.000    2.154    0.000    4.615    8.615    1.846 
#    5.538    0.000    0.000    0.000    0.000    0.000 
#    0.000    0.000    0.000    0.000    0.000    0.000 
#
# Total GULP energy -144769.660931 kJ/mol
# GULP energy per Si atom -5568.063882 kJ/mol
# Density = 2.391492 g / cm^3
# Si number density = 23.969479 Si / 1000 Ang^3
#
#
#
# Elastic Constant Matrix: (Units=GPa)
#
#
# Indices 1 2 3 4 5 6 
#
# 1 39.2817 19.4187 16.1404 0.0000 0.0000 0.0000
# 2 19.4187 56.0006 29.1868 0.0000 0.0000 0.0000
# 3 16.1404 29.1868 164.3753 0.0000 0.0000 0.0000
# 4 0.0000 0.0000 0.0000 22.4238 0.0000 0.0000
# 5 0.0000 0.0000 0.0000 0.0000 5.0094 0.0000
# 6 0.0000 0.0000 0.0000 0.0000 0.0000 39.2994
#
#
#
# Elastic Compliance Matrix: (Units=1/GPa)
#
#
# Indices 1 2 3 4 5 6 
#
# 1 0.030955 -0.010083 -0.001249 0.000000 0.000000 0.000000
# 2 -0.010083 0.022962 -0.003087 0.000000 0.000000 0.000000
# 3 -0.001249 -0.003087 0.006754 0.000000 0.000000 0.000000
# 4 0.000000 0.000000 0.000000 0.044596 0.000000 0.000000
# 5 0.000000 0.000000 0.000000 0.000000 0.199624 0.000000
# 6 0.000000 0.000000 0.000000 0.000000 0.000000 0.025446
#
#
# Mechanical properties :
#
#
# Convention : Reuss Voigt Hill
#
# Bulk Modulus (GPa) = 31.41375 43.23881 37.32628
# Shear Modulus (GPa) = 13.52132 26.34064 19.93098
#
# Velocity S-wave (km/s) = 2.37767 3.31860 2.88673
# Velocity P-wave (km/s) = 4.54664 5.72385 5.16886
#
# Compressibility (1/GPa) = 0.03183320
#
# Stress axis : x y z
#
# Youngs Moduli (GPa) = 32.30519 43.54981 148.05031
#
# Poissons Ratio (x) = 0.43910 0.18494
# Poissons Ratio (y) = 0.32573 0.45706
# Poissons Ratio (z) = 0.04036 0.13445
#
# Static dielectric constant tensor:
#      x y z
#    x 2.042090 0.000000 0.000000 
#    y 0.000000 1.969230 0.000000 
#    z 0.000000 0.000000 2.060300 
# 
# From -- ./inp_files/2197.got.cif
#   From: 2010.05.17/outbox.cif.g08.bks.cpg/sg18_2_cif.got.tgz:2197.got - 2010.06.03 22:40:56.
