data_PCOD9313513
_publ_section_title
;
Structure prediction by ZEFSAII (Michael W. Deem and Ramdas Pophale) SiO2 
 PCOD9313513
Probable space group: P 21 21 21
;
_chemical_formula_sum "Si O2"
_cell_formula_units_Z 20
_cell_length_a 13.345393
_cell_length_b 5.071112
_cell_length_c 10.377321
_cell_angle_alpha 90.000000
_cell_angle_beta 90.000000
_cell_angle_gamma 90.000000
_cell_volume 702.295395
_symmetry_space_group_name_H-M "P 21 21 21"
_symmetry_group_IT_number 19
_symmetry_cell_setting 'orthorhombic'
loop_
_space_group_symop_operation_xyz
x,y,z
1/2-x,-y,1/2+z
1/2+x,1/2-y,-z
-x,1/2+y,1/2-z
loop_
_atom_site_type_symbol
_atom_site_label
_atom_site_fract_x
_atom_site_fract_y
_atom_site_fract_z
Si Si1 0.862163 0.391487 0.277829
Si Si2 0.101263 0.940642 0.651863
Si Si3 0.194166 0.273476 0.446764
Si Si4 0.827500 0.923600 0.706351
Si Si5 0.993007 0.159481 0.059789
O O1 0.815800 0.621457 0.188858
O O2 0.779600 0.162515 0.271090
O O3 0.957314 0.292297 0.193380
O O4 0.906185 0.503828 0.409964
O O5 0.186731 0.040293 0.551188
O O6 0.103605 0.172284 0.757398
O O7 0.011439 0.881231 0.551135
O O8 0.875594 0.172350 0.775984
O O9 0.287910 0.469791 0.431220
O O10 0.095548 0.450863 0.471227
#
# Coordination Sequence:
#
# PCOD9313513 Si02
#       5
#     4   4   4   4   4
#     4  10  19  32  56  85 121 155 186 233 300 354
#     4  11  22  36  53  82 124 162 194 230 285 355
#     4  10  20  36  56  82 122 158 188 236 290 346
#     4  11  22  36  53  82 124 162 194 230 285 355
#     4  10  19  32  56  85 121 155 186 233 300 354
#
# _framework density 28.478044000000001
#
# number of rings (size 3 to 8) (size 9 to 14) (size 15 to 20)
#    0.000    1.600    6.000    0.000    0.000    0.000 
#    0.000    0.000    0.000    0.000    0.000    0.000 
#   30.000    0.000    0.000    0.000    0.000    0.000 
#
# Total GULP energy -111928.528393 kJ/mol
# GULP energy per Si atom -5596.426420 kJ/mol
# Density = 2.841323 g / cm^3
# Si number density = 28.478044 Si / 1000 Ang^3
#
#
#
# Elastic Constant Matrix: (Units=GPa)
#
#
# Indices 1 2 3 4 5 6 
#
# 1 128.2819 31.9654 23.4887 0.0000 0.0000 0.0000
# 2 31.9654 204.4283 43.0315 0.0000 0.0000 0.0000
# 3 23.4887 43.0315 79.3676 0.0000 0.0000 0.0000
# 4 0.0000 0.0000 0.0000 47.7542 0.0000 0.0000
# 5 0.0000 0.0000 0.0000 0.0000 40.4146 0.0000
# 6 0.0000 0.0000 0.0000 0.0000 0.0000 35.9514
#
#
#
# Elastic Compliance Matrix: (Units=1/GPa)
#
#
# Indices 1 2 3 4 5 6 
#
# 1 0.008383 -0.000890 -0.001998 0.000000 0.000000 0.000000
# 2 -0.000890 0.005616 -0.002782 0.000000 0.000000 0.000000
# 3 -0.001998 -0.002782 0.014699 0.000000 0.000000 0.000000
# 4 0.000000 0.000000 0.000000 0.020941 0.000000 0.000000
# 5 0.000000 0.000000 0.000000 0.000000 0.024744 0.000000
# 6 0.000000 0.000000 0.000000 0.000000 0.000000 0.027815
#
#
# Mechanical properties :
#
#
# Convention : Reuss Voigt Hill
#
# Bulk Modulus (GPa) = 57.60928 67.67212 62.64070
# Shear Modulus (GPa) = 41.90257 45.73020 43.81638
#
# Velocity S-wave (km/s) = 3.84004 4.01160 3.92676
# Velocity P-wave (km/s) = 6.31938 6.72843 6.52711
#
# Compressibility (1/GPa) = 0.01735831
#
# Stress axis : x y z
#
# Youngs Moduli (GPa) = 119.28846 178.04962 68.03115
#
# Poissons Ratio (x) = 0.15850 0.13595
# Poissons Ratio (y) = 0.10619 0.18924
# Poissons Ratio (z) = 0.23838 0.49527
#
# Static dielectric constant tensor:
#      x y z
#    x 2.278480 0.000000 0.000000 
#    y 0.000000 2.197090 0.000000 
#    z 0.000000 0.000000 2.284770 
# 
# From -- ./inp_files/4877.got.cif
#   From: 2010.05.17/outbox.cif.g08.bks.cpg/sg19_3_cif.got.tgz:4877.got - 2010.06.03 22:46:19.
