data_PCOD9313172
_publ_section_title
;
Structure prediction by ZEFSAII (Michael W. Deem and Ramdas Pophale) SiO2 
 PCOD9313172
Probable space group: P 21 21 2
;
_chemical_formula_sum "Si O2"
_cell_formula_units_Z 22
_cell_length_a 15.260252
_cell_length_b 10.874138
_cell_length_c 5.372391
_cell_angle_alpha 90.000000
_cell_angle_beta 90.000000
_cell_angle_gamma 90.000000
_cell_volume 891.505770
_symmetry_space_group_name_H-M "P 21 21 2"
_symmetry_group_IT_number 18
_symmetry_cell_setting 'orthorhombic'
loop_
_space_group_symop_operation_xyz
x,y,z
-x,-y,z
1/2+x,1/2-y,-z
1/2-x,1/2+y,-z
loop_
_atom_site_type_symbol
_atom_site_label
_atom_site_fract_x
_atom_site_fract_y
_atom_site_fract_z
Si Si1 0.705888 0.093023 0.657109
Si Si2 0.785963 0.272154 0.987911
Si Si3 0.500000 0.500000 0.854345
Si Si4 0.934345 0.780915 0.496224
Si Si5 0.852918 0.962481 0.834292
Si Si6 0.116755 0.658641 0.474822
O O1 0.729172 0.149267 0.931520
O O2 0.657754 0.210760 0.541824
O O3 0.801704 0.031401 0.610194
O O4 0.640424 0.981438 0.599507
O O5 0.841104 0.301962 0.738429
O O6 0.721204 0.388242 0.020412
O O7 0.839717 0.268398 0.243796
O O8 0.460194 0.611993 0.696580
O O9 0.416956 0.451743 0.012279
O O10 0.919362 0.857498 0.744308
O O11 0.014242 0.686694 0.493319
#
# Coordination Sequence:
#
# PCOD9313172 Si02
#       6
#     4   4   2   4   4   4
#     4  11  24  49  75 109 153 200 257 314 391 460
#     4  11  25  49  76 113 156 205 257 316 392 469
#     4  12  26  48  76 112 152 206 254 340 376 484
#     4  12  27  49  75 113 154 202 265 323 395 471
#     4  11  27  47  75 111 155 207 260 320 392 471
#     4  11  28  46  79 112 156 203 260 327 387 464
#
# _framework density 24.677353
#
# number of rings (size 3 to 8) (size 9 to 14) (size 15 to 20)
#    0.000    0.727    1.818    4.364    7.636    5.818 
#    0.000    3.636    0.000    0.000    0.000    0.000 
#    0.000    0.000    0.000    0.000    0.000    0.000 
#
# Total GULP energy -122849.880729 kJ/mol
# GULP energy per Si atom -5584.085488 kJ/mol
# Density = 2.462119 g / cm^3
# Si number density = 24.677353 Si / 1000 Ang^3
#
#
#
# Elastic Constant Matrix: (Units=GPa)
#
#
# Indices 1 2 3 4 5 6 
#
# 1 113.1430 22.1016 39.5729 0.0000 0.0000 0.0000
# 2 22.1016 126.0490 20.8985 0.0000 0.0000 0.0000
# 3 39.5729 20.8985 111.5166 0.0000 0.0000 0.0000
# 4 0.0000 0.0000 0.0000 36.4545 0.0000 0.0000
# 5 0.0000 0.0000 0.0000 0.0000 32.5853 0.0000
# 6 0.0000 0.0000 0.0000 0.0000 0.0000 52.2775
#
#
#
# Elastic Compliance Matrix: (Units=1/GPa)
#
#
# Indices 1 2 3 4 5 6 
#
# 1 0.010274 -0.001235 -0.003414 0.000000 0.000000 0.000000
# 2 -0.001235 0.008336 -0.001124 0.000000 0.000000 0.000000
# 3 -0.003414 -0.001124 0.010389 0.000000 0.000000 0.000000
# 4 0.000000 0.000000 0.000000 0.027431 0.000000 0.000000
# 5 0.000000 0.000000 0.000000 0.000000 0.030689 0.000000
# 6 0.000000 0.000000 0.000000 0.000000 0.000000 0.019129
#
#
# Mechanical properties :
#
#
# Convention : Reuss Voigt Hill
#
# Bulk Modulus (GPa) = 57.29777 57.31718 57.30747
# Shear Modulus (GPa) = 40.44876 42.13917 41.29396
#
# Velocity S-wave (km/s) = 4.05298 4.13680 4.09510
# Velocity P-wave (km/s) = 6.72096 6.78930 6.75522
#
# Compressibility (1/GPa) = 0.01745269
#
# Stress axis : x y z
#
# Youngs Moduli (GPa) = 97.33430 119.95638 96.25111
#
# Poissons Ratio (x) = 0.14819 0.32863
# Poissons Ratio (y) = 0.12024 0.10817
# Poissons Ratio (z) = 0.33233 0.13482
#
# Static dielectric constant tensor:
#      x y z
#    x 1.981410 0.000000 0.000000 
#    y 0.000000 2.066290 0.000000 
#    z 0.000000 0.000000 1.956310 
# 
# From -- ./inp_files/1456.got.cif
#   From: 2010.05.17/outbox.cif.g08.bks.cpg/sg18_1_cif.got.tgz:1456.got - 2010.06.03 22:40:56.
