data_PCOD9313438
_publ_section_title
;
Structure prediction by ZEFSAII (Michael W. Deem and Ramdas Pophale) SiO2 
 PCOD9313438
Probable space group: P 21 21 21
;
_chemical_formula_sum "Si O2"
_cell_formula_units_Z 32
_cell_length_a 14.941046
_cell_length_b 6.497607
_cell_length_c 16.368388
_cell_angle_alpha 90.000000
_cell_angle_beta 90.000000
_cell_angle_gamma 90.000000
_cell_volume 1589.060213
_symmetry_space_group_name_H-M "P 21 21 21"
_symmetry_group_IT_number 19
_symmetry_cell_setting 'orthorhombic'
loop_
_space_group_symop_operation_xyz
x,y,z
1/2-x,-y,1/2+z
1/2+x,1/2-y,-z
-x,1/2+y,1/2-z
loop_
_atom_site_type_symbol
_atom_site_label
_atom_site_fract_x
_atom_site_fract_y
_atom_site_fract_z
Si Si1 0.416113 0.073766 0.758313
Si Si2 0.497534 0.437760 0.991661
Si Si3 0.584430 0.197000 0.654670
Si Si4 0.300662 0.469059 0.740421
Si Si5 0.129369 0.857586 0.597798
Si Si6 0.836264 0.702497 0.388317
Si Si7 0.498172 0.765874 0.127274
Si Si8 0.895197 0.035240 0.758382
O O1 0.513973 0.131625 0.725799
O O2 0.360653 0.279246 0.765520
O O3 0.421480 0.943122 0.841474
O O4 0.367207 0.944617 0.686695
O O5 0.445698 0.569002 0.922582
O O6 0.583894 0.323506 0.953419
O O7 0.428349 0.281806 0.034950
O O8 0.527215 0.614136 0.055415
O O9 0.681114 0.135175 0.688348
O O10 0.327082 0.572556 0.653846
O O11 0.197718 0.415130 0.739375
O O12 0.236484 0.859596 0.581592
O O13 0.119494 0.736404 0.684507
O O14 0.082692 0.080947 0.601963
O O15 0.574226 0.904423 0.168285
O O16 0.466065 0.612598 0.198795
#
# Coordination Sequence:
#
# PCOD9313438 Si02
#       8
#     4   4   4   4   4   4   4   4
#     4  10  18  34  63  89 117 163 203 243 298 358
#     4  10  24  40  61  95 127 166 201 251 318 369
#     4  10  20  36  56  91 125 155 202 242 297 371
#     4  10  20  36  63  91 119 162 203 256 299 361
#     4  10  21  42  65  89 121 166 208 259 313 367
#     4   9  21  40  62  90 123 163 212 246 305 380
#     4  11  21  41  64  88 119 159 208 264 311 358
#     4  10  21  39  66  89 115 156 217 261 305 366
#
# _framework density 20.137689000000002
#
# number of rings (size 3 to 8) (size 9 to 14) (size 15 to 20)
#    0.000    2.000    2.500    0.750    0.000    3.000 
#    4.500    0.000    0.000    0.000    0.000    0.000 
#    0.000    0.000    0.000    0.000    0.000    0.000 
#
# Total GULP energy -178473.819934 kJ/mol
# GULP energy per Si atom -5577.306873 kJ/mol
# Density = 2.009185 g / cm^3
# Si number density = 20.137689 Si / 1000 Ang^3
#
#
#
# Elastic Constant Matrix: (Units=GPa)
#
#
# Indices 1 2 3 4 5 6 
#
# 1 95.9827 12.2370 36.3722 0.0000 0.0000 0.0000
# 2 12.2370 58.4708 12.1151 0.0000 0.0000 0.0000
# 3 36.3722 12.1151 71.0135 0.0000 0.0000 0.0000
# 4 0.0000 0.0000 0.0000 15.7680 0.0000 0.0000
# 5 0.0000 0.0000 0.0000 0.0000 25.8361 0.0000
# 6 0.0000 0.0000 0.0000 0.0000 0.0000 23.1535
#
#
#
# Elastic Compliance Matrix: (Units=1/GPa)
#
#
# Indices 1 2 3 4 5 6 
#
# 1 0.013036 -0.001394 -0.006439 0.000000 0.000000 0.000000
# 2 -0.001394 0.017878 -0.002336 0.000000 0.000000 0.000000
# 3 -0.006439 -0.002336 0.017778 0.000000 0.000000 0.000000
# 4 0.000000 0.000000 0.000000 0.063420 0.000000 0.000000
# 5 0.000000 0.000000 0.000000 0.000000 0.038706 0.000000
# 6 0.000000 0.000000 0.000000 0.000000 0.000000 0.043190
#
#
# Mechanical properties :
#
#
# Convention : Reuss Voigt Hill
#
# Bulk Modulus (GPa) = 35.26787 38.54618 36.90703
# Shear Modulus (GPa) = 22.34150 23.93435 23.13792
#
# Velocity S-wave (km/s) = 3.33443 3.45125 3.39335
# Velocity P-wave (km/s) = 5.68999 5.92152 5.80691
#
# Compressibility (1/GPa) = 0.02835442
#
# Stress axis : x y z
#
# Youngs Moduli (GPa) = 76.70833 55.93356 56.24787
#
# Poissons Ratio (x) = 0.07798 0.36219
# Poissons Ratio (y) = 0.10694 0.13140
# Poissons Ratio (z) = 0.49394 0.13066
#
# Static dielectric constant tensor:
#      x y z
#    x 1.708390 0.000000 0.000000 
#    y 0.000000 1.749090 0.000000 
#    z 0.000000 0.000000 1.727560 
# 
# From -- ./inp_files/6792.got.cif
#   From: 2010.05.17/outbox.cif.g08.bks.cpg/sg19_4_cif.got.tgz:6792.got - 2010.06.03 22:46:19.
