data_PCOD9313695
_publ_section_title
;
Structure prediction by ZEFSAII (Michael W. Deem and Ramdas Pophale) SiO2 
 PCOD9313695
Probable space group: P 21 21 21
;
_chemical_formula_sum "Si O2"
_cell_formula_units_Z 32
_cell_length_a 11.698787
_cell_length_b 13.317736
_cell_length_c 7.949422
_cell_angle_alpha 90.000000
_cell_angle_beta 90.000000
_cell_angle_gamma 90.000000
_cell_volume 1238.530733
_symmetry_space_group_name_H-M "P 21 21 21"
_symmetry_group_IT_number 19
_symmetry_cell_setting 'orthorhombic'
loop_
_space_group_symop_operation_xyz
x,y,z
1/2-x,-y,1/2+z
1/2+x,1/2-y,-z
-x,1/2+y,1/2-z
loop_
_atom_site_type_symbol
_atom_site_label
_atom_site_fract_x
_atom_site_fract_y
_atom_site_fract_z
Si Si1 0.007430 0.946192 0.564567
Si Si2 0.079089 0.079133 0.042205
Si Si3 0.639486 0.873948 0.401509
Si Si4 0.756500 0.217533 0.430810
Si Si5 0.130847 0.880340 0.906647
Si Si6 0.807616 0.326511 0.082967
Si Si7 0.396626 0.860012 0.906261
Si Si8 0.239138 0.463459 0.807186
O O1 0.067438 0.908750 0.735880
O O2 0.070956 0.881912 0.422162
O O3 0.874227 0.927332 0.593601
O O4 0.034082 0.061771 0.520125
O O5 0.053398 0.134021 0.218698
O O6 0.996582 0.122050 0.896208
O O7 0.207044 0.106229 0.988656
O O8 0.078557 0.958059 0.040968
O O9 0.683135 0.766962 0.455933
O O10 0.659031 0.945435 0.565738
O O11 0.709276 0.925403 0.253363
O O12 0.860132 0.262371 0.544569
O O13 0.771861 0.285793 0.263799
O O14 0.636958 0.251491 0.516952
O O15 0.758196 0.106383 0.356699
O O16 0.266552 0.902972 0.889054
#
# Coordination Sequence:
#
# PCOD9313695 Si02
#       8
#     4   4   4   4   4   4   4   4
#     4  12  22  39  71  98 135 173 217 282 338 392
#     4  12  22  43  69 103 131 170 229 276 337 390
#     4  11  29  45  69  92 142 184 218 274 335 417
#     4   9  22  42  64  95 138 161 223 280 323 399
#     4  10  19  39  68 102 128 162 221 288 325 384
#     4  11  22  42  67 102 130 170 229 277 332 387
#     4  10  21  37  67 105 126 165 218 288 327 386
#     4  11  27  49  59  97 138 185 219 263 349 409
#
# _framework density 25.837064999999999
#
# number of rings (size 3 to 8) (size 9 to 14) (size 15 to 20)
#    0.750    0.500    3.750    1.500    5.250    2.000 
#    4.500    0.000    0.000    0.000    0.000    0.000 
#    0.000    0.000    0.000    0.000    0.000    0.000 
#
# Total GULP energy -178999.257312 kJ/mol
# GULP energy per Si atom -5593.726791 kJ/mol
# Density = 2.577826 g / cm^3
# Si number density = 25.837065 Si / 1000 Ang^3
#
#
#
# Elastic Constant Matrix: (Units=GPa)
#
#
# Indices 1 2 3 4 5 6 
#
# 1 83.9332 -2.2716 -6.3410 0.0000 0.0000 0.0000
# 2 -2.2716 87.3577 -2.4454 0.0000 0.0000 0.0000
# 3 -6.3410 -2.4454 70.9680 0.0000 0.0000 0.0000
# 4 0.0000 0.0000 0.0000 41.7550 0.0000 0.0000
# 5 0.0000 0.0000 0.0000 0.0000 31.6674 0.0000
# 6 0.0000 0.0000 0.0000 0.0000 0.0000 17.0363
#
#
#
# Elastic Compliance Matrix: (Units=1/GPa)
#
#
# Indices 1 2 3 4 5 6 
#
# 1 0.012005 0.000343 0.001084 0.000000 0.000000 0.000000
# 2 0.000343 0.011468 0.000426 0.000000 0.000000 0.000000
# 3 0.001084 0.000426 0.014202 0.000000 0.000000 0.000000
# 4 0.000000 0.000000 0.000000 0.023949 0.000000 0.000000
# 5 0.000000 0.000000 0.000000 0.000000 0.031578 0.000000
# 6 0.000000 0.000000 0.000000 0.000000 0.000000 0.058698
#
#
# Mechanical properties :
#
#
# Convention : Reuss Voigt Hill
#
# Bulk Modulus (GPa) = 24.16541 24.46034 24.31287
# Shear Modulus (GPa) = 30.86615 34.97953 32.92284
#
# Velocity S-wave (km/s) = 3.46011 3.68346 3.57353
# Velocity P-wave (km/s) = 5.03354 5.25150 5.14367
#
# Compressibility (1/GPa) = 0.04138146
#
# Stress axis : x y z
#
# Youngs Moduli (GPa) = 83.29555 87.19906 70.41046
#
# Poissons Ratio (x) = -0.02987 -0.07636
# Poissons Ratio (y) = -0.02853 -0.02998
# Poissons Ratio (z) = -0.09033 -0.03713
#
# Static dielectric constant tensor:
#      x y z
#    x 1.970950 0.000000 0.000000 
#    y 0.000000 2.027600 0.000000 
#    z 0.000000 0.000000 2.090240 
# 
# From -- ./inp_files/3641.got.cif
#   From: 2010.05.17/outbox.cif.g08.bks.cpg/sg19_2_cif.got.tgz:3641.got - 2010.06.03 22:46:19.
