data_PCOD9313203
_publ_section_title
;
Structure prediction by ZEFSAII (Michael W. Deem and Ramdas Pophale) SiO2 
 PCOD9313203
Probable space group: P 21 21 2
;
_chemical_formula_sum "Si O2"
_cell_formula_units_Z 24
_cell_length_a 5.078954
_cell_length_b 14.692235
_cell_length_c 13.577385
_cell_angle_alpha 90.000000
_cell_angle_beta 90.000000
_cell_angle_gamma 90.000000
_cell_volume 1013.160568
_symmetry_space_group_name_H-M "P 21 21 2"
_symmetry_group_IT_number 18
_symmetry_cell_setting 'orthorhombic'
loop_
_space_group_symop_operation_xyz
x,y,z
-x,-y,z
1/2+x,1/2-y,-z
1/2-x,1/2+y,-z
loop_
_atom_site_type_symbol
_atom_site_label
_atom_site_fract_x
_atom_site_fract_y
_atom_site_fract_z
Si Si1 0.839886 0.683098 0.229109
Si Si2 0.500000 0.500000 0.999059
Si Si3 0.000000 0.500000 0.141147
Si Si4 0.651907 0.636173 0.830889
Si Si5 0.000000 0.000000 0.336730
Si Si6 0.518018 0.754956 0.069079
Si Si7 0.000000 0.500000 0.535710
Si Si8 0.331396 0.802219 0.542666
O O1 0.983566 0.588384 0.209965
O O2 0.017363 0.768023 0.194731
O O3 0.764070 0.699432 0.341438
O O4 0.599310 0.682623 0.151391
O O5 0.247268 0.506443 0.068134
O O6 0.529065 0.584090 0.923835
O O7 0.620229 0.575990 0.734815
O O8 0.949730 0.656143 0.865748
O O9 0.754394 0.762836 0.992403
O O10 0.246252 0.032121 0.401474
O O11 0.899556 0.592019 0.481764
O O12 0.086151 0.760304 0.482075
#
# Coordination Sequence:
#
# PCOD9313203 Si02
#       8
#     4   2   2   4   2   4   2   4
#     4  12  29  49  79 111 156 208 260 323 387 478
#     4  11  30  44  69 110 150 204 263 308 377 458
#     4  12  31  45  70 110 156 204 257 306 383 470
#     4  11  27  47  76 109 154 204 264 323 379 457
#     4  11  28  48  81 118 152 204 267 332 407 456
#     4  12  27  44  78 111 154 208 254 311 387 455
#     4  12  25  53  80 114 166 200 261 348 403 474
#     4  12  29  51  84 119 155 210 270 332 413 482
#
# _framework density 23.68825
#
# number of rings (size 3 to 8) (size 9 to 14) (size 15 to 20)
#    0.000    0.333    1.667    4.500   16.333    1.333 
#    0.000    1.667    0.000    0.000    0.000    0.000 
#    0.000    0.000    0.000    0.000    0.000    0.000 
#
# Total GULP energy -134438.077287 kJ/mol
# GULP energy per Si atom -5601.586554 kJ/mol
# Density = 2.363433 g / cm^3
# Si number density = 23.688250 Si / 1000 Ang^3
#
#
#
# Elastic Constant Matrix: (Units=GPa)
#
#
# Indices 1 2 3 4 5 6 
#
# 1 142.6454 18.6013 44.1107 0.0000 0.0000 0.0000
# 2 18.6013 143.0626 33.3994 0.0000 0.0000 0.0000
# 3 44.1107 33.3994 146.0317 0.0000 0.0000 0.0000
# 4 0.0000 0.0000 0.0000 15.2208 0.0000 0.0000
# 5 0.0000 0.0000 0.0000 0.0000 -21.4770 0.0000
# 6 0.0000 0.0000 0.0000 0.0000 0.0000 37.6879
#
#
#
# Elastic Compliance Matrix: (Units=1/GPa)
#
#
# Indices 1 2 3 4 5 6 
#
# 1 0.007765 -0.000488 -0.002234 0.000000 0.000000 0.000000
# 2 -0.000488 0.007415 -0.001548 0.000000 0.000000 0.000000
# 3 -0.002234 -0.001548 0.007877 0.000000 0.000000 0.000000
# 4 0.000000 0.000000 0.000000 0.065700 0.000000 0.000000
# 5 0.000000 0.000000 0.000000 0.000000 -0.046561 0.000000
# 6 0.000000 0.000000 0.000000 0.000000 0.000000 0.026534
#
#
# Mechanical properties :
#
#
# Convention : Reuss Voigt Hill
#
# Bulk Modulus (GPa) = 68.89086 69.32919 69.11003
# Shear Modulus (GPa) = 60.89556 28.66155 44.77856
#
# Velocity S-wave (km/s) = 5.07572 3.48220 4.35251
# Velocity P-wave (km/s) = 7.96843 6.74526 7.38222
#
# Compressibility (1/GPa) = 0.01451571
#
# Stress axis : x y z
#
# Youngs Moduli (GPa) = 128.78615 134.86338 126.95616
#
# Poissons Ratio (x) = 0.06583 0.28360
# Poissons Ratio (y) = 0.06286 0.19659
# Poissons Ratio (z) = 0.28769 0.20883
#
# Static dielectric constant tensor:
#      x y z
#    x 1.938540 0.000000 0.000000 
#    y 0.000000 2.016810 0.000000 
#    z 0.000000 0.000000 1.869780 
# 
# From -- ./inp_files/6507.got.cif
#   From: 2010.05.17/outbox.cif.g08.bks.cpg/sg18_4_cif.got.tgz:6507.got - 2010.06.03 22:40:56.
