data_PCOD9313685
_publ_section_title
;
Structure prediction by ZEFSAII (Michael W. Deem and Ramdas Pophale) SiO2 
 PCOD9313685
Probable space group: P 21 21 21
;
_chemical_formula_sum "Si O2"
_cell_formula_units_Z 28
_cell_length_a 10.756884
_cell_length_b 8.613903
_cell_length_c 15.830384
_cell_angle_alpha 90.000000
_cell_angle_beta 90.000000
_cell_angle_gamma 90.000000
_cell_volume 1466.823678
_symmetry_space_group_name_H-M "P 21 21 21"
_symmetry_group_IT_number 19
_symmetry_cell_setting 'orthorhombic'
loop_
_space_group_symop_operation_xyz
x,y,z
1/2-x,-y,1/2+z
1/2+x,1/2-y,-z
-x,1/2+y,1/2-z
loop_
_atom_site_type_symbol
_atom_site_label
_atom_site_fract_x
_atom_site_fract_y
_atom_site_fract_z
Si Si1 0.832078 0.652430 0.306295
Si Si2 0.121291 0.827621 0.564778
Si Si3 0.068013 0.429279 0.794013
Si Si4 0.027578 0.565074 0.438937
Si Si5 0.790403 0.468423 0.544163
Si Si6 0.667006 0.399469 0.222480
Si Si7 0.723588 0.162793 0.642550
O O1 0.730358 0.724356 0.370759
O O2 0.959247 0.634683 0.356576
O O3 0.771084 0.486903 0.278328
O O4 0.841437 0.753114 0.222035
O O5 0.004020 0.871527 0.622087
O O6 0.085940 0.697183 0.497824
O O7 0.178609 0.974917 0.515632
O O8 0.136327 0.278248 0.756091
O O9 0.165037 0.560707 0.819527
O O10 0.959881 0.501443 0.735729
O O11 0.917137 0.485091 0.492064
O O12 0.130678 0.446079 0.408196
O O13 0.795348 0.583274 0.624896
O O14 0.772939 0.298619 0.582143
#
# Coordination Sequence:
#
# PCOD9313685 Si02
#       7
#     4   4   4   4   4   4   4
#     4   9  23  43  59  91 127 165 213 258 310 386
#     4  10  21  40  65  89 124 167 208 264 315 368
#     4  11  21  38  64  94 118 172 213 257 315 374
#     4  11  23  41  65  89 128 168 205 263 323 363
#     4  10  22  40  60  91 128 157 209 267 308 372
#     4  10  19  39  63  86 124 163 212 259 305 373
#     4  11  25  39  62  94 127 166 214 254 316 380
#
# _framework density 19.088865999999999
#
# number of rings (size 3 to 8) (size 9 to 14) (size 15 to 20)
#    0.000    1.714    1.429    3.429    4.000    3.429 
#    2.571    1.429    0.000    0.000    0.000    0.000 
#    0.000    0.000    0.000    0.000    0.000    0.000 
#
# Total GULP energy -156419.964316 kJ/mol
# GULP energy per Si atom -5586.427297 kJ/mol
# Density = 1.904542 g / cm^3
# Si number density = 19.088866 Si / 1000 Ang^3
#
#
#
# Elastic Constant Matrix: (Units=GPa)
#
#
# Indices 1 2 3 4 5 6 
#
# 1 24.4787 1.8710 1.9074 0.0000 0.0000 0.0000
# 2 1.8710 61.0195 11.2449 0.0000 0.0000 0.0000
# 3 1.9074 11.2449 68.9834 0.0000 0.0000 0.0000
# 4 0.0000 0.0000 0.0000 28.8135 0.0000 0.0000
# 5 0.0000 0.0000 0.0000 0.0000 19.0855 0.0000
# 6 0.0000 0.0000 0.0000 0.0000 0.0000 13.2108
#
#
#
# Elastic Compliance Matrix: (Units=1/GPa)
#
#
# Indices 1 2 3 4 5 6 
#
# 1 0.041009 -0.001081 -0.000958 0.000000 0.000000 0.000000
# 2 -0.001081 0.016924 -0.002729 0.000000 0.000000 0.000000
# 3 -0.000958 -0.002729 0.014968 0.000000 0.000000 0.000000
# 4 0.000000 0.000000 0.000000 0.034706 0.000000 0.000000
# 5 0.000000 0.000000 0.000000 0.000000 0.052396 0.000000
# 6 0.000000 0.000000 0.000000 0.000000 0.000000 0.075696
#
#
# Mechanical properties :
#
#
# Convention : Reuss Voigt Hill
#
# Bulk Modulus (GPa) = 15.78140 20.50316 18.14228
# Shear Modulus (GPa) = 18.77191 21.51918 20.14554
#
# Velocity S-wave (km/s) = 3.13932 3.36119 3.25215
# Velocity P-wave (km/s) = 4.62879 5.08210 4.86073
#
# Compressibility (1/GPa) = 0.06336573
#
# Stress axis : x y z
#
# Youngs Moduli (GPa) = 24.38481 59.08688 66.81117
#
# Poissons Ratio (x) = 0.06387 0.06399
# Poissons Ratio (y) = 0.02636 0.18232
# Poissons Ratio (z) = 0.02335 0.16124
#
# Static dielectric constant tensor:
#      x y z
#    x 1.648160 0.000000 0.000000 
#    y 0.000000 1.654580 0.000000 
#    z 0.000000 0.000000 1.656150 
# 
# From -- ./inp_files/5887.got.cif
#   From: 2010.05.17/outbox.cif.g08.bks.cpg/sg19_3_cif.got.tgz:5887.got - 2010.06.03 22:46:19.
