data_PCOD9313334
_publ_section_title
;
Structure prediction by ZEFSAII (Michael W. Deem and Ramdas Pophale) SiO2 
 PCOD9313334
Probable space group: P 21 21 21
;
_chemical_formula_sum "Si O2"
_cell_formula_units_Z 28
_cell_length_a 19.853799
_cell_length_b 6.734361
_cell_length_c 7.456608
_cell_angle_alpha 90.000000
_cell_angle_beta 90.000000
_cell_angle_gamma 90.000000
_cell_volume 996.968247
_symmetry_space_group_name_H-M "P 21 21 21"
_symmetry_group_IT_number 19
_symmetry_cell_setting 'orthorhombic'
loop_
_space_group_symop_operation_xyz
x,y,z
1/2-x,-y,1/2+z
1/2+x,1/2-y,-z
-x,1/2+y,1/2-z
loop_
_atom_site_type_symbol
_atom_site_label
_atom_site_fract_x
_atom_site_fract_y
_atom_site_fract_z
Si Si1 0.216199 0.740380 0.548077
Si Si2 0.852032 0.857171 0.356990
Si Si3 0.262175 0.809812 0.141211
Si Si4 0.906272 0.772306 0.008560
Si Si5 0.443265 0.758357 0.364142
Si Si6 0.072965 0.807612 0.410342
Si Si7 0.623867 0.588934 0.957133
O O1 0.272035 0.600897 0.645834
O O2 0.246089 0.761842 0.346623
O O3 0.137327 0.710952 0.511606
O O4 0.219222 0.956889 0.635781
O O5 0.890336 0.894469 0.542523
O O6 0.852410 0.614830 0.357500
O O7 0.902207 0.896596 0.191845
O O8 0.328680 0.713767 0.059569
O O9 0.193040 0.789926 0.026136
O O10 0.952430 0.814354 0.836863
O O11 0.924158 0.544096 0.050771
O O12 0.505703 0.767585 0.497052
O O13 0.410210 0.980786 0.374150
O O14 0.079141 0.800400 0.192409
#
# Coordination Sequence:
#
# PCOD9313334 Si02
#       7
#     4   4   4   4   4   4   4
#     4   9  14  24  43  70  92 120 145 198 237 294
#     4   8  16  28  44  64  94 122 152 198 241 269
#     4   9  12  22  43  65  91 110 148 194 255 267
#     4  10  17  29  48  70  99 122 158 197 239 294
#     4  10  18  32  45  69 103 134 150 198 243 288
#     4   9  18  29  47  71 101 130 160 185 248 298
#     4   7  15  28  44  67  94 122 153 192 231 284
#
# _framework density 28.085148
#
# number of rings (size 3 to 8) (size 9 to 14) (size 15 to 20)
#    0.857    2.286    1.429    2.571    0.000    1.143 
#    2.571    0.000    0.000    0.000    0.000    2.000 
#    0.000    0.000    0.000    0.000    0.000    0.000 
#
# Total GULP energy -156401.271826 kJ/mol
# GULP energy per Si atom -5585.759708 kJ/mol
# Density = 2.802123 g / cm^3
# Si number density = 28.085148 Si / 1000 Ang^3
#
#
#
# Elastic Constant Matrix: (Units=GPa)
#
#
# Indices 1 2 3 4 5 6 
#
# 1 89.1779 15.6286 8.7601 0.0000 0.0000 0.0000
# 2 15.6286 86.1380 18.5727 0.0000 0.0000 0.0000
# 3 8.7601 18.5727 121.1880 0.0000 0.0000 0.0000
# 4 0.0000 0.0000 0.0000 7.4067 0.0000 0.0000
# 5 0.0000 0.0000 0.0000 0.0000 35.0866 0.0000
# 6 0.0000 0.0000 0.0000 0.0000 0.0000 32.1420
#
#
#
# Elastic Compliance Matrix: (Units=1/GPa)
#
#
# Indices 1 2 3 4 5 6 
#
# 1 0.011615 -0.001992 -0.000534 0.000000 0.000000 0.000000
# 2 -0.001992 0.012348 -0.001748 0.000000 0.000000 0.000000
# 3 -0.000534 -0.001748 0.008558 0.000000 0.000000 0.000000
# 4 0.000000 0.000000 0.000000 0.135013 0.000000 0.000000
# 5 0.000000 0.000000 0.000000 0.000000 0.028501 0.000000
# 6 0.000000 0.000000 0.000000 0.000000 0.000000 0.031112
#
#
# Mechanical properties :
#
#
# Convention : Reuss Voigt Hill
#
# Bulk Modulus (GPa) = 41.71639 42.49184 42.10412
# Shear Modulus (GPa) = 20.51808 31.82989 26.17399
#
# Velocity S-wave (km/s) = 2.70583 3.37016 3.05610
# Velocity P-wave (km/s) = 4.96466 5.50513 5.24186
#
# Compressibility (1/GPa) = 0.02397139
#
# Stress axis : x y z
#
# Youngs Moduli (GPa) = 86.09440 80.98670 116.84688
#
# Poissons Ratio (x) = 0.16134 0.06243
# Poissons Ratio (y) = 0.17152 0.20429
# Poissons Ratio (z) = 0.04600 0.14159
#
# Static dielectric constant tensor:
#      x y z
#    x 2.201230 0.000000 0.000000 
#    y 0.000000 2.296260 0.000000 
#    z 0.000000 0.000000 2.195810 
# 
# From -- ./inp_files/4328.got.cif
#   From: 2010.05.17/outbox.cif.g08.bks.cpg/sg19_3_cif.got.tgz:4328.got - 2010.06.03 22:46:19.
