data_PCOD9313745
_publ_section_title
;
Structure prediction by ZEFSAII (Michael W. Deem and Ramdas Pophale) SiO2 
 PCOD9313745
Probable space group: P 21 21 21
;
_chemical_formula_sum "Si O2"
_cell_formula_units_Z 20
_cell_length_a 11.690711
_cell_length_b 12.903809
_cell_length_c 5.091506
_cell_angle_alpha 90.000000
_cell_angle_beta 90.000000
_cell_angle_gamma 90.000000
_cell_volume 768.077619
_symmetry_space_group_name_H-M "P 21 21 21"
_symmetry_group_IT_number 19
_symmetry_cell_setting 'orthorhombic'
loop_
_space_group_symop_operation_xyz
x,y,z
1/2-x,-y,1/2+z
1/2+x,1/2-y,-z
-x,1/2+y,1/2-z
loop_
_atom_site_type_symbol
_atom_site_label
_atom_site_fract_x
_atom_site_fract_y
_atom_site_fract_z
Si Si1 0.401751 0.726993 0.816697
Si Si2 0.294931 0.654866 0.317073
Si Si3 0.270018 0.138546 0.055232
Si Si4 0.558248 0.917627 0.824741
Si Si5 0.567475 0.496919 0.170787
O O1 0.365515 0.647277 0.587426
O O2 0.302369 0.815301 0.798722
O O3 0.510172 0.800101 0.774215
O O4 0.387663 0.672264 0.092371
O O5 0.228291 0.762337 0.369390
O O6 0.194291 0.579369 0.226111
O O7 0.189207 0.058529 0.899174
O O8 0.386527 0.095704 0.170126
O O9 0.494120 0.989589 0.610858
O O10 0.516715 0.940321 0.121701
#
# Coordination Sequence:
#
# PCOD9313745 Si02
#       5
#     4   4   4   4   4
#     4   9  18  32  48  70 102 132 170 202 257 301
#     4  10  20  32  50  72 109 139 167 207 254 316
#     4   9  20  31  51  74 108 133 164 206 279 300
#     4  11  20  33  48  79 107 136 174 204 260 309
#     4  11  20  30  53  77 108 136 163 217 264 324
#
# _framework density 26.039037
#
# number of rings (size 3 to 8) (size 9 to 14) (size 15 to 20)
#    1.200    0.800    2.000    3.600    2.800    0.000 
#    0.000    0.000    0.000    0.000    0.000    5.600 
#    0.000    0.000    0.000    0.000    0.000    0.000 
#
# Total GULP energy -111650.536070 kJ/mol
# GULP energy per Si atom -5582.526803 kJ/mol
# Density = 2.597977 g / cm^3
# Si number density = 26.039037 Si / 1000 Ang^3
#
#
#
# Elastic Constant Matrix: (Units=GPa)
#
#
# Indices 1 2 3 4 5 6 
#
# 1 112.9846 33.8979 44.6256 0.0000 0.0000 0.0000
# 2 33.8979 56.5096 24.4002 0.0000 0.0000 0.0000
# 3 44.6256 24.4002 186.9882 0.0000 0.0000 0.0000
# 4 0.0000 0.0000 0.0000 27.5348 0.0000 0.0000
# 5 0.0000 0.0000 0.0000 0.0000 11.8896 0.0000
# 6 0.0000 0.0000 0.0000 0.0000 0.0000 31.4435
#
#
#
# Elastic Compliance Matrix: (Units=1/GPa)
#
#
# Indices 1 2 3 4 5 6 
#
# 1 0.011422 -0.006013 -0.001941 0.000000 0.000000 0.000000
# 2 -0.006013 0.021919 -0.001425 0.000000 0.000000 0.000000
# 3 -0.001941 -0.001425 0.005997 0.000000 0.000000 0.000000
# 4 0.000000 0.000000 0.000000 0.036318 0.000000 0.000000
# 5 0.000000 0.000000 0.000000 0.000000 0.084107 0.000000
# 6 0.000000 0.000000 0.000000 0.000000 0.000000 0.031803
#
#
# Mechanical properties :
#
#
# Convention : Reuss Voigt Hill
#
# Bulk Modulus (GPa) = 48.59466 62.48110 55.53788
# Shear Modulus (GPa) = 23.02203 31.07749 27.04976
#
# Velocity S-wave (km/s) = 2.97667 3.45845 3.22656
# Velocity P-wave (km/s) = 5.52420 6.32417 5.93767
#
# Compressibility (1/GPa) = 0.02057839
#
# Stress axis : x y z
#
# Youngs Moduli (GPa) = 87.55379 45.62356 166.74573
#
# Poissons Ratio (x) = 0.27434 0.32368
# Poissons Ratio (y) = 0.52648 0.23763
# Poissons Ratio (z) = 0.16995 0.06502
#
# Static dielectric constant tensor:
#      x y z
#    x 2.036380 0.000000 0.000000 
#    y 0.000000 2.161470 0.000000 
#    z 0.000000 0.000000 1.975110 
# 
# From -- ./inp_files/905.got.cif
#   From: 2010.05.17/outbox.cif.g08.bks.cpg/sg19_1_cif.got.tgz:905.got - 2010.06.03 22:46:19.
