data_PCOD9313620
_publ_section_title
;
Structure prediction by ZEFSAII (Michael W. Deem and Ramdas Pophale) SiO2 
 PCOD9313620
Probable space group: P 21 21 21
;
_chemical_formula_sum "Si O2"
_cell_formula_units_Z 24
_cell_length_a 8.059732
_cell_length_b 13.447697
_cell_length_c 8.159953
_cell_angle_alpha 90.000000
_cell_angle_beta 90.000000
_cell_angle_gamma 90.000000
_cell_volume 884.415150
_symmetry_space_group_name_H-M "P 21 21 21"
_symmetry_group_IT_number 19
_symmetry_cell_setting 'orthorhombic'
loop_
_space_group_symop_operation_xyz
x,y,z
1/2-x,-y,1/2+z
1/2+x,1/2-y,-z
-x,1/2+y,1/2-z
loop_
_atom_site_type_symbol
_atom_site_label
_atom_site_fract_x
_atom_site_fract_y
_atom_site_fract_z
Si Si1 0.837842 0.686996 0.711545
Si Si2 0.086960 0.112529 0.227460
Si Si3 0.955166 0.806291 0.400227
Si Si4 0.299333 0.006177 0.444030
Si Si5 0.731840 0.037821 0.095351
Si Si6 0.106936 0.368762 0.576048
O O1 0.940890 0.744008 0.569667
O O2 0.643537 0.685013 0.658665
O O3 0.875354 0.571030 0.690023
O O4 0.865007 0.754901 0.871527
O O5 0.216157 0.063893 0.101013
O O6 0.911174 0.085390 0.146401
O O7 0.118070 0.229419 0.232856
O O8 0.127109 0.054189 0.391022
O O9 0.848617 0.903317 0.441216
O O10 0.424427 0.097065 0.480431
O O11 0.766018 0.923771 0.047417
O O12 0.630489 0.070116 0.254036
#
# Coordination Sequence:
#
# PCOD9313620 Si02
#       6
#     4   4   4   4   4   4
#     4  10  22  38  61  91 120 161 207 254 309 357
#     4  10  21  40  59  96 117 165 201 255 304 362
#     4  10  19  36  62  89 116 158 213 252 285 364
#     4  10  24  37  64  87 128 157 212 250 308 368
#     4  10  22  38  62  90 124 160 206 252 307 357
#     4  10  22  41  60  91 125 161 207 259 301 370
#
# _framework density 27.136579000000001
#
# number of rings (size 3 to 8) (size 9 to 14) (size 15 to 20)
#    0.000    2.000    3.333    0.000   11.667    0.000 
#    0.000    5.000    0.000    0.000    0.000    0.000 
#    0.000    0.000    0.000    0.000    0.000    0.000 
#
# Total GULP energy -134170.190355 kJ/mol
# GULP energy per Si atom -5590.424598 kJ/mol
# Density = 2.707481 g / cm^3
# Si number density = 27.136579 Si / 1000 Ang^3
#
#
#
# Elastic Constant Matrix: (Units=GPa)
#
#
# Indices 1 2 3 4 5 6 
#
# 1 86.5867 32.6231 22.4951 0.0000 0.0000 0.0000
# 2 32.6231 98.2050 24.3437 0.0000 0.0000 0.0000
# 3 22.4951 24.3437 63.9613 0.0000 0.0000 0.0000
# 4 0.0000 0.0000 0.0000 51.8191 0.0000 0.0000
# 5 0.0000 0.0000 0.0000 0.0000 16.6030 0.0000
# 6 0.0000 0.0000 0.0000 0.0000 0.0000 38.0930
#
#
#
# Elastic Compliance Matrix: (Units=1/GPa)
#
#
# Indices 1 2 3 4 5 6 
#
# 1 0.013857 -0.003749 -0.003447 0.000000 0.000000 0.000000
# 2 -0.003749 0.012258 -0.003347 0.000000 0.000000 0.000000
# 3 -0.003447 -0.003347 0.018120 0.000000 0.000000 0.000000
# 4 0.000000 0.000000 0.000000 0.019298 0.000000 0.000000
# 5 0.000000 0.000000 0.000000 0.000000 0.060230 0.000000
# 6 0.000000 0.000000 0.000000 0.000000 0.000000 0.026252
#
#
# Mechanical properties :
#
#
# Convention : Reuss Voigt Hill
#
# Bulk Modulus (GPa) = 43.19562 45.29744 44.24653
# Shear Modulus (GPa) = 27.96164 32.58909 30.27536
#
# Velocity S-wave (km/s) = 3.21347 3.46920 3.34378
# Velocity P-wave (km/s) = 5.45169 5.72501 5.59002
#
# Compressibility (1/GPa) = 0.02315049
#
# Stress axis : x y z
#
# Youngs Moduli (GPa) = 72.16569 81.58098 55.18620
#
# Poissons Ratio (x) = 0.30583 0.19021
# Poissons Ratio (y) = 0.27054 0.18470
# Poissons Ratio (z) = 0.24873 0.27304
#
# Static dielectric constant tensor:
#      x y z
#    x 2.182900 0.000000 0.000000 
#    y 0.000000 2.120290 0.000000 
#    z 0.000000 0.000000 2.229400 
# 
# From -- ./inp_files/4634.got.cif
#   From: 2010.05.17/outbox.cif.g08.bks.cpg/sg19_3_cif.got.tgz:4634.got - 2010.06.03 22:46:19.
