data_PCOD9313728
_publ_section_title
;
Structure prediction by ZEFSAII (Michael W. Deem and Ramdas Pophale) SiO2 
 PCOD9313728
Probable space group: P 21 21 21
;
_chemical_formula_sum "Si O2"
_cell_formula_units_Z 32
_cell_length_a 8.636125
_cell_length_b 11.965792
_cell_length_c 14.038154
_cell_angle_alpha 90.000000
_cell_angle_beta 90.000000
_cell_angle_gamma 90.000000
_cell_volume 1450.675817
_symmetry_space_group_name_H-M "P 21 21 21"
_symmetry_group_IT_number 19
_symmetry_cell_setting 'orthorhombic'
loop_
_space_group_symop_operation_xyz
x,y,z
1/2-x,-y,1/2+z
1/2+x,1/2-y,-z
-x,1/2+y,1/2-z
loop_
_atom_site_type_symbol
_atom_site_label
_atom_site_fract_x
_atom_site_fract_y
_atom_site_fract_z
Si Si1 0.709374 0.342967 0.650300
Si Si2 0.596175 0.744262 0.799154
Si Si3 0.779340 0.063762 0.189122
Si Si4 0.056665 0.336932 0.100519
Si Si5 0.858951 0.502982 0.331483
Si Si6 0.119729 0.235208 0.909847
Si Si7 0.356444 0.343576 0.226688
Si Si8 0.311637 0.031514 0.979577
O O1 0.547622 0.278450 0.635363
O O2 0.680874 0.434360 0.733771
O O3 0.821413 0.251928 0.695573
O O4 0.753642 0.414666 0.558889
O O5 0.696576 0.853525 0.779521
O O6 0.523359 0.712302 0.695458
O O7 0.672013 0.629164 0.829368
O O8 0.698355 0.146212 0.114162
O O9 0.953205 0.022029 0.158482
O O10 0.671192 0.960823 0.219631
O O11 0.230425 0.345978 0.140329
O O12 0.987647 0.452386 0.057506
O O13 0.038882 0.253402 0.011807
O O14 0.744179 0.548474 0.412785
O O15 0.238644 0.136028 0.925141
O O16 0.012158 0.191983 0.825360
#
# Coordination Sequence:
#
# PCOD9313728 Si02
#       8
#     4   4   4   4   4   4   4   4
#     4  10  20  41  65  93 132 169 227 273 341 409
#     4  10  19  42  72  93 128 180 230 267 353 417
#     4  11  22  43  66  96 140 183 231 282 349 422
#     4  11  20  44  65 102 124 172 234 286 336 410
#     4  11  21  41  71  99 133 180 223 291 347 415
#     4  12  25  38  66 101 135 171 239 291 332 400
#     4  11  25  42  68  94 136 190 219 286 357 401
#     4  12  24  39  71 102 130 171 233 286 343 414
#
# _framework density 22.058686000000002
#
# number of rings (size 3 to 8) (size 9 to 14) (size 15 to 20)
#    0.000    1.000    5.000    4.500    3.500    0.000 
#    2.250    3.750    0.000    0.000    0.000    0.000 
#    0.000    0.000    0.000    0.000    0.000    0.000 
#
# Total GULP energy -178590.915157 kJ/mol
# GULP energy per Si atom -5580.966099 kJ/mol
# Density = 2.200848 g / cm^3
# Si number density = 22.058686 Si / 1000 Ang^3
#
#
#
# Elastic Constant Matrix: (Units=GPa)
#
#
# Indices 1 2 3 4 5 6 
#
# 1 20.6873 2.4330 11.7980 0.0000 0.0000 0.0000
# 2 2.4330 104.2429 10.8238 0.0000 0.0000 0.0000
# 3 11.7980 10.8238 26.8583 0.0000 0.0000 0.0000
# 4 0.0000 0.0000 0.0000 40.9344 0.0000 0.0000
# 5 0.0000 0.0000 0.0000 0.0000 21.7950 0.0000
# 6 0.0000 0.0000 0.0000 0.0000 0.0000 19.9107
#
#
#
# Elastic Compliance Matrix: (Units=1/GPa)
#
#
# Indices 1 2 3 4 5 6 
#
# 1 0.064721 0.001504 -0.029036 0.000000 0.000000 0.000000
# 2 0.001504 0.010047 -0.004710 0.000000 0.000000 0.000000
# 3 -0.029036 -0.004710 0.051885 0.000000 0.000000 0.000000
# 4 0.000000 0.000000 0.000000 0.024429 0.000000 0.000000
# 5 0.000000 0.000000 0.000000 0.000000 0.045882 0.000000
# 6 0.000000 0.000000 0.000000 0.000000 0.000000 0.050224
#
#
# Mechanical properties :
#
#
# Convention : Reuss Voigt Hill
#
# Bulk Modulus (GPa) = 16.08491 22.43312 19.25901
# Shear Modulus (GPa) = 15.04233 24.97694 20.00964
#
# Velocity S-wave (km/s) = 2.61420 3.36861 3.01509
# Velocity P-wave (km/s) = 4.05213 5.03208 4.56846
#
# Compressibility (1/GPa) = 0.06217009
#
# Stress axis : x y z
#
# Youngs Moduli (GPa) = 15.45089 99.53336 19.27336
#
# Poissons Ratio (x) = -0.14973 0.55962
# Poissons Ratio (y) = -0.02324 0.09077
# Poissons Ratio (z) = 0.44864 0.46877
#
# Static dielectric constant tensor:
#      x y z
#    x 1.944140 0.000000 0.000000 
#    y 0.000000 1.839620 0.000000 
#    z 0.000000 0.000000 1.786620 
# 
# From -- ./inp_files/5959.got.cif
#   From: 2010.05.17/outbox.cif.g08.bks.cpg/sg19_3_cif.got.tgz:5959.got - 2010.06.03 22:46:19.
