data_PCOD9313070
_publ_section_title
;
Structure prediction by ZEFSAII (Michael W. Deem and Ramdas Pophale) SiO2 
 PCOD9313070
Probable space group: P 21 21 2
;
_chemical_formula_sum "Si O2"
_cell_formula_units_Z 32
_cell_length_a 8.110190
_cell_length_b 12.258466
_cell_length_c 15.045019
_cell_angle_alpha 90.000000
_cell_angle_beta 90.000000
_cell_angle_gamma 90.000000
_cell_volume 1495.753046
_symmetry_space_group_name_H-M "P 21 21 2"
_symmetry_group_IT_number 18
_symmetry_cell_setting 'orthorhombic'
loop_
_space_group_symop_operation_xyz
x,y,z
-x,-y,z
1/2+x,1/2-y,-z
1/2-x,1/2+y,-z
loop_
_atom_site_type_symbol
_atom_site_label
_atom_site_fract_x
_atom_site_fract_y
_atom_site_fract_z
Si Si1 0.653349 0.361033 0.938267
Si Si2 0.576840 0.230044 0.446329
Si Si3 0.496784 0.744578 0.111469
Si Si4 0.314793 0.402706 0.862347
Si Si5 0.674595 0.037346 0.315422
Si Si6 0.577567 0.623756 0.294270
Si Si7 0.322083 0.552622 0.524116
Si Si8 0.380610 0.907899 0.612503
O O1 0.823208 0.295515 0.915763
O O2 0.488478 0.341283 0.877960
O O3 0.689147 0.489448 0.923845
O O4 0.580641 0.331998 0.034932
O O5 0.656529 0.141603 0.380133
O O6 0.466441 0.301295 0.379480
O O7 0.683774 0.327793 0.485354
O O8 0.532980 0.170620 0.540029
O O9 0.352138 0.834330 0.123293
O O10 0.517714 0.680064 0.203966
O O11 0.303667 0.442815 0.761033
O O12 0.500000 0.000000 0.275475
O O13 0.722641 0.944273 0.384584
O O14 0.500000 0.500000 0.300469
O O15 0.775203 0.629006 0.303494
O O16 0.500000 0.500000 0.543971
O O17 0.244912 0.472197 0.452213
O O18 0.500000 0.000000 0.646682
#
# Coordination Sequence:
#
# PCOD9313070 Si02
#       8
#     4   4   4   4   4   4   4   4
#     4  11  26  47  78 114 145 190 242 301 383 453
#     4  11  22  40  69  92 142 195 235 294 372 422
#     4  12  25  50  79 109 150 196 239 306 385 447
#     4  11  25  48  75 113 151 184 250 314 369 459
#     4  11  25  41  68 103 142 188 250 314 367 432
#     4  12  26  47  69 101 144 192 244 299 370 442
#     4  11  22  39  61  96 136 189 241 292 359 432
#     4  11  25  42  63  99 140 183 249 302 351 439
#
# _framework density 21.393903999999999
#
# number of rings (size 3 to 8) (size 9 to 14) (size 15 to 20)
#    0.000    0.750    5.000    2.625    7.000    0.000 
#    4.500    0.000    0.000    0.000    0.000    0.000 
#    0.000    0.000    0.000    0.000    0.000    0.000 
#
# Total GULP energy -178401.577395 kJ/mol
# GULP energy per Si atom -5575.049294 kJ/mol
# Density = 2.134521 g / cm^3
# Si number density = 21.393904 Si / 1000 Ang^3
#
#
#
# Elastic Constant Matrix: (Units=GPa)
#
#
# Indices 1 2 3 4 5 6 
#
# 1 140.0576 52.5682 53.1572 0.0000 0.0000 0.0000
# 2 52.5682 112.6322 48.0007 0.0000 0.0000 0.0000
# 3 53.1572 48.0007 90.0335 0.0000 0.0000 0.0000
# 4 0.0000 0.0000 0.0000 29.3991 0.0000 0.0000
# 5 0.0000 0.0000 0.0000 0.0000 -1.9079 0.0000
# 6 0.0000 0.0000 0.0000 0.0000 0.0000 33.3950
#
#
#
# Elastic Compliance Matrix: (Units=1/GPa)
#
#
# Indices 1 2 3 4 5 6 
#
# 1 0.009811 -0.002731 -0.004337 0.000000 0.000000 0.000000
# 2 -0.002731 0.012249 -0.004918 0.000000 0.000000 0.000000
# 3 -0.004337 -0.004918 0.016289 0.000000 0.000000 0.000000
# 4 0.000000 0.000000 0.000000 0.034015 0.000000 0.000000
# 5 0.000000 0.000000 0.000000 0.000000 -0.524126 0.000000
# 6 0.000000 0.000000 0.000000 0.000000 0.000000 0.029945
#
#
# Mechanical properties :
#
#
# Convention : Reuss Voigt Hill
#
# Bulk Modulus (GPa) = 69.54976 72.24172 70.89574
# Shear Modulus (GPa) = -12.72091 24.77704 6.02806
#
# Velocity S-wave (km/s) = -2.44110 3.40683 1.68041
# Velocity P-wave (km/s) = 4.96331 7.02254 6.08073
#
# Compressibility (1/GPa) = 0.01437819
#
# Stress axis : x y z
#
# Youngs Moduli (GPa) = 101.92902 81.63954 61.38963
#
# Poissons Ratio (x) = 0.22294 0.26622
# Poissons Ratio (y) = 0.27835 0.30192
# Poissons Ratio (z) = 0.44202 0.40151
#
# Static dielectric constant tensor:
#      x y z
#    x 1.839950 0.000000 0.000000 
#    y 0.000000 1.860060 0.000000 
#    z 0.000000 0.000000 1.750600 
# 
# From -- ./inp_files/6771.got.cif
#   From: 2010.05.17/outbox.cif.g08.bks.cpg/sg18_4_cif.got.tgz:6771.got - 2010.06.03 22:40:56.
