data_PCOD9313336
_publ_section_title
;
Structure prediction by ZEFSAII (Michael W. Deem and Ramdas Pophale) SiO2 
 PCOD9313336
Probable space group: P 21 21 21
;
_chemical_formula_sum "Si O2"
_cell_formula_units_Z 32
_cell_length_a 7.974212
_cell_length_b 12.674582
_cell_length_c 11.513029
_cell_angle_alpha 90.000000
_cell_angle_beta 90.000000
_cell_angle_gamma 90.000000
_cell_volume 1163.619583
_symmetry_space_group_name_H-M "P 21 21 21"
_symmetry_group_IT_number 19
_symmetry_cell_setting 'orthorhombic'
loop_
_space_group_symop_operation_xyz
x,y,z
1/2-x,-y,1/2+z
1/2+x,1/2-y,-z
-x,1/2+y,1/2-z
loop_
_atom_site_type_symbol
_atom_site_label
_atom_site_fract_x
_atom_site_fract_y
_atom_site_fract_z
Si Si1 0.516960 0.625126 0.227686
Si Si2 0.149619 0.875545 0.171086
Si Si3 0.195319 0.637894 0.562348
Si Si4 0.175933 0.264422 0.275666
Si Si5 0.283363 0.333975 0.569009
Si Si6 0.350466 0.490001 0.393559
Si Si7 0.845297 0.696345 0.606507
Si Si8 0.486498 0.413050 0.786331
O O1 0.695524 0.671405 0.189289
O O2 0.389957 0.617140 0.119231
O O3 0.501935 0.520885 0.308883
O O4 0.440269 0.712952 0.316809
O O5 0.243850 0.792244 0.086906
O O6 0.225286 0.856754 0.299263
O O7 0.118300 0.999589 0.172332
O O8 0.963260 0.826483 0.153015
O O9 0.229238 0.649921 0.698402
O O10 0.331698 0.555263 0.514370
O O11 0.236099 0.744071 0.490076
O O12 0.994105 0.622366 0.557149
O O13 0.059477 0.200366 0.182052
O O14 0.335531 0.370948 0.440368
O O15 0.428827 0.380350 0.654643
O O16 0.186498 0.543759 0.336892
#
# Coordination Sequence:
#
# PCOD9313336 Si02
#       8
#     4   4   4   4   4   4   4   4
#     4   8  18  34  53  79 106 134 180 228 264 316
#     4  10  20  36  52  74 110 148 179 218 271 328
#     4  10  17  29  53  82 107 135 178 231 277 316
#     4  10  19  34  55  80 109 139 179 230 274 315
#     4   9  19  37  56  74 105 146 180 218 274 327
#     4  10  19  35  56  80 109 142 177 221 275 327
#     4   9  17  29  48  75 107 139 174 223 275 319
#     4  10  21  36  55  80 109 141 181 227 268 322
#
# _framework density 27.500395999999999
#
# number of rings (size 3 to 8) (size 9 to 14) (size 15 to 20)
#    0.000    2.500    0.000    4.500    0.000    3.000 
#    0.000    8.750    0.000    0.000    0.000    0.000 
#    0.000    0.000    0.000    0.000    0.000    0.000 
#
# Total GULP energy -178538.226861 kJ/mol
# GULP energy per Si atom -5579.319589 kJ/mol
# Density = 2.743780 g / cm^3
# Si number density = 27.500396 Si / 1000 Ang^3
#
#
#
# Elastic Constant Matrix: (Units=GPa)
#
#
# Indices 1 2 3 4 5 6 
#
# 1 123.8700 -0.0259 14.0409 0.0000 0.0000 0.0000
# 2 -0.0259 90.3000 -14.0986 0.0000 0.0000 0.0000
# 3 14.0409 -14.0986 90.2281 0.0000 0.0000 0.0000
# 4 0.0000 0.0000 0.0000 39.6496 0.0000 0.0000
# 5 0.0000 0.0000 0.0000 0.0000 29.3038 0.0000
# 6 0.0000 0.0000 0.0000 0.0000 0.0000 40.6880
#
#
#
# Elastic Compliance Matrix: (Units=1/GPa)
#
#
# Indices 1 2 3 4 5 6 
#
# 1 0.008222 -0.000202 -0.001311 0.000000 0.000000 0.000000
# 2 -0.000202 0.011356 0.001806 0.000000 0.000000 0.000000
# 3 -0.001311 0.001806 0.011569 0.000000 0.000000 0.000000
# 4 0.000000 0.000000 0.000000 0.025221 0.000000 0.000000
# 5 0.000000 0.000000 0.000000 0.000000 0.034125 0.000000
# 6 0.000000 0.000000 0.000000 0.000000 0.000000 0.024577
#
#
# Mechanical properties :
#
#
# Convention : Reuss Voigt Hill
#
# Bulk Modulus (GPa) = 31.51390 33.80343 32.65867
# Shear Modulus (GPa) = 39.98001 42.22706 41.10353
#
# Velocity S-wave (km/s) = 3.81701 3.92281 3.87027
# Velocity P-wave (km/s) = 5.55971 5.73032 5.64566
#
# Compressibility (1/GPa) = 0.03173203
#
# Stress axis : x y z
#
# Youngs Moduli (GPa) = 121.63162 88.05838 86.43628
#
# Poissons Ratio (x) = 0.01782 0.11332
# Poissons Ratio (y) = 0.02461 -0.15610
# Poissons Ratio (z) = 0.15946 -0.15903
#
# Static dielectric constant tensor:
#      x y z
#    x 2.194610 0.000000 0.000000 
#    y 0.000000 2.230450 0.000000 
#    z 0.000000 0.000000 2.254290 
# 
# From -- ./inp_files/5992.got.cif
#   From: 2010.05.17/outbox.cif.g08.bks.cpg/sg19_3_cif.got.tgz:5992.got - 2010.06.03 22:46:19.
