data_PCOD9313392
_publ_section_title
;
Structure prediction by ZEFSAII (Michael W. Deem and Ramdas Pophale) SiO2 
 PCOD9313392
Probable space group: P 21 21 21
;
_chemical_formula_sum "Si O2"
_cell_formula_units_Z 24
_cell_length_a 17.076889
_cell_length_b 8.120353
_cell_length_c 7.653819
_cell_angle_alpha 90.000000
_cell_angle_beta 90.000000
_cell_angle_gamma 90.000000
_cell_volume 1061.357888
_symmetry_space_group_name_H-M "P 21 21 21"
_symmetry_group_IT_number 19
_symmetry_cell_setting 'orthorhombic'
loop_
_space_group_symop_operation_xyz
x,y,z
1/2-x,-y,1/2+z
1/2+x,1/2-y,-z
-x,1/2+y,1/2-z
loop_
_atom_site_type_symbol
_atom_site_label
_atom_site_fract_x
_atom_site_fract_y
_atom_site_fract_z
Si Si1 0.573678 0.753390 0.266150
Si Si2 0.328648 0.650515 0.466967
Si Si3 0.332852 0.521819 0.068994
Si Si4 0.487172 0.499314 0.508098
Si Si5 0.354476 0.871361 0.917599
Si Si6 0.695443 0.492501 0.196573
O O1 0.518853 0.628436 0.366388
O O2 0.530250 0.839687 0.107967
O O3 0.646272 0.659311 0.176844
O O4 0.602275 0.879793 0.415899
O O5 0.334275 0.589335 0.266711
O O6 0.249553 0.568659 0.537480
O O7 0.404939 0.579174 0.566627
O O8 0.322834 0.847561 0.441911
O O9 0.347692 0.673314 0.937063
O O10 0.560054 0.444652 0.628406
O O11 0.285901 0.956568 0.807835
O O12 0.332567 0.929487 0.114589
#
# Coordination Sequence:
#
# PCOD9313392 Si02
#       6
#     4   4   4   4   4   4
#     4  10  18  32  52  78 104 136 174 216 254 304
#     4  10  20  34  55  79 105 138 175 213 257 306
#     4  10  20  34  55  78 105 140 175 210 257 314
#     4  10  18  30  52  78 104 132 174 218 254 296
#     4  10  20  34  55  79 105 138 175 213 257 306
#     4  10  20  34  55  78 105 140 175 210 257 314
#
# _framework density 22.612542999999999
#
# number of rings (size 3 to 8) (size 9 to 14) (size 15 to 20)
#    0.000    2.000    0.000    8.000    0.000    0.000 
#    0.000    0.000    0.000   32.000    0.000    0.000 
#    0.000    0.000    0.000    0.000    0.000    0.000 
#
# Total GULP energy -133998.038251 kJ/mol
# GULP energy per Si atom -5583.251594 kJ/mol
# Density = 2.256108 g / cm^3
# Si number density = 22.612543 Si / 1000 Ang^3
#
#
#
# Elastic Constant Matrix: (Units=GPa)
#
#
# Indices 1 2 3 4 5 6 
#
# 1 162.6080 54.2286 -144.9812 0.0000 0.0000 0.0000
# 2 54.2286 118.8728 -65.8661 0.0000 0.0000 0.0000
# 3 -144.9812 -65.8661 274.8444 0.0000 0.0000 0.0000
# 4 0.0000 0.0000 0.0000 13.4076 0.0000 0.0000
# 5 0.0000 0.0000 0.0000 0.0000 2.9645 0.0000
# 6 0.0000 0.0000 0.0000 0.0000 0.0000 46.0393
#
#
#
# Elastic Compliance Matrix: (Units=1/GPa)
#
#
# Indices 1 2 3 4 5 6 
#
# 1 0.012129 -0.002292 0.005849 0.000000 0.000000 0.000000
# 2 -0.002292 0.010134 0.001219 0.000000 0.000000 0.000000
# 3 0.005849 0.001219 0.007016 0.000000 0.000000 0.000000
# 4 0.000000 0.000000 0.000000 0.074585 0.000000 0.000000
# 5 0.000000 0.000000 0.000000 0.000000 0.337327 0.000000
# 6 0.000000 0.000000 0.000000 0.000000 0.000000 0.021721
#
#
# Mechanical properties :
#
#
# Convention : Reuss Voigt Hill
#
# Bulk Modulus (GPa) = 25.75358 27.00975 26.38167
# Shear Modulus (GPa) = 10.72265 60.01188 35.36727
#
# Velocity S-wave (km/s) = 2.17995 5.15721 3.95910
# Velocity P-wave (km/s) = 4.21308 6.88716 5.70890
#
# Compressibility (1/GPa) = 0.03882955
#
# Stress axis : x y z
#
# Youngs Moduli (GPa) = 82.44748 98.68048 142.53519
#
# Poissons Ratio (x) = 0.22622 -0.83364
# Poissons Ratio (y) = 0.18900 -0.17379
# Poissons Ratio (z) = -0.48221 -0.12032
#
# Static dielectric constant tensor:
#      x y z
#    x 1.859260 0.000000 0.000000 
#    y 0.000000 2.067920 0.000000 
#    z 0.000000 0.000000 1.843930 
# 
# From -- ./inp_files/2925.got.cif
#   From: 2010.05.17/outbox.cif.g08.bks.cpg/sg19_2_cif.got.tgz:2925.got - 2010.06.03 22:46:19.
