data_PCOD9313087
_publ_section_title
;
Structure prediction by ZEFSAII (Michael W. Deem and Ramdas Pophale) SiO2 
 PCOD9313087
Probable space group: P 21 21 2
;
_chemical_formula_sum "Si O2"
_cell_formula_units_Z 16
_cell_length_a 4.626828
_cell_length_b 22.110479
_cell_length_c 5.543765
_cell_angle_alpha 90.000000
_cell_angle_beta 90.000000
_cell_angle_gamma 90.000000
_cell_volume 567.134828
_symmetry_space_group_name_H-M "P 21 21 2"
_symmetry_group_IT_number 18
_symmetry_cell_setting 'orthorhombic'
loop_
_space_group_symop_operation_xyz
x,y,z
-x,-y,z
1/2+x,1/2-y,-z
1/2-x,1/2+y,-z
loop_
_atom_site_type_symbol
_atom_site_label
_atom_site_fract_x
_atom_site_fract_y
_atom_site_fract_z
Si Si1 0.850170 0.661946 0.865560
Si Si2 0.575887 0.430789 0.658168
Si Si3 0.111817 0.227958 0.338997
Si Si4 0.398228 0.069246 0.826152
O O1 0.697534 0.611790 0.699814
O O2 0.630378 0.719375 0.876757
O O3 0.159311 0.678144 0.753349
O O4 0.890010 0.625670 0.114865
O O5 0.500000 0.500000 0.608437
O O6 0.729119 0.434624 0.919738
O O7 0.727533 0.412282 0.410339
O O8 0.360204 0.272357 0.451484
O O9 0.500000 0.000000 0.786745
#
# Coordination Sequence:
#
# PCOD9313087 Si02
#       4
#     4   4   4   4
#     4  11  22  43  72 112 148 205 254 311 388 456
#     4  12  26  44  71 113 160 207 252 307 371 460
#     4   9  20  41  74 110 144 195 256 331 382 452
#     4  12  26  44  71 113 160 207 252 307 371 460
#
# _framework density 28.211986
#
# number of rings (size 3 to 8) (size 9 to 14) (size 15 to 20)
#    0.000    1.000    5.000    1.500    0.000    0.000 
#    0.000    0.000    0.000    9.000    0.000    0.000 
#    0.000    0.000    0.000    0.000    0.000    0.000 
#
# Total GULP energy -89172.266514 kJ/mol
# GULP energy per Si atom -5573.266657 kJ/mol
# Density = 2.814777 g / cm^3
# Si number density = 28.211986 Si / 1000 Ang^3
#
#
#
# Elastic Constant Matrix: (Units=GPa)
#
#
# Indices 1 2 3 4 5 6 
#
# 1 206.0122 45.5254 100.4824 0.0000 0.0000 0.0000
# 2 45.5254 82.6472 65.3990 0.0000 0.0000 0.0000
# 3 100.4824 65.3990 217.3310 0.0000 0.0000 0.0000
# 4 0.0000 0.0000 0.0000 24.6416 0.0000 0.0000
# 5 0.0000 0.0000 0.0000 0.0000 54.2228 0.0000
# 6 0.0000 0.0000 0.0000 0.0000 0.0000 73.7973
#
#
#
# Elastic Compliance Matrix: (Units=1/GPa)
#
#
# Indices 1 2 3 4 5 6 
#
# 1 0.006417 -0.001558 -0.002498 0.000000 0.000000 0.000000
# 2 -0.001558 0.016259 -0.004172 0.000000 0.000000 0.000000
# 3 -0.002498 -0.004172 0.007012 0.000000 0.000000 0.000000
# 4 0.000000 0.000000 0.000000 0.040582 0.000000 0.000000
# 5 0.000000 0.000000 0.000000 0.000000 0.018442 0.000000
# 6 0.000000 0.000000 0.000000 0.000000 0.000000 0.013551
#
#
# Mechanical properties :
#
#
# Convention : Reuss Voigt Hill
#
# Bulk Modulus (GPa) = 75.57864 103.20044 89.38954
# Shear Modulus (GPa) = 40.60747 50.17125 45.38936
#
# Velocity S-wave (km/s) = 3.79802 4.22164 4.01542
# Velocity P-wave (km/s) = 6.78830 7.77321 7.29739
#
# Compressibility (1/GPa) = 0.01323125
#
# Stress axis : x y z
#
# Youngs Moduli (GPa) = 155.84248 61.50253 142.61749
#
# Poissons Ratio (x) = 0.09582 0.35625
# Poissons Ratio (y) = 0.24280 0.59507
# Poissons Ratio (z) = 0.38928 0.25662
#
# Static dielectric constant tensor:
#      x y z
#    x 2.250980 0.000000 0.000000 
#    y 0.000000 2.374430 0.000000 
#    z 0.000000 0.000000 2.133060 
# 
# From -- ./inp_files/233.got.cif
#   From: 2010.05.17/outbox.cif.g08.bks.cpg/sg18_1_cif.got.tgz:233.got - 2010.06.03 22:40:56.
