data_PCOD9313723
_publ_section_title
;
Structure prediction by ZEFSAII (Michael W. Deem and Ramdas Pophale) SiO2 
 PCOD9313723
Probable space group: P 21 21 21
;
_chemical_formula_sum "Si O2"
_cell_formula_units_Z 28
_cell_length_a 5.530130
_cell_length_b 13.157995
_cell_length_c 16.906974
_cell_angle_alpha 90.000000
_cell_angle_beta 90.000000
_cell_angle_gamma 90.000000
_cell_volume 1230.243113
_symmetry_space_group_name_H-M "P 21 21 21"
_symmetry_group_IT_number 19
_symmetry_cell_setting 'orthorhombic'
loop_
_space_group_symop_operation_xyz
x,y,z
1/2-x,-y,1/2+z
1/2+x,1/2-y,-z
-x,1/2+y,1/2-z
loop_
_atom_site_type_symbol
_atom_site_label
_atom_site_fract_x
_atom_site_fract_y
_atom_site_fract_z
Si Si1 0.638261 0.782314 0.458961
Si Si2 0.609708 0.190603 0.192361
Si Si3 0.423333 0.210205 0.689040
Si Si4 0.616898 0.002831 0.396648
Si Si5 0.259301 0.902329 0.807653
Si Si6 0.356312 0.508850 0.778362
Si Si7 0.315713 0.727299 0.043569
O O1 0.901098 0.742844 0.487308
O O2 0.560455 0.733667 0.374967
O O3 0.655111 0.903161 0.447323
O O4 0.805531 0.272060 0.224313
O O5 0.457107 0.161475 0.269782
O O6 0.733931 0.082186 0.172547
O O7 0.549980 0.317291 0.670001
O O8 0.614830 0.119905 0.686823
O O9 0.225066 0.202073 0.620897
O O10 0.736367 0.986195 0.309394
O O11 0.335742 0.025713 0.376328
O O12 0.698805 0.107157 0.436683
O O13 0.371895 0.971064 0.739156
O O14 0.583780 0.746598 0.010330
#
# Coordination Sequence:
#
# PCOD9313723 Si02
#       7
#     4   4   4   4   4   4   4
#     4  12  31  49  76 109 153 202 245 311 377 453
#     4  10  23  45  70 105 142 190 260 299 363 442
#     4  11  22  42  74 106 139 191 252 306 358 439
#     4  11  24  49  72 103 142 207 236 300 386 437
#     4  10  19  41  74  99 140 184 255 298 362 433
#     4  10  22  39  79 107 137 190 252 318 357 436
#     4  12  27  47  73 107 153 192 238 304 373 454
#
# _framework density 22.759727999999999
#
# number of rings (size 3 to 8) (size 9 to 14) (size 15 to 20)
#    0.000    1.143    4.286    2.571    8.000    2.286 
#    2.571    0.000    0.000    0.000    0.000    0.000 
#    0.000    0.000    0.000    0.000    0.000    0.000 
#
# Total GULP energy -156361.506256 kJ/mol
# GULP energy per Si atom -5584.339509 kJ/mol
# Density = 2.270793 g / cm^3
# Si number density = 22.759728 Si / 1000 Ang^3
#
#
#
# Elastic Constant Matrix: (Units=GPa)
#
#
# Indices 1 2 3 4 5 6 
#
# 1 69.3428 15.1358 7.9387 0.0000 0.0000 0.0000
# 2 15.1358 118.6358 18.9382 0.0000 0.0000 0.0000
# 3 7.9387 18.9382 43.6853 0.0000 0.0000 0.0000
# 4 0.0000 0.0000 0.0000 31.3755 0.0000 0.0000
# 5 0.0000 0.0000 0.0000 0.0000 32.5749 0.0000
# 6 0.0000 0.0000 0.0000 0.0000 0.0000 26.9323
#
#
#
# Elastic Compliance Matrix: (Units=1/GPa)
#
#
# Indices 1 2 3 4 5 6 
#
# 1 0.015001 -0.001589 -0.002037 0.000000 0.000000 0.000000
# 2 -0.001589 0.009224 -0.003710 0.000000 0.000000 0.000000
# 3 -0.002037 -0.003710 0.024870 0.000000 0.000000 0.000000
# 4 0.000000 0.000000 0.000000 0.031872 0.000000 0.000000
# 5 0.000000 0.000000 0.000000 0.000000 0.030699 0.000000
# 6 0.000000 0.000000 0.000000 0.000000 0.000000 0.037130
#
#
# Mechanical properties :
#
#
# Convention : Reuss Voigt Hill
#
# Bulk Modulus (GPa) = 29.05066 35.07659 32.06363
# Shear Modulus (GPa) = 28.58090 30.81993 29.70041
#
# Velocity S-wave (km/s) = 3.54752 3.68386 3.61633
# Velocity P-wave (km/s) = 5.43798 5.79134 5.61744
#
# Compressibility (1/GPa) = 0.03442262
#
# Stress axis : x y z
#
# Youngs Moduli (GPa) = 66.66172 108.41176 40.20969
#
# Poissons Ratio (x) = 0.17223 0.08192
# Poissons Ratio (y) = 0.10590 0.14918
# Poissons Ratio (z) = 0.13582 0.40222
#
# Static dielectric constant tensor:
#      x y z
#    x 1.929510 0.000000 0.000000 
#    y 0.000000 1.858860 0.000000 
#    z 0.000000 0.000000 1.909350 
# 
# From -- ./inp_files/4486.got.cif
#   From: 2010.05.17/outbox.cif.g08.bks.cpg/sg19_3_cif.got.tgz:4486.got - 2010.06.03 22:46:19.
