data_PCOD9313823
_publ_section_title
;
Structure prediction by ZEFSAII (Michael W. Deem and Ramdas Pophale) SiO2 
 PCOD9313823
Probable space group: P 21 21 21
;
_chemical_formula_sum "Si O2"
_cell_formula_units_Z 32
_cell_length_a 9.278656
_cell_length_b 14.863353
_cell_length_c 8.341493
_cell_angle_alpha 90.000000
_cell_angle_beta 90.000000
_cell_angle_gamma 90.000000
_cell_volume 1150.391478
_symmetry_space_group_name_H-M "P 21 21 21"
_symmetry_group_IT_number 19
_symmetry_cell_setting 'orthorhombic'
loop_
_space_group_symop_operation_xyz
x,y,z
1/2-x,-y,1/2+z
1/2+x,1/2-y,-z
-x,1/2+y,1/2-z
loop_
_atom_site_type_symbol
_atom_site_label
_atom_site_fract_x
_atom_site_fract_y
_atom_site_fract_z
Si Si1 0.709794 0.090319 0.141671
Si Si2 0.357223 0.321685 0.418591
Si Si3 0.718048 0.665766 0.882936
Si Si4 0.572947 0.992614 0.857301
Si Si5 0.458105 0.261530 0.861163
Si Si6 0.979618 0.649945 0.652845
Si Si7 0.153274 0.084363 0.162689
Si Si8 0.931998 0.374906 0.678508
O O1 0.749526 0.239057 0.475495
O O2 0.827348 0.017350 0.199857
O O3 0.810739 0.178670 0.128159
O O4 0.588247 0.090370 0.279050
O O5 0.642031 0.361804 0.286806
O O6 0.404584 0.400346 0.538402
O O7 0.369512 0.367032 0.242673
O O8 0.445944 0.231900 0.360424
O O9 0.590129 0.683789 0.755579
O O10 0.658342 0.599525 0.018290
O O11 0.412780 0.986996 0.785671
O O12 0.627134 0.067629 0.978336
O O13 0.587024 0.318050 0.779872
O O14 0.508329 0.258155 0.045535
O O15 0.923512 0.584859 0.510740
O O16 0.322948 0.096296 0.178720
#
# Coordination Sequence:
#
# PCOD9313823 Si02
#       8
#     4   4   4   4   4   4   4   4
#     4  11  23  45  67 103 138 194 246 295 347 452
#     4  10  21  36  66  97 135 181 223 300 358 419
#     4  10  20  35  65 103 141 179 233 301 363 422
#     4  11  24  43  67  95 142 192 239 285 366 441
#     4   9  21  38  62  98 144 185 234 285 365 428
#     4  10  21  36  63  98 140 182 229 281 364 426
#     4   9  20  40  62  96 133 179 225 286 361 424
#     4  10  22  41  70 102 139 172 247 301 358 436
#
# _framework density 27.816617999999998
#
# number of rings (size 3 to 8) (size 9 to 14) (size 15 to 20)
#    1.500    0.500    2.500    1.500    3.500    1.000 
#    0.000    5.000    0.000    0.000    0.000    0.000 
#    0.000    0.000    0.000    0.000    0.000    0.000 
#
# Total GULP energy -178343.988777 kJ/mol
# GULP energy per Si atom -5573.249649 kJ/mol
# Density = 2.775331 g / cm^3
# Si number density = 27.816618 Si / 1000 Ang^3
#
#
#
# Elastic Constant Matrix: (Units=GPa)
#
#
# Indices 1 2 3 4 5 6 
#
# 1 128.6417 17.6617 33.8194 0.0000 0.0000 0.0000
# 2 17.6617 92.1317 8.5628 0.0000 0.0000 0.0000
# 3 33.8194 8.5628 132.0572 0.0000 0.0000 0.0000
# 4 0.0000 0.0000 0.0000 21.0472 0.0000 0.0000
# 5 0.0000 0.0000 0.0000 0.0000 60.7106 0.0000
# 6 0.0000 0.0000 0.0000 0.0000 0.0000 23.5430
#
#
#
# Elastic Compliance Matrix: (Units=1/GPa)
#
#
# Indices 1 2 3 4 5 6 
#
# 1 0.008520 -0.001439 -0.002089 0.000000 0.000000 0.000000
# 2 -0.001439 0.011163 -0.000355 0.000000 0.000000 0.000000
# 3 -0.002089 -0.000355 0.008130 0.000000 0.000000 0.000000
# 4 0.000000 0.000000 0.000000 0.047512 0.000000 0.000000
# 5 0.000000 0.000000 0.000000 0.000000 0.016472 0.000000
# 6 0.000000 0.000000 0.000000 0.000000 0.000000 0.042475
#
#
# Mechanical properties :
#
#
# Convention : Reuss Voigt Hill
#
# Bulk Modulus (GPa) = 49.88199 52.54648 51.21424
# Shear Modulus (GPa) = 33.61985 40.57927 37.09956
#
# Velocity S-wave (km/s) = 3.48030 3.82359 3.65597
# Velocity P-wave (km/s) = 5.84135 6.19874 6.02270
#
# Compressibility (1/GPa) = 0.02004731
#
# Stress axis : x y z
#
# Youngs Moduli (GPa) = 117.36771 89.58216 122.99497
#
# Poissons Ratio (x) = 0.12893 0.25690
# Poissons Ratio (y) = 0.16892 0.04369
# Poissons Ratio (z) = 0.24514 0.03182
#
# Static dielectric constant tensor:
#      x y z
#    x 2.143980 0.000000 0.000000 
#    y 0.000000 2.360660 0.000000 
#    z 0.000000 0.000000 2.332160 
# 
# From -- ./inp_files/3252.got.cif
#   From: 2010.05.17/outbox.cif.g08.bks.cpg/sg19_2_cif.got.tgz:3252.got - 2010.06.03 22:46:19.
