data_PCOD9313808
_publ_section_title
;
Structure prediction by ZEFSAII (Michael W. Deem and Ramdas Pophale) SiO2 
 PCOD9313808
Probable space group: P 21 21 21
;
_chemical_formula_sum "Si O2"
_cell_formula_units_Z 32
_cell_length_a 18.779300
_cell_length_b 6.234582
_cell_length_c 12.522469
_cell_angle_alpha 90.000000
_cell_angle_beta 90.000000
_cell_angle_gamma 90.000000
_cell_volume 1466.144267
_symmetry_space_group_name_H-M "P 21 21 21"
_symmetry_group_IT_number 19
_symmetry_cell_setting 'orthorhombic'
loop_
_space_group_symop_operation_xyz
x,y,z
1/2-x,-y,1/2+z
1/2+x,1/2-y,-z
-x,1/2+y,1/2-z
loop_
_atom_site_type_symbol
_atom_site_label
_atom_site_fract_x
_atom_site_fract_y
_atom_site_fract_z
Si Si1 0.576088 0.204303 0.723064
Si Si2 0.208997 0.567171 0.243530
Si Si3 0.174929 0.784194 0.770685
Si Si4 0.302263 0.846271 0.100016
Si Si5 0.923979 0.911128 0.797878
Si Si6 0.848726 0.419616 0.102465
Si Si7 0.017215 0.648589 0.414554
Si Si8 0.927935 0.566112 0.615580
O O1 0.616895 0.416636 0.686777
O O2 0.513980 0.253758 0.805663
O O3 0.633175 0.042981 0.775118
O O4 0.545886 0.084829 0.618734
O O5 0.262322 0.385611 0.287928
O O6 0.242747 0.677899 0.138998
O O7 0.197344 0.746531 0.333736
O O8 0.112261 0.640586 0.719252
O O9 0.140443 0.914497 0.868880
O O10 0.199747 0.959152 0.684584
O O11 0.376906 0.722287 0.118213
O O12 0.303932 0.948290 0.983666
O O13 0.917978 0.776096 0.688721
O O14 0.004185 0.941162 0.835005
O O15 0.915466 0.291793 0.049217
O O16 0.953890 0.631056 0.498882
#
# Coordination Sequence:
#
# PCOD9313808 Si02
#       8
#     4   4   4   4   4   4   4   4
#     4  11  23  47  69  95 139 167 236 292 338 415
#     4  10  24  44  68  96 133 183 223 287 347 410
#     4  10  21  42  61  94 143 170 221 284 332 414
#     4  10  22  42  68  95 129 180 230 267 341 417
#     4  10  20  35  60  99 136 167 212 278 327 410
#     4  11  23  43  73  98 134 184 233 286 352 420
#     4  11  24  41  70 103 129 184 227 289 356 401
#     4  11  21  36  65 100 135 173 220 275 347 399
#
# _framework density 21.825953999999999
#
# number of rings (size 3 to 8) (size 9 to 14) (size 15 to 20)
#    0.000    1.500    2.500    2.250    1.750    4.000 
#    0.000   16.250    0.000    0.000    0.000    0.000 
#    0.000    0.000    0.000    0.000    0.000    0.000 
#
# Total GULP energy -178957.091396 kJ/mol
# GULP energy per Si atom -5592.409106 kJ/mol
# Density = 2.177628 g / cm^3
# Si number density = 21.825954 Si / 1000 Ang^3
#
#
#
# Elastic Constant Matrix: (Units=GPa)
#
#
# Indices 1 2 3 4 5 6 
#
# 1 61.6248 17.2607 17.8434 0.0000 0.0000 0.0000
# 2 17.2607 85.4712 24.3099 0.0000 0.0000 0.0000
# 3 17.8434 24.3099 56.5571 0.0000 0.0000 0.0000
# 4 0.0000 0.0000 0.0000 15.7286 0.0000 0.0000
# 5 0.0000 0.0000 0.0000 0.0000 21.3298 0.0000
# 6 0.0000 0.0000 0.0000 0.0000 0.0000 53.3307
#
#
#
# Elastic Compliance Matrix: (Units=1/GPa)
#
#
# Indices 1 2 3 4 5 6 
#
# 1 0.018258 -0.002334 -0.004757 0.000000 0.000000 0.000000
# 2 -0.002334 0.013628 -0.005121 0.000000 0.000000 0.000000
# 3 -0.004757 -0.005121 0.021383 0.000000 0.000000 0.000000
# 4 0.000000 0.000000 0.000000 0.063579 0.000000 0.000000
# 5 0.000000 0.000000 0.000000 0.000000 0.046883 0.000000
# 6 0.000000 0.000000 0.000000 0.000000 0.000000 0.018751
#
#
# Mechanical properties :
#
#
# Convention : Reuss Voigt Hill
#
# Bulk Modulus (GPa) = 34.66860 35.83123 35.24992
# Shear Modulus (GPa) = 23.09236 27.69374 25.39305
#
# Velocity S-wave (km/s) = 3.25626 3.56595 3.41461
# Velocity P-wave (km/s) = 5.48235 5.77989 5.63308
#
# Compressibility (1/GPa) = 0.02884454
#
# Stress axis : x y z
#
# Youngs Moduli (GPa) = 54.76917 73.37927 46.76539
#
# Poissons Ratio (x) = 0.17128 0.22247
# Poissons Ratio (y) = 0.12784 0.23950
# Poissons Ratio (z) = 0.26054 0.37579
#
# Static dielectric constant tensor:
#      x y z
#    x 1.795410 0.000000 0.000000 
#    y 0.000000 1.794200 0.000000 
#    z 0.000000 0.000000 1.776240 
# 
# From -- ./inp_files/1194.got.cif
#   From: 2010.05.17/outbox.cif.g08.bks.cpg/sg19_1_cif.got.tgz:1194.got - 2010.06.03 22:46:19.
