data_PCOD9313561
_publ_section_title
;
Structure prediction by ZEFSAII (Michael W. Deem and Ramdas Pophale) SiO2 
 PCOD9313561
Probable space group: P 21 21 21
;
_chemical_formula_sum "Si O2"
_cell_formula_units_Z 32
_cell_length_a 25.832776
_cell_length_b 5.028681
_cell_length_c 8.801908
_cell_angle_alpha 90.000000
_cell_angle_beta 90.000000
_cell_angle_gamma 90.000000
_cell_volume 1143.410009
_symmetry_space_group_name_H-M "P 21 21 21"
_symmetry_group_IT_number 19
_symmetry_cell_setting 'orthorhombic'
loop_
_space_group_symop_operation_xyz
x,y,z
1/2-x,-y,1/2+z
1/2+x,1/2-y,-z
-x,1/2+y,1/2-z
loop_
_atom_site_type_symbol
_atom_site_label
_atom_site_fract_x
_atom_site_fract_y
_atom_site_fract_z
Si Si1 0.061918 0.971791 0.707312
Si Si2 0.016520 0.478347 0.545497
Si Si3 0.123116 0.978247 0.095707
Si Si4 0.703178 0.381172 0.679598
Si Si5 0.850181 0.273792 0.973332
Si Si6 0.699451 0.312634 0.124317
Si Si7 0.752943 0.040361 0.386183
Si Si8 0.419096 0.506604 0.768448
O O1 0.027360 0.780794 0.597409
O O2 0.116701 0.839987 0.672883
O O3 0.039424 0.935282 0.876296
O O4 0.052875 0.266552 0.638164
O O5 0.027928 0.456553 0.366099
O O6 0.180548 0.945314 0.179247
O O7 0.144239 0.084023 0.933963
O O8 0.096598 0.222749 0.185099
O O9 0.090486 0.719401 0.140892
O O10 0.659580 0.447175 0.558217
O O11 0.755861 0.466513 0.596447
O O12 0.714027 0.097466 0.750016
O O13 0.796128 0.145150 0.933366
O O14 0.882462 0.097072 0.092829
O O15 0.709041 0.043567 0.026350
O O16 0.717534 0.256327 0.296479
#
# Coordination Sequence:
#
# PCOD9313561 Si02
#       8
#     4   4   4   4   4   4   4   4
#     4   9  17  30  49  82 114 154 184 230 290 351
#     4   9  16  29  52  78 119 149 183 227 292 352
#     4  10  22  34  57  76 112 147 192 232 285 339
#     4   9  20  34  47  74 103 154 188 234 277 335
#     4   9  19  35  52  81 113 154 192 235 293 341
#     4  10  23  37  54  81 106 160 197 251 282 342
#     4  10  22  36  56  75 113 156 201 243 289 339
#     4  10  19  35  53  85 112 152 185 234 290 351
#
# _framework density 27.986462
#
# number of rings (size 3 to 8) (size 9 to 14) (size 15 to 20)
#    0.000    2.500    0.000    2.250   12.250    2.000 
#    6.750    0.000    0.000    0.000    0.000    0.000 
#    3.750    0.000    0.000    0.000    0.000    0.000 
#
# Total GULP energy -178488.424392 kJ/mol
# GULP energy per Si atom -5577.763262 kJ/mol
# Density = 2.792276 g / cm^3
# Si number density = 27.986462 Si / 1000 Ang^3
#
#
#
# Elastic Constant Matrix: (Units=GPa)
#
#
# Indices 1 2 3 4 5 6 
#
# 1 38.3442 -39.6103 -22.9092 0.0000 0.0000 0.0000
# 2 -39.6103 33.6726 5.8499 0.0000 0.0000 0.0000
# 3 -22.9092 5.8499 93.1994 0.0000 0.0000 0.0000
# 4 0.0000 0.0000 0.0000 26.9358 0.0000 0.0000
# 5 0.0000 0.0000 0.0000 0.0000 36.2115 0.0000
# 6 0.0000 0.0000 0.0000 0.0000 0.0000 17.6003
#
#
#
# Elastic Compliance Matrix: (Units=1/GPa)
#
#
# Indices 1 2 3 4 5 6 
#
# 1 -0.090600 -0.103839 -0.015752 0.000000 0.000000 0.000000
# 2 -0.103839 -0.088988 -0.019939 0.000000 0.000000 0.000000
# 3 -0.015752 -0.019939 0.008109 0.000000 0.000000 0.000000
# 4 0.000000 0.000000 0.000000 0.037125 0.000000 0.000000
# 5 0.000000 0.000000 0.000000 0.000000 0.027616 0.000000
# 6 0.000000 0.000000 0.000000 0.000000 0.000000 0.056817
#
#
# Mechanical properties :
#
#
# Convention : Reuss Voigt Hill
#
# Bulk Modulus (GPa) = -2.21956 5.76412 1.77228
# Shear Modulus (GPa) = 63.32274 30.94190 47.13232
#
# Velocity S-wave (km/s) = 4.76186 3.32867 4.10824
# Velocity P-wave (km/s) = 5.42577 4.10335 4.81022
#
# Compressibility (1/GPa) = -0.45053918
#
# Stress axis : x y z
#
# Youngs Moduli (GPa) = -11.03758 -11.23747 123.31758
#
# Poissons Ratio (x) = -1.16689 1.94254
# Poissons Ratio (y) = -1.14613 2.45882
# Poissons Ratio (z) = -0.17387 -0.22406
#
# Static dielectric constant tensor:
#      x y z
#    x 2.299650 0.000000 0.000000 
#    y 0.000000 2.279150 0.000000 
#    z 0.000000 0.000000 2.223070 
# 
# From -- ./inp_files/4397.got.cif
#   From: 2010.05.17/outbox.cif.g08.bks.cpg/sg19_3_cif.got.tgz:4397.got - 2010.06.03 22:46:19.
