data_PCOD9313146
_publ_section_title
;
Structure prediction by ZEFSAII (Michael W. Deem and Ramdas Pophale) SiO2 
 PCOD9313146
Probable space group: P 21 21 2
;
_chemical_formula_sum "Si O2"
_cell_formula_units_Z 20
_cell_length_a 14.034833
_cell_length_b 8.029388
_cell_length_c 8.457195
_cell_angle_alpha 90.000000
_cell_angle_beta 90.000000
_cell_angle_gamma 90.000000
_cell_volume 953.050774
_symmetry_space_group_name_H-M "P 21 21 2"
_symmetry_group_IT_number 18
_symmetry_cell_setting 'orthorhombic'
loop_
_space_group_symop_operation_xyz
x,y,z
-x,-y,z
1/2+x,1/2-y,-z
1/2-x,1/2+y,-z
loop_
_atom_site_type_symbol
_atom_site_label
_atom_site_fract_x
_atom_site_fract_y
_atom_site_fract_z
Si Si1 0.606545 0.014381 0.074117
Si Si2 0.088409 0.093857 0.360342
Si Si3 0.371976 0.867217 0.419728
Si Si4 0.739245 0.245026 0.875169
Si Si5 0.217163 0.024375 0.621336
O O1 0.594866 0.047815 0.260919
O O2 0.500000 0.000000 0.004909
O O3 0.674483 0.853354 0.055821
O O4 0.665637 0.165181 0.997714
O O5 0.061574 0.261599 0.459885
O O6 0.174090 0.143445 0.243293
O O7 0.133063 0.978066 0.498149
O O8 0.000000 0.000000 0.284738
O O9 0.314728 0.993391 0.529087
O O10 0.301040 0.719671 0.358943
O O11 0.781940 0.092341 0.772847
#
# Coordination Sequence:
#
# PCOD9313146 Si02
#       5
#     4   4   4   4   4
#     4  12  26  43  64  97 133 179 220 266 333 392
#     4   9  20  37  65  94 125 164 215 262 330 377
#     4   9  18  38  62  93 123 163 214 268 315 388
#     4  11  24  44  61  95 134 174 213 275 325 389
#     4   9  18  38  65  91 122 168 208 272 331 366
#
# _framework density 20.985239
#
# number of rings (size 3 to 8) (size 9 to 14) (size 15 to 20)
#    1.200    0.800    2.000    1.200    2.800    1.600 
#    3.600    5.000    0.000    0.000    0.000    0.000 
#    0.000    0.000    0.000    0.000    0.000    0.000 
#
# Total GULP energy -111361.771874 kJ/mol
# GULP energy per Si atom -5568.088594 kJ/mol
# Density = 2.093748 g / cm^3
# Si number density = 20.985239 Si / 1000 Ang^3
#
#
#
# Elastic Constant Matrix: (Units=GPa)
#
#
# Indices 1 2 3 4 5 6 
#
# 1 97.1582 40.9828 19.8032 0.0000 0.0000 0.0000
# 2 40.9828 47.0912 2.9373 0.0000 0.0000 0.0000
# 3 19.8032 2.9373 33.3782 0.0000 0.0000 0.0000
# 4 0.0000 0.0000 0.0000 26.9981 0.0000 0.0000
# 5 0.0000 0.0000 0.0000 0.0000 10.7862 0.0000
# 6 0.0000 0.0000 0.0000 0.0000 0.0000 18.5204
#
#
#
# Elastic Compliance Matrix: (Units=1/GPa)
#
#
# Indices 1 2 3 4 5 6 
#
# 1 0.019037 -0.015950 -0.009891 0.000000 0.000000 0.000000
# 2 -0.015950 0.034717 0.006408 0.000000 0.000000 0.000000
# 3 -0.009891 0.006408 0.035264 0.000000 0.000000 0.000000
# 4 0.000000 0.000000 0.000000 0.037040 0.000000 0.000000
# 5 0.000000 0.000000 0.000000 0.000000 0.092711 0.000000
# 6 0.000000 0.000000 0.000000 0.000000 0.000000 0.053994
#
#
# Mechanical properties :
#
#
# Convention : Reuss Voigt Hill
#
# Bulk Modulus (GPa) = 19.93948 33.89712 26.91830
# Shear Modulus (GPa) = 15.22786 18.85457 17.04121
#
# Velocity S-wave (km/s) = 2.69670 3.00070 2.85275
# Velocity P-wave (km/s) = 4.38390 5.30975 4.86888
#
# Compressibility (1/GPa) = 0.05015177
#
# Stress axis : x y z
#
# Youngs Moduli (GPa) = 52.53059 28.80437 28.35761
#
# Poissons Ratio (x) = 0.45944 0.28048
# Poissons Ratio (y) = 0.83788 -0.18172
# Poissons Ratio (z) = 0.51956 -0.18458
#
# Static dielectric constant tensor:
#      x y z
#    x 1.760920 0.000000 0.000000 
#    y 0.000000 1.769040 0.000000 
#    z 0.000000 0.000000 1.780700 
# 
# From -- ./inp_files/3078.got.cif
#   From: 2010.05.17/outbox.cif.g08.bks.cpg/sg18_2_cif.got.tgz:3078.got - 2010.06.03 22:40:56.
