data_PCOD9313536
_publ_section_title
;
Structure prediction by ZEFSAII (Michael W. Deem and Ramdas Pophale) SiO2 
 PCOD9313536
Probable space group: P 21 21 21
;
_chemical_formula_sum "Si O2"
_cell_formula_units_Z 32
_cell_length_a 17.224833
_cell_length_b 9.549811
_cell_length_c 11.204244
_cell_angle_alpha 90.000000
_cell_angle_beta 90.000000
_cell_angle_gamma 90.000000
_cell_volume 1843.029788
_symmetry_space_group_name_H-M "P 21 21 21"
_symmetry_group_IT_number 19
_symmetry_cell_setting 'orthorhombic'
loop_
_space_group_symop_operation_xyz
x,y,z
1/2-x,-y,1/2+z
1/2+x,1/2-y,-z
-x,1/2+y,1/2-z
loop_
_atom_site_type_symbol
_atom_site_label
_atom_site_fract_x
_atom_site_fract_y
_atom_site_fract_z
Si Si1 0.208540 0.572797 0.716130
Si Si2 0.703542 0.583380 0.884696
Si Si3 0.262913 0.283707 0.832051
Si Si4 0.571683 0.319011 0.736386
Si Si5 0.316999 0.769245 0.569828
Si Si6 0.878215 0.045131 0.007120
Si Si7 0.783369 0.768961 0.082159
Si Si8 0.973653 0.427109 0.366405
O O1 0.231887 0.417351 0.757424
O O2 0.274657 0.636691 0.629202
O O3 0.132967 0.579269 0.632543
O O4 0.215440 0.671673 0.832013
O O5 0.716956 0.657794 0.757322
O O6 0.720840 0.417629 0.889626
O O7 0.612191 0.594437 0.917119
O O8 0.752516 0.667921 0.981058
O O9 0.197757 0.242324 0.929398
O O10 0.338097 0.337439 0.907972
O O11 0.598028 0.273506 0.870549
O O12 0.650852 0.307259 0.661087
O O13 0.538937 0.473140 0.751892
O O14 0.511054 0.216356 0.676849
O O15 0.825694 0.906412 0.029565
O O16 0.964123 0.004640 0.049079
#
# Coordination Sequence:
#
# PCOD9313536 Si02
#       8
#     4   4   4   4   4   4   4   4
#     4   9  17  34  54  77 104 141 187 224 268 312
#     4  11  21  33  55  85 113 141 185 225 284 324
#     4  10  19  33  57  84 104 147 184 226 270 323
#     4   9  19  37  53  81 111 143 173 230 274 324
#     4   9  21  32  53  83 112 138 180 230 270 317
#     4   9  17  34  54  80 107 137 185 227 265 321
#     4   9  18  32  55  80 110 139 182 229 263 325
#     4  10  20  33  55  78 111 142 176 227 278 326
#
# _framework density 17.362712999999999
#
# number of rings (size 3 to 8) (size 9 to 14) (size 15 to 20)
#    0.000    2.500    1.250    1.500    5.250    0.000 
#    0.000    0.000    5.500    0.000    0.000    0.000 
#    0.000    0.000    0.000    0.000    0.000    0.000 
#
# Total GULP energy -178183.164757 kJ/mol
# GULP energy per Si atom -5568.223899 kJ/mol
# Density = 1.732319 g / cm^3
# Si number density = 17.362713 Si / 1000 Ang^3
#
#
#
# Elastic Constant Matrix: (Units=GPa)
#
#
# Indices 1 2 3 4 5 6 
#
# 1 52.3657 3.3316 17.5143 0.0000 0.0000 0.0000
# 2 3.3316 66.8904 20.1225 0.0000 0.0000 0.0000
# 3 17.5143 20.1225 64.5083 0.0000 0.0000 0.0000
# 4 0.0000 0.0000 0.0000 30.3198 0.0000 0.0000
# 5 0.0000 0.0000 0.0000 0.0000 13.7839 0.0000
# 6 0.0000 0.0000 0.0000 0.0000 0.0000 20.2553
#
#
#
# Elastic Compliance Matrix: (Units=1/GPa)
#
#
# Indices 1 2 3 4 5 6 
#
# 1 0.021037 0.000740 -0.005942 0.000000 0.000000 0.000000
# 2 0.000740 0.016524 -0.005355 0.000000 0.000000 0.000000
# 3 -0.005942 -0.005355 0.018786 0.000000 0.000000 0.000000
# 4 0.000000 0.000000 0.000000 0.032982 0.000000 0.000000
# 5 0.000000 0.000000 0.000000 0.000000 0.072548 0.000000
# 6 0.000000 0.000000 0.000000 0.000000 0.000000 0.049370
#
#
# Mechanical properties :
#
#
# Convention : Reuss Voigt Hill
#
# Bulk Modulus (GPa) = 28.38410 29.52236 28.95323
# Shear Modulus (GPa) = 20.48291 22.39153 21.43722
#
# Velocity S-wave (km/s) = 3.43841 3.59504 3.51760
# Velocity P-wave (km/s) = 5.66981 5.85429 5.76279
#
# Compressibility (1/GPa) = 0.03523099
#
# Stress axis : x y z
#
# Youngs Moduli (GPa) = 47.53547 60.51796 53.23171
#
# Poissons Ratio (x) = -0.04478 0.31633
# Poissons Ratio (y) = -0.03517 0.28507
# Poissons Ratio (z) = 0.28248 0.32409
#
# Static dielectric constant tensor:
#      x y z
#    x 1.583390 0.000000 0.000000 
#    y 0.000000 1.604220 0.000000 
#    z 0.000000 0.000000 1.615030 
# 
# From -- ./inp_files/3745.got.cif
#   From: 2010.05.17/outbox.cif.g08.bks.cpg/sg19_2_cif.got.tgz:3745.got - 2010.06.03 22:46:19.
