data_PCOD9313533
_publ_section_title
;
Structure prediction by ZEFSAII (Michael W. Deem and Ramdas Pophale) SiO2 
 PCOD9313533
Probable space group: P 21 21 21
;
_chemical_formula_sum "Si O2"
_cell_formula_units_Z 32
_cell_length_a 6.892563
_cell_length_b 19.624705
_cell_length_c 8.503479
_cell_angle_alpha 90.000000
_cell_angle_beta 90.000000
_cell_angle_gamma 90.000000
_cell_volume 1150.218968
_symmetry_space_group_name_H-M "P 21 21 21"
_symmetry_group_IT_number 19
_symmetry_cell_setting 'orthorhombic'
loop_
_space_group_symop_operation_xyz
x,y,z
1/2-x,-y,1/2+z
1/2+x,1/2-y,-z
-x,1/2+y,1/2-z
loop_
_atom_site_type_symbol
_atom_site_label
_atom_site_fract_x
_atom_site_fract_y
_atom_site_fract_z
Si Si1 0.921411 0.925363 0.331931
Si Si2 0.902673 0.680630 0.682301
Si Si3 0.392000 0.603601 0.226158
Si Si4 0.557203 0.441561 0.729851
Si Si5 0.513686 0.465008 0.093299
Si Si6 0.898452 0.685969 0.030673
Si Si7 0.840781 0.833521 0.073828
Si Si8 0.829290 0.801293 0.468525
O O1 0.719333 0.946416 0.414753
O O2 0.869197 0.908568 0.151726
O O3 0.980054 0.846990 0.367513
O O4 0.069318 0.986007 0.358579
O O5 0.893404 0.599323 0.680403
O O6 0.814638 0.698415 0.853983
O O7 0.134767 0.691748 0.638081
O O8 0.826476 0.725605 0.535966
O O9 0.172662 0.575176 0.216922
O O10 0.518336 0.534638 0.196388
O O11 0.367176 0.653128 0.375056
O O12 0.453063 0.655400 0.089045
O O13 0.652135 0.377201 0.644059
O O14 0.590423 0.457610 0.913865
O O15 0.116776 0.670659 0.974521
O O16 0.887438 0.756290 0.125510
#
# Coordination Sequence:
#
# PCOD9313533 Si02
#       8
#     4   4   4   4   4   4   4   4
#     4  10  20  33  55  88 117 150 197 249 288 349
#     4  11  23  40  56  94 121 160 195 252 297 362
#     4  10  19  33  56  85 115 154 191 247 295 345
#     4  10  20  33  57  87 116 150 194 255 294 339
#     4  10  19  33  56  86 118 144 198 252 298 336
#     4  11  24  38  60  88 125 156 203 242 306 354
#     4  11  21  39  57  87 120 159 196 243 295 358
#     4  11  22  37  61  87 126 155 198 242 307 349
#
# _framework density 27.820792000000001
#
# number of rings (size 3 to 8) (size 9 to 14) (size 15 to 20)
#    0.000    1.500    7.500    0.000    3.500    0.000 
#    0.000    0.000    0.000    1.500    0.000    0.000 
#    0.000    0.000    0.000    0.000    0.000    0.000 
#
# Total GULP energy -178244.945852 kJ/mol
# GULP energy per Si atom -5570.154558 kJ/mol
# Density = 2.775747 g / cm^3
# Si number density = 27.820792 Si / 1000 Ang^3
#
#
#
# Elastic Constant Matrix: (Units=GPa)
#
#
# Indices 1 2 3 4 5 6 
#
# 1 62.5303 32.8591 13.0901 0.0000 0.0000 0.0000
# 2 32.8591 161.9704 34.7195 0.0000 0.0000 0.0000
# 3 13.0901 34.7195 103.8363 0.0000 0.0000 0.0000
# 4 0.0000 0.0000 0.0000 41.4372 0.0000 0.0000
# 5 0.0000 0.0000 0.0000 0.0000 28.4593 0.0000
# 6 0.0000 0.0000 0.0000 0.0000 0.0000 44.4084
#
#
#
# Elastic Compliance Matrix: (Units=1/GPa)
#
#
# Indices 1 2 3 4 5 6 
#
# 1 0.018023 -0.003414 -0.001131 0.000000 0.000000 0.000000
# 2 -0.003414 0.007297 -0.002010 0.000000 0.000000 0.000000
# 3 -0.001131 -0.002010 0.010445 0.000000 0.000000 0.000000
# 4 0.000000 0.000000 0.000000 0.024133 0.000000 0.000000
# 5 0.000000 0.000000 0.000000 0.000000 0.035138 0.000000
# 6 0.000000 0.000000 0.000000 0.000000 0.000000 0.022518
#
#
# Mechanical properties :
#
#
# Convention : Reuss Voigt Hill
#
# Bulk Modulus (GPa) = 44.13647 54.40830 49.27239
# Shear Modulus (GPa) = 36.17553 39.37219 37.77386
#
# Velocity S-wave (km/s) = 3.60989 3.76601 3.68877
# Velocity P-wave (km/s) = 5.76837 6.20561 5.99098
#
# Compressibility (1/GPa) = 0.02265700
#
# Stress axis : x y z
#
# Youngs Moduli (GPa) = 55.48489 137.03620 95.73950
#
# Poissons Ratio (x) = 0.46784 0.10824
# Poissons Ratio (y) = 0.18943 0.19240
# Poissons Ratio (z) = 0.06273 0.27539
#
# Static dielectric constant tensor:
#      x y z
#    x 2.455140 0.000000 0.000000 
#    y 0.000000 2.263420 0.000000 
#    z 0.000000 0.000000 2.629190 
# 
# From -- ./inp_files/3743.got.cif
#   From: 2010.05.17/outbox.cif.g08.bks.cpg/sg19_2_cif.got.tgz:3743.got - 2010.06.03 22:46:19.
