data_PCOD9313090
_publ_section_title
;
Structure prediction by ZEFSAII (Michael W. Deem and Ramdas Pophale) SiO2 
 PCOD9313090
Probable space group: P 21 21 2
;
_chemical_formula_sum "Si O2"
_cell_formula_units_Z 18
_cell_length_a 9.371844
_cell_length_b 13.888181
_cell_length_c 5.079613
_cell_angle_alpha 90.000000
_cell_angle_beta 90.000000
_cell_angle_gamma 90.000000
_cell_volume 661.151587
_symmetry_space_group_name_H-M "P 21 21 2"
_symmetry_group_IT_number 18
_symmetry_cell_setting 'orthorhombic'
loop_
_space_group_symop_operation_xyz
x,y,z
-x,-y,z
1/2+x,1/2-y,-z
1/2-x,1/2+y,-z
loop_
_atom_site_type_symbol
_atom_site_label
_atom_site_fract_x
_atom_site_fract_y
_atom_site_fract_z
Si Si1 0.431869 0.125823 0.652562
Si Si2 0.500000 0.500000 0.589591
Si Si3 0.760679 0.423863 0.829941
Si Si4 0.473491 0.300416 0.320625
Si Si5 0.682353 0.213936 0.925520
O O1 0.382751 0.070724 0.391382
O O2 0.410464 0.236699 0.559024
O O3 0.590828 0.133609 0.771021
O O4 0.332797 0.087389 0.887004
O O5 0.641668 0.502351 0.768586
O O6 0.512122 0.406841 0.405634
O O7 0.848401 0.192140 0.895950
O O8 0.678219 0.321328 0.798291
O O9 0.600269 0.235388 0.197708
#
# Coordination Sequence:
#
# PCOD9313090 Si02
#       5
#     4   2   4   4   4
#     4  11  22  44  73 108 149 210 259 310 372 508
#     4  12  26  48  76 124 164 200 260 360 404 454
#     4  11  25  42  75 113 157 197 263 318 395 461
#     4  11  26  45  81 118 160 206 278 325 409 462
#     4  11  22  44  78 110 150 217 266 313 375 508
#
# _framework density 27.225223
#
# number of rings (size 3 to 8) (size 9 to 14) (size 15 to 20)
#    0.000    0.889    6.667    1.333    3.111    3.556 
#    0.000    1.111    0.000    5.333    0.000    0.000 
#    0.000    0.000    0.000    0.000    0.000    0.000 
#
# Total GULP energy -100738.044988 kJ/mol
# GULP energy per Si atom -5596.558055 kJ/mol
# Density = 2.716326 g / cm^3
# Si number density = 27.225223 Si / 1000 Ang^3
#
#
#
# Elastic Constant Matrix: (Units=GPa)
#
#
# Indices 1 2 3 4 5 6 
#
# 1 112.8254 27.7613 60.3460 0.0000 0.0000 0.0000
# 2 27.7613 98.1948 52.8424 0.0000 0.0000 0.0000
# 3 60.3460 52.8424 191.7077 0.0000 0.0000 0.0000
# 4 0.0000 0.0000 0.0000 13.8639 0.0000 0.0000
# 5 0.0000 0.0000 0.0000 0.0000 22.8843 0.0000
# 6 0.0000 0.0000 0.0000 0.0000 0.0000 35.5996
#
#
#
# Elastic Compliance Matrix: (Units=1/GPa)
#
#
# Indices 1 2 3 4 5 6 
#
# 1 0.010828 -0.001441 -0.003011 0.000000 0.000000 0.000000
# 2 -0.001441 0.012149 -0.002895 0.000000 0.000000 0.000000
# 3 -0.003011 -0.002895 0.006962 0.000000 0.000000 0.000000
# 4 0.000000 0.000000 0.000000 0.072130 0.000000 0.000000
# 5 0.000000 0.000000 0.000000 0.000000 0.043698 0.000000
# 6 0.000000 0.000000 0.000000 0.000000 0.000000 0.028090
#
#
# Mechanical properties :
#
#
# Convention : Reuss Voigt Hill
#
# Bulk Modulus (GPa) = 65.59566 76.06969 70.83268
# Shear Modulus (GPa) = 25.82180 31.92142 28.87161
#
# Velocity S-wave (km/s) = 3.08303 3.42789 3.26002
# Velocity P-wave (km/s) = 6.06791 6.60823 6.34382
#
# Compressibility (1/GPa) = 0.01524491
#
# Stress axis : x y z
#
# Youngs Moduli (GPa) = 92.34894 82.30967 143.63105
#
# Poissons Ratio (x) = 0.11859 0.43254
# Poissons Ratio (y) = 0.13306 0.41585
# Poissons Ratio (z) = 0.27811 0.23831
#
# Static dielectric constant tensor:
#      x y z
#    x 2.166230 0.000000 0.000000 
#    y 0.000000 2.174220 0.000000 
#    z 0.000000 0.000000 2.178930 
# 
# From -- ./inp_files/1085.got.cif
#   From: 2010.05.17/outbox.cif.g08.bks.cpg/sg18_1_cif.got.tgz:1085.got - 2010.06.03 22:40:56.
