data_PCOD9313331
_publ_section_title
;
Structure prediction by ZEFSAII (Michael W. Deem and Ramdas Pophale) SiO2 
 PCOD9313331
Probable space group: P 21 21 21
;
_chemical_formula_sum "Si O2"
_cell_formula_units_Z 28
_cell_length_a 16.969062
_cell_length_b 5.300281
_cell_length_c 12.812566
_cell_angle_alpha 90.000000
_cell_angle_beta 90.000000
_cell_angle_gamma 90.000000
_cell_volume 1152.372396
_symmetry_space_group_name_H-M "P 21 21 21"
_symmetry_group_IT_number 19
_symmetry_cell_setting 'orthorhombic'
loop_
_space_group_symop_operation_xyz
x,y,z
1/2-x,-y,1/2+z
1/2+x,1/2-y,-z
-x,1/2+y,1/2-z
loop_
_atom_site_type_symbol
_atom_site_label
_atom_site_fract_x
_atom_site_fract_y
_atom_site_fract_z
Si Si1 0.481847 0.786478 0.302907
Si Si2 0.598765 0.528378 0.833218
Si Si3 0.347253 0.524935 0.640914
Si Si4 0.661287 0.521293 0.076748
Si Si5 0.249549 0.519803 0.446465
Si Si6 0.511841 0.503774 0.513299
Si Si7 0.070788 0.499051 0.398769
O O1 0.468962 0.538205 0.229587
O O2 0.515613 0.633018 0.401408
O O3 0.402708 0.923343 0.341989
O O4 0.638083 0.274459 0.793018
O O5 0.639797 0.777499 0.791479
O O6 0.624883 0.519130 0.957822
O O7 0.504662 0.538088 0.819993
O O8 0.269192 0.510651 0.571595
O O9 0.423381 0.518564 0.561722
O O10 0.727313 0.305659 0.079814
O O11 0.692819 0.801236 0.097693
O O12 0.163092 0.455529 0.410269
O O13 0.539870 0.217397 0.518763
O O14 0.561487 0.701989 0.579983
#
# Coordination Sequence:
#
# PCOD9313331 Si02
#       7
#     4   4   4   4   4   4   4
#     4  12  22  30  48  64  80 126 170 196 218 236
#     4   8  14  24  40  49  77 109 129 168 217 229
#     4   8  14  24  40  49  77 109 129 168 217 229
#     4  10  18  32  40  59  90 111 145 205 201 256
#     4  10  17  26  44  61  79 111 148 179 231 268
#     4  10  18  32  40  59  90 111 145 205 201 256
#     4  10  17  26  44  61  79 111 148 179 231 268
#
# _framework density 24.297701
#
# number of rings (size 3 to 8) (size 9 to 14) (size 15 to 20)
#    0.000    2.286    4.286    2.571    2.000    0.000 
#    0.000    0.000    0.000    0.000    0.000    0.000 
#    0.000    0.000    0.000    0.000    0.000  720.000 
#
# Total GULP energy -156033.886168 kJ/mol
# GULP energy per Si atom -5572.638792 kJ/mol
# Density = 2.424240 g / cm^3
# Si number density = 24.297701 Si / 1000 Ang^3
#
#
#
# Elastic Constant Matrix: (Units=GPa)
#
#
# Indices 1 2 3 4 5 6 
#
# 1 99.9767 28.5383 33.3327 0.0000 0.0000 0.0000
# 2 28.5383 178.7574 16.4287 0.0000 0.0000 0.0000
# 3 33.3327 16.4287 60.8308 0.0000 0.0000 0.0000
# 4 0.0000 0.0000 0.0000 25.6053 0.0000 0.0000
# 5 0.0000 0.0000 0.0000 0.0000 14.1328 0.0000
# 6 0.0000 0.0000 0.0000 0.0000 0.0000 23.0695
#
#
#
# Elastic Compliance Matrix: (Units=1/GPa)
#
#
# Indices 1 2 3 4 5 6 
#
# 1 0.012575 -0.001409 -0.006510 0.000000 0.000000 0.000000
# 2 -0.001409 0.005894 -0.000820 0.000000 0.000000 0.000000
# 3 -0.006510 -0.000820 0.020228 0.000000 0.000000 0.000000
# 4 0.000000 0.000000 0.000000 0.039054 0.000000 0.000000
# 5 0.000000 0.000000 0.000000 0.000000 0.070757 0.000000
# 6 0.000000 0.000000 0.000000 0.000000 0.000000 0.043347
#
#
# Mechanical properties :
#
#
# Convention : Reuss Voigt Hill
#
# Bulk Modulus (GPa) = 47.12715 55.12940 51.12828
# Shear Modulus (GPa) = 23.10459 29.97921 26.54190
#
# Velocity S-wave (km/s) = 3.08701 3.51640 3.30868
# Velocity P-wave (km/s) = 5.66957 6.26300 5.97366
#
# Compressibility (1/GPa) = 0.02121919
#
# Stress axis : x y z
#
# Youngs Moduli (GPa) = 79.52239 169.64971 49.43736
#
# Poissons Ratio (x) = 0.23909 0.32184
# Poissons Ratio (y) = 0.11207 0.04052
# Poissons Ratio (z) = 0.51769 0.13906
#
# Static dielectric constant tensor:
#      x y z
#    x 1.955860 0.000000 0.000000 
#    y 0.000000 2.051650 0.000000 
#    z 0.000000 0.000000 2.094590 
# 
# From -- ./inp_files/5728.got.cif
#   From: 2010.05.17/outbox.cif.g08.bks.cpg/sg19_3_cif.got.tgz:5728.got - 2010.06.03 22:46:19.
