data_PCOD9313913
_publ_section_title
;
Structure prediction by ZEFSAII (Michael W. Deem and Ramdas Pophale) SiO2 
 PCOD9313913
Probable space group: P 21 21 21
;
_chemical_formula_sum "Si O2"
_cell_formula_units_Z 32
_cell_length_a 14.851807
_cell_length_b 17.773400
_cell_length_c 5.586511
_cell_angle_alpha 90.000000
_cell_angle_beta 90.000000
_cell_angle_gamma 90.000000
_cell_volume 1474.655144
_symmetry_space_group_name_H-M "P 21 21 21"
_symmetry_group_IT_number 19
_symmetry_cell_setting 'orthorhombic'
loop_
_space_group_symop_operation_xyz
x,y,z
1/2-x,-y,1/2+z
1/2+x,1/2-y,-z
-x,1/2+y,1/2-z
loop_
_atom_site_type_symbol
_atom_site_label
_atom_site_fract_x
_atom_site_fract_y
_atom_site_fract_z
Si Si1 0.134871 0.552791 0.401231
Si Si2 0.531757 0.066181 0.299442
Si Si3 0.586798 0.636610 0.848030
Si Si4 0.241646 0.283809 0.357056
Si Si5 0.646583 0.523802 0.464906
Si Si6 0.164743 0.417814 0.084349
Si Si7 0.854079 0.214223 0.141955
Si Si8 0.733836 0.377796 0.651363
O O1 0.090869 0.503494 0.609120
O O2 0.130080 0.497941 0.176857
O O3 0.239935 0.567644 0.455857
O O4 0.093883 0.634937 0.362123
O O5 0.503027 0.123833 0.505159
O O6 0.436238 0.032434 0.215275
O O7 0.588250 0.108720 0.096934
O O8 0.607057 0.561035 0.702499
O O9 0.589320 0.710325 0.684685
O O10 0.672335 0.643510 0.022661
O O11 0.186881 0.359387 0.295463
O O12 0.287464 0.291243 0.621856
O O13 0.189101 0.204171 0.332850
O O14 0.307762 0.279231 0.120993
O O15 0.679090 0.439263 0.502218
O O16 0.731120 0.576172 0.383722
#
# Coordination Sequence:
#
# PCOD9313913 Si02
#       8
#     4   4   4   4   4   4   4   4
#     4  11  22  41  71  97 133 179 237 283 344 418
#     4  11  25  40  68 101 136 185 232 294 351 408
#     4  10  21  41  66  98 139 175 227 284 350 420
#     4  10  22  39  70 106 132 171 238 286 339 417
#     4  11  20  39  69  97 136 178 228 285 347 423
#     4  11  22  41  71  97 134 181 233 288 346 408
#     4  10  22  40  72 103 131 179 228 284 346 418
#     4  10  20  37  71 101 129 182 227 280 349 418
#
# _framework density 21.69999
#
# number of rings (size 3 to 8) (size 9 to 14) (size 15 to 20)
#    0.000    1.500    3.750    1.500    3.500    0.000 
#    0.000    0.000   16.500    0.000    0.000    0.000 
#    0.000    0.000    0.000    0.000    0.000    0.000 
#
# Total GULP energy -178502.907145 kJ/mol
# GULP energy per Si atom -5578.215848 kJ/mol
# Density = 2.165060 g / cm^3
# Si number density = 21.699990 Si / 1000 Ang^3
#
#
#
# Elastic Constant Matrix: (Units=GPa)
#
#
# Indices 1 2 3 4 5 6 
#
# 1 58.3585 -3.0316 10.9178 0.0000 0.0000 0.0000
# 2 -3.0316 91.4110 -3.6749 0.0000 0.0000 0.0000
# 3 10.9178 -3.6749 78.2131 0.0000 0.0000 0.0000
# 4 0.0000 0.0000 0.0000 25.3824 0.0000 0.0000
# 5 0.0000 0.0000 0.0000 0.0000 39.2672 0.0000
# 6 0.0000 0.0000 0.0000 0.0000 0.0000 5.2781
#
#
#
# Elastic Compliance Matrix: (Units=1/GPa)
#
#
# Indices 1 2 3 4 5 6 
#
# 1 0.017616 0.000486 -0.002436 0.000000 0.000000 0.000000
# 2 0.000486 0.010974 0.000448 0.000000 0.000000 0.000000
# 3 -0.002436 0.000448 0.013147 0.000000 0.000000 0.000000
# 4 0.000000 0.000000 0.000000 0.039397 0.000000 0.000000
# 5 0.000000 0.000000 0.000000 0.000000 0.025467 0.000000
# 6 0.000000 0.000000 0.000000 0.000000 0.000000 0.189461
#
#
# Mechanical properties :
#
#
# Convention : Reuss Voigt Hill
#
# Bulk Modulus (GPa) = 25.81812 26.26724 26.04268
# Shear Modulus (GPa) = 16.02681 28.90364 22.46522
#
# Velocity S-wave (km/s) = 2.72060 3.65357 3.22104
# Velocity P-wave (km/s) = 4.66824 5.47075 5.08535
#
# Compressibility (1/GPa) = 0.03873249
#
# Stress axis : x y z
#
# Youngs Moduli (GPa) = 56.76497 91.12674 76.06476
#
# Poissons Ratio (x) = -0.04432 0.18531
# Poissons Ratio (y) = -0.02761 -0.03406
# Poissons Ratio (z) = 0.13829 -0.04080
#
# Static dielectric constant tensor:
#      x y z
#    x 1.838850 0.000000 0.000000 
#    y 0.000000 1.811110 0.000000 
#    z 0.000000 0.000000 1.874650 
# 
# From -- ./inp_files/1592.got.cif
#   From: 2010.05.17/outbox.cif.g08.bks.cpg/sg19_1_cif.got.tgz:1592.got - 2010.06.03 22:46:19.
