data_PCOD9313233
_publ_section_title
;
Structure prediction by ZEFSAII (Michael W. Deem and Ramdas Pophale) SiO2 
 PCOD9313233
Probable space group: P 21 21 2
;
_chemical_formula_sum "Si O2"
_cell_formula_units_Z 20
_cell_length_a 11.235291
_cell_length_b 13.466552
_cell_length_c 4.639238
_cell_angle_alpha 90.000000
_cell_angle_beta 90.000000
_cell_angle_gamma 90.000000
_cell_volume 701.919634
_symmetry_space_group_name_H-M "P 21 21 2"
_symmetry_group_IT_number 18
_symmetry_cell_setting 'orthorhombic'
loop_
_space_group_symop_operation_xyz
x,y,z
-x,-y,z
1/2+x,1/2-y,-z
1/2-x,1/2+y,-z
loop_
_atom_site_type_symbol
_atom_site_label
_atom_site_fract_x
_atom_site_fract_y
_atom_site_fract_z
Si Si1 0.178990 0.248201 0.026826
Si Si2 0.990996 0.711590 0.543114
Si Si3 0.500000 0.000000 0.742553
Si Si4 0.756066 0.972990 0.837824
Si Si5 0.336852 0.365981 0.611733
Si Si6 0.500000 0.500000 0.837324
O O1 0.054773 0.267037 0.860967
O O2 0.234445 0.144893 0.913883
O O3 0.266844 0.332051 0.897377
O O4 0.128645 0.259742 0.351166
O O5 0.010166 0.598267 0.451169
O O6 0.120901 0.763905 0.536116
O O7 0.621903 0.001186 0.922299
O O8 0.772851 0.039588 0.541547
O O9 0.881749 0.998730 0.982939
O O10 0.474071 0.404869 0.647965
#
# Coordination Sequence:
#
# PCOD9313233 Si02
#       6
#     4   4   2   4   4   2
#     4  12  27  50  78 114 162 213 268 336 404 483
#     4  12  27  51  77 115 163 209 270 333 410 480
#     4  12  26  52  78 120 162 210 266 346 410 480
#     4  12  26  50  79 114 159 210 274 332 405 485
#     4  12  26  47  78 114 156 216 268 334 404 489
#     4  12  24  48  78 108 152 212 270 328 396 496
#
# _framework density 28.493292
#
# number of rings (size 3 to 8) (size 9 to 14) (size 15 to 20)
#    0.000    0.000    6.000    4.200    0.000    0.800 
#    3.600    0.000    0.000    0.000    0.000    0.000 
#    0.000    0.000    0.000    0.000    0.000    0.000 
#
# Total GULP energy -111661.473653 kJ/mol
# GULP energy per Si atom -5583.073683 kJ/mol
# Density = 2.842844 g / cm^3
# Si number density = 28.493292 Si / 1000 Ang^3
#
#
#
# Elastic Constant Matrix: (Units=GPa)
#
#
# Indices 1 2 3 4 5 6 
#
# 1 192.2287 58.5737 24.3714 0.0000 0.0000 0.0000
# 2 58.5737 162.2377 22.4930 0.0000 0.0000 0.0000
# 3 24.3714 22.4930 74.8190 0.0000 0.0000 0.0000
# 4 0.0000 0.0000 0.0000 22.8698 0.0000 0.0000
# 5 0.0000 0.0000 0.0000 0.0000 28.1123 0.0000
# 6 0.0000 0.0000 0.0000 0.0000 0.0000 55.2755
#
#
#
# Elastic Compliance Matrix: (Units=1/GPa)
#
#
# Indices 1 2 3 4 5 6 
#
# 1 0.005974 -0.001969 -0.001354 0.000000 0.000000 0.000000
# 2 -0.001969 0.007081 -0.001487 0.000000 0.000000 0.000000
# 3 -0.001354 -0.001487 0.014254 0.000000 0.000000 0.000000
# 4 0.000000 0.000000 0.000000 0.043726 0.000000 0.000000
# 5 0.000000 0.000000 0.000000 0.000000 0.035572 0.000000
# 6 0.000000 0.000000 0.000000 0.000000 0.000000 0.018091
#
#
# Mechanical properties :
#
#
# Convention : Reuss Voigt Hill
#
# Bulk Modulus (GPa) = 56.53617 71.12907 63.83262
# Shear Modulus (GPa) = 35.65990 42.84135 39.25062
#
# Velocity S-wave (km/s) = 3.54152 3.88178 3.71555
# Velocity P-wave (km/s) = 6.05047 6.71629 6.39206
#
# Compressibility (1/GPa) = 0.01768779
#
# Stress axis : x y z
#
# Youngs Moduli (GPa) = 167.39836 141.22492 70.15693
#
# Poissons Ratio (x) = 0.27808 0.09499
# Poissons Ratio (y) = 0.32961 0.10435
# Poissons Ratio (z) = 0.22665 0.21005
#
# Static dielectric constant tensor:
#      x y z
#    x 2.208030 0.000000 0.000000 
#    y 0.000000 2.805330 0.000000 
#    z 0.000000 0.000000 2.345400 
# 
# From -- ./inp_files/991.got.cif
#   From: 2010.05.17/outbox.cif.g08.bks.cpg/sg18_1_cif.got.tgz:991.got - 2010.06.03 22:40:56.
