data_PCOD9313939
_publ_section_title
;
Structure prediction by ZEFSAII (Michael W. Deem and Ramdas Pophale) SiO2 
 PCOD9313939
Probable space group: P 21 21 21
;
_chemical_formula_sum "Si O2"
_cell_formula_units_Z 32
_cell_length_a 23.555879
_cell_length_b 10.870604
_cell_length_c 5.222233
_cell_angle_alpha 90.000000
_cell_angle_beta 90.000000
_cell_angle_gamma 90.000000
_cell_volume 1337.239618
_symmetry_space_group_name_H-M "P 21 21 21"
_symmetry_group_IT_number 19
_symmetry_cell_setting 'orthorhombic'
loop_
_space_group_symop_operation_xyz
x,y,z
1/2-x,-y,1/2+z
1/2+x,1/2-y,-z
-x,1/2+y,1/2-z
loop_
_atom_site_type_symbol
_atom_site_label
_atom_site_fract_x
_atom_site_fract_y
_atom_site_fract_z
Si Si1 0.945877 0.659100 0.478646
Si Si2 0.668242 0.656953 0.752858
Si Si3 0.344345 0.898038 0.910959
Si Si4 0.714651 0.966399 0.321579
Si Si5 0.559230 0.739259 0.634842
Si Si6 0.240333 0.227254 0.093684
Si Si7 0.638401 0.177884 0.189947
Si Si8 0.079541 0.905294 0.876041
O O1 0.898987 0.629850 0.264687
O O2 0.008772 0.664903 0.370136
O O3 0.924909 0.788901 0.599744
O O4 0.937983 0.545565 0.672489
O O5 0.653228 0.545090 0.554193
O O6 0.624869 0.770401 0.700080
O O7 0.730985 0.691174 0.674451
O O8 0.644982 0.605813 0.021543
O O9 0.284286 0.882316 0.760669
O O10 0.346350 0.792992 0.125108
O O11 0.714936 0.819636 0.275809
O O12 0.741906 0.986146 0.601952
O O13 0.657191 0.046375 0.300383
O O14 0.547728 0.641523 0.863346
O O15 0.561999 0.681779 0.353143
O O16 0.182355 0.302982 0.044153
#
# Coordination Sequence:
#
# PCOD9313939 Si02
#       8
#     4   4   4   4   4   4   4   4
#     4  10  22  40  67  90 124 168 212 261 322 380
#     4   9  22  38  60  94 129 159 213 262 322 375
#     4  10  20  38  62  93 126 168 213 261 315 385
#     4  10  20  40  58  84 127 162 205 250 304 366
#     4  10  22  42  64  89 125 163 204 261 315 373
#     4  10  21  37  59  95 125 174 201 265 315 378
#     4  10  21  35  64  89 123 169 216 253 314 379
#     4   9  22  42  62  90 127 157 202 267 313 372
#
# _framework density 23.929891999999999
#
# number of rings (size 3 to 8) (size 9 to 14) (size 15 to 20)
#    0.750    1.500    1.250    0.750    3.500    1.000 
#    2.250    0.000    0.000    0.000    0.000    0.000 
#    0.000    0.000    0.000    0.000    0.000    0.000 
#
# Total GULP energy -178180.250072 kJ/mol
# GULP energy per Si atom -5568.132815 kJ/mol
# Density = 2.387543 g / cm^3
# Si number density = 23.929892 Si / 1000 Ang^3
#
#
#
# Elastic Constant Matrix: (Units=GPa)
#
#
# Indices 1 2 3 4 5 6 
#
# 1 76.7375 -1.7812 5.1877 0.0000 0.0000 0.0000
# 2 -1.7812 30.9306 -3.0807 0.0000 0.0000 0.0000
# 3 5.1877 -3.0807 80.9227 0.0000 0.0000 0.0000
# 4 0.0000 0.0000 0.0000 26.2001 0.0000 0.0000
# 5 0.0000 0.0000 0.0000 0.0000 16.2792 0.0000
# 6 0.0000 0.0000 0.0000 0.0000 0.0000 34.1911
#
#
#
# Elastic Compliance Matrix: (Units=1/GPa)
#
#
# Indices 1 2 3 4 5 6 
#
# 1 0.013102 0.000673 -0.000814 0.000000 0.000000 0.000000
# 2 0.000673 0.032488 0.001194 0.000000 0.000000 0.000000
# 3 -0.000814 0.001194 0.012455 0.000000 0.000000 0.000000
# 4 0.000000 0.000000 0.000000 0.038168 0.000000 0.000000
# 5 0.000000 0.000000 0.000000 0.000000 0.061428 0.000000
# 6 0.000000 0.000000 0.000000 0.000000 0.000000 0.029247
#
#
# Mechanical properties :
#
#
# Convention : Reuss Voigt Hill
#
# Bulk Modulus (GPa) = 16.62486 21.02694 18.82590
# Shear Modulus (GPa) = 24.41006 27.88507 26.14757
#
# Velocity S-wave (km/s) = 3.19731 3.41733 3.30915
# Velocity P-wave (km/s) = 4.53793 4.93729 4.74181
#
# Compressibility (1/GPa) = 0.06015086
#
# Stress axis : x y z
#
# Youngs Moduli (GPa) = 76.32358 30.78047 80.28834
#
# Poissons Ratio (x) = -0.02073 0.06538
# Poissons Ratio (y) = -0.05140 -0.09584
# Poissons Ratio (z) = 0.06215 -0.03674
#
# Static dielectric constant tensor:
#      x y z
#    x 1.969080 0.000000 0.000000 
#    y 0.000000 2.000660 0.000000 
#    z 0.000000 0.000000 1.997740 
# 
# From -- ./inp_files/2190.got.cif
#   From: 2010.05.17/outbox.cif.g08.bks.cpg/sg19_2_cif.got.tgz:2190.got - 2010.06.03 22:46:19.
