data_PCOD9313511
_publ_section_title
;
Structure prediction by ZEFSAII (Michael W. Deem and Ramdas Pophale) SiO2 
 PCOD9313511
Probable space group: P 21 21 21
;
_chemical_formula_sum "Si O2"
_cell_formula_units_Z 32
_cell_length_a 10.757806
_cell_length_b 8.854921
_cell_length_c 12.304051
_cell_angle_alpha 90.000000
_cell_angle_beta 90.000000
_cell_angle_gamma 90.000000
_cell_volume 1172.078020
_symmetry_space_group_name_H-M "P 21 21 21"
_symmetry_group_IT_number 19
_symmetry_cell_setting 'orthorhombic'
loop_
_space_group_symop_operation_xyz
x,y,z
1/2-x,-y,1/2+z
1/2+x,1/2-y,-z
-x,1/2+y,1/2-z
loop_
_atom_site_type_symbol
_atom_site_label
_atom_site_fract_x
_atom_site_fract_y
_atom_site_fract_z
Si Si1 0.276507 0.286772 0.176684
Si Si2 0.014707 0.338351 0.956804
Si Si3 0.493442 0.434709 0.897364
Si Si4 0.175859 0.234360 0.763944
Si Si5 0.866847 0.515197 0.210514
Si Si6 0.449783 0.356118 0.358297
Si Si7 0.315132 0.119842 0.467772
Si Si8 0.713033 0.067725 0.440860
O O1 0.393776 0.209582 0.115591
O O2 0.191040 0.157374 0.223992
O O3 0.329975 0.372008 0.282766
O O4 0.222599 0.410712 0.094459
O O5 0.130171 0.278495 0.883349
O O6 0.031416 0.518946 0.951044
O O7 0.993792 0.240596 0.065478
O O8 0.497754 0.475602 0.768694
O O9 0.618819 0.507532 0.950097
O O10 0.383802 0.515395 0.965772
O O11 0.172001 0.366219 0.676164
O O12 0.069620 0.123352 0.717537
O O13 0.304418 0.145294 0.763171
O O14 0.804888 0.549846 0.092350
O O15 0.428256 0.181713 0.392882
O O16 0.276427 0.280875 0.515697
#
# Coordination Sequence:
#
# PCOD9313511 Si02
#       8
#     4   4   4   4   4   4   4   4
#     4   9  20  32  56  86 118 145 190 246 312 345
#     4  10  19  32  55  91 120 143 183 260 309 353
#     4  11  23  38  62  87 119 162 208 252 312 372
#     4  11  18  32  62  90 118 143 200 248 316 345
#     4  11  22  39  59  88 121 162 201 253 304 381
#     4  10  19  32  55  91 120 143 183 260 309 353
#     4  11  23  38  62  87 119 162 208 252 312 372
#     4  11  22  39  59  88 121 162 201 253 304 381
#
# _framework density 27.301936000000001
#
# number of rings (size 3 to 8) (size 9 to 14) (size 15 to 20)
#    0.000    1.500    6.250    0.000    1.750    0.000 
#    0.000    0.000   16.500    0.000    0.000    0.000 
#    0.000    0.000    0.000    0.000    0.000    0.000 
#
# Total GULP energy -178676.568572 kJ/mol
# GULP energy per Si atom -5583.642768 kJ/mol
# Density = 2.723980 g / cm^3
# Si number density = 27.301936 Si / 1000 Ang^3
#
#
#
# Elastic Constant Matrix: (Units=GPa)
#
#
# Indices 1 2 3 4 5 6 
#
# 1 44.8954 31.2198 36.6387 0.0000 0.0000 0.0000
# 2 31.2198 81.4841 28.0581 0.0000 0.0000 0.0000
# 3 36.6387 28.0581 77.0477 0.0000 0.0000 0.0000
# 4 0.0000 0.0000 0.0000 48.8498 0.0000 0.0000
# 5 0.0000 0.0000 0.0000 0.0000 43.5070 0.0000
# 6 0.0000 0.0000 0.0000 0.0000 0.0000 19.8558
#
#
#
# Elastic Compliance Matrix: (Units=1/GPa)
#
#
# Indices 1 2 3 4 5 6 
#
# 1 0.043501 -0.010912 -0.016712 0.000000 0.000000 0.000000
# 2 -0.010912 0.016769 -0.000918 0.000000 0.000000 0.000000
# 3 -0.016712 -0.000918 0.021260 0.000000 0.000000 0.000000
# 4 0.000000 0.000000 0.000000 0.020471 0.000000 0.000000
# 5 0.000000 0.000000 0.000000 0.000000 0.022985 0.000000
# 6 0.000000 0.000000 0.000000 0.000000 0.000000 0.050363
#
#
# Mechanical properties :
#
#
# Convention : Reuss Voigt Hill
#
# Bulk Modulus (GPa) = 40.90608 43.91781 42.41194
# Shear Modulus (GPa) = 20.78292 29.60990 25.19641
#
# Velocity S-wave (km/s) = 2.76202 3.29680 3.04119
# Velocity P-wave (km/s) = 5.01867 5.53288 5.28204
#
# Compressibility (1/GPa) = 0.02444624
#
# Stress axis : x y z
#
# Youngs Moduli (GPa) = 22.98805 59.63302 47.03596
#
# Poissons Ratio (x) = 0.65073 0.78607
# Poissons Ratio (y) = 0.25085 0.04316
# Poissons Ratio (z) = 0.38418 0.05472
#
# Static dielectric constant tensor:
#      x y z
#    x 2.252480 0.000000 0.000000 
#    y 0.000000 2.102300 0.000000 
#    z 0.000000 0.000000 2.307730 
# 
# From -- ./inp_files/3572.got.cif
#   From: 2010.05.17/outbox.cif.g08.bks.cpg/sg19_2_cif.got.tgz:3572.got - 2010.06.03 22:46:19.
