data_PCOD9313416
_publ_section_title
;
Structure prediction by ZEFSAII (Michael W. Deem and Ramdas Pophale) SiO2 
 PCOD9313416
Probable space group: P 21 21 21
;
_chemical_formula_sum "Si O2"
_cell_formula_units_Z 32
_cell_length_a 10.012021
_cell_length_b 10.940787
_cell_length_c 15.662836
_cell_angle_alpha 90.000000
_cell_angle_beta 90.000000
_cell_angle_gamma 90.000000
_cell_volume 1715.697489
_symmetry_space_group_name_H-M "P 21 21 21"
_symmetry_group_IT_number 19
_symmetry_cell_setting 'orthorhombic'
loop_
_space_group_symop_operation_xyz
x,y,z
1/2-x,-y,1/2+z
1/2+x,1/2-y,-z
-x,1/2+y,1/2-z
loop_
_atom_site_type_symbol
_atom_site_label
_atom_site_fract_x
_atom_site_fract_y
_atom_site_fract_z
Si Si1 0.606636 0.223011 0.373253
Si Si2 0.491277 0.608470 0.858441
Si Si3 0.693475 0.211552 0.789812
Si Si4 0.174753 0.884263 0.835018
Si Si5 0.345242 0.457359 0.637386
Si Si6 0.073166 0.157670 0.456833
Si Si7 0.742002 0.645379 0.732015
Si Si8 0.066355 0.646475 0.325292
O O1 0.470817 0.147256 0.368931
O O2 0.729474 0.132879 0.393398
O O3 0.596708 0.329460 0.443306
O O4 0.644123 0.282971 0.283002
O O5 0.379737 0.655819 0.793001
O O6 0.495158 0.712860 0.929378
O O7 0.627282 0.607766 0.802069
O O8 0.441152 0.473803 0.883657
O O9 0.804379 0.298712 0.749146
O O10 0.580096 0.296301 0.830412
O O11 0.714737 0.091991 0.847369
O O12 0.289096 0.854505 0.904937
O O13 0.201151 0.024010 0.809829
O O14 0.471087 0.446795 0.574224
O O15 0.403228 0.404479 0.728386
O O16 0.670239 0.741748 0.667879
#
# Coordination Sequence:
#
# PCOD9313416 Si02
#       8
#     4   4   4   4   4   4   4   4
#     4  11  24  33  53  82 117 146 174 230 290 335
#     4   9  15  29  55  78 102 134 186 238 264 316
#     4   9  16  28  52  79 102 131 183 227 269 312
#     4  11  21  34  56  84 111 149 184 228 281 341
#     4  10  18  33  51  75 108 138 180 234 268 323
#     4  11  19  37  56  80 107 144 193 227 278 331
#     4  10  19  35  53  83 114 143 189 234 282 332
#     4   9  14  29  54  83  95 133 187 240 260 306
#
# _framework density 18.651308
#
# number of rings (size 3 to 8) (size 9 to 14) (size 15 to 20)
#    0.000    2.000    6.250    2.250    1.750    0.000 
#    0.000    0.000    0.000    4.500    0.000    0.000 
#    0.000    0.000    0.000    0.000    0.000    0.000 
#
# Total GULP energy -178206.771175 kJ/mol
# GULP energy per Si atom -5568.961599 kJ/mol
# Density = 1.860886 g / cm^3
# Si number density = 18.651308 Si / 1000 Ang^3
#
#
#
# Elastic Constant Matrix: (Units=GPa)
#
#
# Indices 1 2 3 4 5 6 
#
# 1 82.7689 9.6660 2.6257 0.0000 0.0000 0.0000
# 2 9.6660 71.9856 -2.9151 0.0000 0.0000 0.0000
# 3 2.6257 -2.9151 9.6081 0.0000 0.0000 0.0000
# 4 0.0000 0.0000 0.0000 11.9995 0.0000 0.0000
# 5 0.0000 0.0000 0.0000 0.0000 10.0449 0.0000
# 6 0.0000 0.0000 0.0000 0.0000 0.0000 0.5879
#
#
#
# Elastic Compliance Matrix: (Units=1/GPa)
#
#
# Indices 1 2 3 4 5 6 
#
# 1 0.012421 -0.001828 -0.003949 0.000000 0.000000 0.000000
# 2 -0.001828 0.014333 0.004848 0.000000 0.000000 0.000000
# 3 -0.003949 0.004848 0.106629 0.000000 0.000000 0.000000
# 4 0.000000 0.000000 0.000000 0.083337 0.000000 0.000000
# 5 0.000000 0.000000 0.000000 0.000000 0.099553 0.000000
# 6 0.000000 0.000000 0.000000 0.000000 0.000000 1.700979
#
#
# Mechanical properties :
#
#
# Convention : Reuss Voigt Hill
#
# Bulk Modulus (GPa) = 7.60301 20.34620 13.97461
# Shear Modulus (GPa) = 2.42371 14.85886 8.64128
#
# Velocity S-wave (km/s) = 1.14119 2.82559 2.15479
# Velocity P-wave (km/s) = 2.41281 4.64518 3.70131
#
# Compressibility (1/GPa) = 0.13152678
#
# Stress axis : x y z
#
# Youngs Moduli (GPa) = 80.51177 69.76699 9.37828
#
# Poissons Ratio (x) = 0.12751 0.03703
# Poissons Ratio (y) = 0.14715 -0.04547
# Poissons Ratio (z) = 0.31792 -0.33825
#
# Static dielectric constant tensor:
#      x y z
#    x 1.652500 0.000000 0.000000 
#    y 0.000000 1.714510 0.000000 
#    z 0.000000 0.000000 1.671910 
# 
# From -- ./inp_files/6650.got.cif
#   From: 2010.05.17/outbox.cif.g08.bks.cpg/sg19_4_cif.got.tgz:6650.got - 2010.06.03 22:46:19.
