data_PCOD9313519
_publ_section_title
;
Structure prediction by ZEFSAII (Michael W. Deem and Ramdas Pophale) SiO2 
 PCOD9313519
Probable space group: P 21 21 21
;
_chemical_formula_sum "Si O2"
_cell_formula_units_Z 32
_cell_length_a 10.768838
_cell_length_b 5.706061
_cell_length_c 18.948434
_cell_angle_alpha 90.000000
_cell_angle_beta 90.000000
_cell_angle_gamma 90.000000
_cell_volume 1164.336675
_symmetry_space_group_name_H-M "P 21 21 21"
_symmetry_group_IT_number 19
_symmetry_cell_setting 'orthorhombic'
loop_
_space_group_symop_operation_xyz
x,y,z
1/2-x,-y,1/2+z
1/2+x,1/2-y,-z
-x,1/2+y,1/2-z
loop_
_atom_site_type_symbol
_atom_site_label
_atom_site_fract_x
_atom_site_fract_y
_atom_site_fract_z
Si Si1 0.535755 1.000000 0.660533
Si Si2 0.848919 0.000000 0.614445
Si Si3 0.218620 0.000000 0.536617
Si Si4 0.626947 0.000000 0.321506
Si Si5 0.171519 0.500000 0.489218
Si Si6 0.636664 0.500000 0.103434
Si Si7 0.879217 0.500000 0.819650
Si Si8 0.899553 0.000000 0.320400
O O1 0.611689 1.000000 0.734675
O O2 0.466073 0.746270 0.661976
O O3 0.607922 0.000000 0.587153
O O4 0.466073 0.253730 0.661976
O O5 0.819485 0.000000 0.530520
O O6 0.804801 0.262078 0.633474
O O7 0.804801 0.737922 0.633473
O O8 0.991450 0.000000 0.637887
O O9 0.147480 0.244061 0.521035
O O10 0.147480 0.755939 0.521035
O O11 0.333355 0.000000 0.480831
O O12 0.228307 1.000000 0.621161
O O13 0.624420 0.249543 0.281849
O O14 0.763267 0.000000 0.355476
O O15 0.507065 0.000000 0.372339
O O16 0.624420 0.750457 0.281849
#
# Coordination Sequence:
#
# PCOD9313519 Si02
#       8
#     4   4   4   4   4   4   4   4
#     4  10  21  38  58  81 108 140 182 234 290 340
#     4   8  16  30  49  70  99 134 167 206 256 306
#     4  10  19  33  53  79 109 145 181 217 267 325
#     4  10  19  35  55  76 105 141 180 225 274 325
#     4  10  19  35  55  76 105 141 180 225 274 325
#     4   8  16  30  49  70  99 134 167 206 256 306
#     4  10  19  33  53  79 109 145 181 217 267 325
#     4  10  21  38  58  81 108 140 182 234 290 340
#
# _framework density 27.483461999999999
#
# number of rings (size 3 to 8) (size 9 to 14) (size 15 to 20)
#    0.000    2.500    0.000    2.250    0.000    0.000 
#    0.000   22.500    0.000   13.500    0.000    0.000 
#    0.000    0.000    0.000    0.000    0.000    0.000 
#
# Total GULP energy -178333.728127 kJ/mol
# GULP energy per Si atom -5572.929004 kJ/mol
# Density = 2.742091 g / cm^3
# Si number density = 27.483462 Si / 1000 Ang^3
#
#
#
# Elastic Constant Matrix: (Units=GPa)
#
#
# Indices 1 2 3 4 5 6 
#
# 1 78.9257 50.6788 38.4986 0.0000 0.0000 0.0000
# 2 50.6788 397.5354 48.5970 0.0000 0.0000 0.0000
# 3 38.4986 48.5970 104.2764 0.0000 0.0000 0.0000
# 4 0.0000 0.0000 0.0000 -56.2339 0.0000 0.0000
# 5 0.0000 0.0000 0.0000 0.0000 49.1217 0.0000
# 6 0.0000 0.0000 0.0000 0.0000 0.0000 48.2627
#
#
#
# Elastic Compliance Matrix: (Units=1/GPa)
#
#
# Indices 1 2 3 4 5 6 
#
# 1 0.016167 -0.001412 -0.005311 0.000000 0.000000 0.000000
# 2 -0.001412 0.002791 -0.000779 0.000000 0.000000 0.000000
# 3 -0.005311 -0.000779 0.011914 0.000000 0.000000 0.000000
# 4 0.000000 0.000000 0.000000 -0.017783 0.000000 0.000000
# 5 0.000000 0.000000 0.000000 0.000000 0.020358 0.000000
# 6 0.000000 0.000000 0.000000 0.000000 0.000000 0.020720
#
#
# Mechanical properties :
#
#
# Convention : Reuss Voigt Hill
#
# Bulk Modulus (GPa) = 63.02124 95.14294 79.08209
# Shear Modulus (GPa) = 67.15012 37.76099 52.45555
#
# Velocity S-wave (km/s) = 4.94833 3.71071 4.37352
# Velocity P-wave (km/s) = 7.45844 7.28372 7.37160
#
# Compressibility (1/GPa) = 0.01586766
#
# Stress axis : x y z
#
# Youngs Moduli (GPa) = 61.85340 358.32609 83.93557
#
# Poissons Ratio (x) = 0.50589 0.44578
# Poissons Ratio (y) = 0.08732 0.06542
# Poissons Ratio (z) = 0.32850 0.27927
#
# Static dielectric constant tensor:
#      x y z
#    x 2.256510 0.000000 0.000000 
#    y 0.000000 2.127960 0.000000 
#    z 0.000000 0.000000 2.155430 
# 
# From -- ./inp_files/7141.got.cif
#   From: 2010.05.17/outbox.cif.g08.bks.cpg/sg19_4_cif.got.tgz:7141.got - 2010.06.03 22:46:19.
