data_PCOD9313123
_publ_section_title
;
Structure prediction by ZEFSAII (Michael W. Deem and Ramdas Pophale) SiO2 
 PCOD9313123
Probable space group: P 21 21 2
;
_chemical_formula_sum "Si O2"
_cell_formula_units_Z 14
_cell_length_a 5.169634
_cell_length_b 7.468768
_cell_length_c 15.943186
_cell_angle_alpha 90.000000
_cell_angle_beta 90.000000
_cell_angle_gamma 90.000000
_cell_volume 615.579118
_symmetry_space_group_name_H-M "P 21 21 2"
_symmetry_group_IT_number 18
_symmetry_cell_setting 'orthorhombic'
loop_
_space_group_symop_operation_xyz
x,y,z
-x,-y,z
1/2+x,1/2-y,-z
1/2-x,1/2+y,-z
loop_
_atom_site_type_symbol
_atom_site_label
_atom_site_fract_x
_atom_site_fract_y
_atom_site_fract_z
Si Si1 0.344630 0.657258 0.876985
Si Si2 0.883485 0.698220 0.452463
Si Si3 0.500000 0.000000 0.980050
Si Si4 0.254863 0.375275 0.275421
O O1 0.500000 0.500000 0.830940
O O2 0.177534 0.755887 0.805865
O O3 0.222895 0.547519 0.954048
O O4 0.477318 0.825745 0.922490
O O5 0.621443 0.696069 0.506540
O O6 0.809586 0.743764 0.356886
O O7 0.000000 0.500000 0.448003
O O8 0.500000 0.500000 0.295046
O O9 0.000000 0.500000 0.258625
#
# Coordination Sequence:
#
# PCOD9313123 Si02
#       4
#     4   4   2   4
#     4  12  27  44  72 102 145 194 246 299 366 431
#     4  11  23  45  73 104 144 189 235 294 361 429
#     4  12  26  46  68 104 144 190 248 300 360 430
#     4  11  26  47  72 104 147 190 241 302 362 425
#
# _framework density 22.742813000000002
#
# number of rings (size 3 to 8) (size 9 to 14) (size 15 to 20)
#    0.000    0.571    4.286    4.286    8.000    2.286 
#    2.571    0.000    0.000    0.000    0.000    0.000 
#    0.000    0.000    0.000    0.000    0.000    0.000 
#
# Total GULP energy -78118.994622 kJ/mol
# GULP energy per Si atom -5579.928187 kJ/mol
# Density = 2.269105 g / cm^3
# Si number density = 22.742813 Si / 1000 Ang^3
#
#
#
# Elastic Constant Matrix: (Units=GPa)
#
#
# Indices 1 2 3 4 5 6 
#
# 1 104.9603 15.5674 27.5797 0.0000 0.0000 0.0000
# 2 15.5674 84.5954 13.5562 0.0000 0.0000 0.0000
# 3 27.5797 13.5562 129.8797 0.0000 0.0000 0.0000
# 4 0.0000 0.0000 0.0000 52.6549 0.0000 0.0000
# 5 0.0000 0.0000 0.0000 0.0000 36.2247 0.0000
# 6 0.0000 0.0000 0.0000 0.0000 0.0000 39.1945
#
#
#
# Elastic Compliance Matrix: (Units=1/GPa)
#
#
# Indices 1 2 3 4 5 6 
#
# 1 0.010291 -0.001570 -0.002022 0.000000 0.000000 0.000000
# 2 -0.001570 0.012262 -0.000946 0.000000 0.000000 0.000000
# 3 -0.002022 -0.000946 0.008227 0.000000 0.000000 0.000000
# 4 0.000000 0.000000 0.000000 0.018992 0.000000 0.000000
# 5 0.000000 0.000000 0.000000 0.000000 0.027605 0.000000
# 6 0.000000 0.000000 0.000000 0.000000 0.000000 0.025514
#
#
# Mechanical properties :
#
#
# Convention : Reuss Voigt Hill
#
# Bulk Modulus (GPa) = 46.07285 48.09356 47.08321
# Shear Modulus (GPa) = 41.94565 43.13030 42.53797
#
# Velocity S-wave (km/s) = 4.29925 4.35953 4.32949
# Velocity P-wave (km/s) = 6.70424 6.82153 6.76314
#
# Compressibility (1/GPa) = 0.02170476
#
# Stress axis : x y z
#
# Youngs Moduli (GPa) = 97.16818 81.55585 121.54390
#
# Poissons Ratio (x) = 0.12804 0.24570
# Poissons Ratio (y) = 0.15254 0.11503
# Poissons Ratio (z) = 0.19643 0.07719
#
# Static dielectric constant tensor:
#      x y z
#    x 1.483510 0.000000 0.000000 
#    y 0.000000 1.793590 0.000000 
#    z 0.000000 0.000000 1.901380 
# 
# From -- ./inp_files/6369.got.cif
#   From: 2010.05.17/outbox.cif.g08.bks.cpg/sg18_4_cif.got.tgz:6369.got - 2010.06.03 22:40:56.
