data_PCOD9313844
_publ_section_title
;
Structure prediction by ZEFSAII (Michael W. Deem and Ramdas Pophale) SiO2 
 PCOD9313844
Probable space group: P 21 21 21
;
_chemical_formula_sum "Si O2"
_cell_formula_units_Z 16
_cell_length_a 12.908690
_cell_length_b 5.499591
_cell_length_c 9.015011
_cell_angle_alpha 90.000000
_cell_angle_beta 90.000000
_cell_angle_gamma 90.000000
_cell_volume 639.998307
_symmetry_space_group_name_H-M "P 21 21 21"
_symmetry_group_IT_number 19
_symmetry_cell_setting 'orthorhombic'
loop_
_space_group_symop_operation_xyz
x,y,z
1/2-x,-y,1/2+z
1/2+x,1/2-y,-z
-x,1/2+y,1/2-z
loop_
_atom_site_type_symbol
_atom_site_label
_atom_site_fract_x
_atom_site_fract_y
_atom_site_fract_z
Si Si1 0.411061 0.547324 0.946778
Si Si2 0.371279 0.856875 0.488114
Si Si3 0.304896 0.859886 0.155462
Si Si4 0.541989 0.547111 0.572173
O O1 0.522320 0.514187 0.027474
O O2 0.321193 0.608398 0.063236
O O3 0.426913 0.793654 0.853089
O O4 0.404251 0.290938 0.865231
O O5 0.318910 0.830922 0.328806
O O6 0.293523 0.994180 0.596781
O O7 0.077883 0.393938 0.046805
O O8 0.403799 0.010045 0.088801
#
# Coordination Sequence:
#
# PCOD9313844 Si02
#       4
#     4   4   4   4
#     4   8  19  36  59  80 109 150 191 224 269 342
#     4  10  20  36  59  84 110 148 189 230 277 332
#     4  10  20  36  59  84 110 148 189 230 277 332
#     4   8  19  36  59  80 109 150 191 224 269 342
#
# _framework density 25.000063999999998
#
# number of rings (size 3 to 8) (size 9 to 14) (size 15 to 20)
#    3.000    0.000    0.000    1.500    0.000    2.000 
#    0.000    2.500    0.000    0.000    0.000    0.000 
#    0.000    0.000    0.000    0.000    0.000    0.000 
#
# Total GULP energy -89106.865819 kJ/mol
# GULP energy per Si atom -5569.179114 kJ/mol
# Density = 2.494316 g / cm^3
# Si number density = 25.000064 Si / 1000 Ang^3
#
#
#
# Elastic Constant Matrix: (Units=GPa)
#
#
# Indices 1 2 3 4 5 6 
#
# 1 115.1520 -10.1915 23.7924 0.0000 0.0000 0.0000
# 2 -10.1915 143.9912 14.0047 0.0000 0.0000 0.0000
# 3 23.7924 14.0047 114.0042 0.0000 0.0000 0.0000
# 4 0.0000 0.0000 0.0000 0.8093 0.0000 0.0000
# 5 0.0000 0.0000 0.0000 0.0000 31.7486 0.0000
# 6 0.0000 0.0000 0.0000 0.0000 0.0000 50.2004
#
#
#
# Elastic Compliance Matrix: (Units=1/GPa)
#
#
# Indices 1 2 3 4 5 6 
#
# 1 0.009176 0.000846 -0.002019 0.000000 0.000000 0.000000
# 2 0.000846 0.007107 -0.001050 0.000000 0.000000 0.000000
# 3 -0.002019 -0.001050 0.009322 0.000000 0.000000 0.000000
# 4 0.000000 0.000000 0.000000 1.235638 0.000000 0.000000
# 5 0.000000 0.000000 0.000000 0.000000 0.031497 0.000000
# 6 0.000000 0.000000 0.000000 0.000000 0.000000 0.019920
#
#
# Mechanical properties :
#
#
# Convention : Reuss Voigt Hill
#
# Bulk Modulus (GPa) = 47.25995 47.59539 47.42767
# Shear Modulus (GPa) = 3.77598 39.58778 21.68188
#
# Velocity S-wave (km/s) = 1.23031 3.98365 2.94814
# Velocity P-wave (km/s) = 4.57856 6.34340 5.53181
#
# Compressibility (1/GPa) = 0.02115957
#
# Stress axis : x y z
#
# Youngs Moduli (GPa) = 108.97768 140.70991 107.27434
#
# Poissons Ratio (x) = -0.11902 0.21658
# Poissons Ratio (y) = -0.09218 0.11259
# Poissons Ratio (z) = 0.22002 0.14768
#
# Static dielectric constant tensor:
#      x y z
#    x 1.999320 0.000000 0.000000 
#    y 0.000000 2.184510 0.000000 
#    z 0.000000 0.000000 1.891610 
# 
# From -- ./inp_files/4871.got.cif
#   From: 2010.05.17/outbox.cif.g08.bks.cpg/sg19_3_cif.got.tgz:4871.got - 2010.06.03 22:46:19.
