data_PCOD9313390
_publ_section_title
;
Structure prediction by ZEFSAII (Michael W. Deem and Ramdas Pophale) SiO2 
 PCOD9313390
Probable space group: P 21 21 21
;
_chemical_formula_sum "Si O2"
_cell_formula_units_Z 32
_cell_length_a 15.586485
_cell_length_b 5.088800
_cell_length_c 20.533535
_cell_angle_alpha 90.000000
_cell_angle_beta 90.000000
_cell_angle_gamma 90.000000
_cell_volume 1628.648229
_symmetry_space_group_name_H-M "P 21 21 21"
_symmetry_group_IT_number 19
_symmetry_cell_setting 'orthorhombic'
loop_
_space_group_symop_operation_xyz
x,y,z
1/2-x,-y,1/2+z
1/2+x,1/2-y,-z
-x,1/2+y,1/2-z
loop_
_atom_site_type_symbol
_atom_site_label
_atom_site_fract_x
_atom_site_fract_y
_atom_site_fract_z
Si Si1 0.500000 0.530160 0.023338
Si Si2 0.171565 0.253456 0.097262
Si Si3 0.601790 0.582234 0.793723
Si Si4 0.828436 0.253457 0.097262
Si Si5 0.398210 0.582234 0.793723
Si Si6 0.000000 0.481911 0.063344
Si Si7 0.311830 0.541539 0.037245
Si Si8 0.188170 0.958460 0.962755
O O1 0.500000 0.227921 0.997230
O O2 0.409657 0.607643 0.057098
O O3 0.590344 0.607643 0.057098
O O4 0.500000 0.721495 0.960710
O O5 0.159453 0.011787 0.145820
O O6 0.258644 0.419405 0.096938
O O7 0.085615 0.425143 0.103601
O O8 0.171006 0.157407 0.022485
O O9 0.500000 0.566073 0.810476
O O10 0.618404 0.862456 0.761709
O O11 0.618404 0.362456 0.738291
O O12 0.840548 0.011787 0.145819
O O13 0.741357 0.419406 0.096937
O O14 0.914385 0.425143 0.103601
O O15 0.828995 0.157408 0.022484
O O16 0.250000 0.749999 0.000000
#
# Coordination Sequence:
#
# PCOD9313390 Si02
#       8
#     4   4   4   4   4   4   4   4
#     4  10  20  32  46  75 108 135 178 212 265 322
#     4  10  20  34  51  79 109 144 183 218 268 327
#     4  10  22  36  53  79 110 148 185 215 260 324
#     4  10  20  34  51  79 109 144 183 218 268 327
#     4  10  22  36  53  79 110 148 185 215 260 324
#     4  10  18  30  50  71 106 145 164 212 259 310
#     4  10  20  32  53  78 107 146 181 221 280 329
#     4  10  20  32  53  78 107 146 181 221 280 329
#
# _framework density 19.648195999999999
#
# number of rings (size 3 to 8) (size 9 to 14) (size 15 to 20)
#    0.000    2.000    3.750    0.000    3.500    0.000 
#    0.000    0.000    0.000    0.000    0.000    1.750 
#    0.000    0.000    0.000    0.000    0.000    0.000 
#
# Total GULP energy -178366.583615 kJ/mol
# GULP energy per Si atom -5573.955738 kJ/mol
# Density = 1.960348 g / cm^3
# Si number density = 19.648196 Si / 1000 Ang^3
#
#
#
# Elastic Constant Matrix: (Units=GPa)
#
#
# Indices 1 2 3 4 5 6 
#
# 1 156.0514 11.9779 16.8668 0.0000 0.0000 0.0000
# 2 11.9779 46.4196 8.6894 0.0000 0.0000 0.0000
# 3 16.8668 8.6894 45.9775 0.0000 0.0000 0.0000
# 4 0.0000 0.0000 0.0000 25.3772 0.0000 0.0000
# 5 0.0000 0.0000 0.0000 0.0000 25.7375 0.0000
# 6 0.0000 0.0000 0.0000 0.0000 0.0000 18.4628
#
#
#
# Elastic Compliance Matrix: (Units=1/GPa)
#
#
# Indices 1 2 3 4 5 6 
#
# 1 0.006750 -0.001325 -0.002226 0.000000 0.000000 0.000000
# 2 -0.001325 0.022593 -0.003784 0.000000 0.000000 0.000000
# 3 -0.002226 -0.003784 0.023281 0.000000 0.000000 0.000000
# 4 0.000000 0.000000 0.000000 0.039405 0.000000 0.000000
# 5 0.000000 0.000000 0.000000 0.000000 0.038854 0.000000
# 6 0.000000 0.000000 0.000000 0.000000 0.000000 0.054163
#
#
# Mechanical properties :
#
#
# Convention : Reuss Voigt Hill
#
# Bulk Modulus (GPa) = 26.34698 35.94632 31.14665
# Shear Modulus (GPa) = 23.54399 27.97646 25.76023
#
# Velocity S-wave (km/s) = 3.46537 3.77751 3.62480
# Velocity P-wave (km/s) = 5.42680 6.11235 5.77975
#
# Compressibility (1/GPa) = 0.03795501
#
# Stress axis : x y z
#
# Youngs Moduli (GPa) = 148.13828 44.26180 42.95262
#
# Poissons Ratio (x) = 0.05865 0.09561
# Poissons Ratio (y) = 0.19631 0.16252
# Poissons Ratio (z) = 0.32975 0.16748
#
# Static dielectric constant tensor:
#      x y z
#    x 1.838940 0.000000 0.000000 
#    y 0.000000 1.804530 0.000000 
#    z 0.000000 0.000000 1.698850 
# 
# From -- ./inp_files/1601.got.cif
#   From: 2010.05.17/outbox.cif.g08.bks.cpg/sg19_1_cif.got.tgz:1601.got - 2010.06.03 22:46:19.
