data_PCOD9313338
_publ_section_title
;
Structure prediction by ZEFSAII (Michael W. Deem and Ramdas Pophale) SiO2 
 PCOD9313338
Probable space group: P 21 21 21
;
_chemical_formula_sum "Si O2"
_cell_formula_units_Z 32
_cell_length_a 11.321167
_cell_length_b 16.356485
_cell_length_c 6.732504
_cell_angle_alpha 90.000000
_cell_angle_beta 90.000000
_cell_angle_gamma 90.000000
_cell_volume 1246.688050
_symmetry_space_group_name_H-M "P 21 21 21"
_symmetry_group_IT_number 19
_symmetry_cell_setting 'orthorhombic'
loop_
_space_group_symop_operation_xyz
x,y,z
1/2-x,-y,1/2+z
1/2+x,1/2-y,-z
-x,1/2+y,1/2-z
loop_
_atom_site_type_symbol
_atom_site_label
_atom_site_fract_x
_atom_site_fract_y
_atom_site_fract_z
Si Si1 0.721999 0.815539 0.703227
Si Si2 0.594535 0.935136 0.963539
Si Si3 0.876782 0.349403 0.637953
Si Si4 0.955239 0.825708 0.239451
Si Si5 0.965717 0.745687 0.627938
Si Si6 0.222596 0.138956 0.727864
Si Si7 0.107535 0.954521 0.479768
Si Si8 0.764017 0.080922 0.824518
O O1 0.866465 0.813069 0.704131
O O2 0.706513 0.718371 0.684155
O O3 0.693528 0.873940 0.521030
O O4 0.641284 0.849443 0.879301
O O5 0.458573 0.960236 0.941325
O O6 0.626911 0.943689 0.192602
O O7 0.684609 0.001117 0.864542
O O8 0.974800 0.337839 0.464009
O O9 0.910009 0.272519 0.779423
O O10 0.880740 0.424968 0.792711
O O11 0.759389 0.357038 0.502917
O O12 0.956859 0.747324 0.387666
O O13 0.012578 0.892306 0.386288
O O14 0.820923 0.854556 0.211504
O O15 0.910417 0.663415 0.718692
O O16 0.275759 0.063307 0.849628
#
# Coordination Sequence:
#
# PCOD9313338 Si02
#       8
#     4   4   4   4   4   4   4   4
#     4   9  19  33  45  70 105 143 174 201 256 311
#     4  11  19  27  45  72 101 138 168 208 250 323
#     4  10  17  30  51  70  97 137 175 213 256 305
#     4   8  16  28  43  65  97 131 164 206 242 302
#     4   8  17  31  48  71  99 134 175 212 255 304
#     4   9  20  34  48  69 107 144 174 223 252 308
#     4   9  20  30  42  69 105 135 171 213 256 294
#     4  10  18  25  44  68 101 134 169 198 243 313
#
# _framework density 25.668009000000001
#
# number of rings (size 3 to 8) (size 9 to 14) (size 15 to 20)
#    0.750    2.000    1.250    1.500    1.750    3.000 
#    0.000    0.000    0.000    0.000    0.000    0.000 
#   15.000    0.000    0.000    0.000    0.000    0.000 
#
# Total GULP energy -178456.021913 kJ/mol
# GULP energy per Si atom -5576.750685 kJ/mol
# Density = 2.560959 g / cm^3
# Si number density = 25.668009 Si / 1000 Ang^3
#
#
#
# Elastic Constant Matrix: (Units=GPa)
#
#
# Indices 1 2 3 4 5 6 
#
# 1 92.3927 49.9162 42.9749 0.0000 0.0000 0.0000
# 2 49.9162 77.8403 35.0558 0.0000 0.0000 0.0000
# 3 42.9749 35.0558 113.2952 0.0000 0.0000 0.0000
# 4 0.0000 0.0000 0.0000 16.7727 0.0000 0.0000
# 5 0.0000 0.0000 0.0000 0.0000 -23.4926 0.0000
# 6 0.0000 0.0000 0.0000 0.0000 0.0000 38.2642
#
#
#
# Elastic Compliance Matrix: (Units=1/GPa)
#
#
# Indices 1 2 3 4 5 6 
#
# 1 0.017833 -0.009748 -0.003748 0.000000 0.000000 0.000000
# 2 -0.009748 0.020255 -0.002570 0.000000 0.000000 0.000000
# 3 -0.003748 -0.002570 0.011043 0.000000 0.000000 0.000000
# 4 0.000000 0.000000 0.000000 0.059621 0.000000 0.000000
# 5 0.000000 0.000000 0.000000 0.000000 -0.042567 0.000000
# 6 0.000000 0.000000 0.000000 0.000000 0.000000 0.026134
#
#
# Mechanical properties :
#
#
# Convention : Reuss Voigt Hill
#
# Bulk Modulus (GPa) = 58.82370 59.93580 59.37975
# Shear Modulus (GPa) = 38.42665 16.68094 27.55380
#
# Velocity S-wave (km/s) = 3.87339 2.55203 3.27994
# Velocity P-wave (km/s) = 6.55523 5.66435 6.12601
#
# Compressibility (1/GPa) = 0.01699995
#
# Stress axis : x y z
#
# Youngs Moduli (GPa) = 56.07547 49.37057 90.55131
#
# Poissons Ratio (x) = 0.48125 0.33941
# Poissons Ratio (y) = 0.54660 0.23270
# Poissons Ratio (z) = 0.21019 0.12687
#
# Static dielectric constant tensor:
#      x y z
#    x 2.091190 0.000000 0.000000 
#    y 0.000000 2.099140 0.000000 
#    z 0.000000 0.000000 2.042670 
# 
# From -- ./inp_files/1903.got.cif
#   From: 2010.05.17/outbox.cif.g08.bks.cpg/sg19_1_cif.got.tgz:1903.got - 2010.06.03 22:46:19.
