data_PCOD9313159
_publ_section_title
;
Structure prediction by ZEFSAII (Michael W. Deem and Ramdas Pophale) SiO2 
 PCOD9313159
Probable space group: P 21 21 2
;
_chemical_formula_sum "Si O2"
_cell_formula_units_Z 24
_cell_length_a 13.511972
_cell_length_b 8.180958
_cell_length_c 8.208685
_cell_angle_alpha 90.000000
_cell_angle_beta 90.000000
_cell_angle_gamma 90.000000
_cell_volume 907.395226
_symmetry_space_group_name_H-M "P 21 21 2"
_symmetry_group_IT_number 18
_symmetry_cell_setting 'orthorhombic'
loop_
_space_group_symop_operation_xyz
x,y,z
-x,-y,z
1/2+x,1/2-y,-z
1/2-x,1/2+y,-z
loop_
_atom_site_type_symbol
_atom_site_label
_atom_site_fract_x
_atom_site_fract_y
_atom_site_fract_z
Si Si1 0.079183 0.262097 0.339156
Si Si2 0.717235 0.064023 0.428591
Si Si3 0.896068 0.216101 0.560870
Si Si4 0.136788 0.444107 0.035358
Si Si5 0.334038 0.466439 0.876359
Si Si6 0.475673 0.260989 0.089981
O O1 0.138755 0.310190 0.499880
O O2 0.969839 0.222896 0.405634
O O3 0.926637 0.120626 0.042232
O O4 0.129883 0.117869 0.234909
O O5 0.813246 0.077426 0.543684
O O6 0.763622 0.120856 0.257387
O O7 0.662733 0.889048 0.422931
O O8 0.956253 0.189551 0.726222
O O9 0.252966 0.476488 0.021417
O O10 0.086572 0.596460 0.946270
O O11 0.088641 0.286041 0.945660
O O12 0.097314 0.416227 0.218344
#
# Coordination Sequence:
#
# PCOD9313159 Si02
#       6
#     4   4   4   4   4   4
#     4  12  28  49  82 121 165 224 276 354 419 514
#     4  12  25  48  76 117 162 219 281 345 423 509
#     4  12  27  52  76 119 165 220 287 348 431 506
#     4  11  24  46  77 113 158 213 275 340 422 503
#     4  12  25  51  77 118 168 215 284 343 427 508
#     4  11  26  48  75 116 160 219 273 346 417 508
#
# _framework density 26.449335000000001
#
# number of rings (size 3 to 8) (size 9 to 14) (size 15 to 20)
#    0.000    0.333    3.333    4.500    9.333    2.667 
#    3.000    1.667    0.000    0.000    0.000    0.000 
#    0.000    0.000    0.000    0.000    0.000    0.000 
#
# Total GULP energy -134350.026023 kJ/mol
# GULP energy per Si atom -5597.917751 kJ/mol
# Density = 2.638914 g / cm^3
# Si number density = 26.449335 Si / 1000 Ang^3
#
#
#
# Elastic Constant Matrix: (Units=GPa)
#
#
# Indices 1 2 3 4 5 6 
#
# 1 169.9793 52.8007 54.3231 0.0000 0.0000 0.0000
# 2 52.8007 100.5922 41.5131 0.0000 0.0000 0.0000
# 3 54.3231 41.5131 149.7231 0.0000 0.0000 0.0000
# 4 0.0000 0.0000 0.0000 16.9546 0.0000 0.0000
# 5 0.0000 0.0000 0.0000 0.0000 84.5350 0.0000
# 6 0.0000 0.0000 0.0000 0.0000 0.0000 47.6095
#
#
#
# Elastic Compliance Matrix: (Units=1/GPa)
#
#
# Indices 1 2 3 4 5 6 
#
# 1 0.007447 -0.003155 -0.001827 0.000000 0.000000 0.000000
# 2 -0.003155 0.012562 -0.002338 0.000000 0.000000 0.000000
# 3 -0.001827 -0.002338 0.007990 0.000000 0.000000 0.000000
# 4 0.000000 0.000000 0.000000 0.058981 0.000000 0.000000
# 5 0.000000 0.000000 0.000000 0.000000 0.011829 0.000000
# 6 0.000000 0.000000 0.000000 0.000000 0.000000 0.021004
#
#
# Mechanical properties :
#
#
# Convention : Reuss Voigt Hill
#
# Bulk Modulus (GPa) = 74.85860 79.72984 77.29422
# Shear Modulus (GPa) = 35.99507 47.93032 41.96269
#
# Velocity S-wave (km/s) = 3.69305 4.26156 3.98745
# Velocity P-wave (km/s) = 6.82267 7.37729 7.10539
#
# Compressibility (1/GPa) = 0.01335852
#
# Stress axis : x y z
#
# Youngs Moduli (GPa) = 134.28184 79.60423 125.15151
#
# Poissons Ratio (x) = 0.25114 0.22868
# Poissons Ratio (y) = 0.42364 0.29265
# Poissons Ratio (z) = 0.24536 0.18615
#
# Static dielectric constant tensor:
#      x y z
#    x 2.089580 0.000000 0.000000 
#    y 0.000000 2.086800 0.000000 
#    z 0.000000 0.000000 2.117160 
# 
# From -- ./inp_files/5847.got.cif
#   From: 2010.05.17/outbox.cif.g08.bks.cpg/sg18_3_cif.got.tgz:5847.got - 2010.06.03 22:40:56.
