data_PCOD9313960
_publ_section_title
;
Structure prediction by ZEFSAII (Michael W. Deem and Ramdas Pophale) SiO2 
 PCOD9313960
Probable space group: P 21 21 21
;
_chemical_formula_sum "Si O2"
_cell_formula_units_Z 24
_cell_length_a 14.604822
_cell_length_b 11.612388
_cell_length_c 5.115795
_cell_angle_alpha 90.000000
_cell_angle_beta 90.000000
_cell_angle_gamma 90.000000
_cell_volume 867.622767
_symmetry_space_group_name_H-M "P 21 21 21"
_symmetry_group_IT_number 19
_symmetry_cell_setting 'orthorhombic'
loop_
_space_group_symop_operation_xyz
x,y,z
1/2-x,-y,1/2+z
1/2+x,1/2-y,-z
-x,1/2+y,1/2-z
loop_
_atom_site_type_symbol
_atom_site_label
_atom_site_fract_x
_atom_site_fract_y
_atom_site_fract_z
Si Si1 0.687611 0.500000 0.407692
Si Si2 0.185513 0.500000 0.029279
Si Si3 0.044356 0.628985 0.331339
Si Si4 0.182409 0.247351 0.660192
Si Si5 0.955644 0.871015 0.168661
Si Si6 0.317591 0.247351 0.160192
O O1 0.637359 0.380456 0.352120
O O2 0.727427 0.500000 0.701561
O O3 0.754407 0.249371 0.583218
O O4 0.745593 0.249371 0.083218
O O5 0.118233 0.397079 0.105908
O O6 0.118233 0.602921 0.105908
O O7 0.998850 0.500000 0.363690
O O8 0.104349 0.661946 0.584632
O O9 0.104349 0.338054 0.584633
O O10 0.000000 0.750000 0.250000
O O11 0.237275 0.500000 0.757307
O O12 0.362641 0.119544 0.147880
#
# Coordination Sequence:
#
# PCOD9313960 Si02
#       6
#     4   4   4   4   4   4
#     4   8  16  29  52  87 120 152 200 266 326 377
#     4  10  22  45  76 103 136 190 248 290 344 433
#     4  10  24  42  70  98 145 179 233 291 364 414
#     4  10  20  38  66  95 128 176 233 284 338 417
#     4  10  24  42  70  98 145 179 233 291 364 414
#     4  10  20  38  66  95 128 176 233 284 338 417
#
# _framework density 27.66179
#
# number of rings (size 3 to 8) (size 9 to 14) (size 15 to 20)
#    1.000    1.333    0.000    2.000    2.333    0.000 
#    0.000    6.667    0.000    0.000    0.000    0.000 
#    0.000    0.000    0.000    0.000    0.000    0.000 
#
# Total GULP energy -134002.824399 kJ/mol
# GULP energy per Si atom -5583.451017 kJ/mol
# Density = 2.759883 g / cm^3
# Si number density = 27.661790 Si / 1000 Ang^3
#
#
#
# Elastic Constant Matrix: (Units=GPa)
#
#
# Indices 1 2 3 4 5 6 
#
# 1 74.7326 74.1163 31.0254 0.0000 0.0000 0.0000
# 2 74.1163 247.9245 10.6282 0.0000 0.0000 0.0000
# 3 31.0254 10.6282 172.8780 0.0000 0.0000 0.0000
# 4 0.0000 0.0000 0.0000 29.5313 0.0000 0.0000
# 5 0.0000 0.0000 0.0000 0.0000 21.0391 0.0000
# 6 0.0000 0.0000 0.0000 0.0000 0.0000 72.4109
#
#
#
# Elastic Compliance Matrix: (Units=1/GPa)
#
#
# Indices 1 2 3 4 5 6 
#
# 1 0.020800 -0.006074 -0.003359 0.000000 0.000000 0.000000
# 2 -0.006074 0.005818 0.000732 0.000000 0.000000 0.000000
# 3 -0.003359 0.000732 0.006342 0.000000 0.000000 0.000000
# 4 0.000000 0.000000 0.000000 0.033862 0.000000 0.000000
# 5 0.000000 0.000000 0.000000 0.000000 0.047531 0.000000
# 6 0.000000 0.000000 0.000000 0.000000 0.000000 0.013810
#
#
# Mechanical properties :
#
#
# Convention : Reuss Voigt Hill
#
# Bulk Modulus (GPa) = 64.27622 80.78612 72.53117
# Shear Modulus (GPa) = 33.16737 49.91394 41.54065
#
# Velocity S-wave (km/s) = 3.46646 4.25247 3.87943
# Velocity P-wave (km/s) = 6.26967 7.30614 6.80766
#
# Compressibility (1/GPa) = 0.01555785
#
# Stress axis : x y z
#
# Youngs Moduli (GPa) = 48.07797 171.88393 157.67185
#
# Poissons Ratio (x) = 1.04401 0.52968
# Poissons Ratio (y) = 0.29202 -0.11548
# Poissons Ratio (z) = 0.16151 -0.12589
#
# Static dielectric constant tensor:
#      x y z
#    x 2.133150 0.000000 0.000000 
#    y 0.000000 2.514650 0.000000 
#    z 0.000000 0.000000 2.168690 
# 
# From -- ./inp_files/1709.got.cif
#   From: 2010.05.17/outbox.cif.g08.bks.cpg/sg19_1_cif.got.tgz:1709.got - 2010.06.03 22:46:19.
