data_PCOD9313007
_publ_section_title
;
Structure prediction by ZEFSAII (Michael W. Deem and Ramdas Pophale) SiO2 
 PCOD9313007
Probable space group: P 21 21 2
;
_chemical_formula_sum "Si O2"
_cell_formula_units_Z 18
_cell_length_a 9.751386
_cell_length_b 15.528669
_cell_length_c 4.779317
_cell_angle_alpha 90.000000
_cell_angle_beta 90.000000
_cell_angle_gamma 90.000000
_cell_volume 723.713073
_symmetry_space_group_name_H-M "P 21 21 2"
_symmetry_group_IT_number 18
_symmetry_cell_setting 'orthorhombic'
loop_
_space_group_symop_operation_xyz
x,y,z
-x,-y,z
1/2+x,1/2-y,-z
1/2-x,1/2+y,-z
loop_
_atom_site_type_symbol
_atom_site_label
_atom_site_fract_x
_atom_site_fract_y
_atom_site_fract_z
Si Si1 0.500000 0.500000 0.604924
Si Si2 0.386124 0.164447 0.672523
Si Si3 0.318384 0.344454 0.436478
Si Si4 0.147035 0.382717 0.952566
Si Si5 0.266542 0.074281 0.131676
O O1 0.413217 0.428251 0.444720
O O2 0.613414 0.448987 0.779727
O O3 0.391070 0.260268 0.553814
O O4 0.510572 0.143861 0.884384
O O5 0.261552 0.143655 0.884319
O O6 0.354315 0.105079 0.401584
O O7 0.267525 0.335449 0.122815
O O8 0.182988 0.361382 0.631175
O O9 0.167448 0.485375 0.979780
#
# Coordination Sequence:
#
# PCOD9313007 Si02
#       5
#     2   4   4   4   4
#     4  10  26  48  70 104 148 198 234 292 372 446
#     4  12  26  44  76 107 144 189 247 306 356 432
#     4  11  26  44  74 105 148 193 244 300 361 435
#     4  11  25  48  67 109 143 190 243 299 364 436
#     4  11  25  46  73 105 142 195 236 301 367 437
#
# _framework density 24.871732000000002
#
# number of rings (size 3 to 8) (size 9 to 14) (size 15 to 20)
#    0.000    0.889    0.000    6.000    6.222   11.556 
#    0.000    0.000    0.000    0.000    0.000    0.000 
#    0.000    0.000    0.000    0.000    0.000    0.000 
#
# Total GULP energy -100780.032708 kJ/mol
# GULP energy per Si atom -5598.890706 kJ/mol
# Density = 2.481512 g / cm^3
# Si number density = 24.871732 Si / 1000 Ang^3
#
#
#
# Elastic Constant Matrix: (Units=GPa)
#
#
# Indices 1 2 3 4 5 6 
#
# 1 87.7138 13.0557 23.9583 0.0000 0.0000 0.0000
# 2 13.0557 113.3705 29.0649 0.0000 0.0000 0.0000
# 3 23.9583 29.0649 108.0247 0.0000 0.0000 0.0000
# 4 0.0000 0.0000 0.0000 50.0575 0.0000 0.0000
# 5 0.0000 0.0000 0.0000 0.0000 15.3364 0.0000
# 6 0.0000 0.0000 0.0000 0.0000 0.0000 22.7138
#
#
#
# Elastic Compliance Matrix: (Units=1/GPa)
#
#
# Indices 1 2 3 4 5 6 
#
# 1 0.012197 -0.000764 -0.002500 0.000000 0.000000 0.000000
# 2 -0.000764 0.009522 -0.002393 0.000000 0.000000 0.000000
# 3 -0.002500 -0.002393 0.010455 0.000000 0.000000 0.000000
# 4 0.000000 0.000000 0.000000 0.019977 0.000000 0.000000
# 5 0.000000 0.000000 0.000000 0.000000 0.065204 0.000000
# 6 0.000000 0.000000 0.000000 0.000000 0.000000 0.044026
#
#
# Mechanical properties :
#
#
# Convention : Reuss Voigt Hill
#
# Bulk Modulus (GPa) = 47.93310 49.02963 48.48136
# Shear Modulus (GPa) = 27.83219 33.82353 30.82786
#
# Velocity S-wave (km/s) = 3.34882 3.69171 3.52444
# Velocity P-wave (km/s) = 5.85378 6.15852 6.00808
#
# Compressibility (1/GPa) = 0.02086241
#
# Stress axis : x y z
#
# Youngs Moduli (GPa) = 81.98629 105.02016 95.64554
#
# Poissons Ratio (x) = 0.08021 0.23908
# Poissons Ratio (y) = 0.06262 0.22884
# Poissons Ratio (z) = 0.20494 0.25127
#
# Static dielectric constant tensor:
#      x y z
#    x 2.023110 0.000000 0.000000 
#    y 0.000000 1.944710 0.000000 
#    z 0.000000 0.000000 1.900290 
# 
# From -- ./inp_files/519.got.cif
#   From: 2010.05.17/outbox.cif.g08.bks.cpg/sg18_1_cif.got.tgz:519.got - 2010.06.03 22:40:56.
