data_PCOD9313466
_publ_section_title
;
Structure prediction by ZEFSAII (Michael W. Deem and Ramdas Pophale) SiO2 
 PCOD9313466
Probable space group: P 21 21 21
;
_chemical_formula_sum "Si O2"
_cell_formula_units_Z 24
_cell_length_a 17.813513
_cell_length_b 7.101552
_cell_length_c 7.481845
_cell_angle_alpha 90.000000
_cell_angle_beta 90.000000
_cell_angle_gamma 90.000000
_cell_volume 946.480244
_symmetry_space_group_name_H-M "P 21 21 21"
_symmetry_group_IT_number 19
_symmetry_cell_setting 'orthorhombic'
loop_
_space_group_symop_operation_xyz
x,y,z
1/2-x,-y,1/2+z
1/2+x,1/2-y,-z
-x,1/2+y,1/2-z
loop_
_atom_site_type_symbol
_atom_site_label
_atom_site_fract_x
_atom_site_fract_y
_atom_site_fract_z
Si Si1 0.911896 0.633446 0.958747
Si Si2 0.778113 0.405171 0.898403
Si Si3 0.172698 0.678793 0.914606
Si Si4 0.542427 0.088918 0.165030
Si Si5 0.111319 0.225794 0.173151
Si Si6 0.192836 0.592610 0.311934
O O1 0.823138 0.592639 0.949601
O O2 0.933609 0.821084 0.852075
O O3 0.956992 0.470798 0.856068
O O4 0.932192 0.621312 0.168328
O O5 0.805778 0.358462 0.698956
O O6 0.688949 0.372723 0.887342
O O7 0.811832 0.242380 0.029039
O O8 0.090451 0.599415 0.874179
O O9 0.227937 0.511615 0.845360
O O10 0.186053 0.698861 0.124274
O O11 0.565201 0.228516 0.003794
O O12 0.135975 0.419113 0.276923
#
# Coordination Sequence:
#
# PCOD9313466 Si02
#       6
#     4   4   4   4   4   4
#     4  12  28  43  69  96 141 180 225 284 340 404
#     4  11  23  39  66 104 127 177 223 278 334 391
#     4  10  19  37  68  93 132 169 220 268 329 404
#     4  11  25  46  65 100 137 181 223 278 346 408
#     4  10  25  42  70  99 136 177 227 282 330 415
#     4  10  18  37  66  98 125 172 216 272 327 388
#
# _framework density 25.357105000000001
#
# number of rings (size 3 to 8) (size 9 to 14) (size 15 to 20)
#    0.000    1.333    5.000    2.000    4.667    5.333 
#    0.000    0.000    0.000    0.000    0.000    0.000 
#    0.000    0.000    0.000    0.000    0.000    0.000 
#
# Total GULP energy -134352.481653 kJ/mol
# GULP energy per Si atom -5598.020069 kJ/mol
# Density = 2.529939 g / cm^3
# Si number density = 25.357105 Si / 1000 Ang^3
#
#
#
# Elastic Constant Matrix: (Units=GPa)
#
#
# Indices 1 2 3 4 5 6 
#
# 1 82.9541 8.7819 10.8126 0.0000 0.0000 0.0000
# 2 8.7819 41.3171 8.7005 0.0000 0.0000 0.0000
# 3 10.8126 8.7005 141.0744 0.0000 0.0000 0.0000
# 4 0.0000 0.0000 0.0000 44.3500 0.0000 0.0000
# 5 0.0000 0.0000 0.0000 0.0000 17.7887 0.0000
# 6 0.0000 0.0000 0.0000 0.0000 0.0000 39.5948
#
#
#
# Elastic Compliance Matrix: (Units=1/GPa)
#
#
# Indices 1 2 3 4 5 6 
#
# 1 0.012421 -0.002472 -0.000800 0.000000 0.000000 0.000000
# 2 -0.002472 0.025013 -0.001353 0.000000 0.000000 0.000000
# 3 -0.000800 -0.001353 0.007233 0.000000 0.000000 0.000000
# 4 0.000000 0.000000 0.000000 0.022548 0.000000 0.000000
# 5 0.000000 0.000000 0.000000 0.000000 0.056215 0.000000
# 6 0.000000 0.000000 0.000000 0.000000 0.000000 0.025256
#
#
# Mechanical properties :
#
#
# Convention : Reuss Voigt Hill
#
# Bulk Modulus (GPa) = 28.23384 35.77061 32.00223
# Shear Modulus (GPa) = 29.45659 36.15010 32.80334
#
# Velocity S-wave (km/s) = 3.41203 3.77986 3.60064
# Velocity P-wave (km/s) = 5.16539 5.76083 5.47121
#
# Compressibility (1/GPa) = 0.03541849
#
# Stress axis : x y z
#
# Youngs Moduli (GPa) = 80.51053 39.97863 138.25147
#
# Poissons Ratio (x) = 0.09881 0.11054
# Poissons Ratio (y) = 0.19899 0.18708
# Poissons Ratio (z) = 0.06437 0.05410
#
# Static dielectric constant tensor:
#      x y z
#    x 1.939610 0.000000 0.000000 
#    y 0.000000 2.078210 0.000000 
#    z 0.000000 0.000000 1.949680 
# 
# From -- ./inp_files/4118.got.cif
#   From: 2010.05.17/outbox.cif.g08.bks.cpg/sg19_3_cif.got.tgz:4118.got - 2010.06.03 22:46:19.
