data_PCOD9313642
_publ_section_title
;
Structure prediction by ZEFSAII (Michael W. Deem and Ramdas Pophale) SiO2 
 PCOD9313642
Probable space group: P 21 21 21
;
_chemical_formula_sum "Si O2"
_cell_formula_units_Z 28
_cell_length_a 19.627198
_cell_length_b 4.973746
_cell_length_c 10.985717
_cell_angle_alpha 90.000000
_cell_angle_beta 90.000000
_cell_angle_gamma 90.000000
_cell_volume 1072.433357
_symmetry_space_group_name_H-M "P 21 21 21"
_symmetry_group_IT_number 19
_symmetry_cell_setting 'orthorhombic'
loop_
_space_group_symop_operation_xyz
x,y,z
1/2-x,-y,1/2+z
1/2+x,1/2-y,-z
-x,1/2+y,1/2-z
loop_
_atom_site_type_symbol
_atom_site_label
_atom_site_fract_x
_atom_site_fract_y
_atom_site_fract_z
Si Si1 0.140617 0.766813 0.079564
Si Si2 0.264312 0.004975 0.395408
Si Si3 0.443109 0.754617 0.569530
Si Si4 0.416051 0.497024 0.933803
Si Si5 0.545159 0.390566 0.215630
Si Si6 0.718300 0.000580 0.725471
Si Si7 0.869142 0.501441 0.936429
O O1 0.169146 0.860166 0.950203
O O2 0.080138 0.551023 0.081346
O O3 0.112561 0.048048 0.131637
O O4 0.204022 0.621298 0.143884
O O5 0.242499 0.196678 0.284476
O O6 0.204601 0.024269 0.499191
O O7 0.265888 0.698749 0.352483
O O8 0.515304 0.864630 0.615435
O O9 0.445074 0.809689 0.424252
O O10 0.355653 0.476957 0.837324
O O11 0.416989 0.801105 0.981687
O O12 0.392348 0.304970 0.044661
O O13 0.504620 0.670092 0.224003
O O14 0.613030 0.414827 0.299092
#
# Coordination Sequence:
#
# PCOD9313642 Si02
#       7
#     4   4   4   4   4   4   4
#     4  12  26  42  62  96 129 160 210 272 309 363
#     4  10  23  42  65  86 121 168 217 253 306 388
#     4  12  24  38  62  96 134 164 204 268 318 370
#     4  10  20  38  63  89 123 164 209 247 315 383
#     4  12  21  37  62  94 128 161 200 260 316 370
#     4  10  23  44  67  88 122 169 209 261 312 378
#     4  10  19  37  61  89 119 170 209 251 308 372
#
# _framework density 26.108851999999999
#
# number of rings (size 3 to 8) (size 9 to 14) (size 15 to 20)
#    0.000    1.143    2.857    3.429    0.000    3.429 
#    0.000    2.857    0.000    0.000    0.000    0.000 
#    0.000    0.000    0.000    0.000    0.000    0.000 
#
# Total GULP energy -156800.051199 kJ/mol
# GULP energy per Si atom -5600.001829 kJ/mol
# Density = 2.604943 g / cm^3
# Si number density = 26.108852 Si / 1000 Ang^3
#
#
#
# Elastic Constant Matrix: (Units=GPa)
#
#
# Indices 1 2 3 4 5 6 
#
# 1 50.3881 19.4182 -8.0006 0.0000 0.0000 0.0000
# 2 19.4182 101.6470 -5.0516 0.0000 0.0000 0.0000
# 3 -8.0006 -5.0516 51.9157 0.0000 0.0000 0.0000
# 4 0.0000 0.0000 0.0000 33.0088 0.0000 0.0000
# 5 0.0000 0.0000 0.0000 0.0000 30.3251 0.0000
# 6 0.0000 0.0000 0.0000 0.0000 0.0000 31.8605
#
#
#
# Elastic Compliance Matrix: (Units=1/GPa)
#
#
# Indices 1 2 3 4 5 6 
#
# 1 0.021872 -0.004030 0.002978 0.000000 0.000000 0.000000
# 2 -0.004030 0.010628 0.000413 0.000000 0.000000 0.000000
# 3 0.002978 0.000413 0.019761 0.000000 0.000000 0.000000
# 4 0.000000 0.000000 0.000000 0.030295 0.000000 0.000000
# 5 0.000000 0.000000 0.000000 0.000000 0.032976 0.000000
# 6 0.000000 0.000000 0.000000 0.000000 0.000000 0.031387
#
#
# Mechanical properties :
#
#
# Convention : Reuss Voigt Hill
#
# Bulk Modulus (GPa) = 19.61392 24.07585 21.84489
# Shear Modulus (GPa) = 30.26788 32.21121 31.23955
#
# Velocity S-wave (km/s) = 3.40854 3.51626 3.46282
# Velocity P-wave (km/s) = 4.79786 5.07216 4.93692
#
# Compressibility (1/GPa) = 0.05098419
#
# Stress axis : x y z
#
# Youngs Moduli (GPa) = 45.72048 94.08726 50.60426
#
# Poissons Ratio (x) = 0.37920 -0.15072
# Poissons Ratio (y) = 0.18427 -0.02090
# Poissons Ratio (z) = -0.13618 -0.03887
#
# Static dielectric constant tensor:
#      x y z
#    x 2.110940 0.000000 0.000000 
#    y 0.000000 1.958480 0.000000 
#    z 0.000000 0.000000 2.055480 
# 
# From -- ./inp_files/5342.got.cif
#   From: 2010.05.17/outbox.cif.g08.bks.cpg/sg19_3_cif.got.tgz:5342.got - 2010.06.03 22:46:19.
