data_PCOD9313614
_publ_section_title
;
Structure prediction by ZEFSAII (Michael W. Deem and Ramdas Pophale) SiO2 
 PCOD9313614
Probable space group: P 21 21 21
;
_chemical_formula_sum "Si O2"
_cell_formula_units_Z 28
_cell_length_a 17.981706
_cell_length_b 14.773586
_cell_length_c 5.090627
_cell_angle_alpha 90.000000
_cell_angle_beta 90.000000
_cell_angle_gamma 90.000000
_cell_volume 1352.346851
_symmetry_space_group_name_H-M "P 21 21 21"
_symmetry_group_IT_number 19
_symmetry_cell_setting 'orthorhombic'
loop_
_space_group_symop_operation_xyz
x,y,z
1/2-x,-y,1/2+z
1/2+x,1/2-y,-z
-x,1/2+y,1/2-z
loop_
_atom_site_type_symbol
_atom_site_label
_atom_site_fract_x
_atom_site_fract_y
_atom_site_fract_z
Si Si1 0.198894 0.516284 0.963048
Si Si2 0.043857 0.462359 0.123151
Si Si3 0.891616 0.200975 0.599936
Si Si4 0.031180 0.643616 0.392941
Si Si5 0.298856 0.004828 0.982449
Si Si6 0.573135 0.447685 0.223021
Si Si7 0.403760 0.115763 0.660955
O O1 0.242851 0.494097 0.698688
O O2 0.126698 0.451533 0.012014
O O3 0.165295 0.618661 0.952186
O O4 0.053546 0.537687 0.353603
O O5 0.989330 0.383279 0.229066
O O6 0.993526 0.512259 0.901908
O O7 0.872430 0.300607 0.502694
O O8 0.915273 0.193846 0.902488
O O9 0.960394 0.182320 0.397087
O O10 0.953486 0.634865 0.543001
O O11 0.348928 0.090338 0.897421
O O12 0.254922 0.975391 0.724505
O O13 0.357860 0.931068 0.086372
O O14 0.595884 0.528189 0.026942
#
# Coordination Sequence:
#
# PCOD9313614 Si02
#       7
#     4   4   4   4   4   4   4
#     4  11  22  39  65  87 124 171 211 250 307 390
#     4   9  20  38  62  93 117 160 219 253 302 375
#     4  11  23  38  63  95 120 161 210 260 323 365
#     4  10  19  36  61  89 119 149 204 257 293 380
#     4  11  22  38  61  93 122 165 211 249 317 384
#     4  10  19  39  64  91 114 164 207 264 299 381
#     4  10  23  38  68  92 126 160 212 273 313 367
#
# _framework density 20.704747000000001
#
# number of rings (size 3 to 8) (size 9 to 14) (size 15 to 20)
#    0.000    1.714    4.286    1.714    6.000    0.000 
#    0.000    0.000    9.429    0.000    0.000    0.000 
#    0.000    0.000    0.000    0.000    0.000    0.000 
#
# Total GULP energy -155987.710781 kJ/mol
# GULP energy per Si atom -5570.989671 kJ/mol
# Density = 2.065762 g / cm^3
# Si number density = 20.704747 Si / 1000 Ang^3
#
#
#
# Elastic Constant Matrix: (Units=GPa)
#
#
# Indices 1 2 3 4 5 6 
#
# 1 92.4945 7.3605 19.8399 0.0000 0.0000 0.0000
# 2 7.3605 26.3074 -9.8749 0.0000 0.0000 0.0000
# 3 19.8399 -9.8749 98.5836 0.0000 0.0000 0.0000
# 4 0.0000 0.0000 0.0000 18.8535 0.0000 0.0000
# 5 0.0000 0.0000 0.0000 0.0000 48.7196 0.0000
# 6 0.0000 0.0000 0.0000 0.0000 0.0000 16.8647
#
#
#
# Elastic Compliance Matrix: (Units=1/GPa)
#
#
# Indices 1 2 3 4 5 6 
#
# 1 0.011758 -0.004341 -0.002801 0.000000 0.000000 0.000000
# 2 -0.004341 0.041100 0.004991 0.000000 0.000000 0.000000
# 3 -0.002801 0.004991 0.011207 0.000000 0.000000 0.000000
# 4 0.000000 0.000000 0.000000 0.053041 0.000000 0.000000
# 5 0.000000 0.000000 0.000000 0.000000 0.020526 0.000000
# 6 0.000000 0.000000 0.000000 0.000000 0.000000 0.059296
#
#
# Mechanical properties :
#
#
# Convention : Reuss Voigt Hill
#
# Bulk Modulus (GPa) = 16.73309 28.00404 22.36857
# Shear Modulus (GPa) = 22.60901 30.22488 26.41695
#
# Velocity S-wave (km/s) = 3.30809 3.82488 3.57583
# Velocity P-wave (km/s) = 4.76346 5.74988 5.27976
#
# Compressibility (1/GPa) = 0.05976181
#
# Stress axis : x y z
#
# Youngs Moduli (GPa) = 85.05044 24.33089 89.22761
#
# Poissons Ratio (x) = 0.10562 0.24993
# Poissons Ratio (y) = 0.36921 -0.44530
# Poissons Ratio (z) = 0.23823 -0.12142
#
# Static dielectric constant tensor:
#      x y z
#    x 1.824820 0.000000 0.000000 
#    y 0.000000 1.816570 0.000000 
#    z 0.000000 0.000000 1.791460 
# 
# From -- ./inp_files/1533.got.cif
#   From: 2010.05.17/outbox.cif.g08.bks.cpg/sg19_1_cif.got.tgz:1533.got - 2010.06.03 22:46:19.
