data_PCOD9313601
_publ_section_title
;
Structure prediction by ZEFSAII (Michael W. Deem and Ramdas Pophale) SiO2 
 PCOD9313601
Probable space group: P 21 21 21
;
_chemical_formula_sum "Si O2"
_cell_formula_units_Z 28
_cell_length_a 15.972179
_cell_length_b 5.396046
_cell_length_c 14.333979
_cell_angle_alpha 90.000000
_cell_angle_beta 90.000000
_cell_angle_gamma 90.000000
_cell_volume 1235.397095
_symmetry_space_group_name_H-M "P 21 21 21"
_symmetry_group_IT_number 19
_symmetry_cell_setting 'orthorhombic'
loop_
_space_group_symop_operation_xyz
x,y,z
1/2-x,-y,1/2+z
1/2+x,1/2-y,-z
-x,1/2+y,1/2-z
loop_
_atom_site_type_symbol
_atom_site_label
_atom_site_fract_x
_atom_site_fract_y
_atom_site_fract_z
Si Si1 0.950133 0.244607 0.273555
Si Si2 0.640469 0.715944 0.595948
Si Si3 0.421822 0.226478 0.240257
Si Si4 0.298116 0.714084 0.996025
Si Si5 0.013145 0.264598 0.959922
Si Si6 0.889348 0.775350 0.804283
Si Si7 0.898230 0.265547 0.487552
O O1 0.869672 0.259848 0.206386
O O2 0.930446 0.264065 0.381827
O O3 0.006278 0.481795 0.246623
O O4 0.671562 0.445415 0.565917
O O5 0.548657 0.740745 0.548434
O O6 0.689596 0.947995 0.552431
O O7 0.455203 0.231205 0.132484
O O8 0.508228 0.225838 0.298118
O O9 0.368418 0.474083 0.250453
O O10 0.368463 0.978344 0.248281
O O11 0.351857 0.719736 0.092438
O O12 0.201207 0.755916 0.015417
O O13 0.066282 0.515768 0.965490
O O14 0.068901 0.017844 0.965031
#
# Coordination Sequence:
#
# PCOD9313601 Si02
#       7
#     4   4   4   4   4   4   4
#     4  12  23  42  70  99 126 167 227 278 320 387
#     4  12  23  41  73  92 125 173 225 256 330 398
#     4  10  20  33  63  90 111 153 215 251 291 365
#     4  12  24  43  61  93 134 174 203 271 343 388
#     4  12  21  41  68  92 124 167 219 271 306 392
#     4  10  19  36  58  87 119 157 197 253 307 369
#     4  12  26  42  63  95 135 165 212 278 329 381
#
# _framework density 22.664777999999998
#
# number of rings (size 3 to 8) (size 9 to 14) (size 15 to 20)
#    0.000    0.571    5.714    3.429    0.000    0.000 
#    5.143    0.000    0.000    0.000    0.000    0.000 
#    0.000    0.000    0.000    0.000    0.000    0.000 
#
# Total GULP energy -156721.583835 kJ/mol
# GULP energy per Si atom -5597.199423 kJ/mol
# Density = 2.261319 g / cm^3
# Si number density = 22.664778 Si / 1000 Ang^3
#
#
#
# Elastic Constant Matrix: (Units=GPa)
#
#
# Indices 1 2 3 4 5 6 
#
# 1 45.8376 7.2810 10.7340 0.0000 0.0000 0.0000
# 2 7.2810 136.8013 2.2967 0.0000 0.0000 0.0000
# 3 10.7340 2.2967 95.1957 0.0000 0.0000 0.0000
# 4 0.0000 0.0000 0.0000 28.3241 0.0000 0.0000
# 5 0.0000 0.0000 0.0000 0.0000 10.3933 0.0000
# 6 0.0000 0.0000 0.0000 0.0000 0.0000 22.4330
#
#
#
# Elastic Compliance Matrix: (Units=1/GPa)
#
#
# Indices 1 2 3 4 5 6 
#
# 1 0.022590 -0.001160 -0.002519 0.000000 0.000000 0.000000
# 2 -0.001160 0.007372 -0.000047 0.000000 0.000000 0.000000
# 3 -0.002519 -0.000047 0.010790 0.000000 0.000000 0.000000
# 4 0.000000 0.000000 0.000000 0.035306 0.000000 0.000000
# 5 0.000000 0.000000 0.000000 0.000000 0.096216 0.000000
# 6 0.000000 0.000000 0.000000 0.000000 0.000000 0.044577
#
#
# Mechanical properties :
#
#
# Convention : Reuss Voigt Hill
#
# Bulk Modulus (GPa) = 30.03007 35.38423 32.70715
# Shear Modulus (GPa) = 21.24009 29.39826 25.31917
#
# Velocity S-wave (km/s) = 3.06460 3.60542 3.34595
# Velocity P-wave (km/s) = 5.07945 5.74264 5.42120
#
# Compressibility (1/GPa) = 0.03329995
#
# Stress axis : x y z
#
# Youngs Moduli (GPa) = 44.26666 135.64096 92.67949
#
# Poissons Ratio (x) = 0.15735 0.23348
# Poissons Ratio (y) = 0.05135 0.00436
# Poissons Ratio (z) = 0.11152 0.00638
#
# Static dielectric constant tensor:
#      x y z
#    x 1.741210 0.000000 0.000000 
#    y 0.000000 1.934490 0.000000 
#    z 0.000000 0.000000 1.835050 
# 
# From -- ./inp_files/1513.got.cif
#   From: 2010.05.17/outbox.cif.g08.bks.cpg/sg19_1_cif.got.tgz:1513.got - 2010.06.03 22:46:19.
