data_PCOD9313850
_publ_section_title
;
Structure prediction by ZEFSAII (Michael W. Deem and Ramdas Pophale) SiO2 
 PCOD9313850
Probable space group: P 21 21 21
;
_chemical_formula_sum "Si O2"
_cell_formula_units_Z 28
_cell_length_a 8.910290
_cell_length_b 13.718096
_cell_length_c 8.882033
_cell_angle_alpha 90.000000
_cell_angle_beta 90.000000
_cell_angle_gamma 90.000000
_cell_volume 1085.670555
_symmetry_space_group_name_H-M "P 21 21 21"
_symmetry_group_IT_number 19
_symmetry_cell_setting 'orthorhombic'
loop_
_space_group_symop_operation_xyz
x,y,z
1/2-x,-y,1/2+z
1/2+x,1/2-y,-z
-x,1/2+y,1/2-z
loop_
_atom_site_type_symbol
_atom_site_label
_atom_site_fract_x
_atom_site_fract_y
_atom_site_fract_z
Si Si1 0.048324 0.280772 0.107080
Si Si2 0.503728 0.614652 0.298463
Si Si3 0.623559 0.854730 0.437716
Si Si4 0.267688 0.079393 0.438583
Si Si5 0.553298 0.542459 0.772510
Si Si6 0.002291 0.614615 0.876464
Si Si7 0.727366 0.938417 0.880514
O O1 0.973500 0.176424 0.082403
O O2 0.988479 0.334534 0.957387
O O3 0.986104 0.343565 0.244907
O O4 0.225775 0.291437 0.088524
O O5 0.517390 0.500234 0.339487
O O6 0.342671 0.623845 0.217622
O O7 0.632364 0.638136 0.179298
O O8 0.523938 0.840975 0.287234
O O9 0.682761 0.966183 0.441094
O O10 0.378426 0.033327 0.561987
O O11 0.143397 0.141951 0.527563
O O12 0.178950 0.998028 0.342748
O O13 0.403346 0.487002 0.719975
O O14 0.148346 0.618248 0.982949
#
# Coordination Sequence:
#
# PCOD9313850 Si02
#       7
#     4   4   4   4   4   4   4
#     4  11  23  42  59  97 130 170 213 265 334 399
#     4  11  21  37  63  92 131 162 220 269 318 386
#     4  10  23  39  67  87 134 170 210 270 323 396
#     4  11  20  35  62  95 125 168 215 287 311 379
#     4  10  20  36  59  92 131 164 219 269 331 378
#     4  10  20  41  60  97 126 167 225 263 322 382
#     4   9  21  38  64  92 125 169 222 265 317 384
#
# _framework density 25.790512
#
# number of rings (size 3 to 8) (size 9 to 14) (size 15 to 20)
#    0.000    1.714    5.714    0.000    8.000    0.000 
#    0.000    4.286    0.000    0.000    0.000    0.000 
#    0.000    0.000    0.000    0.000    0.000    0.000 
#
# Total GULP energy -156901.547319 kJ/mol
# GULP energy per Si atom -5603.626690 kJ/mol
# Density = 2.573181 g / cm^3
# Si number density = 25.790512 Si / 1000 Ang^3
#
#
#
# Elastic Constant Matrix: (Units=GPa)
#
#
# Indices 1 2 3 4 5 6 
#
# 1 108.6403 0.3030 26.1634 0.0000 0.0000 0.0000
# 2 0.3030 47.5683 5.3930 0.0000 0.0000 0.0000
# 3 26.1634 5.3930 79.5583 0.0000 0.0000 0.0000
# 4 0.0000 0.0000 0.0000 47.0875 0.0000 0.0000
# 5 0.0000 0.0000 0.0000 0.0000 63.5408 0.0000
# 6 0.0000 0.0000 0.0000 0.0000 0.0000 22.4007
#
#
#
# Elastic Compliance Matrix: (Units=1/GPa)
#
#
# Indices 1 2 3 4 5 6 
#
# 1 0.010001 0.000312 -0.003310 0.000000 0.000000 0.000000
# 2 0.000312 0.021195 -0.001539 0.000000 0.000000 0.000000
# 3 -0.003310 -0.001539 0.013762 0.000000 0.000000 0.000000
# 4 0.000000 0.000000 0.000000 0.021237 0.000000 0.000000
# 5 0.000000 0.000000 0.000000 0.000000 0.015738 0.000000
# 6 0.000000 0.000000 0.000000 0.000000 0.000000 0.044642
#
#
# Mechanical properties :
#
#
# Convention : Reuss Voigt Hill
#
# Bulk Modulus (GPa) = 27.86848 33.27620 30.57234
# Shear Modulus (GPa) = 33.87283 40.19962 37.03623
#
# Velocity S-wave (km/s) = 3.62799 3.95232 3.79362
# Velocity P-wave (km/s) = 5.32719 5.81019 5.57392
#
# Compressibility (1/GPa) = 0.03588283
#
# Stress axis : x y z
#
# Youngs Moduli (GPa) = 99.99040 47.18110 72.66243
#
# Poissons Ratio (x) = -0.01470 0.24051
# Poissons Ratio (y) = -0.03115 0.11184
# Poissons Ratio (z) = 0.33097 0.07262
#
# Static dielectric constant tensor:
#      x y z
#    x 2.023880 0.000000 0.000000 
#    y 0.000000 2.126290 0.000000 
#    z 0.000000 0.000000 2.026160 
# 
# From -- ./inp_files/3004.got.cif
#   From: 2010.05.17/outbox.cif.g08.bks.cpg/sg19_2_cif.got.tgz:3004.got - 2010.06.03 22:46:19.
