data_PCOD9313639
_publ_section_title
;
Structure prediction by ZEFSAII (Michael W. Deem and Ramdas Pophale) SiO2 
 PCOD9313639
Probable space group: P 21 21 21
;
_chemical_formula_sum "Si O2"
_cell_formula_units_Z 32
_cell_length_a 14.480664
_cell_length_b 17.368884
_cell_length_c 5.133056
_cell_angle_alpha 90.000000
_cell_angle_beta 90.000000
_cell_angle_gamma 90.000000
_cell_volume 1291.030176
_symmetry_space_group_name_H-M "P 21 21 21"
_symmetry_group_IT_number 19
_symmetry_cell_setting 'orthorhombic'
loop_
_space_group_symop_operation_xyz
x,y,z
1/2-x,-y,1/2+z
1/2+x,1/2-y,-z
-x,1/2+y,1/2-z
loop_
_atom_site_type_symbol
_atom_site_label
_atom_site_fract_x
_atom_site_fract_y
_atom_site_fract_z
Si Si1 0.721891 0.745077 0.299909
Si Si2 0.611212 0.063202 0.270412
Si Si3 0.848143 0.440763 0.006327
Si Si4 0.975221 0.001725 0.286880
Si Si5 0.720480 0.838795 0.792553
Si Si6 0.998625 0.773349 0.728027
Si Si7 0.240908 0.900843 0.992019
Si Si8 0.000133 0.671938 0.240317
O O1 0.752344 0.775529 0.579215
O O2 0.611617 0.722808 0.301331
O O3 0.774041 0.674028 0.162008
O O4 0.733133 0.812601 0.089260
O O5 0.581307 0.024489 0.538872
O O6 0.717733 0.086745 0.250795
O O7 0.553943 0.144909 0.250041
O O8 0.586504 0.002590 0.044986
O O9 0.806730 0.526325 0.023481
O O10 0.786857 0.390031 0.206949
O O11 0.946671 0.439558 0.139390
O O12 0.844142 0.425561 0.698368
O O13 0.027282 0.082738 0.249178
O O14 0.611526 0.841394 0.742734
O O15 0.968120 0.724520 0.477589
O O16 0.981721 0.719888 0.979419
#
# Coordination Sequence:
#
# PCOD9313639 Si02
#       8
#     4   4   4   4   4   4   4   4
#     4  10  19  37  60  81 111 149 189 235 292 349
#     4  12  25  40  63  91 120 155 201 249 292 351
#     4  10  21  35  53  84 117 150 193 230 292 361
#     4  12  24  39  61  88 121 161 201 247 297 351
#     4  10  23  39  58  86 112 149 200 241 289 344
#     4  10  21  39  62  86 118 155 193 243 297 353
#     4  10  20  35  57  84 117 151 186 241 292 354
#     4  10  23  42  62  86 120 158 197 244 299 351
#
# _framework density 24.786408000000002
#
# number of rings (size 3 to 8) (size 9 to 14) (size 15 to 20)
#    0.000    1.500    0.000    5.250    0.000    5.000 
#    0.000    0.000    0.000    0.000    0.000    0.000 
#    0.000    0.000    0.000    0.000    0.000    0.000 
#
# Total GULP energy -178912.783498 kJ/mol
# GULP energy per Si atom -5591.024484 kJ/mol
# Density = 2.472999 g / cm^3
# Si number density = 24.786408 Si / 1000 Ang^3
#
#
#
# Elastic Constant Matrix: (Units=GPa)
#
#
# Indices 1 2 3 4 5 6 
#
# 1 44.5200 -27.6657 -4.0977 0.0000 0.0000 0.0000
# 2 -27.6657 94.4685 43.2536 0.0000 0.0000 0.0000
# 3 -4.0977 43.2536 148.0978 0.0000 0.0000 0.0000
# 4 0.0000 0.0000 0.0000 22.1820 0.0000 0.0000
# 5 0.0000 0.0000 0.0000 0.0000 1.3369 0.0000
# 6 0.0000 0.0000 0.0000 0.0000 0.0000 35.9822
#
#
#
# Elastic Compliance Matrix: (Units=1/GPa)
#
#
# Indices 1 2 3 4 5 6 
#
# 1 0.027897 0.009023 -0.001863 0.000000 0.000000 0.000000
# 2 0.009023 0.015138 -0.004172 0.000000 0.000000 0.000000
# 3 -0.001863 -0.004172 0.007919 0.000000 0.000000 0.000000
# 4 0.000000 0.000000 0.000000 0.045082 0.000000 0.000000
# 5 0.000000 0.000000 0.000000 0.000000 0.748022 0.000000
# 6 0.000000 0.000000 0.000000 0.000000 0.000000 0.027792
#
#
# Mechanical properties :
#
#
# Convention : Reuss Voigt Hill
#
# Bulk Modulus (GPa) = 17.56514 34.45186 26.00850
# Shear Modulus (GPa) = 5.65068 30.27327 17.96197
#
# Velocity S-wave (km/s) = 1.51152 3.49860 2.69489
# Velocity P-wave (km/s) = 3.18563 5.49999 4.49434
#
# Compressibility (1/GPa) = 0.05693093
#
# Stress axis : x y z
#
# Youngs Moduli (GPa) = 35.84551 66.05878 126.27716
#
# Poissons Ratio (x) = -0.59606 0.23531
# Poissons Ratio (y) = -0.32344 0.52677
# Poissons Ratio (z) = 0.06679 0.27557
#
# Static dielectric constant tensor:
#      x y z
#    x 2.162460 0.000000 0.000000 
#    y 0.000000 2.013630 0.000000 
#    z 0.000000 0.000000 1.887390 
# 
# From -- ./inp_files/1602.got.cif
#   From: 2010.05.17/outbox.cif.g08.bks.cpg/sg19_1_cif.got.tgz:1602.got - 2010.06.03 22:46:19.
