data_PCOD9313553
_publ_section_title
;
Structure prediction by ZEFSAII (Michael W. Deem and Ramdas Pophale) SiO2 
 PCOD9313553
Probable space group: P 21 21 21
;
_chemical_formula_sum "Si O2"
_cell_formula_units_Z 32
_cell_length_a 23.105944
_cell_length_b 13.205804
_cell_length_c 5.343257
_cell_angle_alpha 90.000000
_cell_angle_beta 90.000000
_cell_angle_gamma 90.000000
_cell_volume 1630.401728
_symmetry_space_group_name_H-M "P 21 21 21"
_symmetry_group_IT_number 19
_symmetry_cell_setting 'orthorhombic'
loop_
_space_group_symop_operation_xyz
x,y,z
1/2-x,-y,1/2+z
1/2+x,1/2-y,-z
-x,1/2+y,1/2-z
loop_
_atom_site_type_symbol
_atom_site_label
_atom_site_fract_x
_atom_site_fract_y
_atom_site_fract_z
Si Si1 0.428044 0.750591 0.795772
Si Si2 0.528635 0.606416 0.996735
Si Si3 0.457935 0.606978 0.388469
Si Si4 0.333350 0.544103 0.271558
Si Si5 0.822706 0.197618 0.719305
Si Si6 0.304398 0.661448 0.788625
Si Si7 0.989933 0.078499 0.254681
Si Si8 0.890643 0.248430 0.214939
O O1 0.471086 0.672123 0.932448
O O2 0.439316 0.713286 0.511384
O O3 0.360742 0.731165 0.835413
O O4 0.455299 0.858576 0.854830
O O5 0.514747 0.488296 0.971697
O O6 0.577874 0.650797 0.823220
O O7 0.523797 0.624339 0.291284
O O8 0.401128 0.570359 0.238015
O O9 0.465026 0.510474 0.572433
O O10 0.326418 0.424203 0.259061
O O11 0.315615 0.592970 0.539831
O O12 0.299787 0.592710 0.037540
O O13 0.754868 0.222063 0.742531
O O14 0.847816 0.222365 0.445618
O O15 0.858316 0.246951 0.949052
O O16 0.940011 0.160328 0.202608
#
# Coordination Sequence:
#
# PCOD9313553 Si02
#       8
#     4   4   4   4   4   4   4   4
#     4   9  21  35  56  85 116 152 197 241 300 348
#     4  10  21  37  58  83 118 150 196 243 301 346
#     4  10  19  34  58  83 121 152 189 248 293 367
#     4  11  20  36  58  86 119 157 198 232 300 357
#     4  12  23  38  57  85 122 160 200 235 299 350
#     4  11  22  38  58  85 121 159 200 249 282 358
#     4  10  21  37  57  86 116 154 193 247 300 356
#     4  11  25  37  60  87 119 156 195 243 293 364
#
# _framework density 19.627064000000001
#
# number of rings (size 3 to 8) (size 9 to 14) (size 15 to 20)
#    0.000    1.500    2.500    3.000    7.000    1.000 
#    0.000    0.000    0.000    1.500    0.000    0.000 
#    0.000    0.000    0.000    0.000    0.000    0.000 
#
# Total GULP energy -178140.627818 kJ/mol
# GULP energy per Si atom -5566.894619 kJ/mol
# Density = 1.958239 g / cm^3
# Si number density = 19.627064 Si / 1000 Ang^3
#
#
#
# Elastic Constant Matrix: (Units=GPa)
#
#
# Indices 1 2 3 4 5 6 
#
# 1 90.5902 11.6440 2.0009 0.0000 0.0000 0.0000
# 2 11.6440 37.0814 -2.0558 0.0000 0.0000 0.0000
# 3 2.0009 -2.0558 34.1159 0.0000 0.0000 0.0000
# 4 0.0000 0.0000 0.0000 10.8406 0.0000 0.0000
# 5 0.0000 0.0000 0.0000 0.0000 28.4743 0.0000
# 6 0.0000 0.0000 0.0000 0.0000 0.0000 22.7105
#
#
#
# Elastic Compliance Matrix: (Units=1/GPa)
#
#
# Indices 1 2 3 4 5 6 
#
# 1 0.011530 -0.003670 -0.000897 0.000000 0.000000 0.000000
# 2 -0.003670 0.028226 0.001916 0.000000 0.000000 0.000000
# 3 -0.000897 0.001916 0.029480 0.000000 0.000000 0.000000
# 4 0.000000 0.000000 0.000000 0.092246 0.000000 0.000000
# 5 0.000000 0.000000 0.000000 0.000000 0.035119 0.000000
# 6 0.000000 0.000000 0.000000 0.000000 0.000000 0.044033
#
#
# Mechanical properties :
#
#
# Convention : Reuss Voigt Hill
#
# Bulk Modulus (GPa) = 15.64129 20.55176 18.09653
# Shear Modulus (GPa) = 18.70914 22.41831 20.56372
#
# Velocity S-wave (km/s) = 3.09079 3.38333 3.24037
# Velocity P-wave (km/s) = 4.55235 5.07508 4.82081
#
# Compressibility (1/GPa) = 0.06393334
#
# Stress axis : x y z
#
# Youngs Moduli (GPa) = 86.72786 35.42776 33.92140
#
# Poissons Ratio (x) = 0.13003 0.03044
# Poissons Ratio (y) = 0.31833 -0.06500
# Poissons Ratio (z) = 0.07783 -0.06789
#
# Static dielectric constant tensor:
#      x y z
#    x 1.755170 0.000000 0.000000 
#    y 0.000000 1.686090 0.000000 
#    z 0.000000 0.000000 2.126050 
# 
# From -- ./inp_files/2070.got.cif
#   From: 2010.05.17/outbox.cif.g08.bks.cpg/sg19_2_cif.got.tgz:2070.got - 2010.06.03 22:46:19.
