data_PCOD9313091
_publ_section_title
;
Structure prediction by ZEFSAII (Michael W. Deem and Ramdas Pophale) SiO2 
 PCOD9313091
Probable space group: P 21 21 2
;
_chemical_formula_sum "Si O2"
_cell_formula_units_Z 24
_cell_length_a 9.781574
_cell_length_b 17.173159
_cell_length_c 6.630762
_cell_angle_alpha 90.000000
_cell_angle_beta 90.000000
_cell_angle_gamma 90.000000
_cell_volume 1113.838886
_symmetry_space_group_name_H-M "P 21 21 2"
_symmetry_group_IT_number 18
_symmetry_cell_setting 'orthorhombic'
loop_
_space_group_symop_operation_xyz
x,y,z
-x,-y,z
1/2+x,1/2-y,-z
1/2-x,1/2+y,-z
loop_
_atom_site_type_symbol
_atom_site_label
_atom_site_fract_x
_atom_site_fract_y
_atom_site_fract_z
Si Si1 0.188944 0.677608 0.136689
Si Si2 0.159306 0.546317 0.813698
Si Si3 0.390829 0.758791 0.838527
Si Si4 0.211971 0.433675 0.143038
Si Si5 0.500000 0.500000 0.273531
Si Si6 0.653340 0.375649 0.523457
Si Si7 0.000000 0.500000 0.463792
O O1 0.235667 0.647084 0.353228
O O2 0.052983 0.729213 0.140069
O O3 0.145949 0.606037 0.995066
O O4 0.318528 0.716699 0.027491
O O5 0.298852 0.564336 0.696993
O O6 0.055575 0.560806 0.629256
O O7 0.156718 0.463542 0.926243
O O8 0.312387 0.841832 0.827882
O O9 0.374755 0.703910 0.643255
O O10 0.364021 0.470633 0.157321
O O11 0.120920 0.470563 0.322735
O O12 0.539187 0.423865 0.404048
#
# Coordination Sequence:
#
# PCOD9313091 Si02
#       7
#     4   4   4   4   2   4   2
#     4  11  25  49  66 108 146 189 256 306 378 459
#     4  11  22  44  73  97 143 190 239 308 367 448
#     4  11  28  43  76 104 152 198 241 319 387 442
#     4  12  26  45  73 113 143 193 254 310 381 453
#     4  12  26  48  74 106 148 192 258 312 368 462
#     4  11  26  47  71 105 149 195 247 311 375 456
#     4  12  22  44  72 102 140 184 246 300 366 458
#
# _framework density 21.547103
#
# number of rings (size 3 to 8) (size 9 to 14) (size 15 to 20)
#    0.000    0.667    3.333    3.500    4.667    6.000 
#    0.000    0.000    0.000    0.000    0.000    0.000 
#    0.000    0.000    0.000    0.000    0.000    0.000 
#
# Total GULP energy -133898.253692 kJ/mol
# GULP energy per Si atom -5579.093904 kJ/mol
# Density = 2.149806 g / cm^3
# Si number density = 21.547103 Si / 1000 Ang^3
#
#
#
# Elastic Constant Matrix: (Units=GPa)
#
#
# Indices 1 2 3 4 5 6 
#
# 1 106.4531 29.3120 54.2563 0.0000 0.0000 0.0000
# 2 29.3120 98.4763 56.2898 0.0000 0.0000 0.0000
# 3 54.2563 56.2898 128.1717 0.0000 0.0000 0.0000
# 4 0.0000 0.0000 0.0000 21.7425 0.0000 0.0000
# 5 0.0000 0.0000 0.0000 0.0000 8.3872 0.0000
# 6 0.0000 0.0000 0.0000 0.0000 0.0000 37.4983
#
#
#
# Elastic Compliance Matrix: (Units=1/GPa)
#
#
# Indices 1 2 3 4 5 6 
#
# 1 0.012037 -0.000895 -0.004702 0.000000 0.000000 0.000000
# 2 -0.000895 0.013625 -0.005605 0.000000 0.000000 0.000000
# 3 -0.004702 -0.005605 0.012254 0.000000 0.000000 0.000000
# 4 0.000000 0.000000 0.000000 0.045993 0.000000 0.000000
# 5 0.000000 0.000000 0.000000 0.000000 0.119229 0.000000
# 6 0.000000 0.000000 0.000000 0.000000 0.000000 0.026668
#
#
# Mechanical properties :
#
#
# Convention : Reuss Voigt Hill
#
# Bulk Modulus (GPa) = 64.46785 68.09081 66.27933
# Shear Modulus (GPa) = 19.42648 26.40848 22.91748
#
# Velocity S-wave (km/s) = 3.00589 3.50468 3.26482
# Velocity P-wave (km/s) = 6.48318 6.93156 6.71112
#
# Compressibility (1/GPa) = 0.01551161
#
# Stress axis : x y z
#
# Youngs Moduli (GPa) = 83.07818 73.39501 81.60558
#
# Poissons Ratio (x) = 0.06569 0.38373
# Poissons Ratio (y) = 0.07435 0.45739
# Poissons Ratio (z) = 0.39066 0.41137
#
# Static dielectric constant tensor:
#      x y z
#    x 1.864300 0.000000 0.000000 
#    y 0.000000 1.833360 0.000000 
#    z 0.000000 0.000000 1.745210 
# 
# From -- ./inp_files/1141.got.cif
#   From: 2010.05.17/outbox.cif.g08.bks.cpg/sg18_1_cif.got.tgz:1141.got - 2010.06.03 22:40:56.
