data_PCOD9313277
_publ_section_title
;
Structure prediction by ZEFSAII (Michael W. Deem and Ramdas Pophale) SiO2 
 PCOD9313277
Probable space group: P 21 21 2
;
_chemical_formula_sum "Si O2"
_cell_formula_units_Z 20
_cell_length_a 12.000000
_cell_length_b 9.000000
_cell_length_c 9.000000
_cell_angle_alpha 90.000000
_cell_angle_beta 90.000000
_cell_angle_gamma 90.000000
_cell_volume 972.000000
_symmetry_space_group_name_H-M "P 21 21 2"
_symmetry_group_IT_number 18
_symmetry_cell_setting 'orthorhombic'
loop_
_space_group_symop_operation_xyz
x,y,z
-x,-y,z
1/2+x,1/2-y,-z
1/2-x,1/2+y,-z
loop_
_atom_site_type_symbol
_atom_site_label
_atom_site_fract_x
_atom_site_fract_y
_atom_site_fract_z
Si Si1 0.259946 0.086343 0.312442
Si Si2 0.807921 0.252714 0.384362
Si Si3 0.267974 0.008153 0.832953
Si Si4 0.456581 0.762996 0.797208
Si Si5 0.626133 0.769876 0.058562
O O1 0.293078 0.198924 0.445447
O O2 0.139394 0.142509 0.245935
O O3 0.361899 0.118868 0.198292
O O4 0.242060 0.912044 0.352354
O O5 0.741053 0.390608 0.308430
O O6 0.936145 0.258092 0.316727
O O7 0.382189 0.914399 0.801860
O O8 0.179115 0.887536 0.890631
O O9 0.292128 0.139719 0.948828
O O10 0.514405 0.747321 0.960750
#
# Coordination Sequence:
#
# PCOD9313277 Si02
#       5
#     4   4   4   4   4
#     4  11  23  40  65  95 127 165 209 260 313 371
#     4  11  22  41  65  93 129 166 208 261 315 372
#     4  10  21  38  62  92 123 163 206 255 311 371
#     4  10  22  42  65  90 124 164 206 258 315 370
#     4  10  19  37  62  92 125 160 203 250 306 370
#
# _framework density 20.576132000000001
#
# number of rings (size 3 to 8) (size 9 to 14) (size 15 to 20)
#    0.000    1.600    0.000    7.800    0.000    1.600 
#    0.000   18.000    0.000    9.600    0.000    0.000 
#    0.000    0.000    0.000    0.000    0.000    0.000 
#
# Total GULP energy -111460.187856 kJ/mol
# GULP energy per Si atom -5573.009393 kJ/mol
# Density = 2.052930 g / cm^3
# Si number density = 20.576132 Si / 1000 Ang^3
#
#
#
# Elastic Constant Matrix: (Units=GPa)
#
#
# Indices 1 2 3 4 5 6 
#
# 1 77.4807 43.0752 37.5900 0.0000 0.0000 0.0000
# 2 43.0752 114.3407 17.4923 0.0000 0.0000 0.0000
# 3 37.5900 17.4923 112.2679 0.0000 0.0000 0.0000
# 4 0.0000 0.0000 0.0000 44.6104 0.0000 0.0000
# 5 0.0000 0.0000 0.0000 0.0000 28.4589 0.0000
# 6 0.0000 0.0000 0.0000 0.0000 0.0000 31.1958
#
#
#
# Elastic Compliance Matrix: (Units=1/GPa)
#
#
# Indices 1 2 3 4 5 6 
#
# 1 0.019053 -0.006353 -0.005390 0.000000 0.000000 0.000000
# 2 -0.006353 0.011078 0.000401 0.000000 0.000000 0.000000
# 3 -0.005390 0.000401 0.010649 0.000000 0.000000 0.000000
# 4 0.000000 0.000000 0.000000 0.022416 0.000000 0.000000
# 5 0.000000 0.000000 0.000000 0.000000 0.035138 0.000000
# 6 0.000000 0.000000 0.000000 0.000000 0.000000 0.032056
#
#
# Mechanical properties :
#
#
# Convention : Reuss Voigt Hill
#
# Bulk Modulus (GPa) = 55.25759 55.60047 55.42903
# Shear Modulus (GPa) = 31.42543 34.58181 33.00362
#
# Velocity S-wave (km/s) = 3.91228 4.10405 4.00931
# Velocity P-wave (km/s) = 6.87905 7.03833 6.95915
#
# Compressibility (1/GPa) = 0.01809706
#
# Stress axis : x y z
#
# Youngs Moduli (GPa) = 52.48404 90.26968 93.90266
#
# Poissons Ratio (x) = 0.57352 0.50610
# Poissons Ratio (y) = 0.33345 -0.03768
# Poissons Ratio (z) = 0.28287 -0.03622
#
# Static dielectric constant tensor:
#      x y z
#    x 1.731420 0.000000 0.000000 
#    y 0.000000 1.738770 0.000000 
#    z 0.000000 0.000000 1.904930 
# 
# From -- ./inp_files/3648.got.cif
#   From: 2010.05.17/outbox.ucp.g08.bks.cvg/sg18_2_cif.got.tgz:3648.got - 2010.06.11 13:13:23.
