data_PCOD9313056
_publ_section_title
;
Structure prediction by ZEFSAII (Michael W. Deem and Ramdas Pophale) SiO2 
 PCOD9313056
Probable space group: P 21 21 2
;
_chemical_formula_sum "Si O2"
_cell_formula_units_Z 32
_cell_length_a 8.780583
_cell_length_b 12.999478
_cell_length_c 13.600927
_cell_angle_alpha 90.000000
_cell_angle_beta 90.000000
_cell_angle_gamma 90.000000
_cell_volume 1552.450550
_symmetry_space_group_name_H-M "P 21 21 2"
_symmetry_group_IT_number 18
_symmetry_cell_setting 'orthorhombic'
loop_
_space_group_symop_operation_xyz
x,y,z
-x,-y,z
1/2+x,1/2-y,-z
1/2-x,1/2+y,-z
loop_
_atom_site_type_symbol
_atom_site_label
_atom_site_fract_x
_atom_site_fract_y
_atom_site_fract_z
Si Si1 0.624566 0.922315 0.254280
Si Si2 0.124567 0.922315 0.745718
Si Si3 0.523342 0.250000 0.391581
Si Si4 0.139463 0.750001 0.893112
Si Si5 0.125609 0.574733 0.246296
Si Si6 0.107199 0.750000 0.390344
Si Si7 0.271253 0.750001 0.110819
Si Si8 0.874390 0.074733 0.246297
O O1 0.543528 0.848496 0.333181
O O2 0.689136 0.849425 0.169128
O O3 0.500000 0.000000 0.210898
O O4 0.753473 0.997209 0.295140
O O5 0.043530 0.848497 0.666817
O O6 0.189135 0.849425 0.830871
O O7 0.253475 0.997210 0.704860
O O8 0.000000 0.000000 0.789100
O O9 0.707113 0.250001 0.390017
O O10 0.460972 0.249999 0.501697
O O11 0.954541 0.750000 0.890941
O O12 0.205216 0.750001 0.001518
O O13 0.057794 0.649882 0.328852
O O14 0.208697 0.650393 0.169530
O O15 0.000000 0.500000 0.200033
O O16 0.057796 0.850119 0.328855
O O17 0.208697 0.849607 0.169531
O O18 0.000000 0.000000 0.200035
#
# Coordination Sequence:
#
# PCOD9313056 Si02
#       8
#     4   4   4   4   4   4   4   4
#     4  11  21  45  65  87 124 174 203 249 321 368
#     4  11  21  45  65  87 124 174 203 249 321 368
#     4  11  25  40  67  93 129 162 212 260 308 376
#     4  11  25  40  67  93 129 162 212 260 308 376
#     4  11  25  43  67  90 130 166 210 259 308 373
#     4  11  25  44  61  97 129 160 210 264 310 368
#     4  11  25  44  61  97 129 160 210 264 310 368
#     4  11  25  43  67  90 130 166 210 259 308 373
#
# _framework density 20.612572
#
# number of rings (size 3 to 8) (size 9 to 14) (size 15 to 20)
#    0.000    1.000    5.000    1.500    7.000    6.000 
#    0.000    0.000    0.000    0.000    0.000    0.000 
#    0.000    0.000    0.000    0.000    0.000    0.000 
#
# Total GULP energy -178824.117039 kJ/mol
# GULP energy per Si atom -5588.253657 kJ/mol
# Density = 2.056566 g / cm^3
# Si number density = 20.612572 Si / 1000 Ang^3
#
#
#
# Elastic Constant Matrix: (Units=GPa)
#
#
# Indices 1 2 3 4 5 6 
#
# 1 45.0298 28.4173 -7.3452 0.0000 0.0000 0.0000
# 2 28.4173 143.6091 38.4471 0.0000 0.0000 0.0000
# 3 -7.3452 38.4471 114.9264 0.0000 0.0000 0.0000
# 4 0.0000 0.0000 0.0000 -0.1342 0.0000 0.0000
# 5 0.0000 0.0000 0.0000 0.0000 36.1106 0.0000
# 6 0.0000 0.0000 0.0000 0.0000 0.0000 46.4327
#
#
#
# Elastic Compliance Matrix: (Units=1/GPa)
#
#
# Indices 1 2 3 4 5 6 
#
# 1 0.026831 -0.006336 0.003834 0.000000 0.000000 0.000000
# 2 -0.006336 0.009145 -0.003464 0.000000 0.000000 0.000000
# 3 0.003834 -0.003464 0.010105 0.000000 0.000000 0.000000
# 4 0.000000 0.000000 0.000000 -7.449778 0.000000 0.000000
# 5 0.000000 0.000000 0.000000 0.000000 0.027693 0.000000
# 6 0.000000 0.000000 0.000000 0.000000 0.000000 0.021537
#
#
# Mechanical properties :
#
#
# Convention : Reuss Voigt Hill
#
# Bulk Modulus (GPa) = 29.28261 46.95595 38.11928
# Shear Modulus (GPa) = -0.68202 32.75155 16.03476
#
# Velocity S-wave (km/s) = -0.57584 3.99044 2.79213
# Velocity P-wave (km/s) = 3.71415 6.63786 5.37848
#
# Compressibility (1/GPa) = 0.03414996
#
# Stress axis : x y z
#
# Youngs Moduli (GPa) = 37.26964 109.35509 98.95921
#
# Poissons Ratio (x) = 0.69287 -0.37946
# Poissons Ratio (y) = 0.23614 0.34281
# Poissons Ratio (z) = -0.14291 0.37882
#
# Static dielectric constant tensor:
#      x y z
#    x 1.777620 0.000000 0.000000 
#    y 0.000000 1.720730 0.000000 
#    z 0.000000 0.000000 1.674870 
# 
# From -- ./inp_files/6765.got.cif
#   From: 2010.05.17/outbox.cif.g08.bks.cpg/sg18_4_cif.got.tgz:6765.got - 2010.06.03 22:40:56.
