data_PCOD9313595
_publ_section_title
;
Structure prediction by ZEFSAII (Michael W. Deem and Ramdas Pophale) SiO2 
 PCOD9313595
Probable space group: P 21 21 21
;
_chemical_formula_sum "Si O2"
_cell_formula_units_Z 32
_cell_length_a 26.480633
_cell_length_b 9.442800
_cell_length_c 5.541686
_cell_angle_alpha 90.000000
_cell_angle_beta 90.000000
_cell_angle_gamma 90.000000
_cell_volume 1385.705906
_symmetry_space_group_name_H-M "P 21 21 21"
_symmetry_group_IT_number 19
_symmetry_cell_setting 'orthorhombic'
loop_
_space_group_symop_operation_xyz
x,y,z
1/2-x,-y,1/2+z
1/2+x,1/2-y,-z
-x,1/2+y,1/2-z
loop_
_atom_site_type_symbol
_atom_site_label
_atom_site_fract_x
_atom_site_fract_y
_atom_site_fract_z
Si Si1 0.053710 0.739131 0.896056
Si Si2 0.965683 0.527273 0.810719
Si Si3 0.211357 0.199985 0.264272
Si Si4 0.193257 0.949617 0.576254
Si Si5 0.180880 0.453834 0.769908
Si Si6 0.902069 0.321421 0.098710
Si Si7 0.631718 0.343675 0.114338
Si Si8 0.703178 0.967049 0.722629
O O1 0.087364 0.736075 0.651119
O O2 0.014949 0.610676 0.886188
O O3 0.024720 0.889310 0.854439
O O4 0.081214 0.750392 0.152979
O O5 0.926745 0.628443 0.665604
O O6 0.936011 0.462100 0.042189
O O7 0.259290 0.149083 0.114383
O O8 0.213915 0.364720 0.295413
O O9 0.215424 0.098714 0.490395
O O10 0.156507 0.171030 0.147930
O O11 0.155640 0.871631 0.393968
O O12 0.157641 0.009646 0.789248
O O13 0.148369 0.308706 0.769772
O O14 0.174877 0.550012 0.531403
O O15 0.240323 0.405891 0.777838
O O16 0.175204 0.542695 0.020015
#
# Coordination Sequence:
#
# PCOD9313595 Si02
#       8
#     4   4   4   4   4   4   4   4
#     4  10  21  41  63  91 119 160 199 263 318 373
#     4   9  22  38  68  89 122 156 206 257 317 369
#     4  11  20  31  55  80 122 153 199 231 295 343
#     4  11  20  33  53  86 116 160 192 243 289 361
#     4   9  17  32  49  71 101 136 186 222 272 320
#     4   9  23  37  62  87 124 157 201 257 313 365
#     4  10  19  36  53  87 110 158 193 247 285 364
#     4   9  18  30  49  69 100 146 180 224 263 323
#
# _framework density 23.092924
#
# number of rings (size 3 to 8) (size 9 to 14) (size 15 to 20)
#    0.750    1.500    2.500    0.750    1.750    0.000 
#    0.000    1.250    0.000    6.000    0.000    0.000 
#    0.000    0.000    0.000    0.000    0.000    0.000 
#
# Total GULP energy -178363.834259 kJ/mol
# GULP energy per Si atom -5573.869821 kJ/mol
# Density = 2.304036 g / cm^3
# Si number density = 23.092924 Si / 1000 Ang^3
#
#
#
# Elastic Constant Matrix: (Units=GPa)
#
#
# Indices 1 2 3 4 5 6 
#
# 1 44.2488 15.6901 26.5309 0.0000 0.0000 0.0000
# 2 15.6901 37.5552 23.6579 0.0000 0.0000 0.0000
# 3 26.5309 23.6579 123.7717 0.0000 0.0000 0.0000
# 4 0.0000 0.0000 0.0000 1.0461 0.0000 0.0000
# 5 0.0000 0.0000 0.0000 0.0000 13.0628 0.0000
# 6 0.0000 0.0000 0.0000 0.0000 0.0000 34.2650
#
#
#
# Elastic Compliance Matrix: (Units=1/GPa)
#
#
# Indices 1 2 3 4 5 6 
#
# 1 0.028451 -0.009146 -0.004350 0.000000 0.000000 0.000000
# 2 -0.009146 0.033213 -0.004388 0.000000 0.000000 0.000000
# 3 -0.004350 -0.004388 0.009851 0.000000 0.000000 0.000000
# 4 0.000000 0.000000 0.000000 0.955952 0.000000 0.000000
# 5 0.000000 0.000000 0.000000 0.000000 0.076553 0.000000
# 6 0.000000 0.000000 0.000000 0.000000 0.000000 0.029184
#
#
# Mechanical properties :
#
#
# Convention : Reuss Voigt Hill
#
# Bulk Modulus (GPa) = 27.97525 37.48149 32.72837
# Shear Modulus (GPa) = 4.23410 18.98789 11.61100
#
# Velocity S-wave (km/s) = 1.35554 2.87058 2.24474
# Velocity P-wave (km/s) = 3.81975 5.22043 4.57403
#
# Compressibility (1/GPa) = 0.03574588
#
# Stress axis : x y z
#
# Youngs Moduli (GPa) = 35.14821 30.10899 101.51654
#
# Poissons Ratio (x) = 0.27537 0.44164
# Poissons Ratio (y) = 0.32146 0.44544
# Poissons Ratio (z) = 0.15291 0.13211
#
# Static dielectric constant tensor:
#      x y z
#    x 1.854620 0.000000 0.000000 
#    y 0.000000 1.870250 0.000000 
#    z 0.000000 0.000000 2.022940 
# 
# From -- ./inp_files/2180.got.cif
#   From: 2010.05.17/outbox.cif.g08.bks.cpg/sg19_2_cif.got.tgz:2180.got - 2010.06.03 22:46:19.
