data_PCOD9313664
_publ_section_title
;
Structure prediction by ZEFSAII (Michael W. Deem and Ramdas Pophale) SiO2 
 PCOD9313664
Probable space group: P 21 21 21
;
_chemical_formula_sum "Si O2"
_cell_formula_units_Z 32
_cell_length_a 13.747107
_cell_length_b 12.016334
_cell_length_c 9.964672
_cell_angle_alpha 90.000000
_cell_angle_beta 90.000000
_cell_angle_gamma 90.000000
_cell_volume 1646.062466
_symmetry_space_group_name_H-M "P 21 21 21"
_symmetry_group_IT_number 19
_symmetry_cell_setting 'orthorhombic'
loop_
_space_group_symop_operation_xyz
x,y,z
1/2-x,-y,1/2+z
1/2+x,1/2-y,-z
-x,1/2+y,1/2-z
loop_
_atom_site_type_symbol
_atom_site_label
_atom_site_fract_x
_atom_site_fract_y
_atom_site_fract_z
Si Si1 0.234695 0.160832 0.136405
Si Si2 0.542003 0.439845 0.571007
Si Si3 0.297581 0.818315 0.326789
Si Si4 0.086471 0.744624 0.997575
Si Si5 0.076809 0.975915 0.722250
Si Si6 0.117915 0.935392 0.189035
Si Si7 0.079163 0.335391 0.644073
Si Si8 0.306735 0.744728 0.902704
O O1 0.339058 0.117894 0.194355
O O2 0.194802 0.253301 0.241006
O O3 0.168659 0.048990 0.140643
O O4 0.229642 0.197742 0.982265
O O5 0.452439 0.355405 0.589025
O O6 0.540924 0.495313 0.426675
O O7 0.548513 0.527281 0.690595
O O8 0.641570 0.364928 0.569582
O O9 0.200438 0.855248 0.249885
O O10 0.346841 0.713361 0.253817
O O11 0.369501 0.923130 0.298743
O O12 0.196299 0.737771 0.951330
O O13 0.008102 0.745724 0.877843
O O14 0.073211 0.862784 0.071173
O O15 0.981859 0.939061 0.804015
O O16 0.134169 0.337613 0.500528
#
# Coordination Sequence:
#
# PCOD9313664 Si02
#       8
#     4   4   4   4   4   4   4   4
#     4  10  20  32  61  92 120 148 203 270 304 348
#     4  10  21  37  61  97 123 159 216 258 308 370
#     4  11  20  37  62  94 118 155 211 265 305 359
#     4  11  19  37  64  87 126 168 202 254 319 372
#     4  11  19  35  60  92 124 152 207 256 314 372
#     4  10  20  35  62  90 123 159 205 264 309 360
#     4  11  22  35  63  91 117 169 205 247 323 371
#     4  10  19  38  59  91 119 162 201 250 312 366
#
# _framework density 19.440332999999999
#
# number of rings (size 3 to 8) (size 9 to 14) (size 15 to 20)
#    0.000    1.500    6.250    1.500    1.750    0.000 
#    6.750    0.000    5.500    1.500    0.000    0.000 
#    0.000    0.000    0.000    0.000    0.000    0.000 
#
# Total GULP energy -178285.969056 kJ/mol
# GULP energy per Si atom -5571.436533 kJ/mol
# Density = 1.939609 g / cm^3
# Si number density = 19.440333 Si / 1000 Ang^3
#
#
#
# Elastic Constant Matrix: (Units=GPa)
#
#
# Indices 1 2 3 4 5 6 
#
# 1 81.1813 15.0550 33.2331 0.0000 0.0000 0.0000
# 2 15.0550 18.3273 2.8365 0.0000 0.0000 0.0000
# 3 33.2331 2.8365 67.1167 0.0000 0.0000 0.0000
# 4 0.0000 0.0000 0.0000 24.3877 0.0000 0.0000
# 5 0.0000 0.0000 0.0000 0.0000 27.4848 0.0000
# 6 0.0000 0.0000 0.0000 0.0000 0.0000 27.8688
#
#
#
# Elastic Compliance Matrix: (Units=1/GPa)
#
#
# Indices 1 2 3 4 5 6 
#
# 1 0.018351 -0.013758 -0.008505 0.000000 0.000000 0.000000
# 2 -0.013758 0.065238 0.004055 0.000000 0.000000 0.000000
# 3 -0.008505 0.004055 0.018939 0.000000 0.000000 0.000000
# 4 0.000000 0.000000 0.000000 0.041004 0.000000 0.000000
# 5 0.000000 0.000000 0.000000 0.000000 0.036384 0.000000
# 6 0.000000 0.000000 0.000000 0.000000 0.000000 0.035882
#
#
# Mechanical properties :
#
#
# Convention : Reuss Voigt Hill
#
# Bulk Modulus (GPa) = 15.12585 29.87493 22.50039
# Shear Modulus (GPa) = 18.23135 23.64831 20.93983
#
# Velocity S-wave (km/s) = 3.06569 3.49156 3.28553
# Velocity P-wave (km/s) = 4.50875 5.62632 5.09825
#
# Compressibility (1/GPa) = 0.06611199
#
# Stress axis : x y z
#
# Youngs Moduli (GPa) = 54.49178 15.32856 52.79979
#
# Poissons Ratio (x) = 0.21090 0.44908
# Poissons Ratio (y) = 0.74972 -0.21413
# Poissons Ratio (z) = 0.46347 -0.06216
#
# Static dielectric constant tensor:
#      x y z
#    x 1.706170 0.000000 0.000000 
#    y 0.000000 1.709970 0.000000 
#    z 0.000000 0.000000 1.726410 
# 
# From -- ./inp_files/4038.got.cif
#   From: 2010.05.17/outbox.cif.g08.bks.cpg/sg19_3_cif.got.tgz:4038.got - 2010.06.03 22:46:19.
