data_PCOD9313361
_publ_section_title
;
Structure prediction by ZEFSAII (Michael W. Deem and Ramdas Pophale) SiO2 
 PCOD9313361
Probable space group: P 21 21 21
;
_chemical_formula_sum "Si O2"
_cell_formula_units_Z 28
_cell_length_a 12.627771
_cell_length_b 8.932011
_cell_length_c 9.769556
_cell_angle_alpha 90.000000
_cell_angle_beta 90.000000
_cell_angle_gamma 90.000000
_cell_volume 1101.921796
_symmetry_space_group_name_H-M "P 21 21 21"
_symmetry_group_IT_number 19
_symmetry_cell_setting 'orthorhombic'
loop_
_space_group_symop_operation_xyz
x,y,z
1/2-x,-y,1/2+z
1/2+x,1/2-y,-z
-x,1/2+y,1/2-z
loop_
_atom_site_type_symbol
_atom_site_label
_atom_site_fract_x
_atom_site_fract_y
_atom_site_fract_z
Si Si1 0.655996 0.389487 0.502900
Si Si2 0.993708 0.422051 0.349982
Si Si3 0.741507 0.308083 0.069656
Si Si4 0.631298 0.269722 0.796611
Si Si5 0.815211 0.194646 0.337395
Si Si6 0.037666 0.194664 0.750253
Si Si7 0.881293 0.993347 0.874315
O O1 0.680095 0.554484 0.551581
O O2 0.667679 0.290682 0.639822
O O3 0.747291 0.332076 0.401220
O O4 0.556667 0.375819 0.400596
O O5 0.926619 0.571575 0.325571
O O6 0.929978 0.263630 0.369880
O O7 0.060099 0.379596 0.214531
O O8 0.064050 0.460406 0.481031
O O9 0.799266 0.196271 0.173443
O O10 0.630747 0.355701 0.143827
O O11 0.712267 0.254393 0.919654
O O12 0.741809 0.055288 0.382375
O O13 0.062869 0.369274 0.725950
O O14 0.925506 0.148230 0.813303
#
# Coordination Sequence:
#
# PCOD9313361 Si02
#       7
#     4   4   4   4   4   4   4
#     4  10  17  35  62  93 107 158 211 253 293 365
#     4  12  23  41  63  94 128 163 204 264 315 364
#     4  10  18  35  60  92 112 157 210 255 290 362
#     4  12  22  36  68  89 127 156 209 257 318 362
#     4  10  21  38  64  85 129 160 210 255 306 369
#     4  10  20  36  63  84 121 158 199 247 310 367
#     4  10  21  41  62  91 120 164 205 259 308 369
#
# _framework density 25.410152
#
# number of rings (size 3 to 8) (size 9 to 14) (size 15 to 20)
#    0.000    1.714    7.143    0.857    0.000    2.286 
#    0.000    1.429    0.000    0.000    0.000    0.000 
#    0.000    0.000    0.000    0.000    0.000    0.000 
#
# Total GULP energy -156250.720363 kJ/mol
# GULP energy per Si atom -5580.382870 kJ/mol
# Density = 2.535232 g / cm^3
# Si number density = 25.410152 Si / 1000 Ang^3
#
#
#
# Elastic Constant Matrix: (Units=GPa)
#
#
# Indices 1 2 3 4 5 6 
#
# 1 77.7200 15.2357 50.8407 0.0000 0.0000 0.0000
# 2 15.2357 77.5500 18.8687 0.0000 0.0000 0.0000
# 3 50.8407 18.8687 150.0698 0.0000 0.0000 0.0000
# 4 0.0000 0.0000 0.0000 14.4210 0.0000 0.0000
# 5 0.0000 0.0000 0.0000 0.0000 29.9359 0.0000
# 6 0.0000 0.0000 0.0000 0.0000 0.0000 47.4779
#
#
#
# Elastic Compliance Matrix: (Units=1/GPa)
#
#
# Indices 1 2 3 4 5 6 
#
# 1 0.016819 -0.001978 -0.005449 0.000000 0.000000 0.000000
# 2 -0.001978 0.013535 -0.001031 0.000000 0.000000 0.000000
# 3 -0.005449 -0.001031 0.008639 0.000000 0.000000 0.000000
# 4 0.000000 0.000000 0.000000 0.069343 0.000000 0.000000
# 5 0.000000 0.000000 0.000000 0.000000 0.033405 0.000000
# 6 0.000000 0.000000 0.000000 0.000000 0.000000 0.021062
#
#
# Mechanical properties :
#
#
# Convention : Reuss Voigt Hill
#
# Bulk Modulus (GPa) = 45.30070 52.80332 49.05201
# Shear Modulus (GPa) = 26.72649 33.05993 29.89321
#
# Velocity S-wave (km/s) = 3.24667 3.61092 3.43363
# Velocity P-wave (km/s) = 5.64987 6.18147 5.92164
#
# Compressibility (1/GPa) = 0.02207471
#
# Stress axis : x y z
#
# Youngs Moduli (GPa) = 59.45589 73.88482 115.74944
#
# Poissons Ratio (x) = 0.14618 0.63075
# Poissons Ratio (y) = 0.11763 0.11939
# Poissons Ratio (z) = 0.32399 0.07621
#
# Static dielectric constant tensor:
#      x y z
#    x 2.105670 0.000000 0.000000 
#    y 0.000000 2.056900 0.000000 
#    z 0.000000 0.000000 1.957610 
# 
# From -- ./inp_files/3913.got.cif
#   From: 2010.05.17/outbox.cif.g08.bks.cpg/sg19_2_cif.got.tgz:3913.got - 2010.06.03 22:46:19.
