data_PCOD9313649
_publ_section_title
;
Structure prediction by ZEFSAII (Michael W. Deem and Ramdas Pophale) SiO2 
 PCOD9313649
Probable space group: P 21 21 21
;
_chemical_formula_sum "Si O2"
_cell_formula_units_Z 32
_cell_length_a 8.510634
_cell_length_b 10.882663
_cell_length_c 14.041709
_cell_angle_alpha 90.000000
_cell_angle_beta 90.000000
_cell_angle_gamma 90.000000
_cell_volume 1300.520084
_symmetry_space_group_name_H-M "P 21 21 21"
_symmetry_group_IT_number 19
_symmetry_cell_setting 'orthorhombic'
loop_
_space_group_symop_operation_xyz
x,y,z
1/2-x,-y,1/2+z
1/2+x,1/2-y,-z
-x,1/2+y,1/2-z
loop_
_atom_site_type_symbol
_atom_site_label
_atom_site_fract_x
_atom_site_fract_y
_atom_site_fract_z
Si Si1 0.536210 0.470959 0.099475
Si Si2 0.234777 0.547142 0.211729
Si Si3 0.920924 0.628690 0.268357
Si Si4 0.362888 0.101905 0.097656
Si Si5 0.429502 0.770059 0.256638
Si Si6 0.605763 0.805744 0.551489
Si Si7 0.836389 0.028430 0.583350
Si Si8 0.305501 0.222870 0.391283
O O1 0.356612 0.503133 0.131746
O O2 0.603815 0.397750 0.191026
O O3 0.639316 0.589359 0.072890
O O4 0.518235 0.377810 0.013897
O O5 0.281107 0.689251 0.228506
O O6 0.288291 0.473130 0.305254
O O7 0.046796 0.541953 0.214012
O O8 0.787342 0.569989 0.337464
O O9 0.831370 0.702003 0.185775
O O10 0.021108 0.706337 0.346622
O O11 0.467554 0.188644 0.168585
O O12 0.478927 0.992247 0.069846
O O13 0.343769 0.183807 0.003130
O O14 0.539909 0.769099 0.165246
O O15 0.750129 0.902178 0.553218
O O16 0.774400 0.158520 0.542596
#
# Coordination Sequence:
#
# PCOD9313649 Si02
#       8
#     4   4   4   4   4   4   4   4
#     4  10  19  38  60  86 118 164 214 253 326 381
#     4   9  18  35  57  86 116 154 207 258 309 372
#     4  10  21  37  58  93 123 157 214 266 310 379
#     4   9  18  35  61  87 118 156 206 254 318 371
#     4   8  16  32  59  82 111 157 203 245 298 376
#     4  10  21  38  62  89 123 160 209 274 316 376
#     4  10  19  37  62  84 121 166 199 257 324 379
#     4  10  20  36  59  85 124 166 208 255 319 394
#
# _framework density 24.605540000000001
#
# number of rings (size 3 to 8) (size 9 to 14) (size 15 to 20)
#    0.000    2.500    1.250    1.500    0.000    1.000 
#    4.500    3.750    0.000    0.000    0.000    0.000 
#    0.000    0.000    0.000    0.000    0.000    0.000 
#
# Total GULP energy -178503.056760 kJ/mol
# GULP energy per Si atom -5578.220524 kJ/mol
# Density = 2.454954 g / cm^3
# Si number density = 24.605540 Si / 1000 Ang^3
#
#
#
# Elastic Constant Matrix: (Units=GPa)
#
#
# Indices 1 2 3 4 5 6 
#
# 1 122.4626 40.1737 25.3653 0.0000 0.0000 0.0000
# 2 40.1737 74.7429 -4.5316 0.0000 0.0000 0.0000
# 3 25.3653 -4.5316 38.0768 0.0000 0.0000 0.0000
# 4 0.0000 0.0000 0.0000 19.9646 0.0000 0.0000
# 5 0.0000 0.0000 0.0000 0.0000 17.5391 0.0000
# 6 0.0000 0.0000 0.0000 0.0000 0.0000 26.3700
#
#
#
# Elastic Compliance Matrix: (Units=1/GPa)
#
#
# Indices 1 2 3 4 5 6 
#
# 1 0.012434 -0.007238 -0.009145 0.000000 0.000000 0.000000
# 2 -0.007238 0.017689 0.006927 0.000000 0.000000 0.000000
# 3 -0.009145 0.006927 0.033179 0.000000 0.000000 0.000000
# 4 0.000000 0.000000 0.000000 0.050089 0.000000 0.000000
# 5 0.000000 0.000000 0.000000 0.000000 0.057015 0.000000
# 6 0.000000 0.000000 0.000000 0.000000 0.000000 0.037922
#
#
# Mechanical properties :
#
#
# Convention : Reuss Voigt Hill
#
# Bulk Modulus (GPa) = 22.52694 39.69966 31.11330
# Shear Modulus (GPa) = 20.65806 24.39307 22.52557
#
# Velocity S-wave (km/s) = 2.90068 3.15201 3.02895
# Velocity P-wave (km/s) = 4.51593 5.42369 4.99049
#
# Compressibility (1/GPa) = 0.04439129
#
# Stress axis : x y z
#
# Youngs Moduli (GPa) = 80.42371 56.53118 30.13977
#
# Poissons Ratio (x) = 0.40915 0.27561
# Poissons Ratio (y) = 0.58208 -0.20877
# Poissons Ratio (z) = 0.73543 -0.39157
#
# Static dielectric constant tensor:
#      x y z
#    x 2.021060 0.000000 0.000000 
#    y 0.000000 2.068550 0.000000 
#    z 0.000000 0.000000 2.028580 
# 
# From -- ./inp_files/6652.got.cif
#   From: 2010.05.17/outbox.cif.g08.bks.cpg/sg19_4_cif.got.tgz:6652.got - 2010.06.03 22:46:19.
