data_PCOD9313208
_publ_section_title
;
Structure prediction by ZEFSAII (Michael W. Deem and Ramdas Pophale) SiO2 
 PCOD9313208
Probable space group: P 21 21 2
;
_chemical_formula_sum "Si O2"
_cell_formula_units_Z 20
_cell_length_a 10.204748
_cell_length_b 15.187705
_cell_length_c 5.407238
_cell_angle_alpha 90.000000
_cell_angle_beta 90.000000
_cell_angle_gamma 90.000000
_cell_volume 838.049986
_symmetry_space_group_name_H-M "P 21 21 2"
_symmetry_group_IT_number 18
_symmetry_cell_setting 'orthorhombic'
loop_
_space_group_symop_operation_xyz
x,y,z
-x,-y,z
1/2+x,1/2-y,-z
1/2-x,1/2+y,-z
loop_
_atom_site_type_symbol
_atom_site_label
_atom_site_fract_x
_atom_site_fract_y
_atom_site_fract_z
Si Si1 0.894831 0.179773 0.011073
Si Si2 0.500000 0.000000 0.894655
Si Si3 0.062609 0.714284 0.505979
Si Si4 0.764647 0.454799 0.460993
Si Si5 0.500000 0.500000 0.180816
Si Si6 0.141402 0.386776 0.770117
O O1 0.944256 0.231418 0.252650
O O2 0.741164 0.169544 0.071793
O O3 0.919586 0.225634 0.748375
O O4 0.955886 0.082786 0.983140
O O5 0.518668 0.084024 0.066496
O O6 0.370600 0.010665 0.737212
O O7 0.182969 0.643994 0.505352
O O8 0.924936 0.663288 0.543077
O O9 0.620973 0.467246 0.350422
O O10 0.787178 0.523367 0.684730
#
# Coordination Sequence:
#
# PCOD9313208 Si02
#       6
#     4   2   4   4   2   4
#     4  12  31  52  80 120 169 209 275 339 409 485
#     4  12  20  50  88 108 150 216 270 320 390 506
#     4  12  28  53  84 123 156 216 274 346 399 484
#     4  12  26  52  87 116 163 215 273 333 416 491
#     4  12  30  58  78 120 174 224 260 342 430 490
#     4  12  26  52  83 114 162 212 278 330 407 494
#
# _framework density 23.864926000000001
#
# number of rings (size 3 to 8) (size 9 to 14) (size 15 to 20)
#    0.000    0.000    6.000    2.400    2.800    3.200 
#    7.200    0.000    0.000    0.000    0.000    0.000 
#    0.000    0.000    0.000    0.000    0.000    0.000 
#
# Total GULP energy -112044.787470 kJ/mol
# GULP energy per Si atom -5602.239373 kJ/mol
# Density = 2.381061 g / cm^3
# Si number density = 23.864926 Si / 1000 Ang^3
#
#
#
# Elastic Constant Matrix: (Units=GPa)
#
#
# Indices 1 2 3 4 5 6 
#
# 1 132.1021 44.2176 37.8097 0.0000 0.0000 0.0000
# 2 44.2176 161.2131 81.3651 0.0000 0.0000 0.0000
# 3 37.8097 81.3651 146.0522 0.0000 0.0000 0.0000
# 4 0.0000 0.0000 0.0000 48.5058 0.0000 0.0000
# 5 0.0000 0.0000 0.0000 0.0000 49.5068 0.0000
# 6 0.0000 0.0000 0.0000 0.0000 0.0000 31.0231
#
#
#
# Elastic Compliance Matrix: (Units=1/GPa)
#
#
# Indices 1 2 3 4 5 6 
#
# 1 0.008497 -0.001698 -0.001254 0.000000 0.000000 0.000000
# 2 -0.001698 0.008968 -0.004557 0.000000 0.000000 0.000000
# 3 -0.001254 -0.004557 0.009710 0.000000 0.000000 0.000000
# 4 0.000000 0.000000 0.000000 0.020616 0.000000 0.000000
# 5 0.000000 0.000000 0.000000 0.000000 0.020199 0.000000
# 6 0.000000 0.000000 0.000000 0.000000 0.000000 0.032234
#
#
# Mechanical properties :
#
#
# Convention : Reuss Voigt Hill
#
# Bulk Modulus (GPa) = 82.24549 85.12802 83.68676
# Shear Modulus (GPa) = 41.91301 44.20547 43.05924
#
# Velocity S-wave (km/s) = 4.19532 4.30853 4.25230
# Velocity P-wave (km/s) = 7.61613 7.77814 7.69756
#
# Compressibility (1/GPa) = 0.01215872
#
# Stress axis : x y z
#
# Youngs Moduli (GPa) = 117.68783 111.50193 102.98616
#
# Poissons Ratio (x) = 0.18930 0.12914
# Poissons Ratio (y) = 0.19980 0.46929
# Poissons Ratio (z) = 0.14757 0.50809
#
# Static dielectric constant tensor:
#      x y z
#    x 1.887210 0.000000 0.000000 
#    y 0.000000 1.992500 0.000000 
#    z 0.000000 0.000000 1.910110 
# 
# From -- ./inp_files/494.got.cif
#   From: 2010.05.17/outbox.cif.g08.bks.cpg/sg18_1_cif.got.tgz:494.got - 2010.06.03 22:40:56.
