data_PCOD9313775
_publ_section_title
;
Structure prediction by ZEFSAII (Michael W. Deem and Ramdas Pophale) SiO2 
 PCOD9313775
Probable space group: P 21 21 21
;
_chemical_formula_sum "Si O2"
_cell_formula_units_Z 24
_cell_length_a 13.795551
_cell_length_b 5.122301
_cell_length_c 11.732742
_cell_angle_alpha 90.000000
_cell_angle_beta 90.000000
_cell_angle_gamma 90.000000
_cell_volume 829.093799
_symmetry_space_group_name_H-M "P 21 21 21"
_symmetry_group_IT_number 19
_symmetry_cell_setting 'orthorhombic'
loop_
_space_group_symop_operation_xyz
x,y,z
1/2-x,-y,1/2+z
1/2+x,1/2-y,-z
-x,1/2+y,1/2-z
loop_
_atom_site_type_symbol
_atom_site_label
_atom_site_fract_x
_atom_site_fract_y
_atom_site_fract_z
Si Si1 0.412510 0.004544 0.016567
Si Si2 0.294236 0.188022 0.304514
Si Si3 0.116162 0.314058 0.205279
Si Si4 0.939385 0.315217 0.364264
Si Si5 0.914347 0.838498 0.676034
Si Si6 0.643323 0.992254 0.411637
O O1 0.483498 0.126509 0.115389
O O2 0.373852 0.293440 0.981621
O O3 0.331714 0.784941 0.046034
O O4 0.491682 0.825876 0.953365
O O5 0.343462 0.429925 0.367897
O O6 0.297977 0.292918 0.171430
O O7 0.178496 0.176239 0.304987
O O8 0.353117 0.927666 0.327547
O O9 0.009489 0.370599 0.257069
O O10 0.101881 0.099669 0.106304
O O11 0.142890 0.606342 0.167428
O O12 0.930534 0.903888 0.810468
#
# Coordination Sequence:
#
# PCOD9313775 Si02
#       6
#     4   4   4   4   4   4
#     4  12  20  36  57  91 119 142 201 235 279 352
#     4  10  20  36  60  81 113 162 188 225 292 355
#     4  10  21  44  60  80 113 153 206 236 291 349
#     4  10  23  38  65  84 107 158 195 251 286 331
#     4  10  20  34  56  87 113 159 179 230 296 341
#     4  10  20  34  56  85 119 156 179 229 294 342
#
# _framework density 28.947268000000001
#
# number of rings (size 3 to 8) (size 9 to 14) (size 15 to 20)
#    1.000    0.667    1.667    4.000    0.000    0.000 
#    0.000    5.000    0.000    0.000    0.000    0.000 
#    0.000    0.000    0.000    0.000    0.000    0.000 
#
# Total GULP energy -133672.193559 kJ/mol
# GULP energy per Si atom -5569.674732 kJ/mol
# Density = 2.888138 g / cm^3
# Si number density = 28.947268 Si / 1000 Ang^3
#
#
#
# Elastic Constant Matrix: (Units=GPa)
#
#
# Indices 1 2 3 4 5 6 
#
# 1 85.0692 32.5346 -3.5689 0.0000 0.0000 0.0000
# 2 32.5346 267.5446 2.0281 0.0000 0.0000 0.0000
# 3 -3.5689 2.0281 54.1497 0.0000 0.0000 0.0000
# 4 0.0000 0.0000 0.0000 21.2459 0.0000 0.0000
# 5 0.0000 0.0000 0.0000 0.0000 18.0436 0.0000
# 6 0.0000 0.0000 0.0000 0.0000 0.0000 46.5651
#
#
#
# Elastic Compliance Matrix: (Units=1/GPa)
#
#
# Indices 1 2 3 4 5 6 
#
# 1 0.012370 -0.001511 0.000872 0.000000 0.000000 0.000000
# 2 -0.001511 0.003923 -0.000247 0.000000 0.000000 0.000000
# 3 0.000872 -0.000247 0.018534 0.000000 0.000000 0.000000
# 4 0.000000 0.000000 0.000000 0.047068 0.000000 0.000000
# 5 0.000000 0.000000 0.000000 0.000000 0.055421 0.000000
# 6 0.000000 0.000000 0.000000 0.000000 0.000000 0.021475
#
#
# Mechanical properties :
#
#
# Convention : Reuss Voigt Hill
#
# Bulk Modulus (GPa) = 30.25181 52.08345 41.16763
# Shear Modulus (GPa) = 29.14074 42.22222 35.68148
#
# Velocity S-wave (km/s) = 3.17627 3.82329 3.51470
# Velocity P-wave (km/s) = 4.89131 6.12549 5.54286
#
# Compressibility (1/GPa) = 0.03305587
#
# Stress axis : x y z
#
# Youngs Moduli (GPa) = 80.84392 254.88855 53.95487
#
# Poissons Ratio (x) = 0.38508 -0.04704
# Poissons Ratio (y) = 0.12214 0.01330
# Poissons Ratio (z) = -0.07048 0.06283
#
# Static dielectric constant tensor:
#      x y z
#    x 2.646610 0.000000 0.000000 
#    y 0.000000 2.348390 0.000000 
#    z 0.000000 0.000000 2.528740 
# 
# From -- ./inp_files/6206.got.cif
#   From: 2010.05.17/outbox.cif.g08.bks.cpg/sg19_4_cif.got.tgz:6206.got - 2010.06.03 22:46:19.
