data_PCOD9313980
_publ_section_title
;
Structure prediction by ZEFSAII (Michael W. Deem and Ramdas Pophale) SiO2 
 PCOD9313980
Probable space group: P 21 21 21
;
_chemical_formula_sum "Si O2"
_cell_formula_units_Z 28
_cell_length_a 11.891245
_cell_length_b 8.004069
_cell_length_c 12.160941
_cell_angle_alpha 90.000000
_cell_angle_beta 90.000000
_cell_angle_gamma 90.000000
_cell_volume 1157.458244
_symmetry_space_group_name_H-M "P 21 21 21"
_symmetry_group_IT_number 19
_symmetry_cell_setting 'orthorhombic'
loop_
_space_group_symop_operation_xyz
x,y,z
1/2-x,-y,1/2+z
1/2+x,1/2-y,-z
-x,1/2+y,1/2-z
loop_
_atom_site_type_symbol
_atom_site_label
_atom_site_fract_x
_atom_site_fract_y
_atom_site_fract_z
Si Si1 0.743394 0.860865 0.481184
Si Si2 0.739032 0.322683 0.331215
Si Si3 0.374285 0.842443 0.693475
Si Si4 0.966609 0.180659 0.389481
Si Si5 0.894546 0.457338 0.976752
Si Si6 0.423898 0.705861 0.348961
Si Si7 0.509349 0.001282 0.492750
O O1 0.799576 0.796338 0.368369
O O2 0.678289 0.693880 0.521043
O O3 0.835456 0.891658 0.573559
O O4 0.642878 0.991569 0.475231
O O5 0.796624 0.493540 0.281123
O O6 0.841104 0.193777 0.345305
O O7 0.688056 0.393648 0.444622
O O8 0.638034 0.240534 0.263942
O O9 0.442979 0.772100 0.796102
O O10 0.465295 0.912505 0.605158
O O11 0.971233 0.310085 0.490816
O O12 0.013329 0.008011 0.434723
O O13 0.959885 0.393965 0.866875
O O14 0.451043 0.888135 0.400574
#
# Coordination Sequence:
#
# PCOD9313980 Si02
#       7
#     4   4   4   4   4   4   4
#     4   9  18  38  60  86 120 157 198 247 304 359
#     4  10  22  41  62  88 122 162 203 254 307 357
#     4   9  19  35  62  90 119 161 205 248 301 360
#     4  11  22  39  64  94 122 155 205 257 304 362
#     4  10  23  40  61  90 122 159 202 251 309 364
#     4  10  20  39  63  82 118 166 203 244 302 365
#     4   9  20  36  58  88 119 158 200 247 305 361
#
# _framework density 24.190937999999999
#
# number of rings (size 3 to 8) (size 9 to 14) (size 15 to 20)
#    0.000    2.286    0.000    2.571    0.000    8.000 
#    0.000   10.000    0.000    3.429    0.000    0.000 
#    0.000    0.000    0.000    0.000    0.000    0.000 
#
# Total GULP energy -156515.489722 kJ/mol
# GULP energy per Si atom -5589.838919 kJ/mol
# Density = 2.413588 g / cm^3
# Si number density = 24.190938 Si / 1000 Ang^3
#
#
#
# Elastic Constant Matrix: (Units=GPa)
#
#
# Indices 1 2 3 4 5 6 
#
# 1 99.0701 17.6523 -0.2121 0.0000 0.0000 0.0000
# 2 17.6523 46.0224 5.8653 0.0000 0.0000 0.0000
# 3 -0.2121 5.8653 24.2113 0.0000 0.0000 0.0000
# 4 0.0000 0.0000 0.0000 21.0339 0.0000 0.0000
# 5 0.0000 0.0000 0.0000 0.0000 36.8908 0.0000
# 6 0.0000 0.0000 0.0000 0.0000 0.0000 41.7565
#
#
#
# Elastic Compliance Matrix: (Units=1/GPa)
#
#
# Indices 1 2 3 4 5 6 
#
# 1 0.010865 -0.004313 0.001140 0.000000 0.000000 0.000000
# 2 -0.004313 0.024133 -0.005884 0.000000 0.000000 0.000000
# 3 0.001140 -0.005884 0.042738 0.000000 0.000000 0.000000
# 4 0.000000 0.000000 0.000000 0.047542 0.000000 0.000000
# 5 0.000000 0.000000 0.000000 0.000000 0.027107 0.000000
# 6 0.000000 0.000000 0.000000 0.000000 0.000000 0.023948
#
#
# Mechanical properties :
#
#
# Convention : Reuss Voigt Hill
#
# Bulk Modulus (GPa) = 16.77222 23.99054 20.38138
# Shear Modulus (GPa) = 23.32951 29.66945 26.49948
#
# Velocity S-wave (km/s) = 3.10883 3.50590 3.31332
# Velocity P-wave (km/s) = 4.45362 5.13100 4.80426
#
# Compressibility (1/GPa) = 0.05962240
#
# Stress axis : x y z
#
# Youngs Moduli (GPa) = 92.04111 41.43784 23.39813
#
# Poissons Ratio (x) = 0.17870 -0.02667
# Poissons Ratio (y) = 0.39693 0.13768
# Poissons Ratio (z) = -0.10492 0.24382
#
# Static dielectric constant tensor:
#      x y z
#    x 1.917420 0.000000 0.000000 
#    y 0.000000 1.988910 0.000000 
#    z 0.000000 0.000000 1.922190 
# 
# From -- ./inp_files/4942.got.cif
#   From: 2010.05.17/outbox.cif.g08.bks.cpg/sg19_3_cif.got.tgz:4942.got - 2010.06.03 22:46:19.
