data_PCOD9313934
_publ_section_title
;
Structure prediction by ZEFSAII (Michael W. Deem and Ramdas Pophale) SiO2 
 PCOD9313934
Probable space group: P 21 21 21
;
_chemical_formula_sum "Si O2"
_cell_formula_units_Z 32
_cell_length_a 7.995150
_cell_length_b 15.657373
_cell_length_c 11.049017
_cell_angle_alpha 90.000000
_cell_angle_beta 90.000000
_cell_angle_gamma 90.000000
_cell_volume 1383.149601
_symmetry_space_group_name_H-M "P 21 21 21"
_symmetry_group_IT_number 19
_symmetry_cell_setting 'orthorhombic'
loop_
_space_group_symop_operation_xyz
x,y,z
1/2-x,-y,1/2+z
1/2+x,1/2-y,-z
-x,1/2+y,1/2-z
loop_
_atom_site_type_symbol
_atom_site_label
_atom_site_fract_x
_atom_site_fract_y
_atom_site_fract_z
Si Si1 0.893253 0.430441 0.900605
Si Si2 0.037790 0.611088 0.633209
Si Si3 0.572365 0.572028 0.139676
Si Si4 0.388198 0.870625 0.118258
Si Si5 0.932701 0.687708 0.392153
Si Si6 0.985669 0.348959 0.393499
Si Si7 0.930470 0.664087 0.133958
Si Si8 0.087389 0.391516 0.141479
O O1 0.994248 0.411486 0.775566
O O2 0.839526 0.528849 0.880903
O O3 0.742236 0.362916 0.905496
O O4 0.992028 0.427514 0.025903
O O5 0.224026 0.576370 0.646763
O O6 0.919718 0.529086 0.617006
O O7 0.980575 0.653824 0.758376
O O8 0.030661 0.668620 0.514755
O O9 0.757719 0.611999 0.140089
O O10 0.480184 0.610281 0.023462
O O11 0.210972 0.822604 0.108046
O O12 0.500536 0.858466 0.998370
O O13 0.013533 0.653955 0.265908
O O14 0.909652 0.788884 0.379299
O O15 0.097568 0.265520 0.376109
O O16 0.008638 0.406187 0.273740
#
# Coordination Sequence:
#
# PCOD9313934 Si02
#       8
#     4   4   4   4   4   4   4   4
#     4  10  21  41  64  88 122 161 204 249 300 362
#     4  11  23  39  62  91 125 163 205 250 303 365
#     4   9  21  40  60  87 121 160 200 249 307 360
#     4  10  22  40  64  91 120 163 204 248 311 365
#     4  10  20  38  61  87 123 162 202 253 307 359
#     4  10  21  39  63  89 119 156 203 252 304 365
#     4   9  20  37  60  90 118 153 202 249 301 364
#     4  11  24  38  58  93 126 160 206 254 301 360
#
# _framework density 23.135601999999999
#
# number of rings (size 3 to 8) (size 9 to 14) (size 15 to 20)
#    0.000    2.000    0.000    3.000    0.000   13.000 
#    0.000    3.750    0.000    0.000    0.000    0.000 
#    0.000    0.000    0.000    0.000    0.000    0.000 
#
# Total GULP energy -178582.730961 kJ/mol
# GULP energy per Si atom -5580.710343 kJ/mol
# Density = 2.308294 g / cm^3
# Si number density = 23.135602 Si / 1000 Ang^3
#
#
#
# Elastic Constant Matrix: (Units=GPa)
#
#
# Indices 1 2 3 4 5 6 
#
# 1 41.0006 -1.2114 36.4873 0.0000 0.0000 0.0000
# 2 -1.2114 49.6063 20.6520 0.0000 0.0000 0.0000
# 3 36.4873 20.6520 199.9301 0.0000 0.0000 0.0000
# 4 0.0000 0.0000 0.0000 33.8481 0.0000 0.0000
# 5 0.0000 0.0000 0.0000 0.0000 7.4922 0.0000
# 6 0.0000 0.0000 0.0000 0.0000 0.0000 11.6048
#
#
#
# Elastic Compliance Matrix: (Units=1/GPa)
#
#
# Indices 1 2 3 4 5 6 
#
# 1 0.029569 0.003102 -0.005717 0.000000 0.000000 0.000000
# 2 0.003102 0.021390 -0.002776 0.000000 0.000000 0.000000
# 3 -0.005717 -0.002776 0.006332 0.000000 0.000000 0.000000
# 4 0.000000 0.000000 0.000000 0.029544 0.000000 0.000000
# 5 0.000000 0.000000 0.000000 0.000000 0.133472 0.000000
# 6 0.000000 0.000000 0.000000 0.000000 0.000000 0.086172
#
#
# Mechanical properties :
#
#
# Convention : Reuss Voigt Hill
#
# Bulk Modulus (GPa) = 21.50069 44.71034 33.10551
# Shear Modulus (GPa) = 15.02574 26.22961 20.62768
#
# Velocity S-wave (km/s) = 2.55122 3.37075 2.98920
# Velocity P-wave (km/s) = 4.24168 5.87508 5.12388
#
# Compressibility (1/GPa) = 0.04651014
#
# Stress axis : x y z
#
# Youngs Moduli (GPa) = 33.81917 46.75071 157.93346
#
# Poissons Ratio (x) = -0.14502 0.90287
# Poissons Ratio (y) = -0.10491 0.43837
# Poissons Ratio (z) = 0.19334 0.12976
#
# Static dielectric constant tensor:
#      x y z
#    x 1.857300 0.000000 0.000000 
#    y 0.000000 1.870860 0.000000 
#    z 0.000000 0.000000 1.958840 
# 
# From -- ./inp_files/4723.got.cif
#   From: 2010.05.17/outbox.cif.g08.bks.cpg/sg19_3_cif.got.tgz:4723.got - 2010.06.03 22:46:19.
