data_PCOD9313883
_publ_section_title
;
Structure prediction by ZEFSAII (Michael W. Deem and Ramdas Pophale) SiO2 
 PCOD9313883
Probable space group: P 21 21 21
;
_chemical_formula_sum "Si O2"
_cell_formula_units_Z 28
_cell_length_a 8.155405
_cell_length_b 17.835245
_cell_length_c 7.671277
_cell_angle_alpha 90.000000
_cell_angle_beta 90.000000
_cell_angle_gamma 90.000000
_cell_volume 1115.815211
_symmetry_space_group_name_H-M "P 21 21 21"
_symmetry_group_IT_number 19
_symmetry_cell_setting 'orthorhombic'
loop_
_space_group_symop_operation_xyz
x,y,z
1/2-x,-y,1/2+z
1/2+x,1/2-y,-z
-x,1/2+y,1/2-z
loop_
_atom_site_type_symbol
_atom_site_label
_atom_site_fract_x
_atom_site_fract_y
_atom_site_fract_z
Si Si1 0.285549 0.692542 0.637795
Si Si2 0.189192 0.466476 0.942510
Si Si3 0.912213 0.713754 0.694391
Si Si4 0.309955 0.931634 0.481420
Si Si5 0.403331 0.169143 0.629733
Si Si6 0.918676 0.418388 0.712132
Si Si7 0.507798 0.010264 0.741349
O O1 0.270924 0.607009 0.560566
O O2 0.347701 0.738227 0.469169
O O3 0.431248 0.700411 0.780656
O O4 0.109252 0.720497 0.708309
O O5 0.334656 0.519727 0.882635
O O6 0.102266 0.441562 0.764170
O O7 0.060645 0.508895 0.064937
O O8 0.893223 0.627657 0.639997
O O9 0.762275 0.716697 0.835119
O O10 0.153157 0.904331 0.593560
O O11 0.426466 0.940568 0.650018
O O12 0.324736 0.012452 0.384863
O O13 0.419472 0.147699 0.427608
O O14 0.400669 0.085899 0.725733
#
# Coordination Sequence:
#
# PCOD9313883 Si02
#       7
#     4   4   4   4   4   4   4
#     4  11  24  44  73  95 135 187 234 276 337 412
#     4  11  22  41  65  95 134 175 218 281 348 415
#     4  12  23  44  73  95 132 185 235 271 335 413
#     4  11  21  39  63 100 129 171 222 279 340 409
#     4  10  23  42  64 101 132 170 222 280 334 403
#     4  11  23  41  67 100 141 168 221 287 353 407
#     4  10  20  37  61  96 131 164 214 276 345 403
#
# _framework density 25.09376
#
# number of rings (size 3 to 8) (size 9 to 14) (size 15 to 20)
#    0.000    1.143    2.857    6.000    2.000    0.000 
#    2.571    1.429    0.000    0.000    0.000    0.000 
#    0.000    0.000    0.000    0.000    0.000    0.000 
#
# Total GULP energy -156212.573190 kJ/mol
# GULP energy per Si atom -5579.020471 kJ/mol
# Density = 2.503665 g / cm^3
# Si number density = 25.093760 Si / 1000 Ang^3
#
#
#
# Elastic Constant Matrix: (Units=GPa)
#
#
# Indices 1 2 3 4 5 6 
#
# 1 131.9830 20.0074 20.0370 0.0000 0.0000 0.0000
# 2 20.0074 38.4939 8.6338 0.0000 0.0000 0.0000
# 3 20.0370 8.6338 108.9969 0.0000 0.0000 0.0000
# 4 0.0000 0.0000 0.0000 49.8883 0.0000 0.0000
# 5 0.0000 0.0000 0.0000 0.0000 43.4827 0.0000
# 6 0.0000 0.0000 0.0000 0.0000 0.0000 27.5770
#
#
#
# Elastic Compliance Matrix: (Units=1/GPa)
#
#
# Indices 1 2 3 4 5 6 
#
# 1 0.008380 -0.004083 -0.001217 0.000000 0.000000 0.000000
# 2 -0.004083 0.028437 -0.001502 0.000000 0.000000 0.000000
# 3 -0.001217 -0.001502 0.009517 0.000000 0.000000 0.000000
# 4 0.000000 0.000000 0.000000 0.020045 0.000000 0.000000
# 5 0.000000 0.000000 0.000000 0.000000 0.022998 0.000000
# 6 0.000000 0.000000 0.000000 0.000000 0.000000 0.036262
#
#
# Mechanical properties :
#
#
# Convention : Reuss Voigt Hill
#
# Bulk Modulus (GPa) = 30.55216 41.87002 36.21109
# Shear Modulus (GPa) = 33.29924 39.57596 36.43760
#
# Velocity S-wave (km/s) = 3.64674 3.97561 3.81472
# Velocity P-wave (km/s) = 5.47113 6.14781 5.81932
#
# Compressibility (1/GPa) = 0.03273091
#
# Stress axis : x y z
#
# Youngs Moduli (GPa) = 119.32561 35.16533 105.07173
#
# Poissons Ratio (x) = 0.14357 0.12789
# Poissons Ratio (y) = 0.48718 0.15782
# Poissons Ratio (z) = 0.14524 0.05282
#
# Static dielectric constant tensor:
#      x y z
#    x 2.231240 0.000000 0.000000 
#    y 0.000000 2.066900 0.000000 
#    z 0.000000 0.000000 2.027840 
# 
# From -- ./inp_files/3055.got.cif
#   From: 2010.05.17/outbox.cif.g08.bks.cpg/sg19_2_cif.got.tgz:3055.got - 2010.06.03 22:46:19.
