data_PCOD9313651
_publ_section_title
;
Structure prediction by ZEFSAII (Michael W. Deem and Ramdas Pophale) SiO2 
 PCOD9313651
Probable space group: P 21 21 21
;
_chemical_formula_sum "Si O2"
_cell_formula_units_Z 32
_cell_length_a 11.365894
_cell_length_b 11.682811
_cell_length_c 10.576319
_cell_angle_alpha 90.000000
_cell_angle_beta 90.000000
_cell_angle_gamma 90.000000
_cell_volume 1404.382774
_symmetry_space_group_name_H-M "P 21 21 21"
_symmetry_group_IT_number 19
_symmetry_cell_setting 'orthorhombic'
loop_
_space_group_symop_operation_xyz
x,y,z
1/2-x,-y,1/2+z
1/2+x,1/2-y,-z
-x,1/2+y,1/2-z
loop_
_atom_site_type_symbol
_atom_site_label
_atom_site_fract_x
_atom_site_fract_y
_atom_site_fract_z
Si Si1 0.423463 0.511305 0.321986
Si Si2 0.657072 0.094506 0.903452
Si Si3 0.626996 0.783304 0.052333
Si Si4 0.617374 0.815018 0.520125
Si Si5 0.598203 0.355021 0.846217
Si Si6 0.150005 0.935739 0.597875
Si Si7 0.881407 0.665090 0.063368
Si Si8 0.203019 0.619570 0.217069
O O1 0.406525 0.553172 0.468693
O O2 0.387807 0.378585 0.336789
O O3 0.558280 0.536178 0.290387
O O4 0.338628 0.589475 0.240805
O O5 0.619532 0.220253 0.867291
O O6 0.644798 0.007056 0.788465
O O7 0.792618 0.105316 0.945798
O O8 0.486107 0.763318 0.012280
O O9 0.676817 0.830659 0.918967
O O10 0.746264 0.710546 0.087276
O O11 0.495104 0.879068 0.543478
O O12 0.618289 0.689512 0.459091
O O13 0.663961 0.804932 0.664671
O O14 0.715535 0.426484 0.863123
O O15 0.563432 0.361441 0.700396
O O16 0.135005 0.044782 0.507588
#
# Coordination Sequence:
#
# PCOD9313651 Si02
#       8
#     4   4   4   4   4   4   4   4
#     4   9  18  37  61  84 123 162 205 257 321 368
#     4   9  19  35  59  89 118 151 209 260 296 371
#     4  10  22  40  62  92 129 165 209 270 315 386
#     4  10  20  37  63  90 116 164 213 251 307 380
#     4  11  21  39  64  87 122 170 211 248 319 380
#     4  10  23  41  59  88 131 165 207 273 312 379
#     4  11  24  44  62  95 132 168 211 266 333 374
#     4  10  19  37  62  91 115 159 207 255 315 372
#
# _framework density 22.785809
#
# number of rings (size 3 to 8) (size 9 to 14) (size 15 to 20)
#    0.000    2.000    2.500    0.750    0.000    2.000 
#   11.250    1.250    0.000    0.000    0.000    0.000 
#    0.000    0.000    0.000    0.000    0.000    0.000 
#
# Total GULP energy -178186.650187 kJ/mol
# GULP energy per Si atom -5568.332818 kJ/mol
# Density = 2.273395 g / cm^3
# Si number density = 22.785809 Si / 1000 Ang^3
#
#
#
# Elastic Constant Matrix: (Units=GPa)
#
#
# Indices 1 2 3 4 5 6 
#
# 1 162.3407 33.1886 5.5288 0.0000 0.0000 0.0000
# 2 33.1886 40.4838 -5.7115 0.0000 0.0000 0.0000
# 3 5.5288 -5.7115 37.7694 0.0000 0.0000 0.0000
# 4 0.0000 0.0000 0.0000 11.2296 0.0000 0.0000
# 5 0.0000 0.0000 0.0000 0.0000 19.5218 0.0000
# 6 0.0000 0.0000 0.0000 0.0000 0.0000 37.2922
#
#
#
# Elastic Compliance Matrix: (Units=1/GPa)
#
#
# Indices 1 2 3 4 5 6 
#
# 1 0.007558 -0.006491 -0.002088 0.000000 0.000000 0.000000
# 2 -0.006491 0.030814 0.005610 0.000000 0.000000 0.000000
# 3 -0.002088 0.005610 0.027630 0.000000 0.000000 0.000000
# 4 0.000000 0.000000 0.000000 0.089051 0.000000 0.000000
# 5 0.000000 0.000000 0.000000 0.000000 0.051225 0.000000
# 6 0.000000 0.000000 0.000000 0.000000 0.000000 0.026815
#
#
# Mechanical properties :
#
#
# Convention : Reuss Voigt Hill
#
# Bulk Modulus (GPa) = 16.64873 34.06729 25.35801
# Shear Modulus (GPa) = 19.30120 27.44792 23.37456
#
# Velocity S-wave (km/s) = 2.91361 3.47451 3.20635
# Velocity P-wave (km/s) = 4.31756 5.57493 4.98604
#
# Compressibility (1/GPa) = 0.06006464
#
# Stress axis : x y z
#
# Youngs Moduli (GPa) = 132.31199 32.45324 36.19203
#
# Poissons Ratio (x) = 0.21064 0.07556
# Poissons Ratio (y) = 0.85877 -0.20303
# Poissons Ratio (z) = 0.27625 -0.18205
#
# Static dielectric constant tensor:
#      x y z
#    x 2.036150 0.000000 0.000000 
#    y 0.000000 1.842990 0.000000 
#    z 0.000000 0.000000 1.835010 
# 
# From -- ./inp_files/5057.got.cif
#   From: 2010.05.17/outbox.cif.g08.bks.cpg/sg19_3_cif.got.tgz:5057.got - 2010.06.03 22:46:19.
