data_PCOD9313720
_publ_section_title
;
Structure prediction by ZEFSAII (Michael W. Deem and Ramdas Pophale) SiO2 
 PCOD9313720
Probable space group: P 21 21 21
;
_chemical_formula_sum "Si O2"
_cell_formula_units_Z 28
_cell_length_a 11.952200
_cell_length_b 9.890666
_cell_length_c 12.395560
_cell_angle_alpha 90.000000
_cell_angle_beta 90.000000
_cell_angle_gamma 90.000000
_cell_volume 1465.343830
_symmetry_space_group_name_H-M "P 21 21 21"
_symmetry_group_IT_number 19
_symmetry_cell_setting 'orthorhombic'
loop_
_space_group_symop_operation_xyz
x,y,z
1/2-x,-y,1/2+z
1/2+x,1/2-y,-z
-x,1/2+y,1/2-z
loop_
_atom_site_type_symbol
_atom_site_label
_atom_site_fract_x
_atom_site_fract_y
_atom_site_fract_z
Si Si1 0.699350 0.135305 0.156645
Si Si2 0.439664 0.364543 0.331336
Si Si3 0.880815 0.984061 0.023860
Si Si4 0.467633 0.810278 0.932559
Si Si5 0.723924 0.634169 0.092962
Si Si6 0.070242 0.125423 0.888927
Si Si7 0.214633 0.693200 0.117135
O O1 0.640026 0.242582 0.078575
O O2 0.733369 0.211897 0.266082
O O3 0.613482 0.012966 0.176892
O O4 0.809818 0.067303 0.109200
O O5 0.511106 0.347707 0.441327
O O6 0.338804 0.256227 0.344425
O O7 0.512935 0.341447 0.225803
O O8 0.971050 0.078083 0.966549
O O9 0.789224 0.922604 0.940299
O O10 0.942185 0.850535 0.069503
O O11 0.355862 0.877221 0.885475
O O12 0.584136 0.845048 0.875834
O O13 0.654934 0.500361 0.116584
O O14 0.717853 0.681934 0.967129
#
# Coordination Sequence:
#
# PCOD9313720 Si02
#       7
#     4   4   4   4   4   4   4
#     4  12  24  39  64 103 131 167 226 274 332 382
#     4  11  20  39  69  96 122 176 220 265 325 402
#     4  11  21  42  63  92 133 169 215 279 319 388
#     4  10  19  41  71  87 124 176 221 254 335 403
#     4  10  21  40  66  95 126 180 219 259 332 407
#     4  12  23  39  64  97 135 167 220 278 321 396
#     4  10  20  42  69  88 127 179 217 265 328 402
#
# _framework density 19.108142999999998
#
# number of rings (size 3 to 8) (size 9 to 14) (size 15 to 20)
#    0.000    1.143    8.571    2.571    0.000    1.143 
#    2.571    2.857    0.000    0.000    0.000    0.000 
#    0.000    0.000    0.000    0.000    0.000    0.000 
#
# Total GULP energy -156256.849132 kJ/mol
# GULP energy per Si atom -5580.601755 kJ/mol
# Density = 1.906465 g / cm^3
# Si number density = 19.108143 Si / 1000 Ang^3
#
#
#
# Elastic Constant Matrix: (Units=GPa)
#
#
# Indices 1 2 3 4 5 6 
#
# 1 94.6529 16.7891 4.2605 0.0000 0.0000 0.0000
# 2 16.7891 57.9964 6.5945 0.0000 0.0000 0.0000
# 3 4.2605 6.5945 30.7626 0.0000 0.0000 0.0000
# 4 0.0000 0.0000 0.0000 17.6113 0.0000 0.0000
# 5 0.0000 0.0000 0.0000 0.0000 27.0084 0.0000
# 6 0.0000 0.0000 0.0000 0.0000 0.0000 34.7898
#
#
#
# Elastic Compliance Matrix: (Units=1/GPa)
#
#
# Indices 1 2 3 4 5 6 
#
# 1 0.011160 -0.003131 -0.000874 0.000000 0.000000 0.000000
# 2 -0.003131 0.018552 -0.003543 0.000000 0.000000 0.000000
# 3 -0.000874 -0.003543 0.033388 0.000000 0.000000 0.000000
# 4 0.000000 0.000000 0.000000 0.056782 0.000000 0.000000
# 5 0.000000 0.000000 0.000000 0.000000 0.037025 0.000000
# 6 0.000000 0.000000 0.000000 0.000000 0.000000 0.028744
#
#
# Mechanical properties :
#
#
# Convention : Reuss Voigt Hill
#
# Bulk Modulus (GPa) = 20.83263 26.52222 23.67743
# Shear Modulus (GPa) = 23.06825 26.26644 24.66734
#
# Velocity S-wave (km/s) = 3.47832 3.71161 3.59685
# Velocity P-wave (km/s) = 5.20170 5.68140 5.44683
#
# Compressibility (1/GPa) = 0.04800162
#
# Stress axis : x y z
#
# Youngs Moduli (GPa) = 89.60846 53.90330 29.95119
#
# Poissons Ratio (x) = 0.16878 0.02619
# Poissons Ratio (y) = 0.28058 0.10612
# Poissons Ratio (z) = 0.07835 0.19099
#
# Static dielectric constant tensor:
#      x y z
#    x 1.698720 0.000000 0.000000 
#    y 0.000000 1.657320 0.000000 
#    z 0.000000 0.000000 1.671460 
# 
# From -- ./inp_files/6081.got.cif
#   From: 2010.05.17/outbox.cif.g08.bks.cpg/sg19_4_cif.got.tgz:6081.got - 2010.06.03 22:46:19.
