data_PCOD9313546
_publ_section_title
;
Structure prediction by ZEFSAII (Michael W. Deem and Ramdas Pophale) SiO2 
 PCOD9313546
Probable space group: P 21 21 21
;
_chemical_formula_sum "Si O2"
_cell_formula_units_Z 24
_cell_length_a 23.348662
_cell_length_b 7.697988
_cell_length_c 5.454344
_cell_angle_alpha 90.000000
_cell_angle_beta 90.000000
_cell_angle_gamma 90.000000
_cell_volume 980.351354
_symmetry_space_group_name_H-M "P 21 21 21"
_symmetry_group_IT_number 19
_symmetry_cell_setting 'orthorhombic'
loop_
_space_group_symop_operation_xyz
x,y,z
1/2-x,-y,1/2+z
1/2+x,1/2-y,-z
-x,1/2+y,1/2-z
loop_
_atom_site_type_symbol
_atom_site_label
_atom_site_fract_x
_atom_site_fract_y
_atom_site_fract_z
Si Si1 0.138837 0.282677 0.000134
Si Si2 0.757317 0.241296 0.499908
Si Si3 0.275638 0.347685 0.000103
Si Si4 0.858029 0.584422 0.999869
Si Si5 0.948669 0.298056 0.000282
Si Si6 0.449829 0.421324 0.499718
O O1 0.207392 0.305590 0.000125
O O2 0.123465 0.181272 0.751063
O O3 0.108049 0.466221 0.999945
O O4 0.123457 0.181450 0.249336
O O5 0.794610 0.230559 0.256504
O O6 0.711512 0.396247 0.499898
O O7 0.720994 0.057638 0.499898
O O8 0.794615 0.230578 0.743304
O O9 0.889376 0.402600 0.000046
O O10 0.953100 0.187960 0.249897
O O11 0.953099 0.187540 0.751030
O O12 0.998818 0.440179 0.999994
#
# Coordination Sequence:
#
# PCOD9313546 Si02
#       6
#     4   4   4   4   4   4
#     4  10  19  34  55  79 106 136 173 214 256 301
#     4   8  14  25  45  73 101 130 167 208 245 289
#     4   8  14  25  45  73 101 130 167 208 245 289
#     4  10  19  34  55  79 106 136 173 214 256 301
#     4  12  24  39  57  78 105 136 173 214 261 312
#     4  12  24  39  57  78 105 136 173 214 261 312
#
# _framework density 24.481017999999999
#
# number of rings (size 3 to 8) (size 9 to 14) (size 15 to 20)
#    0.000    2.000    0.000    5.000    0.000    0.000 
#    0.000    0.000    0.000    2.000    0.000    0.000 
#    0.000    0.000    0.000    0.000    0.000    0.000 
#
# Total GULP energy -134435.593150 kJ/mol
# GULP energy per Si atom -5601.483048 kJ/mol
# Density = 2.442530 g / cm^3
# Si number density = 24.481018 Si / 1000 Ang^3
#
#
#
# Elastic Constant Matrix: (Units=GPa)
#
#
# Indices 1 2 3 4 5 6 
#
# 1 85.9498 58.8801 50.8507 0.0000 0.0000 0.0000
# 2 58.8801 125.9497 107.1781 0.0000 0.0000 0.0000
# 3 50.8507 107.1781 306.1731 0.0000 0.0000 0.0000
# 4 0.0000 0.0000 0.0000 63.1188 0.0000 0.0000
# 5 0.0000 0.0000 0.0000 0.0000 7.5353 0.0000
# 6 0.0000 0.0000 0.0000 0.0000 0.0000 56.2554
#
#
#
# Elastic Compliance Matrix: (Units=1/GPa)
#
#
# Indices 1 2 3 4 5 6 
#
# 1 0.017117 -0.007951 -0.000059 0.000000 0.000000 0.000000
# 2 -0.007951 0.015002 -0.003931 0.000000 0.000000 0.000000
# 3 -0.000059 -0.003931 0.004652 0.000000 0.000000 0.000000
# 4 0.000000 0.000000 0.000000 0.015843 0.000000 0.000000
# 5 0.000000 0.000000 0.000000 0.000000 0.132710 0.000000
# 6 0.000000 0.000000 0.000000 0.000000 0.000000 0.017776
#
#
# Mechanical properties :
#
#
# Convention : Reuss Voigt Hill
#
# Bulk Modulus (GPa) = 77.59508 105.76561 91.68035
# Shear Modulus (GPa) = 21.61889 45.45947 33.53918
#
# Velocity S-wave (km/s) = 2.97490 4.31388 3.70538
# Velocity P-wave (km/s) = 6.60037 8.25286 7.47244
#
# Compressibility (1/GPa) = 0.01288741
#
# Stress axis : x y z
#
# Youngs Moduli (GPa) = 58.42141 66.65792 214.95929
#
# Poissons Ratio (x) = 0.53003 0.01277
# Poissons Ratio (y) = 0.46454 0.84499
# Poissons Ratio (z) = 0.00347 0.26203
#
# Static dielectric constant tensor:
#      x y z
#    x 1.913640 0.000000 0.000000 
#    y 0.000000 1.962760 0.000000 
#    z 0.000000 0.000000 2.051910 
# 
# From -- ./inp_files/2290.got.cif
#   From: 2010.05.17/outbox.cif.g08.bks.cpg/sg19_2_cif.got.tgz:2290.got - 2010.06.03 22:46:19.
