data_PCOD9313742
_publ_section_title
;
Structure prediction by ZEFSAII (Michael W. Deem and Ramdas Pophale) SiO2 
 PCOD9313742
Probable space group: P 21 21 21
;
_chemical_formula_sum "Si O2"
_cell_formula_units_Z 32
_cell_length_a 7.545041
_cell_length_b 21.051993
_cell_length_c 7.686775
_cell_angle_alpha 90.000000
_cell_angle_beta 90.000000
_cell_angle_gamma 90.000000
_cell_volume 1220.953123
_symmetry_space_group_name_H-M "P 21 21 21"
_symmetry_group_IT_number 19
_symmetry_cell_setting 'orthorhombic'
loop_
_space_group_symop_operation_xyz
x,y,z
1/2-x,-y,1/2+z
1/2+x,1/2-y,-z
-x,1/2+y,1/2-z
loop_
_atom_site_type_symbol
_atom_site_label
_atom_site_fract_x
_atom_site_fract_y
_atom_site_fract_z
Si Si1 0.923125 0.958236 0.423290
Si Si2 0.215694 0.838514 0.982181
Si Si3 0.285590 0.413821 0.580404
Si Si4 0.583397 0.535705 0.961338
Si Si5 0.441960 0.161532 0.102145
Si Si6 0.442785 0.407234 0.969684
Si Si7 0.706665 0.782988 0.496498
Si Si8 0.657356 0.207839 0.601268
O O1 0.010419 0.961892 0.235014
O O2 0.033001 0.908428 0.532972
O O3 0.726163 0.927565 0.413151
O O4 0.887892 0.026951 0.506762
O O5 0.163483 0.839128 0.779468
O O6 0.340426 0.776853 0.992108
O O7 0.242468 0.913380 0.023145
O O8 0.040037 0.819189 0.087643
O O9 0.080024 0.437015 0.578093
O O10 0.371873 0.412197 0.771034
O O11 0.281044 0.345436 0.490600
O O12 0.592707 0.460308 0.000783
O O13 0.639242 0.191505 0.122263
O O14 0.350880 0.211452 0.973098
O O15 0.459130 0.331957 0.995830
O O16 0.780635 0.786994 0.299914
#
# Coordination Sequence:
#
# PCOD9313742 Si02
#       8
#     4   4   4   4   4   4   4   4
#     4   9  16  26  43  67  92 119 152 190 231 272
#     4  10  20  32  48  71  96 124 157 191 231 277
#     4   9  16  26  43  67  92 119 152 190 231 272
#     4   9  16  26  43  67  92 119 152 190 231 272
#     4  10  20  32  48  71  96 124 157 191 231 277
#     4   9  16  26  43  67  92 119 152 190 231 272
#     4  10  20  32  48  71  96 124 157 191 231 277
#     4  10  20  32  48  71  96 124 157 191 231 277
#
# _framework density 26.209033000000002
#
# number of rings (size 3 to 8) (size 9 to 14) (size 15 to 20)
#    0.000    2.500    0.000    6.000    0.000    7.000 
#    0.000    0.000    0.000    1.500    0.000    0.000 
#    0.000    0.000    0.000    0.000    0.000    0.000 
#
# Total GULP energy -178856.624335 kJ/mol
# GULP energy per Si atom -5589.269510 kJ/mol
# Density = 2.614938 g / cm^3
# Si number density = 26.209033 Si / 1000 Ang^3
#
#
#
# Elastic Constant Matrix: (Units=GPa)
#
#
# Indices 1 2 3 4 5 6 
#
# 1 45.2276 116.1896 2.2061 0.0000 0.0000 0.0000
# 2 116.1896 -132.0605 -9.8730 0.0000 0.0000 0.0000
# 3 2.2061 -9.8730 71.6509 0.0000 0.0000 0.0000
# 4 0.0000 0.0000 0.0000 37.8465 0.0000 0.0000
# 5 0.0000 0.0000 0.0000 0.0000 2.9569 0.0000
# 6 0.0000 0.0000 0.0000 0.0000 0.0000 22.6061
#
#
#
# Elastic Compliance Matrix: (Units=1/GPa)
#
#
# Indices 1 2 3 4 5 6 
#
# 1 0.006809 0.005945 0.000610 0.000000 0.000000 0.000000
# 2 0.005945 -0.002305 -0.000501 0.000000 0.000000 0.000000
# 3 0.000610 -0.000501 0.013869 0.000000 0.000000 0.000000
# 4 0.000000 0.000000 0.000000 0.026423 0.000000 0.000000
# 5 0.000000 0.000000 0.000000 0.000000 0.338193 0.000000
# 6 0.000000 0.000000 0.000000 0.000000 0.000000 0.044236
#
#
# Mechanical properties :
#
#
# Convention : Reuss Voigt Hill
#
# Bulk Modulus (GPa) = 32.80814 22.42926 27.61870
# Shear Modulus (GPa) = 11.75705 4.43493 8.09599
#
# Velocity S-wave (km/s) = 2.12029 1.30223 1.75946
# Velocity P-wave (km/s) = 4.30572 3.29204 3.83254
#
# Compressibility (1/GPa) = 0.03048024
#
# Stress axis : x y z
#
# Youngs Moduli (GPa) = 146.87349 -433.92641 72.10425
#
# Poissons Ratio (x) = 2.57959 -0.04395
# Poissons Ratio (y) = -0.87313 0.03609
# Poissons Ratio (z) = -0.08952 -0.21722
#
# Static dielectric constant tensor:
#      x y z
#    x 2.120320 0.000000 0.000000 
#    y 0.000000 2.160350 0.000000 
#    z 0.000000 0.000000 2.028230 
# 
# From -- ./inp_files/3786.got.cif
#   From: 2010.05.17/outbox.cif.g08.bks.cpg/sg19_2_cif.got.tgz:3786.got - 2010.06.03 22:46:19.
