data_PCOD9313526
_publ_section_title
;
Structure prediction by ZEFSAII (Michael W. Deem and Ramdas Pophale) SiO2 
 PCOD9313526
Probable space group: P 21 21 21
;
_chemical_formula_sum "Si O2"
_cell_formula_units_Z 28
_cell_length_a 4.869467
_cell_length_b 6.530152
_cell_length_c 30.000995
_cell_angle_alpha 90.000000
_cell_angle_beta 90.000000
_cell_angle_gamma 90.000000
_cell_volume 953.982429
_symmetry_space_group_name_H-M "P 21 21 21"
_symmetry_group_IT_number 19
_symmetry_cell_setting 'orthorhombic'
loop_
_space_group_symop_operation_xyz
x,y,z
1/2-x,-y,1/2+z
1/2+x,1/2-y,-z
-x,1/2+y,1/2-z
loop_
_atom_site_type_symbol
_atom_site_label
_atom_site_fract_x
_atom_site_fract_y
_atom_site_fract_z
Si Si1 0.956543 0.714927 0.822151
Si Si2 0.659899 0.415012 0.090276
Si Si3 0.086082 0.805158 0.324281
Si Si4 0.843082 0.147532 0.450519
Si Si5 0.484903 0.594991 0.876631
Si Si6 0.107227 0.809929 0.728309
Si Si7 0.480659 0.632902 0.479619
O O1 0.685993 0.759684 0.851337
O O2 0.824845 0.529419 0.792384
O O3 0.181558 0.641308 0.858201
O O4 0.118621 0.821242 0.781447
O O5 0.700304 0.424783 0.143134
O O6 0.448908 0.570085 0.066878
O O7 0.951274 0.484901 0.072166
O O8 0.576436 0.191879 0.071470
O O9 0.295727 0.712628 0.288406
O O10 0.970726 0.637371 0.360333
O O11 0.816740 0.852131 0.294440
O O12 0.907424 0.093124 0.502227
O O13 0.935203 0.360040 0.427968
O O14 0.777820 0.710903 0.494086
#
# Coordination Sequence:
#
# PCOD9313526 Si02
#       7
#     4   4   4   4   4   4   4
#     4  10  21  36  53  74 103 139 176 219 269 319
#     4  10  19  33  55  81 105 138 180 220 261 315
#     4  10  21  36  53  76 109 141 171 219 276 320
#     4  10  19  33  55  81 105 138 180 220 261 315
#     4  10  21  36  53  76 109 141 171 219 276 320
#     4  10  21  36  53  74 103 139 176 219 269 319
#     4   8  16  30  50  76 106 132 166 218 264 300
#
# _framework density 29.350646999999999
#
# number of rings (size 3 to 8) (size 9 to 14) (size 15 to 20)
#    0.000    2.286    0.000    2.571    0.000    3.429 
#    0.000    0.000    0.000   15.429    0.000    0.000 
#    0.000    0.000    0.000    0.000    0.000    0.000 
#
# Total GULP energy -156563.600524 kJ/mol
# GULP energy per Si atom -5591.557162 kJ/mol
# Density = 2.928384 g / cm^3
# Si number density = 29.350647 Si / 1000 Ang^3
#
#
#
# Elastic Constant Matrix: (Units=GPa)
#
#
# Indices 1 2 3 4 5 6 
#
# 1 142.3917 -1.5154 59.4922 0.0000 0.0000 0.0000
# 2 -1.5154 62.1189 36.4063 0.0000 0.0000 0.0000
# 3 59.4922 36.4063 155.0155 0.0000 0.0000 0.0000
# 4 0.0000 0.0000 0.0000 62.7346 0.0000 0.0000
# 5 0.0000 0.0000 0.0000 0.0000 49.0030 0.0000
# 6 0.0000 0.0000 0.0000 0.0000 0.0000 20.2003
#
#
#
# Elastic Compliance Matrix: (Units=1/GPa)
#
#
# Indices 1 2 3 4 5 6 
#
# 1 0.008689 0.002512 -0.003925 0.000000 0.000000 0.000000
# 2 0.002512 0.019394 -0.005519 0.000000 0.000000 0.000000
# 3 -0.003925 -0.005519 0.009253 0.000000 0.000000 0.000000
# 4 0.000000 0.000000 0.000000 0.015940 0.000000 0.000000
# 5 0.000000 0.000000 0.000000 0.000000 0.020407 0.000000
# 6 0.000000 0.000000 0.000000 0.000000 0.000000 0.049504
#
#
# Mechanical properties :
#
#
# Convention : Reuss Voigt Hill
#
# Bulk Modulus (GPa) = 42.60089 60.92138 51.76113
# Shear Modulus (GPa) = 34.51231 44.06378 39.28804
#
# Velocity S-wave (km/s) = 3.43280 3.87885 3.66262
# Velocity P-wave (km/s) = 5.50074 6.39235 5.96323
#
# Compressibility (1/GPa) = 0.02347369
#
# Stress axis : x y z
#
# Youngs Moduli (GPa) = 115.08199 51.56245 108.06813
#
# Poissons Ratio (x) = -0.12954 0.42415
# Poissons Ratio (y) = -0.28911 0.59642
# Poissons Ratio (z) = 0.45168 0.28457
#
# Static dielectric constant tensor:
#      x y z
#    x 2.192020 0.000000 0.000000 
#    y 0.000000 2.517840 0.000000 
#    z 0.000000 0.000000 2.405840 
# 
# From -- ./inp_files/7482.got.cif
#   From: 2010.05.17/outbox.cif.g08.bks.cpg/sg19_4_cif.got.tgz:7482.got - 2010.06.03 22:46:19.
