data_PCOD9313598
_publ_section_title
;
Structure prediction by ZEFSAII (Michael W. Deem and Ramdas Pophale) SiO2 
 PCOD9313598
Probable space group: P 21 21 21
;
_chemical_formula_sum "Si O2"
_cell_formula_units_Z 32
_cell_length_a 22.567511
_cell_length_b 4.921850
_cell_length_c 12.243277
_cell_angle_alpha 90.000000
_cell_angle_beta 90.000000
_cell_angle_gamma 90.000000
_cell_volume 1359.908574
_symmetry_space_group_name_H-M "P 21 21 21"
_symmetry_group_IT_number 19
_symmetry_cell_setting 'orthorhombic'
loop_
_space_group_symop_operation_xyz
x,y,z
1/2-x,-y,1/2+z
1/2+x,1/2-y,-z
-x,1/2+y,1/2-z
loop_
_atom_site_type_symbol
_atom_site_label
_atom_site_fract_x
_atom_site_fract_y
_atom_site_fract_z
Si Si1 0.035499 0.899261 0.770725
Si Si2 0.184480 0.759782 0.008736
Si Si3 0.309226 0.727959 0.107894
Si Si4 0.036905 0.211463 0.216671
Si Si5 0.662720 0.212036 0.841346
Si Si6 0.208491 0.754858 0.752722
Si Si7 0.918541 0.493980 0.953043
Si Si8 0.498463 0.506942 0.004627
O O1 0.080041 0.993916 0.679503
O O2 0.022818 0.579537 0.762271
O O3 0.042957 0.992443 0.893292
O O4 0.251498 0.667839 0.036938
O O5 0.147106 0.542975 0.079722
O O6 0.175060 0.045279 0.071599
O O7 0.183010 0.754214 0.876408
O O8 0.326594 0.453480 0.172182
O O9 0.293422 0.944572 0.202180
O O10 0.355354 0.875279 0.026697
O O11 0.106544 0.239291 0.238492
O O12 0.002531 0.496010 0.217033
O O13 0.034524 0.079873 0.098161
O O14 0.722092 0.170155 0.767567
O O15 0.968112 0.701805 0.994498
O O16 0.943100 0.201518 0.985441
#
# Coordination Sequence:
#
# PCOD9313598 Si02
#       8
#     4   4   4   4   4   4   4   4
#     4   8  16  30  49  74 107 143 181 231 289 344
#     4  10  21  39  63  89 119 157 197 242 304 362
#     4  10  21  36  57  90 122 151 200 249 295 370
#     4  12  26  44  63  88 121 163 211 249 290 351
#     4  10  23  43  62  90 125 155 202 257 292 352
#     4  10  21  38  61  90 124 161 198 247 310 361
#     4  10  19  36  57  85 118 146 185 243 299 350
#     4  10  21  36  56  82 114 154 196 236 287 346
#
# _framework density 23.530994
#
# number of rings (size 3 to 8) (size 9 to 14) (size 15 to 20)
#    0.000    2.000    0.000    3.000    0.000    4.000 
#    0.000    5.000    0.000    0.000    0.000    0.000 
#    0.000    0.000    0.000    0.000    0.000    0.000 
#
# Total GULP energy -178524.905623 kJ/mol
# GULP energy per Si atom -5578.903301 kJ/mol
# Density = 2.347744 g / cm^3
# Si number density = 23.530994 Si / 1000 Ang^3
#
#
#
# Elastic Constant Matrix: (Units=GPa)
#
#
# Indices 1 2 3 4 5 6 
#
# 1 82.9981 -13.2469 7.8884 0.0000 0.0000 0.0000
# 2 -13.2469 110.9165 21.5833 0.0000 0.0000 0.0000
# 3 7.8884 21.5833 51.4784 0.0000 0.0000 0.0000
# 4 0.0000 0.0000 0.0000 22.2964 0.0000 0.0000
# 5 0.0000 0.0000 0.0000 0.0000 10.4238 0.0000
# 6 0.0000 0.0000 0.0000 0.0000 0.0000 24.5841
#
#
#
# Elastic Compliance Matrix: (Units=1/GPa)
#
#
# Indices 1 2 3 4 5 6 
#
# 1 0.012642 0.002054 -0.002799 0.000000 0.000000 0.000000
# 2 0.002054 0.010151 -0.004571 0.000000 0.000000 0.000000
# 3 -0.002799 -0.004571 0.021771 0.000000 0.000000 0.000000
# 4 0.000000 0.000000 0.000000 0.044850 0.000000 0.000000
# 5 0.000000 0.000000 0.000000 0.000000 0.095934 0.000000
# 6 0.000000 0.000000 0.000000 0.000000 0.000000 0.040677
#
#
# Mechanical properties :
#
#
# Convention : Reuss Voigt Hill
#
# Bulk Modulus (GPa) = 29.46889 30.87141 30.17015
# Shear Modulus (GPa) = 20.16408 26.73875 23.45141
#
# Velocity S-wave (km/s) = 2.93049 3.37459 3.16035
# Velocity P-wave (km/s) = 4.89908 5.32276 5.11531
#
# Compressibility (1/GPa) = 0.03393409
#
# Stress axis : x y z
#
# Youngs Moduli (GPa) = 79.09908 98.51668 45.93306
#
# Poissons Ratio (x) = -0.20240 0.12855
# Poissons Ratio (y) = -0.16251 0.20994
# Poissons Ratio (z) = 0.22137 0.45028
#
# Static dielectric constant tensor:
#      x y z
#    x 2.015510 0.000000 0.000000 
#    y 0.000000 1.874560 0.000000 
#    z 0.000000 0.000000 1.928550 
# 
# From -- ./inp_files/5508.got.cif
#   From: 2010.05.17/outbox.cif.g08.bks.cpg/sg19_3_cif.got.tgz:5508.got - 2010.06.03 22:46:19.
