data_PCOD9313429
_publ_section_title
;
Structure prediction by ZEFSAII (Michael W. Deem and Ramdas Pophale) SiO2 
 PCOD9313429
Probable space group: P 21 21 21
;
_chemical_formula_sum "Si O2"
_cell_formula_units_Z 24
_cell_length_a 7.617702
_cell_length_b 7.578265
_cell_length_c 16.555210
_cell_angle_alpha 90.000000
_cell_angle_beta 90.000000
_cell_angle_gamma 90.000000
_cell_volume 955.715130
_symmetry_space_group_name_H-M "P 21 21 21"
_symmetry_group_IT_number 19
_symmetry_cell_setting 'orthorhombic'
loop_
_space_group_symop_operation_xyz
x,y,z
1/2-x,-y,1/2+z
1/2+x,1/2-y,-z
-x,1/2+y,1/2-z
loop_
_atom_site_type_symbol
_atom_site_label
_atom_site_fract_x
_atom_site_fract_y
_atom_site_fract_z
Si Si1 0.811657 0.380899 0.821974
Si Si2 0.972631 0.174513 0.520933
Si Si3 0.375602 0.476208 0.231558
Si Si4 0.571814 0.698938 0.494993
Si Si5 0.184126 0.774068 0.135772
Si Si6 0.137406 0.024024 0.916969
O O1 0.009010 0.455580 0.805596
O O2 0.677366 0.542086 0.816512
O O3 0.788427 0.215420 0.762890
O O4 0.809094 0.311598 0.913665
O O5 0.968159 0.229853 0.426650
O O6 0.850387 0.317407 0.565390
O O7 0.149985 0.198671 0.573552
O O8 0.935515 0.964779 0.517109
O O9 0.242481 0.618595 0.195476
O O10 0.533017 0.450774 0.165497
O O11 0.487178 0.889508 0.486597
O O12 0.686066 0.636093 0.570995
#
# Coordination Sequence:
#
# PCOD9313429 Si02
#       6
#     4   4   4   4   4   4
#     4  10  18  34  50  81 103 139 181 225 259 319
#     4  10  19  34  53  80 108 139 179 220 270 322
#     4  10  20  32  56  77 109 137 184 228 265 314
#     4  10  22  34  56  83 110 138 184 224 272 320
#     4  10  20  33  54  82 106 138 178 224 273 315
#     4  10  21  35  53  85 108 141 176 231 269 320
#
# _framework density 25.112083999999999
#
# number of rings (size 3 to 8) (size 9 to 14) (size 15 to 20)
#    0.000    2.000    5.000    0.000    7.000    0.000 
#    0.000    0.000    0.000    2.000    8.667    0.000 
#    0.000    0.000    0.000    0.000    0.000    0.000 
#
# Total GULP energy -133829.001582 kJ/mol
# GULP energy per Si atom -5576.208399 kJ/mol
# Density = 2.505493 g / cm^3
# Si number density = 25.112084 Si / 1000 Ang^3
#
#
#
# Elastic Constant Matrix: (Units=GPa)
#
#
# Indices 1 2 3 4 5 6 
#
# 1 47.6187 -3.3241 13.7553 0.0000 0.0000 0.0000
# 2 -3.3241 91.6503 13.5160 0.0000 0.0000 0.0000
# 3 13.7553 13.5160 53.3198 0.0000 0.0000 0.0000
# 4 0.0000 0.0000 0.0000 31.2061 0.0000 0.0000
# 5 0.0000 0.0000 0.0000 0.0000 40.5201 0.0000
# 6 0.0000 0.0000 0.0000 0.0000 0.0000 11.9153
#
#
#
# Elastic Compliance Matrix: (Units=1/GPa)
#
#
# Indices 1 2 3 4 5 6 
#
# 1 0.022965 0.001773 -0.006374 0.000000 0.000000 0.000000
# 2 0.001773 0.011472 -0.003365 0.000000 0.000000 0.000000
# 3 -0.006374 -0.003365 0.021252 0.000000 0.000000 0.000000
# 4 0.000000 0.000000 0.000000 0.032045 0.000000 0.000000
# 5 0.000000 0.000000 0.000000 0.000000 0.024679 0.000000
# 6 0.000000 0.000000 0.000000 0.000000 0.000000 0.083926
#
#
# Mechanical properties :
#
#
# Convention : Reuss Voigt Hill
#
# Bulk Modulus (GPa) = 25.15323 26.72035 25.93679
# Shear Modulus (GPa) = 22.17068 27.97108 25.07088
#
# Velocity S-wave (km/s) = 2.97453 3.34106 3.16311
# Velocity P-wave (km/s) = 4.67282 5.05441 4.86736
#
# Compressibility (1/GPa) = 0.03975632
#
# Stress axis : x y z
#
# Youngs Moduli (GPa) = 43.54437 87.17158 47.05411
#
# Poissons Ratio (x) = -0.15455 0.29992
# Poissons Ratio (y) = -0.07720 0.15835
# Poissons Ratio (z) = 0.27755 0.29336
#
# Static dielectric constant tensor:
#      x y z
#    x 2.079410 0.000000 0.000000 
#    y 0.000000 2.050440 0.000000 
#    z 0.000000 0.000000 1.991250 
# 
# From -- ./inp_files/2895.got.cif
#   From: 2010.05.17/outbox.cif.g08.bks.cpg/sg19_2_cif.got.tgz:2895.got - 2010.06.03 22:46:19.
