data_PCOD9313032
_publ_section_title
;
Structure prediction by ZEFSAII (Michael W. Deem and Ramdas Pophale) SiO2 
 PCOD9313032
Probable space group: P 21 21 2
;
_chemical_formula_sum "Si O2"
_cell_formula_units_Z 18
_cell_length_a 13.242156
_cell_length_b 6.406459
_cell_length_c 8.763834
_cell_angle_alpha 90.000000
_cell_angle_beta 90.000000
_cell_angle_gamma 90.000000
_cell_volume 743.482745
_symmetry_space_group_name_H-M "P 21 21 2"
_symmetry_group_IT_number 18
_symmetry_cell_setting 'orthorhombic'
loop_
_space_group_symop_operation_xyz
x,y,z
-x,-y,z
1/2+x,1/2-y,-z
1/2-x,1/2+y,-z
loop_
_atom_site_type_symbol
_atom_site_label
_atom_site_fract_x
_atom_site_fract_y
_atom_site_fract_z
Si Si1 0.654422 0.012280 0.343239
Si Si2 0.757923 0.131352 0.840887
Si Si3 0.608151 0.279852 0.078264
Si Si4 0.845893 0.287616 0.360995
Si Si5 0.500000 0.500000 0.817643
O O1 0.716806 0.838556 0.249956
O O2 0.609179 0.892434 0.487477
O O3 0.585336 0.137213 0.222760
O O4 0.738469 0.178867 0.400693
O O5 0.862300 0.007902 0.861675
O O6 0.682149 0.975335 0.754076
O O7 0.710853 0.187334 0.004074
O O8 0.538831 0.318412 0.932292
O O9 0.916523 0.112978 0.285629
#
# Coordination Sequence:
#
# PCOD9313032 Si02
#       5
#     4   4   4   4   2
#     4  11  22  43  75 105 138 196 247 291 347 456
#     4  11  20  42  75  99 129 195 242 287 340 455
#     4  11  23  41  73 104 141 183 244 296 361 429
#     4  11  24  43  77 104 143 186 250 295 366 429
#     4  12  26  46  72 112 152 188 234 320 376 420
#
# _framework density 24.210379
#
# number of rings (size 3 to 8) (size 9 to 14) (size 15 to 20)
#    0.000    0.889    6.667    1.333    0.000    0.889 
#    0.000    1.111    9.778    0.000    0.000    0.000 
#    0.000    0.000    0.000    0.000    0.000    0.000 
#
# Total GULP energy -100699.986953 kJ/mol
# GULP energy per Si atom -5594.443720 kJ/mol
# Density = 2.415527 g / cm^3
# Si number density = 24.210379 Si / 1000 Ang^3
#
#
#
# Elastic Constant Matrix: (Units=GPa)
#
#
# Indices 1 2 3 4 5 6 
#
# 1 48.7094 19.4801 26.1582 0.0000 0.0000 0.0000
# 2 19.4801 101.6337 43.2962 0.0000 0.0000 0.0000
# 3 26.1582 43.2962 141.2096 0.0000 0.0000 0.0000
# 4 0.0000 0.0000 0.0000 51.1185 0.0000 0.0000
# 5 0.0000 0.0000 0.0000 0.0000 21.9728 0.0000
# 6 0.0000 0.0000 0.0000 0.0000 0.0000 26.6324
#
#
#
# Elastic Compliance Matrix: (Units=1/GPa)
#
#
# Indices 1 2 3 4 5 6 
#
# 1 0.023597 -0.003060 -0.003433 0.000000 0.000000 0.000000
# 2 -0.003060 0.011714 -0.003025 0.000000 0.000000 0.000000
# 3 -0.003433 -0.003025 0.008645 0.000000 0.000000 0.000000
# 4 0.000000 0.000000 0.000000 0.019562 0.000000 0.000000
# 5 0.000000 0.000000 0.000000 0.000000 0.045511 0.000000
# 6 0.000000 0.000000 0.000000 0.000000 0.000000 0.037548
#
#
# Mechanical properties :
#
#
# Convention : Reuss Voigt Hill
#
# Bulk Modulus (GPa) = 40.12765 52.15798 46.14281
# Shear Modulus (GPa) = 28.74858 33.45262 31.10060
#
# Velocity S-wave (km/s) = 3.44968 3.72122 3.58802
# Velocity P-wave (km/s) = 5.69891 6.32880 6.02210
#
# Compressibility (1/GPa) = 0.02492047
#
# Stress axis : x y z
#
# Youngs Moduli (GPa) = 42.37752 85.36475 115.67341
#
# Poissons Ratio (x) = 0.26126 0.39709
# Poissons Ratio (y) = 0.12970 0.34989
# Poissons Ratio (z) = 0.14548 0.25821
#
# Static dielectric constant tensor:
#      x y z
#    x 1.968690 0.000000 0.000000 
#    y 0.000000 1.902100 0.000000 
#    z 0.000000 0.000000 1.916140 
# 
# From -- ./inp_files/2441.got.cif
#   From: 2010.05.17/outbox.cif.g08.bks.cpg/sg18_2_cif.got.tgz:2441.got - 2010.06.03 22:40:56.
