data_PCOD9313215
_publ_section_title
;
Structure prediction by ZEFSAII (Michael W. Deem and Ramdas Pophale) SiO2 
 PCOD9313215
Probable space group: P 21 21 2
;
_chemical_formula_sum "Si O2"
_cell_formula_units_Z 18
_cell_length_a 6.990704
_cell_length_b 16.884202
_cell_length_c 6.357536
_cell_angle_alpha 90.000000
_cell_angle_beta 90.000000
_cell_angle_gamma 90.000000
_cell_volume 750.395604
_symmetry_space_group_name_H-M "P 21 21 2"
_symmetry_group_IT_number 18
_symmetry_cell_setting 'orthorhombic'
loop_
_space_group_symop_operation_xyz
x,y,z
-x,-y,z
1/2+x,1/2-y,-z
1/2-x,1/2+y,-z
loop_
_atom_site_type_symbol
_atom_site_label
_atom_site_fract_x
_atom_site_fract_y
_atom_site_fract_z
Si Si1 0.757274 0.061034 0.349007
Si Si2 0.430813 0.641860 0.384347
Si Si3 0.741082 0.420703 0.993714
Si Si4 0.500000 0.000000 0.711683
Si Si5 0.909544 0.315426 0.671158
O O1 0.672999 0.018507 0.556212
O O2 0.598268 0.129252 0.310360
O O3 0.954410 0.098221 0.429112
O O4 0.771582 0.996930 0.161346
O O5 0.219030 0.662858 0.468689
O O6 0.535171 0.724487 0.337259
O O7 0.421313 0.592351 0.168111
O O8 0.773231 0.341335 0.861959
O O9 0.933127 0.432587 0.130523
#
# Coordination Sequence:
#
# PCOD9313215 Si02
#       5
#     4   4   4   2   4
#     4  12  25  50  80 116 162 208 276 334 400 499
#     4  12  29  47  84 117 167 216 267 343 419 479
#     4  12  26  50  80 118 156 215 274 330 406 485
#     4  12  22  44  78 112 150 204 262 342 388 462
#     4  12  25  50  77 117 160 211 272 337 412 492
#
# _framework density 23.987351
#
# number of rings (size 3 to 8) (size 9 to 14) (size 15 to 20)
#    0.000    0.000    8.889    0.000    0.000   10.667 
#    0.000    0.000    0.000    0.000    0.000    0.000 
#    0.000    0.000    0.000    0.000    0.000    0.000 
#
# Total GULP energy -100732.795338 kJ/mol
# GULP energy per Si atom -5596.266408 kJ/mol
# Density = 2.393275 g / cm^3
# Si number density = 23.987351 Si / 1000 Ang^3
#
#
#
# Elastic Constant Matrix: (Units=GPa)
#
#
# Indices 1 2 3 4 5 6 
#
# 1 117.0347 57.7915 59.0041 0.0000 0.0000 0.0000
# 2 57.7915 140.4785 76.8119 0.0000 0.0000 0.0000
# 3 59.0041 76.8119 152.6318 0.0000 0.0000 0.0000
# 4 0.0000 0.0000 0.0000 29.7846 0.0000 0.0000
# 5 0.0000 0.0000 0.0000 0.0000 39.5553 0.0000
# 6 0.0000 0.0000 0.0000 0.0000 0.0000 45.1544
#
#
#
# Elastic Compliance Matrix: (Units=1/GPa)
#
#
# Indices 1 2 3 4 5 6 
#
# 1 0.011564 -0.003191 -0.002865 0.000000 0.000000 0.000000
# 2 -0.003191 0.010702 -0.004152 0.000000 0.000000 0.000000
# 3 -0.002865 -0.004152 0.009749 0.000000 0.000000 0.000000
# 4 0.000000 0.000000 0.000000 0.033574 0.000000 0.000000
# 5 0.000000 0.000000 0.000000 0.000000 0.025281 0.000000
# 6 0.000000 0.000000 0.000000 0.000000 0.000000 0.022146
#
#
# Mechanical properties :
#
#
# Convention : Reuss Voigt Hill
#
# Bulk Modulus (GPa) = 86.21293 88.59555 87.40424
# Shear Modulus (GPa) = 36.41711 37.33471 36.87591
#
# Velocity S-wave (km/s) = 3.90061 3.94945 3.92510
# Velocity P-wave (km/s) = 7.50369 7.60342 7.55372
#
# Compressibility (1/GPa) = 0.01159919
#
# Stress axis : x y z
#
# Youngs Moduli (GPa) = 86.47155 93.44423 102.57923
#
# Poissons Ratio (x) = 0.29820 0.29385
# Poissons Ratio (y) = 0.27595 0.42590
# Poissons Ratio (z) = 0.24771 0.38797
#
# Static dielectric constant tensor:
#      x y z
#    x 1.977280 0.000000 0.000000 
#    y 0.000000 1.898240 0.000000 
#    z 0.000000 0.000000 1.893000 
# 
# From -- ./inp_files/216.got.cif
#   From: 2010.05.17/outbox.cif.g08.bks.cpg/sg18_1_cif.got.tgz:216.got - 2010.06.03 22:40:56.
