data_PCOD9313760
_publ_section_title
;
Structure prediction by ZEFSAII (Michael W. Deem and Ramdas Pophale) SiO2 
 PCOD9313760
Probable space group: P 21 21 21
;
_chemical_formula_sum "Si O2"
_cell_formula_units_Z 32
_cell_length_a 9.246070
_cell_length_b 15.010715
_cell_length_c 8.265031
_cell_angle_alpha 90.000000
_cell_angle_beta 90.000000
_cell_angle_gamma 90.000000
_cell_volume 1147.104658
_symmetry_space_group_name_H-M "P 21 21 21"
_symmetry_group_IT_number 19
_symmetry_cell_setting 'orthorhombic'
loop_
_space_group_symop_operation_xyz
x,y,z
1/2-x,-y,1/2+z
1/2+x,1/2-y,-z
-x,1/2+y,1/2-z
loop_
_atom_site_type_symbol
_atom_site_label
_atom_site_fract_x
_atom_site_fract_y
_atom_site_fract_z
Si Si1 0.223245 0.358107 0.764966
Si Si2 0.140354 0.170987 0.082338
Si Si3 0.038788 0.913493 0.579444
Si Si4 0.434469 0.955878 0.336652
Si Si5 0.636498 0.447689 0.620499
Si Si6 0.140628 0.316612 0.313136
Si Si7 0.184091 0.800169 0.060516
Si Si8 0.685765 0.017145 0.534248
O O1 0.279758 0.261330 0.716905
O O2 0.250651 0.422414 0.610792
O O3 0.270547 0.417390 0.918969
O O4 0.055065 0.349468 0.809392
O O5 0.304702 0.134553 0.076118
O O6 0.077659 0.117448 0.240363
O O7 0.122533 0.272077 0.137868
O O8 0.073358 0.141516 0.912186
O O9 0.037603 0.965048 0.409062
O O10 0.997968 0.008710 0.672821
O O11 0.280126 0.002254 0.320482
O O12 0.520840 0.006530 0.476879
O O13 0.709250 0.385455 0.475743
O O14 0.263495 0.259371 0.407469
O O15 0.195785 0.416552 0.314991
O O16 0.988519 0.312931 0.413851
#
# Coordination Sequence:
#
# PCOD9313760 Si02
#       8
#     4   4   4   4   4   4   4   4
#     4  10  22  36  56  80 117 145 188 231 289 329
#     4   9  18  31  57  80 105 138 187 224 272 327
#     4   9  19  34  52  81 112 146 176 230 278 335
#     4   9  16  32  53  72 107 140 173 219 278 324
#     4   9  17  32  54  80 106 137 186 223 271 324
#     4  10  20  33  56  84 112 143 190 232 282 327
#     4  10  20  34  56  86 113 148 188 241 278 334
#     4  10  20  36  54  77 112 145 180 230 280 332
#
# _framework density 27.896321
#
# number of rings (size 3 to 8) (size 9 to 14) (size 15 to 20)
#    0.000    2.500    1.250    0.750    5.250    5.000 
#    0.000    1.250    0.000    0.000    0.000    0.000 
#    0.000    0.000    0.000    0.000    0.000    0.000 
#
# Total GULP energy -178265.959933 kJ/mol
# GULP energy per Si atom -5570.811248 kJ/mol
# Density = 2.783283 g / cm^3
# Si number density = 27.896321 Si / 1000 Ang^3
#
#
#
# Elastic Constant Matrix: (Units=GPa)
#
#
# Indices 1 2 3 4 5 6 
#
# 1 66.9055 9.9137 0.3644 0.0000 0.0000 0.0000
# 2 9.9137 89.2624 15.2703 0.0000 0.0000 0.0000
# 3 0.3644 15.2703 35.8469 0.0000 0.0000 0.0000
# 4 0.0000 0.0000 0.0000 65.7872 0.0000 0.0000
# 5 0.0000 0.0000 0.0000 0.0000 12.4704 0.0000
# 6 0.0000 0.0000 0.0000 0.0000 0.0000 29.0434
#
#
#
# Elastic Compliance Matrix: (Units=1/GPa)
#
#
# Indices 1 2 3 4 5 6 
#
# 1 0.015209 -0.001793 0.000609 0.000000 0.000000 0.000000
# 2 -0.001793 0.012295 -0.005219 0.000000 0.000000 0.000000
# 3 0.000609 -0.005219 0.030114 0.000000 0.000000 0.000000
# 4 0.000000 0.000000 0.000000 0.015201 0.000000 0.000000
# 5 0.000000 0.000000 0.000000 0.000000 0.080190 0.000000
# 6 0.000000 0.000000 0.000000 0.000000 0.000000 0.034431
#
#
# Mechanical properties :
#
#
# Convention : Reuss Voigt Hill
#
# Bulk Modulus (GPa) = 22.31607 27.01241 24.66424
# Shear Modulus (GPa) = 23.23607 32.55795 27.89701
#
# Velocity S-wave (km/s) = 2.88921 3.42000 3.16575
# Velocity P-wave (km/s) = 4.37573 5.02985 4.71415
#
# Compressibility (1/GPa) = 0.04481076
#
# Stress axis : x y z
#
# Youngs Moduli (GPa) = 65.75112 81.33410 33.20768
#
# Poissons Ratio (x) = 0.14586 -0.02023
# Poissons Ratio (y) = 0.11792 0.17332
# Poissons Ratio (z) = -0.04006 0.42450
#
# Static dielectric constant tensor:
#      x y z
#    x 2.374990 0.000000 0.000000 
#    y 0.000000 2.160400 0.000000 
#    z 0.000000 0.000000 2.265720 
# 
# From -- ./inp_files/3718.got.cif
#   From: 2010.05.17/outbox.cif.g08.bks.cpg/sg19_2_cif.got.tgz:3718.got - 2010.06.03 22:46:19.
