data_PCOD9313494
_publ_section_title
;
Structure prediction by ZEFSAII (Michael W. Deem and Ramdas Pophale) SiO2 
 PCOD9313494
Probable space group: P 21 21 21
;
_chemical_formula_sum "Si O2"
_cell_formula_units_Z 28
_cell_length_a 15.090195
_cell_length_b 8.718293
_cell_length_c 7.440588
_cell_angle_alpha 90.000000
_cell_angle_beta 90.000000
_cell_angle_gamma 90.000000
_cell_volume 978.889274
_symmetry_space_group_name_H-M "P 21 21 21"
_symmetry_group_IT_number 19
_symmetry_cell_setting 'orthorhombic'
loop_
_space_group_symop_operation_xyz
x,y,z
1/2-x,-y,1/2+z
1/2+x,1/2-y,-z
-x,1/2+y,1/2-z
loop_
_atom_site_type_symbol
_atom_site_label
_atom_site_fract_x
_atom_site_fract_y
_atom_site_fract_z
Si Si1 0.885132 0.667293 0.181147
Si Si2 0.637040 0.809644 0.413082
Si Si3 0.497667 0.337783 0.371076
Si Si4 0.118165 0.415077 0.015132
Si Si5 0.258797 0.440240 0.769841
Si Si6 0.210528 0.992085 0.714834
Si Si7 0.381251 0.079134 0.558726
O O1 0.928752 0.524772 0.290407
O O2 0.908741 0.682243 0.971474
O O3 0.900454 0.810061 0.313183
O O4 0.783252 0.624352 0.198546
O O5 0.660163 0.901363 0.592940
O O6 0.538025 0.818636 0.331151
O O7 0.665369 0.630644 0.422634
O O8 0.698426 0.905647 0.272087
O O9 0.465649 0.506331 0.427740
O O10 0.440676 0.215174 0.487279
O O11 0.179962 0.340486 0.860480
O O12 0.185573 0.547336 0.087496
O O13 0.142528 0.017006 0.877562
O O14 0.283777 0.113486 0.645117
#
# Coordination Sequence:
#
# PCOD9313494 Si02
#       7
#     4   4   4   4   4   4   4
#     4  10  19  35  54  72 110 137 173 212 267 311
#     4   9  17  30  52  77 106 135 173 216 262 304
#     4  10  20  32  53  79 105 140 173 214 267 315
#     4  10  19  30  57  78 104 131 174 219 263 306
#     4   9  14  30  49  78  97 128 168 217 255 292
#     4   9  18  34  53  77 101 140 175 216 252 317
#     4   9  19  33  56  75 103 141 178 210 260 317
#
# _framework density 28.603846999999998
#
# number of rings (size 3 to 8) (size 9 to 14) (size 15 to 20)
#    0.857    1.714    2.857    0.857    0.000    2.286 
#    0.000    1.429    9.429    0.000    0.000    0.000 
#    0.000    0.000    0.000    0.000    0.000    0.000 
#
# Total GULP energy -155965.528044 kJ/mol
# GULP energy per Si atom -5570.197430 kJ/mol
# Density = 2.853874 g / cm^3
# Si number density = 28.603847 Si / 1000 Ang^3
#
#
#
# Elastic Constant Matrix: (Units=GPa)
#
#
# Indices 1 2 3 4 5 6 
#
# 1 60.1720 23.3658 -17.7914 0.0000 0.0000 0.0000
# 2 23.3658 79.0642 23.8716 0.0000 0.0000 0.0000
# 3 -17.7914 23.8716 126.0212 0.0000 0.0000 0.0000
# 4 0.0000 0.0000 0.0000 41.3540 0.0000 0.0000
# 5 0.0000 0.0000 0.0000 0.0000 41.5995 0.0000
# 6 0.0000 0.0000 0.0000 0.0000 0.0000 29.3880
#
#
#
# Elastic Compliance Matrix: (Units=1/GPa)
#
#
# Indices 1 2 3 4 5 6 
#
# 1 0.020803 -0.007461 0.004350 0.000000 0.000000 0.000000
# 2 -0.007461 0.016091 -0.004101 0.000000 0.000000 0.000000
# 3 0.004350 -0.004101 0.009326 0.000000 0.000000 0.000000
# 4 0.000000 0.000000 0.000000 0.024181 0.000000 0.000000
# 5 0.000000 0.000000 0.000000 0.000000 0.024039 0.000000
# 6 0.000000 0.000000 0.000000 0.000000 0.000000 0.034028
#
#
# Mechanical properties :
#
#
# Convention : Reuss Voigt Hill
#
# Bulk Modulus (GPa) = 31.45130 36.01661 33.73396
# Shear Modulus (GPa) = 32.57517 38.18907 35.38212
#
# Velocity S-wave (km/s) = 3.37833 3.65787 3.52087
# Velocity P-wave (km/s) = 5.12219 5.51896 5.32427
#
# Compressibility (1/GPa) = 0.03179518
#
# Stress axis : x y z
#
# Youngs Moduli (GPa) = 48.07097 62.14540 107.22432
#
# Poissons Ratio (x) = 0.46368 -0.46645
# Poissons Ratio (y) = 0.35867 0.43978
# Poissons Ratio (z) = -0.20912 0.25489
#
# Static dielectric constant tensor:
#      x y z
#    x 2.293030 0.000000 0.000000 
#    y 0.000000 2.298750 0.000000 
#    z 0.000000 0.000000 2.259530 
# 
# From -- ./inp_files/4215.got.cif
#   From: 2010.05.17/outbox.cif.g08.bks.cpg/sg19_3_cif.got.tgz:4215.got - 2010.06.03 22:46:19.
