data_PCOD9313631
_publ_section_title
;
Structure prediction by ZEFSAII (Michael W. Deem and Ramdas Pophale) SiO2 
 PCOD9313631
Probable space group: P 21 21 21
;
_chemical_formula_sum "Si O2"
_cell_formula_units_Z 24
_cell_length_a 11.791981
_cell_length_b 8.556064
_cell_length_c 9.011121
_cell_angle_alpha 90.000000
_cell_angle_beta 90.000000
_cell_angle_gamma 90.000000
_cell_volume 909.158528
_symmetry_space_group_name_H-M "P 21 21 21"
_symmetry_group_IT_number 19
_symmetry_cell_setting 'orthorhombic'
loop_
_space_group_symop_operation_xyz
x,y,z
1/2-x,-y,1/2+z
1/2+x,1/2-y,-z
-x,1/2+y,1/2-z
loop_
_atom_site_type_symbol
_atom_site_label
_atom_site_fract_x
_atom_site_fract_y
_atom_site_fract_z
Si Si1 0.955862 0.540286 0.420431
Si Si2 0.797884 0.298086 0.319403
Si Si3 0.088004 0.056198 0.599388
Si Si4 0.675113 0.960022 0.053038
Si Si5 0.627975 0.218734 0.685657
Si Si6 0.351090 0.271261 0.004146
O O1 0.852672 0.419628 0.438617
O O2 0.902190 0.680313 0.327333
O O3 0.045078 0.428736 0.334390
O O4 0.039869 0.619221 0.538754
O O5 0.667526 0.344531 0.289926
O O6 0.814482 0.133920 0.398645
O O7 0.862266 0.297639 0.164082
O O8 0.106653 0.160771 0.450464
O O9 0.953518 0.031669 0.606641
O O10 0.142205 0.883734 0.600212
O O11 0.748108 0.855853 0.168059
O O12 0.741465 0.119953 0.019174
#
# Coordination Sequence:
#
# PCOD9313631 Si02
#       6
#     4   4   4   4   4   4
#     4  11  18  37  67  94 120 165 220 271 317 379
#     4  11  23  41  67  95 127 172 220 266 332 393
#     4  11  22  43  62  94 136 170 217 277 332 389
#     4  10  24  43  62  99 136 168 217 276 333 388
#     4  10  19  36  67  93 126 165 212 274 315 389
#     4  11  24  42  67  97 131 170 228 272 323 400
#
# _framework density 26.398035
#
# number of rings (size 3 to 8) (size 9 to 14) (size 15 to 20)
#    0.000    1.333    5.000    0.000    2.333    0.000 
#    3.000    0.000    0.000    0.000    0.000    0.000 
#    0.000    0.000    0.000    0.000    0.000    0.000 
#
# Total GULP energy -134255.251755 kJ/mol
# GULP energy per Si atom -5593.968823 kJ/mol
# Density = 2.633795 g / cm^3
# Si number density = 26.398035 Si / 1000 Ang^3
#
#
#
# Elastic Constant Matrix: (Units=GPa)
#
#
# Indices 1 2 3 4 5 6 
#
# 1 218.7995 65.5983 0.9892 0.0000 0.0000 0.0000
# 2 65.5983 152.6571 15.7606 0.0000 0.0000 0.0000
# 3 0.9892 15.7606 22.7688 0.0000 0.0000 0.0000
# 4 0.0000 0.0000 0.0000 36.3206 0.0000 0.0000
# 5 0.0000 0.0000 0.0000 0.0000 4.2701 0.0000
# 6 0.0000 0.0000 0.0000 0.0000 0.0000 66.8693
#
#
#
# Elastic Compliance Matrix: (Units=1/GPa)
#
#
# Indices 1 2 3 4 5 6 
#
# 1 0.005290 -0.002423 0.001447 0.000000 0.000000 0.000000
# 2 -0.002423 0.008164 -0.005546 0.000000 0.000000 0.000000
# 3 0.001447 -0.005546 0.047696 0.000000 0.000000 0.000000
# 4 0.000000 0.000000 0.000000 0.027533 0.000000 0.000000
# 5 0.000000 0.000000 0.000000 0.000000 0.234185 0.000000
# 6 0.000000 0.000000 0.000000 0.000000 0.000000 0.014955
#
#
# Mechanical properties :
#
#
# Convention : Reuss Voigt Hill
#
# Bulk Modulus (GPa) = 20.78690 62.10240 41.44465
# Shear Modulus (GPa) = 13.62763 42.28380 27.95572
#
# Velocity S-wave (km/s) = 2.27455 4.00656 3.25777
# Velocity P-wave (km/s) = 3.84573 6.70670 5.46669
#
# Compressibility (1/GPa) = 0.04810722
#
# Stress axis : x y z
#
# Youngs Moduli (GPa) = 189.02916 122.48512 20.96613
#
# Poissons Ratio (x) = 0.29674 -0.03034
# Poissons Ratio (y) = 0.45795 0.11628
# Poissons Ratio (z) = -0.27355 0.67931
#
# Static dielectric constant tensor:
#      x y z
#    x 2.117340 0.000000 0.000000 
#    y 0.000000 2.010150 0.000000 
#    z 0.000000 0.000000 2.127100 
# 
# From -- ./inp_files/3382.got.cif
#   From: 2010.05.17/outbox.cif.g08.bks.cpg/sg19_2_cif.got.tgz:3382.got - 2010.06.03 22:46:19.
