data_PCOD9313161
_publ_section_title
;
Structure prediction by ZEFSAII (Michael W. Deem and Ramdas Pophale) SiO2 
 PCOD9313161
Probable space group: P 21 21 2
;
_chemical_formula_sum "Si O2"
_cell_formula_units_Z 26
_cell_length_a 8.285502
_cell_length_b 24.530975
_cell_length_c 4.928684
_cell_angle_alpha 90.000000
_cell_angle_beta 90.000000
_cell_angle_gamma 90.000000
_cell_volume 1001.762132
_symmetry_space_group_name_H-M "P 21 21 2"
_symmetry_group_IT_number 18
_symmetry_cell_setting 'orthorhombic'
loop_
_space_group_symop_operation_xyz
x,y,z
-x,-y,z
1/2+x,1/2-y,-z
1/2-x,1/2+y,-z
loop_
_atom_site_type_symbol
_atom_site_label
_atom_site_fract_x
_atom_site_fract_y
_atom_site_fract_z
Si Si1 0.184412 0.301764 0.186914
Si Si2 0.779922 0.039508 0.059102
Si Si3 0.347685 0.256282 0.681191
Si Si4 0.240379 0.142590 0.525576
Si Si5 0.884758 0.918990 0.041715
Si Si6 0.000000 0.500000 0.328914
Si Si7 0.436078 0.894155 0.453785
O O1 0.327548 0.283658 0.388881
O O2 0.128131 0.361384 0.285492
O O3 0.025805 0.263281 0.229264
O O4 0.257006 0.295862 0.890536
O O5 0.706561 0.080849 0.278118
O O6 0.935964 0.068503 0.936354
O O7 0.830184 0.978497 0.154358
O O8 0.642267 0.024025 0.847908
O O9 0.237430 0.202083 0.655707
O O10 0.119714 0.123208 0.291380
O O11 0.415275 0.144231 0.364675
O O12 0.218308 0.103689 0.789542
O O13 0.042761 0.551273 0.507728
#
# Coordination Sequence:
#
# PCOD9313161 Si02
#       7
#     4   4   4   4   4   2   4
#     4  11  26  47  73 106 143 185 244 294 366 424
#     4  11  26  41  68 103 143 185 234 291 347 422
#     4  11  25  47  73 103 141 188 233 306 354 427
#     4  11  24  47  71  98 141 191 234 289 366 422
#     4  11  25  44  69 105 145 183 235 294 355 419
#     4  12  22  44  66  98 138 186 226 288 338 432
#     4  11  26  43  72 101 139 191 237 287 356 434
#
# _framework density 25.954263000000001
#
# number of rings (size 3 to 8) (size 9 to 14) (size 15 to 20)
#    0.000    0.923    1.538    4.154    4.308    7.385 
#    0.000    0.000    0.000    0.000    0.000    0.000 
#    0.000    0.000    0.000    0.000    0.000    0.000 
#
# Total GULP energy -145328.244634 kJ/mol
# GULP energy per Si atom -5589.547871 kJ/mol
# Density = 2.589519 g / cm^3
# Si number density = 25.954263 Si / 1000 Ang^3
#
#
#
# Elastic Constant Matrix: (Units=GPa)
#
#
# Indices 1 2 3 4 5 6 
#
# 1 96.9848 10.8063 11.7764 0.0000 0.0000 0.0000
# 2 10.8063 96.8170 11.2814 0.0000 0.0000 0.0000
# 3 11.7764 11.2814 58.9138 0.0000 0.0000 0.0000
# 4 0.0000 0.0000 0.0000 24.0891 0.0000 0.0000
# 5 0.0000 0.0000 0.0000 0.0000 17.6913 0.0000
# 6 0.0000 0.0000 0.0000 0.0000 0.0000 29.5977
#
#
#
# Elastic Compliance Matrix: (Units=1/GPa)
#
#
# Indices 1 2 3 4 5 6 
#
# 1 0.010654 -0.000963 -0.001945 0.000000 0.000000 0.000000
# 2 -0.000963 0.010651 -0.001847 0.000000 0.000000 0.000000
# 3 -0.001945 -0.001847 0.017717 0.000000 0.000000 0.000000
# 4 0.000000 0.000000 0.000000 0.041513 0.000000 0.000000
# 5 0.000000 0.000000 0.000000 0.000000 0.056525 0.000000
# 6 0.000000 0.000000 0.000000 0.000000 0.000000 0.033786
#
#
# Mechanical properties :
#
#
# Convention : Reuss Voigt Hill
#
# Bulk Modulus (GPa) = 33.88451 35.60489 34.74470
# Shear Modulus (GPa) = 26.28892 28.86570 27.57731
#
# Velocity S-wave (km/s) = 3.18605 3.33855 3.26319
# Velocity P-wave (km/s) = 5.15930 5.34877 5.25489
#
# Compressibility (1/GPa) = 0.02951201
#
# Stress axis : x y z
#
# Youngs Moduli (GPa) = 93.85825 93.88397 56.44432
#
# Poissons Ratio (x) = 0.09036 0.10981
# Poissons Ratio (y) = 0.09034 0.10427
# Poissons Ratio (z) = 0.18259 0.17343
#
# Static dielectric constant tensor:
#      x y z
#    x 2.475610 0.000000 0.000000 
#    y 0.000000 2.393220 0.000000 
#    z 0.000000 0.000000 2.033460 
# 
# From -- ./inp_files/702.got.cif
#   From: 2010.05.17/outbox.cif.g08.bks.cpg/sg18_1_cif.got.tgz:702.got - 2010.06.03 22:40:56.
