data_PCOD9313570
_publ_section_title
;
Structure prediction by ZEFSAII (Michael W. Deem and Ramdas Pophale) SiO2 
 PCOD9313570
Probable space group: P 21 21 21
;
_chemical_formula_sum "Si O2"
_cell_formula_units_Z 28
_cell_length_a 12.895457
_cell_length_b 9.463215
_cell_length_c 8.970494
_cell_angle_alpha 90.000000
_cell_angle_beta 90.000000
_cell_angle_gamma 90.000000
_cell_volume 1094.691649
_symmetry_space_group_name_H-M "P 21 21 21"
_symmetry_group_IT_number 19
_symmetry_cell_setting 'orthorhombic'
loop_
_space_group_symop_operation_xyz
x,y,z
1/2-x,-y,1/2+z
1/2+x,1/2-y,-z
-x,1/2+y,1/2-z
loop_
_atom_site_type_symbol
_atom_site_label
_atom_site_fract_x
_atom_site_fract_y
_atom_site_fract_z
Si Si1 0.111589 0.253190 0.882516
Si Si2 0.766024 0.278705 0.537971
Si Si3 0.871106 0.214072 0.854933
Si Si4 0.312335 0.512546 0.573990
Si Si5 0.062946 0.342720 0.342440
Si Si6 0.787785 0.423976 0.101294
Si Si7 0.932122 0.585443 0.333521
O O1 0.205067 0.170002 0.804848
O O2 0.995739 0.215785 0.833128
O O3 0.139317 0.414669 0.923319
O O4 0.125125 0.180742 0.045868
O O5 0.817879 0.263953 0.702309
O O6 0.647264 0.226288 0.551593
O O7 0.764273 0.444924 0.512650
O O8 0.816569 0.154882 0.442338
O O9 0.804322 0.075844 0.904901
O O10 0.850358 0.325168 0.988009
O O11 0.377350 0.566608 0.715181
O O12 0.009853 0.210558 0.258439
O O13 0.993948 0.462141 0.416674
O O14 0.865163 0.501755 0.213622
#
# Coordination Sequence:
#
# PCOD9313570 Si02
#       7
#     4   4   4   4   4   4   4
#     4  10  21  37  58  84 117 159 198 239 295 356
#     4  10  21  37  57  87 122 152 192 247 296 349
#     4  10  21  40  61  84 119 158 199 243 297 361
#     4   9  19  37  57  83 115 151 196 243 291 352
#     4   9  19  34  57  85 112 148 194 239 288 351
#     4  10  20  36  58  84 117 152 193 243 293 348
#     4  10  19  35  58  85 114 150 196 244 290 347
#
# _framework density 25.577977000000001
#
# number of rings (size 3 to 8) (size 9 to 14) (size 15 to 20)
#    0.000    2.286    0.000    5.143    0.000    3.429 
#    0.000   12.857    0.000    0.000    0.000    0.000 
#    0.000    0.000    0.000    0.000    0.000    0.000 
#
# Total GULP energy -156473.810199 kJ/mol
# GULP energy per Si atom -5588.350364 kJ/mol
# Density = 2.551976 g / cm^3
# Si number density = 25.577977 Si / 1000 Ang^3
#
#
#
# Elastic Constant Matrix: (Units=GPa)
#
#
# Indices 1 2 3 4 5 6 
#
# 1 86.4493 24.1049 1.3135 0.0000 0.0000 0.0000
# 2 24.1049 102.9155 13.4729 0.0000 0.0000 0.0000
# 3 1.3135 13.4729 37.7687 0.0000 0.0000 0.0000
# 4 0.0000 0.0000 0.0000 35.0402 0.0000 0.0000
# 5 0.0000 0.0000 0.0000 0.0000 28.6644 0.0000
# 6 0.0000 0.0000 0.0000 0.0000 0.0000 31.6053
#
#
#
# Elastic Compliance Matrix: (Units=1/GPa)
#
#
# Indices 1 2 3 4 5 6 
#
# 1 0.012390 -0.002985 0.000634 0.000000 0.000000 0.000000
# 2 -0.002985 0.010912 -0.003789 0.000000 0.000000 0.000000
# 3 0.000634 -0.003789 0.027806 0.000000 0.000000 0.000000
# 4 0.000000 0.000000 0.000000 0.028539 0.000000 0.000000
# 5 0.000000 0.000000 0.000000 0.000000 0.034886 0.000000
# 6 0.000000 0.000000 0.000000 0.000000 0.000000 0.031640
#
#
# Mechanical properties :
#
#
# Convention : Reuss Voigt Hill
#
# Bulk Modulus (GPa) = 25.75403 33.87957 29.81680
# Shear Modulus (GPa) = 29.17215 31.61146 30.39181
#
# Velocity S-wave (km/s) = 3.38082 3.51933 3.45077
# Velocity P-wave (km/s) = 5.03295 5.45789 5.24972
#
# Compressibility (1/GPa) = 0.03882887
#
# Stress axis : x y z
#
# Youngs Moduli (GPa) = 80.70914 91.64350 35.96291
#
# Poissons Ratio (x) = 0.27356 -0.02280
# Poissons Ratio (y) = 0.24092 0.13625
# Poissons Ratio (z) = -0.05116 0.34721
#
# Static dielectric constant tensor:
#      x y z
#    x 2.138980 0.000000 0.000000 
#    y 0.000000 2.018800 0.000000 
#    z 0.000000 0.000000 2.039620 
# 
# From -- ./inp_files/4652.got.cif
#   From: 2010.05.17/outbox.cif.g08.bks.cpg/sg19_3_cif.got.tgz:4652.got - 2010.06.03 22:46:19.
