data_PCOD9313778
_publ_section_title
;
Structure prediction by ZEFSAII (Michael W. Deem and Ramdas Pophale) SiO2 
 PCOD9313778
Probable space group: P 21 21 21
;
_chemical_formula_sum "Si O2"
_cell_formula_units_Z 20
_cell_length_a 18.729357
_cell_length_b 9.027365
_cell_length_c 4.938639
_cell_angle_alpha 90.000000
_cell_angle_beta 90.000000
_cell_angle_gamma 90.000000
_cell_volume 835.008991
_symmetry_space_group_name_H-M "P 21 21 21"
_symmetry_group_IT_number 19
_symmetry_cell_setting 'orthorhombic'
loop_
_space_group_symop_operation_xyz
x,y,z
1/2-x,-y,1/2+z
1/2+x,1/2-y,-z
-x,1/2+y,1/2-z
loop_
_atom_site_type_symbol
_atom_site_label
_atom_site_fract_x
_atom_site_fract_y
_atom_site_fract_z
Si Si1 0.572338 0.406837 0.739805
Si Si2 0.113085 0.799790 0.457912
Si Si3 0.581534 0.975727 0.839727
Si Si4 0.543639 0.210066 0.222612
Si Si5 0.706389 0.961025 0.471308
O O1 0.625327 0.532397 0.632629
O O2 0.497116 0.493466 0.788751
O O3 0.585279 0.317983 0.011500
O O4 0.554968 0.289264 0.505651
O O5 0.098408 0.698114 0.191321
O O6 0.177001 0.704479 0.587851
O O7 0.040114 0.793121 0.633879
O O8 0.572910 0.048572 0.132338
O O9 0.643672 0.039259 0.647846
O O10 0.730791 0.037230 0.195378
#
# Coordination Sequence:
#
# PCOD9313778 Si02
#       5
#     4   4   4   4   4
#     4  10  20  34  57  88 121 150 185 255 310 360
#     4   8  20  37  56  86 122 152 203 238 307 352
#     4   8  20  37  56  86 122 152 203 238 307 352
#     4  10  20  34  57  88 121 150 185 255 310 360
#     4  10  22  36  60  84 118 160 208 244 284 352
#
# _framework density 23.951837000000001
#
# number of rings (size 3 to 8) (size 9 to 14) (size 15 to 20)
#    1.200    1.600    0.000    0.000    2.800   16.000 
#    0.000    0.000    0.000    4.800    0.000    0.000 
#    0.000    0.000    0.000    0.000    0.000    0.000 
#
# Total GULP energy -111513.338189 kJ/mol
# GULP energy per Si atom -5575.666909 kJ/mol
# Density = 2.389732 g / cm^3
# Si number density = 23.951837 Si / 1000 Ang^3
#
#
#
# Elastic Constant Matrix: (Units=GPa)
#
#
# Indices 1 2 3 4 5 6 
#
# 1 47.1377 -0.4828 17.8574 0.0000 0.0000 0.0000
# 2 -0.4828 83.8828 20.7869 0.0000 0.0000 0.0000
# 3 17.8574 20.7869 109.6818 0.0000 0.0000 0.0000
# 4 0.0000 0.0000 0.0000 26.2264 0.0000 0.0000
# 5 0.0000 0.0000 0.0000 0.0000 29.6011 0.0000
# 6 0.0000 0.0000 0.0000 0.0000 0.0000 29.8271
#
#
#
# Elastic Compliance Matrix: (Units=1/GPa)
#
#
# Indices 1 2 3 4 5 6 
#
# 1 0.022705 0.001098 -0.003905 0.000000 0.000000 0.000000
# 2 0.001098 0.012562 -0.002560 0.000000 0.000000 0.000000
# 3 -0.003905 -0.002560 0.010238 0.000000 0.000000 0.000000
# 4 0.000000 0.000000 0.000000 0.038130 0.000000 0.000000
# 5 0.000000 0.000000 0.000000 0.000000 0.033783 0.000000
# 6 0.000000 0.000000 0.000000 0.000000 0.000000 0.033527
#
#
# Mechanical properties :
#
#
# Convention : Reuss Voigt Hill
#
# Bulk Modulus (GPa) = 28.75793 35.22503 31.99148
# Shear Modulus (GPa) = 28.85725 30.63365 29.74545
#
# Velocity S-wave (km/s) = 3.47479 3.58015 3.52786
# Velocity P-wave (km/s) = 5.30392 5.64167 5.47540
#
# Compressibility (1/GPa) = 0.03477302
#
# Stress axis : x y z
#
# Youngs Moduli (GPa) = 44.04327 79.60518 97.67428
#
# Poissons Ratio (x) = -0.08743 0.38140
# Poissons Ratio (y) = -0.04837 0.25000
# Poissons Ratio (z) = 0.17198 0.20375
#
# Static dielectric constant tensor:
#      x y z
#    x 2.017820 0.000000 0.000000 
#    y 0.000000 1.990760 0.000000 
#    z 0.000000 0.000000 1.934560 
# 
# From -- ./inp_files/2093.got.cif
#   From: 2010.05.17/outbox.cif.g08.bks.cpg/sg19_2_cif.got.tgz:2093.got - 2010.06.03 22:46:19.
