data_PCOD9313284
_publ_section_title
;
Structure prediction by ZEFSAII (Michael W. Deem and Ramdas Pophale) SiO2 
 PCOD9313284
Probable space group: P 21 21 2
;
_chemical_formula_sum "Si O2"
_cell_formula_units_Z 30
_cell_length_a 12.000000
_cell_length_b 6.000000
_cell_length_c 21.000000
_cell_angle_alpha 90.000000
_cell_angle_beta 90.000000
_cell_angle_gamma 90.000000
_cell_volume 1512.000000
_symmetry_space_group_name_H-M "P 21 21 2"
_symmetry_group_IT_number 18
_symmetry_cell_setting 'orthorhombic'
loop_
_space_group_symop_operation_xyz
x,y,z
-x,-y,z
1/2+x,1/2-y,-z
1/2-x,1/2+y,-z
loop_
_atom_site_type_symbol
_atom_site_label
_atom_site_fract_x
_atom_site_fract_y
_atom_site_fract_z
Si Si1 0.321795 0.321519 0.696424
Si Si2 0.293101 0.018038 0.073524
Si Si3 0.621077 0.391195 0.814804
Si Si4 0.500000 0.000000 0.754705
Si Si5 0.128562 0.014256 0.953917
Si Si6 0.627967 0.465569 0.359505
Si Si7 0.388801 0.864613 0.477798
Si Si8 0.212924 0.154750 0.410707
O O1 0.320603 0.494819 0.754285
O O2 0.425454 0.161728 0.711607
O O3 0.207047 0.186022 0.685414
O O4 0.339082 0.470088 0.634319
O O5 0.352610 0.767869 0.077940
O O6 0.199581 0.050704 0.127123
O O7 0.357093 0.261616 0.077337
O O8 0.224810 0.013507 0.007273
O O9 0.500000 0.500000 0.824659
O O10 0.588159 0.137490 0.797742
O O11 0.000000 0.000000 0.977104
O O12 0.500000 0.500000 0.336918
O O13 0.616824 0.335742 0.426953
O O14 0.699990 0.688470 0.372653
O O15 0.378375 0.789961 0.550419
O O16 0.500000 0.000000 0.465327
O O17 0.285712 0.026058 0.463255
#
# Coordination Sequence:
#
# PCOD9313284 Si02
#       8
#     4   4   4   2   4   4   4   4
#     4  10  24  42  65  91 126 157 213 261 327 378
#     4  10  22  38  69  99 137 182 232 274 334 395
#     4  10  22  42  66  93 125 166 217 269 320 382
#     4  10  22  46  66  92 122 168 206 284 316 386
#     4  10  21  40  63 102 143 183 222 281 333 393
#     4  11  22  41  65  85 121 160 201 259 313 391
#     4  11  22  39  62  87 116 156 200 253 316 388
#     4  11  22  41  62  91 120 155 204 255 317 393
#
# _framework density 19.841270000000002
#
# number of rings (size 3 to 8) (size 9 to 14) (size 15 to 20)
#    0.000    1.600    2.667    1.600    3.733    0.000 
#   12.000    2.000    5.867    0.000    0.000    0.000 
#    0.000    0.000    0.000    0.000    0.000    0.000 
#
# Total GULP energy -167181.452244 kJ/mol
# GULP energy per Si atom -5572.715075 kJ/mol
# Density = 1.979611 g / cm^3
# Si number density = 19.841270 Si / 1000 Ang^3
#
#
#
# Elastic Constant Matrix: (Units=GPa)
#
#
# Indices 1 2 3 4 5 6 
#
# 1 47.5439 19.7690 3.8377 0.0000 0.0000 0.0000
# 2 19.7690 127.2962 20.5120 0.0000 0.0000 0.0000
# 3 3.8377 20.5120 31.1147 0.0000 0.0000 0.0000
# 4 0.0000 0.0000 0.0000 15.4180 0.0000 0.0000
# 5 0.0000 0.0000 0.0000 0.0000 39.9425 0.0000
# 6 0.0000 0.0000 0.0000 0.0000 0.0000 28.0645
#
#
#
# Elastic Compliance Matrix: (Units=1/GPa)
#
#
# Indices 1 2 3 4 5 6 
#
# 1 0.022493 -0.003408 -0.000527 0.000000 0.000000 0.000000
# 2 -0.003408 0.009306 -0.005714 0.000000 0.000000 0.000000
# 3 -0.000527 -0.005714 0.035971 0.000000 0.000000 0.000000
# 4 0.000000 0.000000 0.000000 0.064859 0.000000 0.000000
# 5 0.000000 0.000000 0.000000 0.000000 0.025036 0.000000
# 6 0.000000 0.000000 0.000000 0.000000 0.000000 0.035632
#
#
# Mechanical properties :
#
#
# Convention : Reuss Voigt Hill
#
# Bulk Modulus (GPa) = 20.63131 32.68803 26.65967
# Shear Modulus (GPa) = 21.85753 27.47408 24.66580
#
# Velocity S-wave (km/s) = 3.32267 3.72518 3.52967
# Velocity P-wave (km/s) = 5.01407 5.91719 5.48425
#
# Compressibility (1/GPa) = 0.04847003
#
# Stress axis : x y z
#
# Youngs Moduli (GPa) = 44.45853 107.46031 27.79989
#
# Poissons Ratio (x) = 0.36624 0.01466
# Poissons Ratio (y) = 0.15152 0.15886
# Poissons Ratio (z) = 0.02345 0.61407
#
# Static dielectric constant tensor:
#      x y z
#    x 1.683250 0.000000 0.000000 
#    y 0.000000 1.783370 0.000000 
#    z 0.000000 0.000000 1.708240 
# 
# From -- ./inp_files/7571.got.cif
#   From: 2010.05.17/outbox.ucp.g08.bks.cvg/sg18_4_cif.got.tgz:7571.got - 2010.06.11 13:13:23.
