data_PCOD9313308
_publ_section_title
;
Structure prediction by ZEFSAII (Michael W. Deem and Ramdas Pophale) SiO2 
 PCOD9313308
Probable space group: P 21 21 21
;
_chemical_formula_sum "Si O2"
_cell_formula_units_Z 28
_cell_length_a 28.648816
_cell_length_b 5.401015
_cell_length_c 6.630066
_cell_angle_alpha 90.000000
_cell_angle_beta 90.000000
_cell_angle_gamma 90.000000
_cell_volume 1025.887914
_symmetry_space_group_name_H-M "P 21 21 21"
_symmetry_group_IT_number 19
_symmetry_cell_setting 'orthorhombic'
loop_
_space_group_symop_operation_xyz
x,y,z
1/2-x,-y,1/2+z
1/2+x,1/2-y,-z
-x,1/2+y,1/2-z
loop_
_atom_site_type_symbol
_atom_site_label
_atom_site_fract_x
_atom_site_fract_y
_atom_site_fract_z
Si Si1 0.453137 0.955403 0.543349
Si Si2 0.405816 0.202498 0.896279
Si Si3 0.140008 0.148844 0.850329
Si Si4 0.723272 0.320731 0.819270
Si Si5 0.695921 0.820570 0.744360
Si Si6 0.821489 0.147813 0.729286
Si Si7 0.957548 0.794475 0.047465
O O1 0.412686 0.812483 0.425252
O O2 0.495402 0.104966 0.441428
O O3 0.471683 0.765789 0.716841
O O4 0.424453 0.161018 0.666967
O O5 0.350918 0.219355 0.855291
O O6 0.424472 0.467704 0.963919
O O7 0.430006 0.960521 0.000822
O O8 0.179726 0.140310 0.028203
O O9 0.156467 0.384062 0.725085
O O10 0.143431 0.877479 0.754768
O O11 0.732381 0.594391 0.731130
O O12 0.775199 0.214219 0.853579
O O13 0.705212 0.100707 0.676514
O O14 0.691403 0.862189 0.989186
#
# Coordination Sequence:
#
# PCOD9313308 Si02
#       7
#     4   4   4   4   4   4   4
#     4  10  17  25  38  55  82 105 141 163 196 231
#     4  10  16  27  37  55  80 106 139 165 192 234
#     4  10  20  29  43  59  84 111 142 176 207 244
#     4  10  18  29  44  58  77 106 147 179 212 241
#     4  10  18  30  43  60  82 111 141 178 206 245
#     4  10  18  30  42  59  77 106 146 181 209 244
#     4  10  17  22  37  56  76 107 140 162 180 241
#
# _framework density 27.293430000000001
#
# number of rings (size 3 to 8) (size 9 to 14) (size 15 to 20)
#    0.857    1.143    4.286    3.429    0.000    0.000 
#    0.000    0.000    0.000    0.000    0.000    0.000 
#    0.000    0.000    0.000    0.000    0.000 1200.000 
#
# Total GULP energy -156341.706053 kJ/mol
# GULP energy per Si atom -5583.632359 kJ/mol
# Density = 2.723131 g / cm^3
# Si number density = 27.293430 Si / 1000 Ang^3
#
#
#
# Elastic Constant Matrix: (Units=GPa)
#
#
# Indices 1 2 3 4 5 6 
#
# 1 151.2970 28.2614 5.1138 0.0000 0.0000 0.0000
# 2 28.2614 197.4086 4.4779 0.0000 0.0000 0.0000
# 3 5.1138 4.4779 72.5054 0.0000 0.0000 0.0000
# 4 0.0000 0.0000 0.0000 5.4754 0.0000 0.0000
# 5 0.0000 0.0000 0.0000 0.0000 26.6561 0.0000
# 6 0.0000 0.0000 0.0000 0.0000 0.0000 40.4944
#
#
#
# Elastic Compliance Matrix: (Units=1/GPa)
#
#
# Indices 1 2 3 4 5 6 
#
# 1 0.006804 -0.000965 -0.000420 0.000000 0.000000 0.000000
# 2 -0.000965 0.005209 -0.000254 0.000000 0.000000 0.000000
# 3 -0.000420 -0.000254 0.013837 0.000000 0.000000 0.000000
# 4 0.000000 0.000000 0.000000 0.182635 0.000000 0.000000
# 5 0.000000 0.000000 0.000000 0.000000 0.037515 0.000000
# 6 0.000000 0.000000 0.000000 0.000000 0.000000 0.024695
#
#
# Mechanical properties :
#
#
# Convention : Reuss Voigt Hill
#
# Bulk Modulus (GPa) = 44.29939 55.21301 49.75620
# Shear Modulus (GPa) = 17.76221 40.08237 28.92229
#
# Velocity S-wave (km/s) = 2.55382 3.83635 3.25880
# Velocity P-wave (km/s) = 4.99620 6.31639 5.69468
#
# Compressibility (1/GPa) = 0.02257367
#
# Stress axis : x y z
#
# Youngs Moduli (GPa) = 146.97470 191.95798 72.26797
#
# Poissons Ratio (x) = 0.18515 0.03037
# Poissons Ratio (y) = 0.14176 0.01833
# Poissons Ratio (z) = 0.06177 0.04870
#
# Static dielectric constant tensor:
#      x y z
#    x 2.103860 0.000000 0.000000 
#    y 0.000000 2.100030 0.000000 
#    z 0.000000 0.000000 2.341970 
# 
# From -- ./inp_files/5604.got.cif
#   From: 2010.05.17/outbox.cif.g08.bks.cpg/sg19_3_cif.got.tgz:5604.got - 2010.06.03 22:46:19.
