data_PCOD9313404
_publ_section_title
;
Structure prediction by ZEFSAII (Michael W. Deem and Ramdas Pophale) SiO2 
 PCOD9313404
Probable space group: P 21 21 21
;
_chemical_formula_sum "Si O2"
_cell_formula_units_Z 28
_cell_length_a 8.218429
_cell_length_b 24.356289
_cell_length_c 5.522875
_cell_angle_alpha 90.000000
_cell_angle_beta 90.000000
_cell_angle_gamma 90.000000
_cell_volume 1105.516274
_symmetry_space_group_name_H-M "P 21 21 21"
_symmetry_group_IT_number 19
_symmetry_cell_setting 'orthorhombic'
loop_
_space_group_symop_operation_xyz
x,y,z
1/2-x,-y,1/2+z
1/2+x,1/2-y,-z
-x,1/2+y,1/2-z
loop_
_atom_site_type_symbol
_atom_site_label
_atom_site_fract_x
_atom_site_fract_y
_atom_site_fract_z
Si Si1 0.203934 0.052300 0.504985
Si Si2 0.050470 0.335237 0.997948
Si Si3 0.758837 0.422579 0.000003
Si Si4 0.406010 0.767177 0.251550
Si Si5 0.754356 0.071567 0.025707
Si Si6 0.025719 0.734341 0.248021
Si Si7 0.416945 0.536003 0.974971
O O1 0.154001 0.080297 0.754391
O O2 0.399420 0.055105 0.518704
O O3 0.169789 0.986447 0.502230
O O4 0.166318 0.081466 0.254615
O O5 0.224806 0.363765 0.961464
O O6 0.905699 0.379196 0.012004
O O7 0.061698 0.294420 0.225501
O O8 0.008818 0.292746 0.784139
O O9 0.214948 0.752189 0.251771
O O10 0.458897 0.794591 0.506446
O O11 0.469353 0.792198 0.002621
O O12 0.671576 0.057854 0.765011
O O13 0.903047 0.029724 0.031723
O O14 0.663557 0.054193 0.274546
#
# Coordination Sequence:
#
# PCOD9313404 Si02
#       7
#     4   4   4   4   4   4   4
#     4  10  18  32  49  76 118 153 180 237 279 342
#     4  10  22  36  64  88 112 154 214 248 298 384
#     4  10  20  30  53  81 109 149 197 228 288 336
#     4  10  23  41  68  95 124 161 206 263 333 386
#     4  10  20  30  53  81 109 149 197 228 288 336
#     4  10  23  41  68  95 124 161 206 263 333 386
#     4  10  18  32  49  76 118 153 180 237 279 342
#
# _framework density 25.327532999999999
#
# number of rings (size 3 to 8) (size 9 to 14) (size 15 to 20)
#    0.857    1.143    2.857    0.857    4.000    0.000 
#    0.000    1.429    0.000    0.000    0.000    0.000 
#    0.000    0.000    0.000    0.000    0.000    0.000 
#
# Total GULP energy -156107.592281 kJ/mol
# GULP energy per Si atom -5575.271153 kJ/mol
# Density = 2.526989 g / cm^3
# Si number density = 25.327533 Si / 1000 Ang^3
#
#
#
# Elastic Constant Matrix: (Units=GPa)
#
#
# Indices 1 2 3 4 5 6 
#
# 1 50.8144 -19.5368 36.7372 0.0000 0.0000 0.0000
# 2 -19.5368 65.6858 5.9647 0.0000 0.0000 0.0000
# 3 36.7372 5.9647 240.1467 0.0000 0.0000 0.0000
# 4 0.0000 0.0000 0.0000 19.1793 0.0000 0.0000
# 5 0.0000 0.0000 0.0000 0.0000 7.1333 0.0000
# 6 0.0000 0.0000 0.0000 0.0000 0.0000 41.2847
#
#
#
# Elastic Compliance Matrix: (Units=1/GPa)
#
#
# Indices 1 2 3 4 5 6 
#
# 1 0.025764 0.008039 -0.004141 0.000000 0.000000 0.000000
# 2 0.008039 0.017767 -0.001671 0.000000 0.000000 0.000000
# 3 -0.004141 -0.001671 0.004839 0.000000 0.000000 0.000000
# 4 0.000000 0.000000 0.000000 0.052140 0.000000 0.000000
# 5 0.000000 0.000000 0.000000 0.000000 0.140188 0.000000
# 6 0.000000 0.000000 0.000000 0.000000 0.000000 0.024222
#
#
# Mechanical properties :
#
#
# Convention : Reuss Voigt Hill
#
# Bulk Modulus (GPa) = 18.93091 44.77524 31.85307
# Shear Modulus (GPa) = 17.98084 35.75156 26.86620
#
# Velocity S-wave (km/s) = 2.66735 3.76116 3.26045
# Velocity P-wave (km/s) = 4.12031 6.04803 5.17473
#
# Compressibility (1/GPa) = 0.05282367
#
# Stress axis : x y z
#
# Youngs Moduli (GPa) = 38.81381 56.28491 206.64952
#
# Poissons Ratio (x) = -0.45247 0.85574
# Poissons Ratio (y) = -0.31202 0.34533
# Poissons Ratio (z) = 0.16073 0.09406
#
# Static dielectric constant tensor:
#      x y z
#    x 1.994470 0.000000 0.000000 
#    y 0.000000 2.018170 0.000000 
#    z 0.000000 0.000000 2.140360 
# 
# From -- ./inp_files/661.got.cif
#   From: 2010.05.17/outbox.cif.g08.bks.cpg/sg19_1_cif.got.tgz:661.got - 2010.06.03 22:46:19.
