data_PCOD9313476
_publ_section_title
;
Structure prediction by ZEFSAII (Michael W. Deem and Ramdas Pophale) SiO2 
 PCOD9313476
Probable space group: P 21 21 21
;
_chemical_formula_sum "Si O2"
_cell_formula_units_Z 32
_cell_length_a 10.466704
_cell_length_b 6.866572
_cell_length_c 18.564104
_cell_angle_alpha 90.000000
_cell_angle_beta 90.000000
_cell_angle_gamma 90.000000
_cell_volume 1334.209146
_symmetry_space_group_name_H-M "P 21 21 21"
_symmetry_group_IT_number 19
_symmetry_cell_setting 'orthorhombic'
loop_
_space_group_symop_operation_xyz
x,y,z
1/2-x,-y,1/2+z
1/2+x,1/2-y,-z
-x,1/2+y,1/2-z
loop_
_atom_site_type_symbol
_atom_site_label
_atom_site_fract_x
_atom_site_fract_y
_atom_site_fract_z
Si Si1 0.528702 0.816134 0.181554
Si Si2 0.474036 0.286938 0.817639
Si Si3 0.259309 0.789134 0.232259
Si Si4 0.650127 0.555034 0.902977
Si Si5 0.078442 0.006850 0.939632
Si Si6 0.200000 0.230494 0.287787
Si Si7 0.412831 0.112261 0.072392
Si Si8 0.639310 0.483126 0.580077
O O1 0.410571 0.764629 0.233215
O O2 0.542248 0.641689 0.123391
O O3 0.664471 0.835832 0.220330
O O4 0.487947 0.004667 0.135908
O O5 0.338336 0.330594 0.780931
O O6 0.533097 0.464097 0.860624
O O7 0.575641 0.220782 0.757969
O O8 0.455144 0.113157 0.873609
O O9 0.213096 0.781875 0.148423
O O10 0.231832 0.009746 0.259748
O O11 0.762638 0.390501 0.907223
O O12 0.604153 0.598629 0.983553
O O13 0.221105 0.087010 0.922542
O O14 0.976657 0.180944 0.944567
O O15 0.166262 0.208401 0.372696
O O16 0.411545 0.977154 0.000724
#
# Coordination Sequence:
#
# PCOD9313476 Si02
#       8
#     4   4   4   4   4   4   4   4
#     4  10  22  43  64  93 126 162 208 260 316 354
#     4  10  18  39  62  83 126 174 196 252 322 364
#     4   9  20  40  61  89 126 167 207 260 304 373
#     4   9  19  38  60  88 130 158 207 263 312 363
#     4  10  20  40  66  92 123 162 206 267 307 371
#     4   9  20  40  61  89 126 167 207 260 304 373
#     4  10  20  40  66  92 123 162 206 267 307 371
#     4   9  19  38  60  88 130 158 207 263 312 363
#
# _framework density 23.984247
#
# number of rings (size 3 to 8) (size 9 to 14) (size 15 to 20)
#    0.000    2.500    1.250    0.000    0.000    1.000 
#   33.750   10.000    0.000    0.000    0.000    0.000 
#    0.000    0.000    0.000    0.000    0.000    0.000 
#
# Total GULP energy -178857.891985 kJ/mol
# GULP energy per Si atom -5589.309125 kJ/mol
# Density = 2.392966 g / cm^3
# Si number density = 23.984247 Si / 1000 Ang^3
#
#
#
# Elastic Constant Matrix: (Units=GPa)
#
#
# Indices 1 2 3 4 5 6 
#
# 1 161.4053 29.6937 51.2228 0.0000 0.0000 0.0000
# 2 29.6937 27.9969 -1.0107 0.0000 0.0000 0.0000
# 3 51.2228 -1.0107 101.8743 0.0000 0.0000 0.0000
# 4 0.0000 0.0000 0.0000 22.5725 0.0000 0.0000
# 5 0.0000 0.0000 0.0000 0.0000 44.7377 0.0000
# 6 0.0000 0.0000 0.0000 0.0000 0.0000 32.9447
#
#
#
# Elastic Compliance Matrix: (Units=1/GPa)
#
#
# Indices 1 2 3 4 5 6 
#
# 1 0.009703 -0.010471 -0.004983 0.000000 0.000000 0.000000
# 2 -0.010471 0.047031 0.005732 0.000000 0.000000 0.000000
# 3 -0.004983 0.005732 0.012378 0.000000 0.000000 0.000000
# 4 0.000000 0.000000 0.000000 0.044302 0.000000 0.000000
# 5 0.000000 0.000000 0.000000 0.000000 0.022353 0.000000
# 6 0.000000 0.000000 0.000000 0.000000 0.000000 0.030354
#
#
# Mechanical properties :
#
#
# Convention : Reuss Voigt Hill
#
# Bulk Modulus (GPa) = 20.13383 50.12088 35.12736
# Shear Modulus (GPa) = 24.73764 34.14236 29.44000
#
# Velocity S-wave (km/s) = 3.21504 3.77707 3.50733
# Velocity P-wave (km/s) = 4.71114 6.32174 5.57491
#
# Compressibility (1/GPa) = 0.04966765
#
# Stress axis : x y z
#
# Youngs Moduli (GPa) = 103.05822 21.26262 80.78714
#
# Poissons Ratio (x) = 0.22264 0.40254
# Poissons Ratio (y) = 1.07914 -0.46304
# Poissons Ratio (z) = 0.51351 -0.12187
#
# Static dielectric constant tensor:
#      x y z
#    x 1.925670 0.000000 0.000000 
#    y 0.000000 1.970090 0.000000 
#    z 0.000000 0.000000 1.947860 
# 
# From -- ./inp_files/7037.got.cif
#   From: 2010.05.17/outbox.cif.g08.bks.cpg/sg19_4_cif.got.tgz:7037.got - 2010.06.03 22:46:19.
