data_PCOD9313901
_publ_section_title
;
Structure prediction by ZEFSAII (Michael W. Deem and Ramdas Pophale) SiO2 
 PCOD9313901
Probable space group: P 21 21 21
;
_chemical_formula_sum "Si O2"
_cell_formula_units_Z 24
_cell_length_a 9.930668
_cell_length_b 7.285777
_cell_length_c 13.221138
_cell_angle_alpha 90.000000
_cell_angle_beta 90.000000
_cell_angle_gamma 90.000000
_cell_volume 956.584139
_symmetry_space_group_name_H-M "P 21 21 21"
_symmetry_group_IT_number 19
_symmetry_cell_setting 'orthorhombic'
loop_
_space_group_symop_operation_xyz
x,y,z
1/2-x,-y,1/2+z
1/2+x,1/2-y,-z
-x,1/2+y,1/2-z
loop_
_atom_site_type_symbol
_atom_site_label
_atom_site_fract_x
_atom_site_fract_y
_atom_site_fract_z
Si Si1 0.100210 0.284677 0.114874
Si Si2 0.259383 0.257305 0.547801
Si Si3 0.486900 0.038063 0.481074
Si Si4 0.658465 0.715361 0.733084
Si Si5 0.334711 0.071400 0.171945
Si Si6 0.603841 0.172687 0.110396
O O1 0.252692 0.256969 0.150429
O O2 0.989156 0.336515 0.196261
O O3 0.097858 0.388710 0.007250
O O4 0.049461 0.076492 0.083200
O O5 0.378682 0.202098 0.472420
O O6 0.137392 0.388277 0.519535
O O7 0.328425 0.306779 0.656210
O O8 0.185689 0.061587 0.574143
O O9 0.452954 0.880619 0.400900
O O10 0.747452 0.531151 0.744368
O O11 0.746535 0.830341 0.653179
O O12 0.493669 0.084037 0.183474
#
# Coordination Sequence:
#
# PCOD9313901 Si02
#       6
#     4   4   4   4   4   4
#     4   9  20  40  58  86 120 159 195 245 306 362
#     4   9  21  41  58  87 122 152 200 252 297 360
#     4   9  21  40  59  87 119 159 198 243 309 360
#     4  10  21  38  60  88 121 152 200 254 294 359
#     4   9  21  40  57  88 118 153 204 247 300 352
#     4  10  20  37  64  86 116 159 201 247 302 365
#
# _framework density 25.089274
#
# number of rings (size 3 to 8) (size 9 to 14) (size 15 to 20)
#    2.000    0.667    0.000    1.000    2.333    1.333 
#    6.000    0.000    0.000    0.000    0.000    0.000 
#    0.000    0.000    0.000    0.000    0.000    0.000 
#
# Total GULP energy -133795.198999 kJ/mol
# GULP energy per Si atom -5574.799958 kJ/mol
# Density = 2.503217 g / cm^3
# Si number density = 25.089274 Si / 1000 Ang^3
#
#
#
# Elastic Constant Matrix: (Units=GPa)
#
#
# Indices 1 2 3 4 5 6 
#
# 1 111.9795 5.5207 5.3997 0.0000 0.0000 0.0000
# 2 5.5207 42.2869 -5.3685 0.0000 0.0000 0.0000
# 3 5.3997 -5.3685 48.5149 0.0000 0.0000 0.0000
# 4 0.0000 0.0000 0.0000 26.2717 0.0000 0.0000
# 5 0.0000 0.0000 0.0000 0.0000 39.8569 0.0000
# 6 0.0000 0.0000 0.0000 0.0000 0.0000 39.1516
#
#
#
# Elastic Compliance Matrix: (Units=1/GPa)
#
#
# Indices 1 2 3 4 5 6 
#
# 1 0.009051 -0.001328 -0.001154 0.000000 0.000000 0.000000
# 2 -0.001328 0.024180 0.002824 0.000000 0.000000 0.000000
# 3 -0.001154 0.002824 0.021053 0.000000 0.000000 0.000000
# 4 0.000000 0.000000 0.000000 0.038064 0.000000 0.000000
# 5 0.000000 0.000000 0.000000 0.000000 0.025090 0.000000
# 6 0.000000 0.000000 0.000000 0.000000 0.000000 0.025542
#
#
# Mechanical properties :
#
#
# Convention : Reuss Voigt Hill
#
# Bulk Modulus (GPa) = 18.19303 23.76502 20.97903
# Shear Modulus (GPa) = 31.12939 34.20467 32.66703
#
# Velocity S-wave (km/s) = 3.52624 3.69632 3.61228
# Velocity P-wave (km/s) = 4.88326 5.26401 5.07721
#
# Compressibility (1/GPa) = 0.05496609
#
# Stress axis : x y z
#
# Youngs Moduli (GPa) = 110.48067 41.35673 47.49883
#
# Poissons Ratio (x) = 0.05493 0.05483
# Poissons Ratio (y) = 0.14675 -0.13411
# Poissons Ratio (z) = 0.12754 -0.11677
#
# Static dielectric constant tensor:
#      x y z
#    x 1.915030 0.000000 0.000000 
#    y 0.000000 2.171200 0.000000 
#    z 0.000000 0.000000 2.013200 
# 
# From -- ./inp_files/5846.got.cif
#   From: 2010.05.17/outbox.cif.g08.bks.cpg/sg19_3_cif.got.tgz:5846.got - 2010.06.03 22:46:19.
