data_PCOD9313676
_publ_section_title
;
Structure prediction by ZEFSAII (Michael W. Deem and Ramdas Pophale) SiO2 
 PCOD9313676
Probable space group: P 21 21 21
;
_chemical_formula_sum "Si O2"
_cell_formula_units_Z 24
_cell_length_a 6.990452
_cell_length_b 14.061744
_cell_length_c 9.171761
_cell_angle_alpha 90.000000
_cell_angle_beta 90.000000
_cell_angle_gamma 90.000000
_cell_volume 901.565272
_symmetry_space_group_name_H-M "P 21 21 21"
_symmetry_group_IT_number 19
_symmetry_cell_setting 'orthorhombic'
loop_
_space_group_symop_operation_xyz
x,y,z
1/2-x,-y,1/2+z
1/2+x,1/2-y,-z
-x,1/2+y,1/2-z
loop_
_atom_site_type_symbol
_atom_site_label
_atom_site_fract_x
_atom_site_fract_y
_atom_site_fract_z
Si Si1 0.005142 0.841002 0.999271
Si Si2 0.578990 0.453977 0.727936
Si Si3 0.964715 0.841144 0.320628
Si Si4 0.952049 0.636741 0.946038
Si Si5 0.984143 0.016826 0.811057
Si Si6 0.630792 0.330497 0.017540
O O1 0.913831 0.927308 0.906450
O O2 0.004131 0.744660 0.905221
O O3 0.910784 0.814820 0.154455
O O4 0.219500 0.867462 0.054382
O O5 0.443319 0.544692 0.699621
O O6 0.501053 0.377449 0.615218
O O7 0.790198 0.488534 0.684685
O O8 0.617080 0.405164 0.882740
O O9 0.185370 0.829203 0.376925
O O10 0.876433 0.771879 0.442071
O O11 0.039906 0.547637 0.857293
O O12 0.965743 0.120567 0.884945
#
# Coordination Sequence:
#
# PCOD9313676 Si02
#       6
#     4   4   4   4   4   4
#     4  11  22  41  66  93 132 168 214 268 323 374
#     4  10  19  38  65  90 119 171 216 256 302 388
#     4  11  22  40  65  97 129 170 213 270 316 378
#     4  11  22  39  68  96 125 166 218 263 321 379
#     4  10  20  38  64  93 119 171 223 252 303 400
#     4  11  21  38  68  93 126 166 222 259 315 379
#
# _framework density 26.620370000000001
#
# number of rings (size 3 to 8) (size 9 to 14) (size 15 to 20)
#    0.000    1.333    6.667    2.000    0.000    4.000 
#    0.000    1.667    0.000    0.000    0.000    0.000 
#    0.000    0.000    0.000    0.000    0.000    0.000 
#
# Total GULP energy -133657.239280 kJ/mol
# GULP energy per Si atom -5569.051637 kJ/mol
# Density = 2.655978 g / cm^3
# Si number density = 26.620370 Si / 1000 Ang^3
#
#
#
# Elastic Constant Matrix: (Units=GPa)
#
#
# Indices 1 2 3 4 5 6 
#
# 1 60.9095 11.9490 6.5266 0.0000 0.0000 0.0000
# 2 11.9490 145.5661 46.5936 0.0000 0.0000 0.0000
# 3 6.5266 46.5936 135.5688 0.0000 0.0000 0.0000
# 4 0.0000 0.0000 0.0000 55.0672 0.0000 0.0000
# 5 0.0000 0.0000 0.0000 0.0000 16.6684 0.0000
# 6 0.0000 0.0000 0.0000 0.0000 0.0000 16.8459
#
#
#
# Elastic Compliance Matrix: (Units=1/GPa)
#
#
# Indices 1 2 3 4 5 6 
#
# 1 0.016703 -0.001251 -0.000374 0.000000 0.000000 0.000000
# 2 -0.001251 0.007813 -0.002625 0.000000 0.000000 0.000000
# 3 -0.000374 -0.002625 0.008296 0.000000 0.000000 0.000000
# 4 0.000000 0.000000 0.000000 0.018160 0.000000 0.000000
# 5 0.000000 0.000000 0.000000 0.000000 0.059994 0.000000
# 6 0.000000 0.000000 0.000000 0.000000 0.000000 0.059361
#
#
# Mechanical properties :
#
#
# Convention : Reuss Voigt Hill
#
# Bulk Modulus (GPa) = 41.13219 52.46475 46.79847
# Shear Modulus (GPa) = 26.74772 36.18134 31.46453
#
# Velocity S-wave (km/s) = 3.17327 3.69068 3.44171
# Velocity P-wave (km/s) = 5.37691 6.15733 5.78031
#
# Compressibility (1/GPa) = 0.02431186
#
# Stress axis : x y z
#
# Youngs Moduli (GPa) = 59.86810 127.99770 120.53308
#
# Poissons Ratio (x) = 0.16018 0.04509
# Poissons Ratio (y) = 0.07492 0.31638
# Poissons Ratio (z) = 0.02239 0.33598
#
# Static dielectric constant tensor:
#      x y z
#    x 2.217060 0.000000 0.000000 
#    y 0.000000 2.139430 0.000000 
#    z 0.000000 0.000000 2.159290 
# 
# From -- ./inp_files/2838.got.cif
#   From: 2010.05.17/outbox.cif.g08.bks.cpg/sg19_2_cif.got.tgz:2838.got - 2010.06.03 22:46:19.
