data_PCOD9313987
_publ_section_title
;
Structure prediction by ZEFSAII (Michael W. Deem and Ramdas Pophale) SiO2 
 PCOD9313987
Probable space group: P 21 21 21
;
_chemical_formula_sum "Si O2"
_cell_formula_units_Z 32
_cell_length_a 6.626117
_cell_length_b 11.939779
_cell_length_c 19.098129
_cell_angle_alpha 90.000000
_cell_angle_beta 90.000000
_cell_angle_gamma 90.000000
_cell_volume 1510.936494
_symmetry_space_group_name_H-M "P 21 21 21"
_symmetry_group_IT_number 19
_symmetry_cell_setting 'orthorhombic'
loop_
_space_group_symop_operation_xyz
x,y,z
1/2-x,-y,1/2+z
1/2+x,1/2-y,-z
-x,1/2+y,1/2-z
loop_
_atom_site_type_symbol
_atom_site_label
_atom_site_fract_x
_atom_site_fract_y
_atom_site_fract_z
Si Si1 0.936066 0.409437 0.455849
Si Si2 0.677369 0.734156 0.632780
Si Si3 0.665519 0.271749 0.764095
Si Si4 0.089787 0.223835 0.728476
Si Si5 0.374097 0.008614 0.939812
Si Si6 0.384010 0.313421 0.631008
Si Si7 0.675903 0.506337 0.333701
Si Si8 0.676858 0.049280 0.061447
O O1 0.801242 0.434057 0.524181
O O2 0.912287 0.282441 0.428081
O O3 0.836178 0.487197 0.395699
O O4 0.165178 0.452385 0.460025
O O5 0.456585 0.729958 0.668369
O O6 0.720385 0.612042 0.602099
O O7 0.707805 0.834907 0.578094
O O8 0.825358 0.762788 0.697196
O O9 0.854050 0.202256 0.736988
O O10 0.515706 0.283245 0.699307
O O11 0.762357 0.389446 0.787011
O O12 0.158242 0.304219 0.664106
O O13 0.187938 0.105012 0.711650
O O14 0.524874 0.929210 0.896207
O O15 0.513979 0.062561 0.000110
O O16 0.458377 0.515529 0.371204
#
# Coordination Sequence:
#
# PCOD9313987 Si02
#       8
#     4   4   4   4   4   4   4   4
#     4  10  23  43  64  88 130 171 211 266 309 387
#     4  11  24  41  62  98 128 162 218 261 330 381
#     4  11  21  39  67  92 131 165 204 280 316 389
#     4  10  22  40  68  93 127 165 204 275 319 390
#     4  11  27  41  66  96 129 173 216 271 311 392
#     4  10  24  43  63  99 125 162 222 262 328 377
#     4  10  20  39  63  94 123 166 216 251 336 374
#     4  11  23  40  65  88 127 178 211 262 321 386
#
# _framework density 21.178916000000001
#
# number of rings (size 3 to 8) (size 9 to 14) (size 15 to 20)
#    0.000    1.500    2.500    1.500    3.500    3.000 
#    0.000    0.000    0.000    0.000    0.000    0.000 
#    0.000    0.000    0.000    0.000    0.000    0.000 
#
# Total GULP energy -178646.983850 kJ/mol
# GULP energy per Si atom -5582.718245 kJ/mol
# Density = 2.113071 g / cm^3
# Si number density = 21.178916 Si / 1000 Ang^3
#
#
#
# Elastic Constant Matrix: (Units=GPa)
#
#
# Indices 1 2 3 4 5 6 
#
# 1 71.1103 -9.7962 2.4152 0.0000 0.0000 0.0000
# 2 -9.7962 65.8514 16.5773 0.0000 0.0000 0.0000
# 3 2.4152 16.5773 42.8673 0.0000 0.0000 0.0000
# 4 0.0000 0.0000 0.0000 25.7672 0.0000 0.0000
# 5 0.0000 0.0000 0.0000 0.0000 26.2799 0.0000
# 6 0.0000 0.0000 0.0000 0.0000 0.0000 24.1370
#
#
#
# Elastic Compliance Matrix: (Units=1/GPa)
#
#
# Indices 1 2 3 4 5 6 
#
# 1 0.014485 0.002615 -0.001827 0.000000 0.000000 0.000000
# 2 0.002615 0.017295 -0.006836 0.000000 0.000000 0.000000
# 3 -0.001827 -0.006836 0.026074 0.000000 0.000000 0.000000
# 4 0.000000 0.000000 0.000000 0.038809 0.000000 0.000000
# 5 0.000000 0.000000 0.000000 0.000000 0.038052 0.000000
# 6 0.000000 0.000000 0.000000 0.000000 0.000000 0.041430
#
#
# Mechanical properties :
#
#
# Convention : Reuss Voigt Hill
#
# Bulk Modulus (GPa) = 21.85397 22.02463 21.93930
# Shear Modulus (GPa) = 24.57066 26.61235 25.59151
#
# Velocity S-wave (km/s) = 3.40979 3.54863 3.47990
# Velocity P-wave (km/s) = 5.08364 5.21654 5.15051
#
# Compressibility (1/GPa) = 0.04575828
#
# Stress axis : x y z
#
# Youngs Moduli (GPa) = 69.03726 57.81853 38.35209
#
# Poissons Ratio (x) = -0.15118 0.07008
# Poissons Ratio (y) = -0.18052 0.26216
# Poissons Ratio (z) = 0.12615 0.39523
#
# Static dielectric constant tensor:
#      x y z
#    x 1.807490 0.000000 0.000000 
#    y 0.000000 1.726890 0.000000 
#    z 0.000000 0.000000 1.759490 
# 
# From -- ./inp_files/5493.got.cif
#   From: 2010.05.17/outbox.cif.g08.bks.cpg/sg19_3_cif.got.tgz:5493.got - 2010.06.03 22:46:19.
