data_PCOD9313922
_publ_section_title
;
Structure prediction by ZEFSAII (Michael W. Deem and Ramdas Pophale) SiO2 
 PCOD9313922
Probable space group: P 21 21 21
;
_chemical_formula_sum "Si O2"
_cell_formula_units_Z 32
_cell_length_a 8.143602
_cell_length_b 11.988456
_cell_length_c 13.722832
_cell_angle_alpha 90.000000
_cell_angle_beta 90.000000
_cell_angle_gamma 90.000000
_cell_volume 1339.749306
_symmetry_space_group_name_H-M "P 21 21 21"
_symmetry_group_IT_number 19
_symmetry_cell_setting 'orthorhombic'
loop_
_space_group_symop_operation_xyz
x,y,z
1/2-x,-y,1/2+z
1/2+x,1/2-y,-z
-x,1/2+y,1/2-z
loop_
_atom_site_type_symbol
_atom_site_label
_atom_site_fract_x
_atom_site_fract_y
_atom_site_fract_z
Si Si1 0.143011 0.603599 0.123389
Si Si2 0.949259 0.834928 0.782726
Si Si3 0.933768 0.815351 0.153504
Si Si4 0.084669 0.052988 0.848374
Si Si5 0.438364 0.617345 0.428479
Si Si6 0.949671 0.375784 0.141189
Si Si7 0.390111 0.484353 0.971599
Si Si8 0.058797 0.624797 0.847872
O O1 0.264913 0.618408 0.214302
O O2 0.273939 0.564020 0.040765
O O3 0.034607 0.713888 0.105444
O O4 0.024933 0.500380 0.142982
O O5 0.081874 0.919920 0.827827
O O6 0.936674 0.727866 0.852373
O O7 0.991054 0.818934 0.669096
O O8 0.737736 0.822159 0.138618
O O9 0.977977 0.936479 0.107113
O O10 0.970067 0.810535 0.268953
O O11 0.257645 0.111736 0.837534
O O12 0.019185 0.069886 0.956223
O O13 0.957804 0.089935 0.765130
O O14 0.509421 0.659934 0.530377
O O15 0.240676 0.605754 0.434037
O O16 0.485038 0.485766 0.408037
#
# Coordination Sequence:
#
# PCOD9313922 Si02
#       8
#     4   4   4   4   4   4   4   4
#     4  10  21  36  58  86 116 150 193 240 288 344
#     4  10  20  38  60  84 115 152 192 241 293 345
#     4  11  22  38  61  87 118 153 193 242 290 345
#     4  10  21  36  57  84 116 151 194 240 288 346
#     4   9  20  39  60  82 114 153 191 238 289 347
#     4  11  22  38  58  87 119 153 195 238 290 349
#     4   9  20  37  58  82 115 154 191 240 291 338
#     4  10  20  38  60  84 115 152 191 237 291 344
#
# _framework density 23.885066999999999
#
# number of rings (size 3 to 8) (size 9 to 14) (size 15 to 20)
#    0.000    2.000    0.000    5.250    0.000   10.000 
#    0.000    7.500    0.000    0.000    0.000    0.000 
#    0.000    0.000    0.000    0.000    0.000    0.000 
#
# Total GULP energy -178593.619431 kJ/mol
# GULP energy per Si atom -5581.050607 kJ/mol
# Density = 2.383070 g / cm^3
# Si number density = 23.885067 Si / 1000 Ang^3
#
#
#
# Elastic Constant Matrix: (Units=GPa)
#
#
# Indices 1 2 3 4 5 6 
#
# 1 65.9914 5.6697 5.5348 0.0000 0.0000 0.0000
# 2 5.6697 57.7978 -10.2210 0.0000 0.0000 0.0000
# 3 5.5348 -10.2210 88.3072 0.0000 0.0000 0.0000
# 4 0.0000 0.0000 0.0000 16.4173 0.0000 0.0000
# 5 0.0000 0.0000 0.0000 0.0000 23.4558 0.0000
# 6 0.0000 0.0000 0.0000 0.0000 0.0000 30.3474
#
#
#
# Elastic Compliance Matrix: (Units=1/GPa)
#
#
# Indices 1 2 3 4 5 6 
#
# 1 0.015399 -0.001716 -0.001164 0.000000 0.000000 0.000000
# 2 -0.001716 0.017855 0.002174 0.000000 0.000000 0.000000
# 3 -0.001164 0.002174 0.011649 0.000000 0.000000 0.000000
# 4 0.000000 0.000000 0.000000 0.060912 0.000000 0.000000
# 5 0.000000 0.000000 0.000000 0.000000 0.042633 0.000000
# 6 0.000000 0.000000 0.000000 0.000000 0.000000 0.032952
#
#
# Mechanical properties :
#
#
# Convention : Reuss Voigt Hill
#
# Bulk Modulus (GPa) = 22.99392 23.78484 23.38938
# Shear Modulus (GPa) = 25.34121 28.11827 26.72974
#
# Velocity S-wave (km/s) = 3.26078 3.43480 3.34892
# Velocity P-wave (km/s) = 4.88106 5.07052 4.97669
#
# Compressibility (1/GPa) = 0.04348976
#
# Stress axis : x y z
#
# Youngs Moduli (GPa) = 64.94117 56.00819 85.84654
#
# Poissons Ratio (x) = 0.09613 0.09991
# Poissons Ratio (y) = 0.11146 -0.18664
# Poissons Ratio (z) = 0.07558 -0.12177
#
# Static dielectric constant tensor:
#      x y z
#    x 1.871150 0.000000 0.000000 
#    y 0.000000 2.050740 0.000000 
#    z 0.000000 0.000000 1.983410 
# 
# From -- ./inp_files/5985.got.cif
#   From: 2010.05.17/outbox.cif.g08.bks.cpg/sg19_3_cif.got.tgz:5985.got - 2010.06.03 22:46:19.
