data_PCOD9313969
_publ_section_title
;
Structure prediction by ZEFSAII (Michael W. Deem and Ramdas Pophale) SiO2 
 PCOD9313969
Probable space group: P 21 21 21
;
_chemical_formula_sum "Si O2"
_cell_formula_units_Z 32
_cell_length_a 11.214659
_cell_length_b 16.858904
_cell_length_c 7.443694
_cell_angle_alpha 90.000000
_cell_angle_beta 90.000000
_cell_angle_gamma 90.000000
_cell_volume 1407.355847
_symmetry_space_group_name_H-M "P 21 21 21"
_symmetry_group_IT_number 19
_symmetry_cell_setting 'orthorhombic'
loop_
_space_group_symop_operation_xyz
x,y,z
1/2-x,-y,1/2+z
1/2+x,1/2-y,-z
-x,1/2+y,1/2-z
loop_
_atom_site_type_symbol
_atom_site_label
_atom_site_fract_x
_atom_site_fract_y
_atom_site_fract_z
Si Si1 0.787938 0.992499 0.805718
Si Si2 0.654082 0.591877 0.064196
Si Si3 0.130274 0.053581 0.666191
Si Si4 0.900783 0.835829 0.919629
Si Si5 0.232826 0.243666 0.288665
Si Si6 0.927134 0.149715 0.842507
Si Si7 0.552845 0.213305 0.010138
Si Si8 0.053710 0.465646 0.054416
O O1 0.810903 0.910519 0.909898
O O2 0.860158 0.978448 0.620515
O O3 0.852242 0.070696 0.889110
O O4 0.647004 0.010236 0.791619
O O5 0.632709 0.514565 0.183622
O O6 0.527150 0.629315 0.017536
O O7 0.722523 0.655209 0.188299
O O8 0.738201 0.576168 0.895148
O O9 0.049802 0.121991 0.752022
O O10 0.059583 0.019560 0.491292
O O11 0.918066 0.802865 0.718671
O O12 0.854511 0.769079 0.052473
O O13 0.345540 0.302110 0.296309
O O14 0.166957 0.260008 0.102352
O O15 0.958310 0.214745 0.994294
O O16 0.516981 0.126404 0.936948
#
# Coordination Sequence:
#
# PCOD9313969 Si02
#       8
#     4   4   4   4   4   4   4   4
#     4  10  20  38  70  94 127 176 224 292 351 398
#     4  12  26  47  69 104 146 188 241 294 362 440
#     4  11  25  46  71  96 140 191 227 303 356 425
#     4  11  23  48  69 103 141 179 236 300 351 421
#     4  12  26  45  74 105 138 194 238 291 364 426
#     4  11  21  45  69  98 145 178 236 299 345 423
#     4  11  23  43  68  98 145 177 230 292 348 419
#     4  10  20  42  64 100 128 173 232 291 347 412
#
# _framework density 22.737673999999998
#
# number of rings (size 3 to 8) (size 9 to 14) (size 15 to 20)
#    0.000    1.000    6.250    2.250    1.750    1.000 
#    6.750    0.000    0.000    0.000    0.000    0.000 
#    0.000    0.000    0.000    0.000    0.000    0.000 
#
# Total GULP energy -178973.585147 kJ/mol
# GULP energy per Si atom -5592.924536 kJ/mol
# Density = 2.268592 g / cm^3
# Si number density = 22.737674 Si / 1000 Ang^3
#
#
#
# Elastic Constant Matrix: (Units=GPa)
#
#
# Indices 1 2 3 4 5 6 
#
# 1 36.0169 -8.8065 16.9297 0.0000 0.0000 0.0000
# 2 -8.8065 64.8623 -9.6780 0.0000 0.0000 0.0000
# 3 16.9297 -9.6780 47.2164 0.0000 0.0000 0.0000
# 4 0.0000 0.0000 0.0000 19.1332 0.0000 0.0000
# 5 0.0000 0.0000 0.0000 0.0000 41.0996 0.0000
# 6 0.0000 0.0000 0.0000 0.0000 0.0000 46.3561
#
#
#
# Elastic Compliance Matrix: (Units=1/GPa)
#
#
# Indices 1 2 3 4 5 6 
#
# 1 0.033905 0.002877 -0.011567 0.000000 0.000000 0.000000
# 2 0.002877 0.016148 0.002278 0.000000 0.000000 0.000000
# 3 -0.011567 0.002278 0.025793 0.000000 0.000000 0.000000
# 4 0.000000 0.000000 0.000000 0.052265 0.000000 0.000000
# 5 0.000000 0.000000 0.000000 0.000000 0.024331 0.000000
# 6 0.000000 0.000000 0.000000 0.000000 0.000000 0.021572
#
#
# Mechanical properties :
#
#
# Convention : Reuss Voigt Hill
#
# Bulk Modulus (GPa) = 15.86707 16.10958 15.98832
# Shear Modulus (GPa) = 24.05623 31.29448 27.67536
#
# Velocity S-wave (km/s) = 3.25620 3.71391 3.49256
# Velocity P-wave (km/s) = 4.59681 5.04888 4.82814
#
# Compressibility (1/GPa) = 0.06302360
#
# Stress axis : x y z
#
# Youngs Moduli (GPa) = 29.49374 61.92771 38.76948
#
# Poissons Ratio (x) = -0.17820 0.44845
# Poissons Ratio (y) = -0.08487 -0.08832
# Poissons Ratio (z) = 0.34116 -0.14108
#
# Static dielectric constant tensor:
#      x y z
#    x 1.852160 0.000000 0.000000 
#    y 0.000000 1.835390 0.000000 
#    z 0.000000 0.000000 1.875710 
# 
# From -- ./inp_files/3759.got.cif
#   From: 2010.05.17/outbox.cif.g08.bks.cpg/sg19_2_cif.got.tgz:3759.got - 2010.06.03 22:46:19.
