data_PCOD9313365
_publ_section_title
;
Structure prediction by ZEFSAII (Michael W. Deem and Ramdas Pophale) SiO2 
 PCOD9313365
Probable space group: P 21 21 21
;
_chemical_formula_sum "Si O2"
_cell_formula_units_Z 28
_cell_length_a 8.559660
_cell_length_b 15.249304
_cell_length_c 8.382322
_cell_angle_alpha 90.000000
_cell_angle_beta 90.000000
_cell_angle_gamma 90.000000
_cell_volume 1094.134914
_symmetry_space_group_name_H-M "P 21 21 21"
_symmetry_group_IT_number 19
_symmetry_cell_setting 'orthorhombic'
loop_
_space_group_symop_operation_xyz
x,y,z
1/2-x,-y,1/2+z
1/2+x,1/2-y,-z
-x,1/2+y,1/2-z
loop_
_atom_site_type_symbol
_atom_site_label
_atom_site_fract_x
_atom_site_fract_y
_atom_site_fract_z
Si Si1 0.577036 0.970729 0.395560
Si Si2 0.668029 0.160879 0.848955
Si Si3 0.651144 0.340056 0.961205
Si Si4 0.606206 0.516721 0.400256
Si Si5 0.758881 0.246964 0.525181
Si Si6 0.085994 0.906855 0.130548
Si Si7 0.991981 0.136604 0.383979
O O1 0.745567 0.927704 0.395439
O O2 0.455835 0.889005 0.411270
O O3 0.524116 0.019930 0.235845
O O4 0.540781 0.031459 0.546065
O O5 0.667769 0.236297 0.981497
O O6 0.762476 0.203654 0.699610
O O7 0.498702 0.140663 0.775718
O O8 0.814665 0.391036 0.943370
O O9 0.557508 0.353135 0.793508
O O10 0.537156 0.457135 0.542920
O O11 0.759902 0.463674 0.336429
O O12 0.588527 0.291388 0.511546
O O13 0.860172 0.333888 0.495523
O O14 0.815767 0.170619 0.405875
#
# Coordination Sequence:
#
# PCOD9313365 Si02
#       7
#     4   4   4   4   4   4   4
#     4  11  23  41  62  94 123 159 205 259 314 367
#     4  11  22  41  61  91 127 159 203 265 304 363
#     4  10  21  39  60  88 124 159 204 249 309 367
#     4  10  20  39  66  90 122 162 205 248 306 377
#     4  10  17  36  62  87 115 159 207 245 287 367
#     4  10  22  41  61  91 125 165 205 252 306 374
#     4  10  19  35  64  87 116 165 205 248 298 365
#
# _framework density 25.590993999999998
#
# number of rings (size 3 to 8) (size 9 to 14) (size 15 to 20)
#    0.000    1.714    4.286    3.429    0.000    1.143 
#    5.143    2.857    0.000    0.000    0.000    0.000 
#    0.000    0.000    0.000    0.000    0.000    0.000 
#
# Total GULP energy -156679.092119 kJ/mol
# GULP energy per Si atom -5595.681861 kJ/mol
# Density = 2.553275 g / cm^3
# Si number density = 25.590994 Si / 1000 Ang^3
#
#
#
# Elastic Constant Matrix: (Units=GPa)
#
#
# Indices 1 2 3 4 5 6 
#
# 1 64.3054 54.0772 25.7243 0.0000 0.0000 0.0000
# 2 54.0772 89.0119 8.4406 0.0000 0.0000 0.0000
# 3 25.7243 8.4406 53.5253 0.0000 0.0000 0.0000
# 4 0.0000 0.0000 0.0000 35.2368 0.0000 0.0000
# 5 0.0000 0.0000 0.0000 0.0000 26.6726 0.0000
# 6 0.0000 0.0000 0.0000 0.0000 0.0000 49.1771
#
#
#
# Elastic Compliance Matrix: (Units=1/GPa)
#
#
# Indices 1 2 3 4 5 6 
#
# 1 0.042724 -0.024373 -0.016690 0.000000 0.000000 0.000000
# 2 -0.024373 0.025310 0.007723 0.000000 0.000000 0.000000
# 3 -0.016690 0.007723 0.025486 0.000000 0.000000 0.000000
# 4 0.000000 0.000000 0.000000 0.028379 0.000000 0.000000
# 5 0.000000 0.000000 0.000000 0.000000 0.037492 0.000000
# 6 0.000000 0.000000 0.000000 0.000000 0.000000 0.020335
#
#
# Mechanical properties :
#
#
# Convention : Reuss Voigt Hill
#
# Bulk Modulus (GPa) = 37.25931 42.59188 39.92559
# Shear Modulus (GPa) = 19.58084 30.12399 24.85242
#
# Velocity S-wave (km/s) = 2.76913 3.43466 3.11969
# Velocity P-wave (km/s) = 4.98149 5.69286 5.34901
#
# Compressibility (1/GPa) = 0.02683893
#
# Stress axis : x y z
#
# Youngs Moduli (GPa) = 23.40620 39.51077 39.23729
#
# Poissons Ratio (x) = 0.96301 0.65485
# Poissons Ratio (y) = 0.57048 -0.30302
# Poissons Ratio (z) = 0.39064 -0.30513
#
# Static dielectric constant tensor:
#      x y z
#    x 2.050940 0.000000 0.000000 
#    y 0.000000 2.057290 0.000000 
#    z 0.000000 0.000000 1.973850 
# 
# From -- ./inp_files/2993.got.cif
#   From: 2010.05.17/outbox.cif.g08.bks.cpg/sg19_2_cif.got.tgz:2993.got - 2010.06.03 22:46:19.
