data_PCOD9313297
_publ_section_title
;
Structure prediction by ZEFSAII (Michael W. Deem and Ramdas Pophale) SiO2 
 PCOD9313297
Probable space group: P 21 21 21
;
_chemical_formula_sum "Si O2"
_cell_formula_units_Z 28
_cell_length_a 5.508276
_cell_length_b 10.197818
_cell_length_c 18.294237
_cell_angle_alpha 90.000000
_cell_angle_beta 90.000000
_cell_angle_gamma 90.000000
_cell_volume 1027.631128
_symmetry_space_group_name_H-M "P 21 21 21"
_symmetry_group_IT_number 19
_symmetry_cell_setting 'orthorhombic'
loop_
_space_group_symop_operation_xyz
x,y,z
1/2-x,-y,1/2+z
1/2+x,1/2-y,-z
-x,1/2+y,1/2-z
loop_
_atom_site_type_symbol
_atom_site_label
_atom_site_fract_x
_atom_site_fract_y
_atom_site_fract_z
Si Si1 0.521760 0.230125 0.084041
Si Si2 0.996617 0.564193 0.977899
Si Si3 0.931572 0.966560 0.798489
Si Si4 0.933431 0.473555 0.215831
Si Si5 0.521823 0.355174 0.853897
Si Si6 0.602317 0.337265 0.316772
Si Si7 0.499046 0.005484 0.499346
O O1 0.514454 0.094527 0.037366
O O2 0.277317 0.216237 0.131449
O O3 0.776120 0.223196 0.127795
O O4 0.502298 0.359713 0.035247
O O5 0.257909 0.588706 0.013376
O O6 0.951426 0.637265 0.901277
O O7 0.746026 0.581518 0.020381
O O8 0.678458 0.018190 0.830010
O O9 0.951360 0.811506 0.796673
O O10 0.188388 0.012420 0.830412
O O11 0.445261 0.453581 0.278183
O O12 0.967682 0.595010 0.271664
O O13 0.862979 0.364387 0.276828
O O14 0.513326 0.473832 0.913164
#
# Coordination Sequence:
#
# PCOD9313297 Si02
#       7
#     4   4   4   4   4   4   4
#     4  10  16  23  39  62  90 128 157 185 231 298
#     4  10  17  26  42  59  94 126 161 185 242 299
#     4  10  22  33  54  70 100 126 178 217 252 304
#     4  10  20  33  49  70  96 132 172 204 256 294
#     4  10  15  26  38  58  87 125 157 188 228 296
#     4  10  22  35  53  74  98 138 174 211 258 297
#     4  10  16  24  37  63  91 127 157 184 231 300
#
# _framework density 27.247129000000001
#
# number of rings (size 3 to 8) (size 9 to 14) (size 15 to 20)
#    0.857    1.143    2.857    6.857    2.000    0.000 
#    0.000    0.000    0.000    0.000    0.000    0.000 
#    0.000    0.000    0.000   95.143    0.000    0.000 
#
# Total GULP energy -156463.222526 kJ/mol
# GULP energy per Si atom -5587.972233 kJ/mol
# Density = 2.718511 g / cm^3
# Si number density = 27.247129 Si / 1000 Ang^3
#
#
#
# Elastic Constant Matrix: (Units=GPa)
#
#
# Indices 1 2 3 4 5 6 
#
# 1 266.3428 28.5758 2.3045 0.0000 0.0000 0.0000
# 2 28.5758 108.1491 17.5998 0.0000 0.0000 0.0000
# 3 2.3045 17.5998 110.8776 0.0000 0.0000 0.0000
# 4 0.0000 0.0000 0.0000 32.4904 0.0000 0.0000
# 5 0.0000 0.0000 0.0000 0.0000 -53.6947 0.0000
# 6 0.0000 0.0000 0.0000 0.0000 0.0000 -74.2083
#
#
#
# Elastic Compliance Matrix: (Units=1/GPa)
#
#
# Indices 1 2 3 4 5 6 
#
# 1 0.003865 -0.001035 0.000084 0.000000 0.000000 0.000000
# 2 -0.001035 0.009769 -0.001529 0.000000 0.000000 0.000000
# 3 0.000084 -0.001529 0.009260 0.000000 0.000000 0.000000
# 4 0.000000 0.000000 0.000000 0.030778 0.000000 0.000000
# 5 0.000000 0.000000 0.000000 0.000000 -0.018624 0.000000
# 6 0.000000 0.000000 0.000000 0.000000 0.000000 -0.013476
#
#
# Mechanical properties :
#
#
# Convention : Reuss Voigt Hill
#
# Bulk Modulus (GPa) = 55.76153 64.70329 60.23241
# Shear Modulus (GPa) = 153.79695 10.04343 81.92019
#
# Velocity S-wave (km/s) = 7.52115 1.92199 5.48916
# Velocity P-wave (km/s) = 9.79455 5.35946 7.89484
#
# Compressibility (1/GPa) = 0.01793351
#
# Stress axis : x y z
#
# Youngs Moduli (GPa) = 258.74135 102.36706 107.99216
#
# Poissons Ratio (x) = 0.10594 -0.00906
# Poissons Ratio (y) = 0.26776 0.16513
# Poissons Ratio (z) = -0.02172 0.15653
#
# Static dielectric constant tensor:
#      x y z
#    x 2.345830 0.000000 0.000000 
#    y 0.000000 2.092170 0.000000 
#    z 0.000000 0.000000 2.086890 
# 
# From -- ./inp_files/1270.got.cif
#   From: 2010.05.17/outbox.cif.g08.bks.cpg/sg19_1_cif.got.tgz:1270.got - 2010.06.03 22:46:19.
