data_PCOD9313575
_publ_section_title
;
Structure prediction by ZEFSAII (Michael W. Deem and Ramdas Pophale) SiO2 
 PCOD9313575
Probable space group: P 21 21 21
;
_chemical_formula_sum "Si O2"
_cell_formula_units_Z 32
_cell_length_a 15.444891
_cell_length_b 10.229178
_cell_length_c 8.048292
_cell_angle_alpha 90.000000
_cell_angle_beta 90.000000
_cell_angle_gamma 90.000000
_cell_volume 1271.537896
_symmetry_space_group_name_H-M "P 21 21 21"
_symmetry_group_IT_number 19
_symmetry_cell_setting 'orthorhombic'
loop_
_space_group_symop_operation_xyz
x,y,z
1/2-x,-y,1/2+z
1/2+x,1/2-y,-z
-x,1/2+y,1/2-z
loop_
_atom_site_type_symbol
_atom_site_label
_atom_site_fract_x
_atom_site_fract_y
_atom_site_fract_z
Si Si1 0.877962 0.370858 0.481510
Si Si2 0.409900 0.972043 0.831228
Si Si3 0.107677 0.124575 0.821800
Si Si4 0.517202 0.686360 0.481698
Si Si5 0.918123 0.149692 0.265603
Si Si6 0.772119 0.969013 0.807650
Si Si7 0.174756 0.332814 0.025149
Si Si8 0.809276 0.735171 0.009362
O O1 0.859830 0.442597 0.304535
O O2 0.910571 0.478434 0.613305
O O3 0.936473 0.249559 0.419290
O O4 0.788839 0.307616 0.541744
O O5 0.502733 0.947379 0.750208
O O6 0.432094 0.049017 0.003417
O O7 0.365704 0.832062 0.850296
O O8 0.176587 0.186157 0.956003
O O9 0.155717 0.159036 0.653242
O O10 0.022510 0.220491 0.837235
O O11 0.578934 0.775111 0.592513
O O12 0.425687 0.656246 0.574991
O O13 0.824249 0.091282 0.293650
O O14 0.818286 0.930207 0.636831
O O15 0.815921 0.887194 0.958286
O O16 0.749536 0.117642 0.853195
#
# Coordination Sequence:
#
# PCOD9313575 Si02
#       8
#     4   4   4   4   4   4   4   4
#     4  10  20  35  60  80 110 149 191 223 281 343
#     4  11  19  37  60  82 109 147 193 237 270 336
#     4   9  18  38  52  78 114 146 177 233 280 330
#     4   9  19  35  59  77 110 150 184 233 277 327
#     4  10  19  35  59  85 107 150 195 234 267 345
#     4  10  20  38  58  85 115 150 189 232 285 335
#     4   9  19  35  60  79 117 148 185 234 277 338
#     4  10  22  35  56  84 118 144 182 236 287 326
#
# _framework density 25.166374999999999
#
# number of rings (size 3 to 8) (size 9 to 14) (size 15 to 20)
#    0.750    1.500    2.500    0.750    0.000    3.000 
#    2.250    1.250    0.000    0.000    0.000    0.000 
#    0.000    0.000    0.000    0.000    0.000    0.000 
#
# Total GULP energy -178265.790791 kJ/mol
# GULP energy per Si atom -5570.805962 kJ/mol
# Density = 2.510910 g / cm^3
# Si number density = 25.166375 Si / 1000 Ang^3
#
#
#
# Elastic Constant Matrix: (Units=GPa)
#
#
# Indices 1 2 3 4 5 6 
#
# 1 15.5940 7.9164 4.2570 0.0000 0.0000 0.0000
# 2 7.9164 57.3592 0.3255 0.0000 0.0000 0.0000
# 3 4.2570 0.3255 44.5491 0.0000 0.0000 0.0000
# 4 0.0000 0.0000 0.0000 24.9371 0.0000 0.0000
# 5 0.0000 0.0000 0.0000 0.0000 3.9823 0.0000
# 6 0.0000 0.0000 0.0000 0.0000 0.0000 28.5571
#
#
#
# Elastic Compliance Matrix: (Units=1/GPa)
#
#
# Indices 1 2 3 4 5 6 
#
# 1 0.070906 -0.009748 -0.006704 0.000000 0.000000 0.000000
# 2 -0.009748 0.018775 0.000794 0.000000 0.000000 0.000000
# 3 -0.006704 0.000794 0.023082 0.000000 0.000000 0.000000
# 4 0.000000 0.000000 0.000000 0.040101 0.000000 0.000000
# 5 0.000000 0.000000 0.000000 0.000000 0.251111 0.000000
# 6 0.000000 0.000000 0.000000 0.000000 0.000000 0.035018
#
#
# Mechanical properties :
#
#
# Convention : Reuss Voigt Hill
#
# Bulk Modulus (GPa) = 12.27798 15.83337 14.05567
# Shear Modulus (GPa) = 10.05111 18.49553 14.27332
#
# Velocity S-wave (km/s) = 2.00063 2.71390 2.38409
# Velocity P-wave (km/s) = 3.19782 4.01565 3.62984
#
# Compressibility (1/GPa) = 0.08144660
#
# Stress axis : x y z
#
# Youngs Moduli (GPa) = 14.10318 53.26277 43.32376
#
# Poissons Ratio (x) = 0.51921 0.29046
# Poissons Ratio (y) = 0.13748 -0.03441
# Poissons Ratio (z) = 0.09455 -0.04231
#
# Static dielectric constant tensor:
#      x y z
#    x 1.889280 0.000000 0.000000 
#    y 0.000000 2.100360 0.000000 
#    z 0.000000 0.000000 2.091130 
# 
# From -- ./inp_files/3734.got.cif
#   From: 2010.05.17/outbox.cif.g08.bks.cpg/sg19_2_cif.got.tgz:3734.got - 2010.06.03 22:46:19.
