data_PCOD9313809
_publ_section_title
;
Structure prediction by ZEFSAII (Michael W. Deem and Ramdas Pophale) SiO2 
 PCOD9313809
Probable space group: P 21 21 21
;
_chemical_formula_sum "Si O2"
_cell_formula_units_Z 32
_cell_length_a 11.400939
_cell_length_b 11.470221
_cell_length_c 13.276135
_cell_angle_alpha 90.000000
_cell_angle_beta 90.000000
_cell_angle_gamma 90.000000
_cell_volume 1736.137299
_symmetry_space_group_name_H-M "P 21 21 21"
_symmetry_group_IT_number 19
_symmetry_cell_setting 'orthorhombic'
loop_
_space_group_symop_operation_xyz
x,y,z
1/2-x,-y,1/2+z
1/2+x,1/2-y,-z
-x,1/2+y,1/2-z
loop_
_atom_site_type_symbol
_atom_site_label
_atom_site_fract_x
_atom_site_fract_y
_atom_site_fract_z
Si Si1 0.788943 0.432023 0.293644
Si Si2 0.087006 0.285245 0.450383
Si Si3 0.350322 0.354175 0.906930
Si Si4 0.190129 0.566174 0.964418
Si Si5 0.198711 0.916972 0.427577
Si Si6 0.931040 0.567476 0.908896
Si Si7 0.110650 0.676639 0.174781
Si Si8 0.434237 0.984130 0.523623
O O1 0.834454 0.458978 0.183317
O O2 0.650488 0.448689 0.311818
O O3 0.815990 0.296895 0.318608
O O4 0.861402 0.506462 0.373027
O O5 0.214419 0.338346 0.428422
O O6 0.097683 0.190931 0.538436
O O7 0.018812 0.221483 0.358951
O O8 0.004556 0.393605 0.485451
O O9 0.253516 0.443221 0.948485
O O10 0.311289 0.222218 0.924625
O O11 0.376372 0.375294 0.787138
O O12 0.469354 0.384262 0.966226
O O13 0.070403 0.565113 0.901089
O O14 0.156262 0.598634 0.080616
O O15 0.114436 0.971684 0.511098
O O16 0.331915 0.958870 0.445107
#
# Coordination Sequence:
#
# PCOD9313809 Si02
#       8
#     4   4   4   4   4   4   4   4
#     4   9  18  37  57  84 110 149 199 235 289 351
#     4   9  18  36  61  86 106 144 193 246 287 329
#     4  10  22  38  58  84 121 158 194 238 290 355
#     4  10  20  36  61  87 118 144 198 251 292 337
#     4  10  22  37  59  79 120 159 185 233 301 355
#     4  10  20  35  61  84 114 146 195 242 296 339
#     4   9  18  36  62  83 115 153 195 241 289 347
#     4   9  20  37  59  81 114 149 195 234 288 349
#
# _framework density 18.431723000000002
#
# number of rings (size 3 to 8) (size 9 to 14) (size 15 to 20)
#    0.000    2.500    1.250    0.000    7.000    0.000 
#    4.500    0.000    0.000    0.000    0.000    0.000 
#    0.000    0.000    0.000    0.000    0.000    0.000 
#
# Total GULP energy -178285.424719 kJ/mol
# GULP energy per Si atom -5571.419522 kJ/mol
# Density = 1.838977 g / cm^3
# Si number density = 18.431723 Si / 1000 Ang^3
#
#
#
# Elastic Constant Matrix: (Units=GPa)
#
#
# Indices 1 2 3 4 5 6 
#
# 1 102.5530 29.4969 -5.2902 0.0000 0.0000 0.0000
# 2 29.4969 57.8910 14.5264 0.0000 0.0000 0.0000
# 3 -5.2902 14.5264 38.7641 0.0000 0.0000 0.0000
# 4 0.0000 0.0000 0.0000 20.1124 0.0000 0.0000
# 5 0.0000 0.0000 0.0000 0.0000 11.7181 0.0000
# 6 0.0000 0.0000 0.0000 0.0000 0.0000 20.0081
#
#
#
# Elastic Compliance Matrix: (Units=1/GPa)
#
#
# Indices 1 2 3 4 5 6 
#
# 1 0.012057 -0.007237 0.004357 0.000000 0.000000 0.000000
# 2 -0.007237 0.023410 -0.009760 0.000000 0.000000 0.000000
# 3 0.004357 -0.009760 0.030049 0.000000 0.000000 0.000000
# 4 0.000000 0.000000 0.000000 0.049721 0.000000 0.000000
# 5 0.000000 0.000000 0.000000 0.000000 0.085338 0.000000
# 6 0.000000 0.000000 0.000000 0.000000 0.000000 0.049980
#
#
# Mechanical properties :
#
#
# Convention : Reuss Voigt Hill
#
# Bulk Modulus (GPa) = 24.85255 30.74159 27.79707
# Shear Modulus (GPa) = 17.28620 21.06604 19.17612
#
# Velocity S-wave (km/s) = 3.06576 3.38438 3.22900
# Velocity P-wave (km/s) = 5.10340 5.65570 5.38663
#
# Compressibility (1/GPa) = 0.04023732
#
# Stress axis : x y z
#
# Youngs Moduli (GPa) = 82.93684 42.71604 33.27858
#
# Poissons Ratio (x) = 0.30913 -0.14501
# Poissons Ratio (y) = 0.60021 0.32481
# Poissons Ratio (z) = -0.36139 0.41693
#
# Static dielectric constant tensor:
#      x y z
#    x 1.660910 0.000000 0.000000 
#    y 0.000000 1.626970 0.000000 
#    z 0.000000 0.000000 1.625980 
# 
# From -- ./inp_files/5086.got.cif
#   From: 2010.05.17/outbox.cif.g08.bks.cpg/sg19_3_cif.got.tgz:5086.got - 2010.06.03 22:46:19.
