data_PCOD9313394
_publ_section_title
;
Structure prediction by ZEFSAII (Michael W. Deem and Ramdas Pophale) SiO2 
 PCOD9313394
Probable space group: P 21 21 21
;
_chemical_formula_sum "Si O2"
_cell_formula_units_Z 32
_cell_length_a 5.397424
_cell_length_b 13.574717
_cell_length_c 16.860690
_cell_angle_alpha 90.000000
_cell_angle_beta 90.000000
_cell_angle_gamma 90.000000
_cell_volume 1235.357521
_symmetry_space_group_name_H-M "P 21 21 21"
_symmetry_group_IT_number 19
_symmetry_cell_setting 'orthorhombic'
loop_
_space_group_symop_operation_xyz
x,y,z
1/2-x,-y,1/2+z
1/2+x,1/2-y,-z
-x,1/2+y,1/2-z
loop_
_atom_site_type_symbol
_atom_site_label
_atom_site_fract_x
_atom_site_fract_y
_atom_site_fract_z
Si Si1 0.494839 0.099172 0.954275
Si Si2 0.487520 0.358397 0.964198
Si Si3 0.495159 0.607780 0.279166
Si Si4 0.010101 0.060213 0.587186
Si Si5 0.862353 0.782067 0.322629
Si Si6 0.158583 0.851913 0.877294
Si Si7 0.492707 0.587529 0.950068
Si Si8 0.155018 0.714878 0.181782
O O1 0.218050 0.138493 0.973544
O O2 0.492767 0.994405 0.000183
O O3 0.603113 0.111457 0.865676
O O4 0.715222 0.155598 0.000460
O O5 0.486475 0.470837 0.934466
O O6 0.518807 0.285602 0.891539
O O7 0.505479 0.525994 0.347213
O O8 0.614998 0.714385 0.307195
O O9 0.647480 0.576193 0.199995
O O10 0.218812 0.626689 0.246677
O O11 0.764877 0.124716 0.582490
O O12 0.262982 0.120304 0.594712
O O13 0.013399 0.787971 0.241269
O O14 0.443388 0.817505 0.880530
O O15 0.936707 0.779634 0.848815
O O16 0.045995 0.892665 0.958275
#
# Coordination Sequence:
#
# PCOD9313394 Si02
#       8
#     4   4   4   4   4   4   4   4
#     4  10  20  26  39  59  84 114 142 176 210 224
#     4  10  20  27  39  59  80 111 146 177 201 243
#     4   9  19  30  40  62  80 112 141 188 202 247
#     4  10  19  30  43  62  85 110 150 182 201 247
#     4  11  18  28  41  58  88 112 144 182 199 238
#     4   9  19  30  44  57  76 107 147 181 218 251
#     4  10  18  31  44  57  79 109 146 187 215 242
#     4   9  19  28  42  56  78 103 146 177 210 244
#
# _framework density 25.903433
#
# number of rings (size 3 to 8) (size 9 to 14) (size 15 to 20)
#    0.750    1.500    2.500    3.000    3.500    0.000 
#    0.000    0.000    0.000    0.000    0.000    0.000 
#    0.000    0.000    0.000    0.000    0.000  220.000 
#
# Total GULP energy -178144.820989 kJ/mol
# GULP energy per Si atom -5567.025656 kJ/mol
# Density = 2.584448 g / cm^3
# Si number density = 25.903433 Si / 1000 Ang^3
#
#
#
# Elastic Constant Matrix: (Units=GPa)
#
#
# Indices 1 2 3 4 5 6 
#
# 1 205.6181 6.9650 42.1339 0.0000 0.0000 0.0000
# 2 6.9650 -24.3125 63.9904 0.0000 0.0000 0.0000
# 3 42.1339 63.9904 49.4046 0.0000 0.0000 0.0000
# 4 0.0000 0.0000 0.0000 30.5995 0.0000 0.0000
# 5 0.0000 0.0000 0.0000 0.0000 35.5299 0.0000
# 6 0.0000 0.0000 0.0000 0.0000 0.0000 -16.7698
#
#
#
# Elastic Compliance Matrix: (Units=1/GPa)
#
#
# Indices 1 2 3 4 5 6 
#
# 1 0.005240 -0.002327 -0.001455 0.000000 0.000000 0.000000
# 2 -0.002327 -0.008295 0.012729 0.000000 0.000000 0.000000
# 3 -0.001455 0.012729 0.004995 0.000000 0.000000 0.000000
# 4 0.000000 0.000000 0.000000 0.032680 0.000000 0.000000
# 5 0.000000 0.000000 0.000000 0.000000 0.028145 0.000000
# 6 0.000000 0.000000 0.000000 0.000000 0.000000 -0.059631
#
#
# Mechanical properties :
#
#
# Convention : Reuss Voigt Hill
#
# Bulk Modulus (GPa) = 50.41910 50.76541 50.59225
# Shear Modulus (GPa) = -613.61444 17.71331 -297.95056
#
# Velocity S-wave (km/s) = -15.40778 2.61783 -10.73654
# Velocity P-wave (km/s) = 17.23445 5.36450 11.58120
#
# Compressibility (1/GPa) = 0.01983376
#
# Stress axis : x y z
#
# Youngs Moduli (GPa) = 190.82898 -120.55224 200.21664
#
# Poissons Ratio (x) = -0.28057 0.29124
# Poissons Ratio (y) = 0.44413 -2.54856
# Poissons Ratio (z) = 0.27759 1.53451
#
# Static dielectric constant tensor:
#      x y z
#    x 2.164430 0.000000 0.000000 
#    y 0.000000 2.128260 0.000000 
#    z 0.000000 0.000000 2.434050 
# 
# From -- ./inp_files/6518.got.cif
#   From: 2010.05.17/outbox.cif.g08.bks.cpg/sg19_4_cif.got.tgz:6518.got - 2010.06.03 22:46:19.
