data_PCOD9313263
_publ_section_title
;
Structure prediction by ZEFSAII (Michael W. Deem and Ramdas Pophale) SiO2 
 PCOD9313263
Probable space group: P 21 21 2
;
_chemical_formula_sum "Si O2"
_cell_formula_units_Z 20
_cell_length_a 14.055507
_cell_length_b 10.938333
_cell_length_c 4.885117
_cell_angle_alpha 90.000000
_cell_angle_beta 90.000000
_cell_angle_gamma 90.000000
_cell_volume 751.056529
_symmetry_space_group_name_H-M "P 21 21 2"
_symmetry_group_IT_number 18
_symmetry_cell_setting 'orthorhombic'
loop_
_space_group_symop_operation_xyz
x,y,z
-x,-y,z
1/2+x,1/2-y,-z
1/2-x,1/2+y,-z
loop_
_atom_site_type_symbol
_atom_site_label
_atom_site_fract_x
_atom_site_fract_y
_atom_site_fract_z
Si Si1 0.271078 0.580768 0.112038
Si Si2 0.980738 0.629466 0.432331
Si Si3 0.728922 0.080768 0.387962
Si Si4 0.980738 0.870534 0.067669
Si Si5 0.141401 0.750000 0.750000
O O1 0.251971 0.463238 0.916180
O O2 0.379725 0.620869 0.080742
O O3 0.205030 0.685736 0.981548
O O4 0.248029 0.536762 0.416180
O O5 0.879724 0.620868 0.580742
O O6 0.000000 0.500000 0.282905
O O7 0.979610 0.750000 0.250000
O O8 0.068609 0.648732 0.635617
O O9 0.794970 0.185736 0.518452
O O10 0.068609 0.851268 0.864383
O O11 0.000000 0.000000 0.217094
#
# Coordination Sequence:
#
# PCOD9313263 Si02
#       5
#     4   4   4   4   4
#     4  12  28  52  81 117 165 215 271 337 409 484
#     4  12  27  50  83 117 162 216 270 335 406 485
#     4  12  28  52  81 117 165 215 271 337 409 484
#     4  12  27  50  83 117 162 216 270 335 406 485
#     4  12  28  48  82 116 164 216 272 336 408 484
#
# _framework density 26.629156999999999
#
# number of rings (size 3 to 8) (size 9 to 14) (size 15 to 20)
#    0.000    0.000    6.000    2.400    5.600    1.600 
#    0.000    0.000    0.000    0.000    0.000    0.000 
#    0.000    0.000    0.000    0.000    0.000    0.000 
#
# Total GULP energy -112416.083291 kJ/mol
# GULP energy per Si atom -5620.804165 kJ/mol
# Density = 2.656855 g / cm^3
# Si number density = 26.629157 Si / 1000 Ang^3
#
#
#
# Elastic Constant Matrix: (Units=GPa)
#
#
# Indices 1 2 3 4 5 6 
#
# 1 217.6708 48.2307 16.2745 0.0000 0.0000 0.0000
# 2 48.2307 188.9844 29.8563 0.0000 0.0000 0.0000
# 3 16.2745 29.8563 63.3565 0.0000 0.0000 0.0000
# 4 0.0000 0.0000 0.0000 57.8330 0.0000 0.0000
# 5 0.0000 0.0000 0.0000 0.0000 8.9025 0.0000
# 6 0.0000 0.0000 0.0000 0.0000 0.0000 50.5453
#
#
#
# Elastic Compliance Matrix: (Units=1/GPa)
#
#
# Indices 1 2 3 4 5 6 
#
# 1 0.004900 -0.001136 -0.000723 0.000000 0.000000 0.000000
# 2 -0.001136 0.005981 -0.002526 0.000000 0.000000 0.000000
# 3 -0.000723 -0.002526 0.017160 0.000000 0.000000 0.000000
# 4 0.000000 0.000000 0.000000 0.017291 0.000000 0.000000
# 5 0.000000 0.000000 0.000000 0.000000 0.112328 0.000000
# 6 0.000000 0.000000 0.000000 0.000000 0.000000 0.019784
#
#
# Mechanical properties :
#
#
# Convention : Reuss Voigt Hill
#
# Bulk Modulus (GPa) = 51.89750 73.19275 62.54512
# Shear Modulus (GPa) = 25.95532 48.49950 37.22741
#
# Velocity S-wave (km/s) = 3.12540 4.27229 3.74303
# Velocity P-wave (km/s) = 5.70574 7.20293 6.49760
#
# Compressibility (1/GPa) = 0.01926875
#
# Stress axis : x y z
#
# Youngs Moduli (GPa) = 204.08441 167.20855 58.27496
#
# Poissons Ratio (x) = 0.18999 0.04214
# Poissons Ratio (y) = 0.23189 0.14723
# Poissons Ratio (z) = 0.14760 0.42244
#
# Static dielectric constant tensor:
#      x y z
#    x 1.991040 0.000000 0.000000 
#    y 0.000000 2.176990 0.000000 
#    z 0.000000 0.000000 2.042690 
# 
# From -- ./inp_files/1445.got.cif
#   From: 2010.05.17/outbox.cif.g08.bks.cpg/sg18_1_cif.got.tgz:1445.got - 2010.06.03 22:40:56.
