data_PCOD9313436
_publ_section_title
;
Structure prediction by ZEFSAII (Michael W. Deem and Ramdas Pophale) SiO2 
 PCOD9313436
Probable space group: P 21 21 21
;
_chemical_formula_sum "Si O2"
_cell_formula_units_Z 28
_cell_length_a 8.049533
_cell_length_b 18.486094
_cell_length_c 8.519582
_cell_angle_alpha 90.000000
_cell_angle_beta 90.000000
_cell_angle_gamma 90.000000
_cell_volume 1267.751490
_symmetry_space_group_name_H-M "P 21 21 21"
_symmetry_group_IT_number 19
_symmetry_cell_setting 'orthorhombic'
loop_
_space_group_symop_operation_xyz
x,y,z
1/2-x,-y,1/2+z
1/2+x,1/2-y,-z
-x,1/2+y,1/2-z
loop_
_atom_site_type_symbol
_atom_site_label
_atom_site_fract_x
_atom_site_fract_y
_atom_site_fract_z
Si Si1 0.765738 0.882610 0.039476
Si Si2 0.100969 0.786235 0.469381
Si Si3 0.115197 0.951971 0.040407
Si Si4 0.509416 0.129117 0.275557
Si Si5 0.755807 0.837807 0.365051
Si Si6 0.090341 0.472830 0.992621
Si Si7 0.258815 0.922802 0.362825
O O1 0.697603 0.837626 0.185567
O O2 0.932285 0.926631 0.097607
O O3 0.637996 0.944562 0.994256
O O4 0.843113 0.842504 0.888381
O O5 0.153263 0.705496 0.505493
O O6 0.244879 0.837593 0.397941
O O7 0.053914 0.819052 0.640294
O O8 0.937153 0.799196 0.367018
O O9 0.247664 0.940225 0.178357
O O10 0.136060 0.898481 0.891089
O O11 0.112486 0.032137 0.967083
O O12 0.577911 0.058162 0.184428
O O13 0.780598 0.919630 0.421507
O O14 0.913969 0.455595 0.070485
#
# Coordination Sequence:
#
# PCOD9313436 Si02
#       7
#     4   4   4   4   4   4   4
#     4  10  19  36  59  81 114 144 187 242 285 329
#     4  10  20  39  58  79 117 154 193 227 282 349
#     4  10  19  34  59  81 118 149 183 239 296 326
#     4   8  18  33  56  80 114 145 186 234 285 330
#     4  10  21  39  58  82 115 155 187 236 284 345
#     4  10  18  34  59  86 114 141 191 239 289 335
#     4  10  19  35  55  85 116 148 187 239 287 340
#
# _framework density 22.086348999999998
#
# number of rings (size 3 to 8) (size 9 to 14) (size 15 to 20)
#    0.857    1.714    2.857    2.571    0.000    1.143 
#    2.571    5.714    3.143    0.000    0.000    0.000 
#    0.000    0.000    0.000    0.000    0.000    0.000 
#
# Total GULP energy -156018.895326 kJ/mol
# GULP energy per Si atom -5572.103404 kJ/mol
# Density = 2.203608 g / cm^3
# Si number density = 22.086349 Si / 1000 Ang^3
#
#
#
# Elastic Constant Matrix: (Units=GPa)
#
#
# Indices 1 2 3 4 5 6 
#
# 1 22.8858 0.5586 -10.8142 0.0000 0.0000 0.0000
# 2 0.5586 28.3387 3.0453 0.0000 0.0000 0.0000
# 3 -10.8142 3.0453 105.7822 0.0000 0.0000 0.0000
# 4 0.0000 0.0000 0.0000 20.1810 0.0000 0.0000
# 5 0.0000 0.0000 0.0000 0.0000 16.6375 0.0000
# 6 0.0000 0.0000 0.0000 0.0000 0.0000 20.9415
#
#
#
# Elastic Compliance Matrix: (Units=1/GPa)
#
#
# Indices 1 2 3 4 5 6 
#
# 1 0.045970 -0.001416 0.004740 0.000000 0.000000 0.000000
# 2 -0.001416 0.035440 -0.001165 0.000000 0.000000 0.000000
# 3 0.004740 -0.001165 0.009972 0.000000 0.000000 0.000000
# 4 0.000000 0.000000 0.000000 0.049552 0.000000 0.000000
# 5 0.000000 0.000000 0.000000 0.000000 0.060105 0.000000
# 6 0.000000 0.000000 0.000000 0.000000 0.000000 0.047752
#
#
# Mechanical properties :
#
#
# Convention : Reuss Voigt Hill
#
# Bulk Modulus (GPa) = 10.44920 15.84290 13.14605
# Shear Modulus (GPa) = 18.09159 22.49980 20.29570
#
# Velocity S-wave (km/s) = 2.86515 3.19520 3.03467
# Velocity P-wave (km/s) = 3.96065 4.56083 4.27130
#
# Compressibility (1/GPa) = 0.09570112
#
# Stress axis : x y z
#
# Youngs Moduli (GPa) = 21.75346 28.21633 100.28550
#
# Poissons Ratio (x) = 0.03994 -0.47538
# Poissons Ratio (y) = 0.03079 0.11683
# Poissons Ratio (z) = -0.10312 0.03287
#
# Static dielectric constant tensor:
#      x y z
#    x 1.875670 0.000000 0.000000 
#    y 0.000000 1.834710 0.000000 
#    z 0.000000 0.000000 1.848690 
# 
# From -- ./inp_files/3083.got.cif
#   From: 2010.05.17/outbox.cif.g08.bks.cpg/sg19_2_cif.got.tgz:3083.got - 2010.06.03 22:46:19.
