data_PCOD9313043
_publ_section_title
;
Structure prediction by ZEFSAII (Michael W. Deem and Ramdas Pophale) SiO2 
 PCOD9313043
Probable space group: P 21 21 2
;
_chemical_formula_sum "Si O2"
_cell_formula_units_Z 18
_cell_length_a 7.409852
_cell_length_b 11.500744
_cell_length_c 9.210259
_cell_angle_alpha 90.000000
_cell_angle_beta 90.000000
_cell_angle_gamma 90.000000
_cell_volume 784.887320
_symmetry_space_group_name_H-M "P 21 21 2"
_symmetry_group_IT_number 18
_symmetry_cell_setting 'orthorhombic'
loop_
_space_group_symop_operation_xyz
x,y,z
-x,-y,z
1/2+x,1/2-y,-z
1/2-x,1/2+y,-z
loop_
_atom_site_type_symbol
_atom_site_label
_atom_site_fract_x
_atom_site_fract_y
_atom_site_fract_z
Si Si1 0.000000 0.500000 0.900963
Si Si2 0.166577 0.072375 0.914139
Si Si3 0.838977 0.261192 0.509404
Si Si4 0.154560 0.290808 0.744903
Si Si5 0.285456 0.997195 0.596398
O O1 0.122519 0.418350 0.801333
O O2 0.147249 0.565593 0.998815
O O3 0.118207 0.204947 0.878369
O O4 0.200533 0.019760 0.753505
O O5 0.000000 0.000000 0.980358
O O6 0.843660 0.241753 0.333562
O O7 0.744787 0.391173 0.509384
O O8 0.006876 0.272738 0.617562
O O9 0.765978 0.133286 0.553065
O O10 0.500000 0.000000 0.608224
#
# Coordination Sequence:
#
# PCOD9313043 Si02
#       5
#     2   4   4   4   4
#     4  12  28  50  70 108 152 182 250 296 346 436
#     4  11  25  45  71 100 139 200 238 285 363 424
#     4  11  22  42  72 101 141 179 241 293 369 418
#     4  11  25  44  74 104 139 189 237 302 361 426
#     4  11  21  41  67 100 143 187 232 305 358 417
#
# _framework density 22.933226000000001
#
# number of rings (size 3 to 8) (size 9 to 14) (size 15 to 20)
#    0.000    0.889    5.556    1.333    3.111    0.000 
#    4.000    0.000    0.000    0.000    0.000    0.000 
#    0.000    0.000    0.000    0.000    0.000    0.000 
#
# Total GULP energy -100261.471871 kJ/mol
# GULP energy per Si atom -5570.081771 kJ/mol
# Density = 2.288103 g / cm^3
# Si number density = 22.933226 Si / 1000 Ang^3
#
#
#
# Elastic Constant Matrix: (Units=GPa)
#
#
# Indices 1 2 3 4 5 6 
#
# 1 57.2239 17.5427 29.4746 0.0000 0.0000 0.0000
# 2 17.5427 138.1874 41.6290 0.0000 0.0000 0.0000
# 3 29.4746 41.6290 49.0088 0.0000 0.0000 0.0000
# 4 0.0000 0.0000 0.0000 -6.5265 0.0000 0.0000
# 5 0.0000 0.0000 0.0000 0.0000 24.8967 0.0000
# 6 0.0000 0.0000 0.0000 0.0000 0.0000 34.0822
#
#
#
# Elastic Compliance Matrix: (Units=1/GPa)
#
#
# Indices 1 2 3 4 5 6 
#
# 1 0.025673 0.001871 -0.017029 0.000000 0.000000 0.000000
# 2 0.001871 0.009861 -0.009502 0.000000 0.000000 0.000000
# 3 -0.017029 -0.009502 0.038717 0.000000 0.000000 0.000000
# 4 0.000000 0.000000 0.000000 -0.153220 0.000000 0.000000
# 5 0.000000 0.000000 0.000000 0.000000 0.040166 0.000000
# 6 0.000000 0.000000 0.000000 0.000000 0.000000 0.029341
#
#
# Mechanical properties :
#
#
# Convention : Reuss Voigt Hill
#
# Bulk Modulus (GPa) = 40.11007 46.85695 43.48351
# Shear Modulus (GPa) = 103.80227 20.87540 62.33884
#
# Velocity S-wave (km/s) = 6.73506 3.02034 5.21937
# Velocity P-wave (km/s) = 8.83229 5.71310 7.43804
#
# Compressibility (1/GPa) = 0.02493139
#
# Stress axis : x y z
#
# Youngs Moduli (GPa) = 38.95138 101.40536 25.82841
#
# Poissons Ratio (x) = -0.18972 0.43984
# Poissons Ratio (y) = -0.07287 0.24541
# Poissons Ratio (z) = 0.66332 0.96352
#
# Static dielectric constant tensor:
#      x y z
#    x 2.094810 0.000000 0.000000 
#    y 0.000000 1.944560 0.000000 
#    z 0.000000 0.000000 1.850610 
# 
# From -- ./inp_files/2876.got.cif
#   From: 2010.05.17/outbox.cif.g08.bks.cpg/sg18_2_cif.got.tgz:2876.got - 2010.06.03 22:40:56.
