data_PCOD9313153
_publ_section_title
;
Structure prediction by ZEFSAII (Michael W. Deem and Ramdas Pophale) SiO2 
 PCOD9313153
Probable space group: P 21 21 2
;
_chemical_formula_sum "Si O2"
_cell_formula_units_Z 26
_cell_length_a 15.275826
_cell_length_b 9.803829
_cell_length_c 7.193507
_cell_angle_alpha 90.000000
_cell_angle_beta 90.000000
_cell_angle_gamma 90.000000
_cell_volume 1077.311017
_symmetry_space_group_name_H-M "P 21 21 2"
_symmetry_group_IT_number 18
_symmetry_cell_setting 'orthorhombic'
loop_
_space_group_symop_operation_xyz
x,y,z
-x,-y,z
1/2+x,1/2-y,-z
1/2-x,1/2+y,-z
loop_
_atom_site_type_symbol
_atom_site_label
_atom_site_fract_x
_atom_site_fract_y
_atom_site_fract_z
Si Si1 0.660277 0.157560 0.544244
Si Si2 0.000000 0.500000 0.284922
Si Si3 0.822011 0.853901 0.131107
Si Si4 0.091481 0.828032 0.691051
Si Si5 0.891314 0.868389 0.750816
Si Si6 0.355526 0.156876 0.965659
Si Si7 0.681521 0.613446 0.671756
O O1 0.565612 0.092351 0.588368
O O2 0.693638 0.224424 0.736622
O O3 0.661047 0.281425 0.397114
O O4 0.730085 0.063961 0.435638
O O5 0.929389 0.420831 0.153377
O O6 0.862997 0.975196 0.253581
O O7 0.882718 0.813247 0.959423
O O8 0.733496 0.914495 0.037815
O O9 0.129543 0.805710 0.487878
O O10 0.989191 0.853469 0.680779
O O11 0.131698 0.972687 0.756306
O O12 0.104934 0.714141 0.844174
O O13 0.318105 0.282718 0.843388
#
# Coordination Sequence:
#
# PCOD9313153 Si02
#       7
#     4   2   4   4   4   4   4
#     4  12  27  49  75 113 158 205 256 318 399 467
#     4  12  32  48  80 120 170 206 252 326 406 480
#     4  12  26  45  79 109 149 205 266 319 385 469
#     4  11  24  45  72 107 147 197 258 324 380 449
#     4  11  24  45  72 107 147 197 258 324 380 449
#     4  12  27  49  75 113 158 205 256 318 399 467
#     4  12  26  45  79 109 149 205 266 319 385 469
#
# _framework density 24.134163000000001
#
# number of rings (size 3 to 8) (size 9 to 14) (size 15 to 20)
#    0.000    0.308    6.154    1.846    6.462    2.462 
#    0.000    1.538    0.000    0.000    0.000    0.000 
#    0.000    0.000    0.000    0.000    0.000    0.000 
#
# Total GULP energy -145289.443230 kJ/mol
# GULP energy per Si atom -5588.055509 kJ/mol
# Density = 2.407923 g / cm^3
# Si number density = 24.134163 Si / 1000 Ang^3
#
#
#
# Elastic Constant Matrix: (Units=GPa)
#
#
# Indices 1 2 3 4 5 6 
#
# 1 74.7756 4.3601 3.6800 0.0000 0.0000 0.0000
# 2 4.3601 45.7548 16.3743 0.0000 0.0000 0.0000
# 3 3.6800 16.3743 118.4708 0.0000 0.0000 0.0000
# 4 0.0000 0.0000 0.0000 44.0137 0.0000 0.0000
# 5 0.0000 0.0000 0.0000 0.0000 24.9274 0.0000
# 6 0.0000 0.0000 0.0000 0.0000 0.0000 33.0145
#
#
#
# Elastic Compliance Matrix: (Units=1/GPa)
#
#
# Indices 1 2 3 4 5 6 
#
# 1 0.013455 -0.001192 -0.000253 0.000000 0.000000 0.000000
# 2 -0.001192 0.023098 -0.003156 0.000000 0.000000 0.000000
# 3 -0.000253 -0.003156 0.008885 0.000000 0.000000 0.000000
# 4 0.000000 0.000000 0.000000 0.022720 0.000000 0.000000
# 5 0.000000 0.000000 0.000000 0.000000 0.040116 0.000000
# 6 0.000000 0.000000 0.000000 0.000000 0.000000 0.030290
#
#
# Mechanical properties :
#
#
# Convention : Reuss Voigt Hill
#
# Bulk Modulus (GPa) = 27.59535 31.98109 29.78822
# Shear Modulus (GPa) = 31.28032 34.69693 32.98862
#
# Velocity S-wave (km/s) = 3.60405 3.79577 3.70115
# Velocity P-wave (km/s) = 5.36450 5.70006 5.53482
#
# Compressibility (1/GPa) = 0.03623799
#
# Stress axis : x y z
#
# Youngs Moduli (GPa) = 74.32025 43.29298 112.55051
#
# Poissons Ratio (x) = 0.05159 0.02850
# Poissons Ratio (y) = 0.08856 0.35515
# Poissons Ratio (z) = 0.01882 0.13661
#
# Static dielectric constant tensor:
#      x y z
#    x 1.974520 0.000000 0.000000 
#    y 0.000000 1.993900 0.000000 
#    z 0.000000 0.000000 1.902250 
# 
# From -- ./inp_files/1808.got.cif
#   From: 2010.05.17/outbox.cif.g08.bks.cpg/sg18_1_cif.got.tgz:1808.got - 2010.06.03 22:40:56.
