data_PCOD9313864
_publ_section_title
;
Structure prediction by ZEFSAII (Michael W. Deem and Ramdas Pophale) SiO2 
 PCOD9313864
Probable space group: P 21 21 21
;
_chemical_formula_sum "Si O2"
_cell_formula_units_Z 32
_cell_length_a 7.888581
_cell_length_b 14.747023
_cell_length_c 11.806904
_cell_angle_alpha 90.000000
_cell_angle_beta 90.000000
_cell_angle_gamma 90.000000
_cell_volume 1373.533572
_symmetry_space_group_name_H-M "P 21 21 21"
_symmetry_group_IT_number 19
_symmetry_cell_setting 'orthorhombic'
loop_
_space_group_symop_operation_xyz
x,y,z
1/2-x,-y,1/2+z
1/2+x,1/2-y,-z
-x,1/2+y,1/2-z
loop_
_atom_site_type_symbol
_atom_site_label
_atom_site_fract_x
_atom_site_fract_y
_atom_site_fract_z
Si Si1 0.923216 0.658551 0.481223
Si Si2 0.499769 0.175928 0.457308
Si Si3 0.660129 0.524291 0.903112
Si Si4 0.753623 0.657861 0.712073
Si Si5 0.205372 0.352040 0.089279
Si Si6 0.030919 0.535631 0.014056
Si Si7 0.869841 0.170241 0.678954
Si Si8 0.124776 0.692325 0.148429
O O1 0.895405 0.579013 0.391406
O O2 0.786930 0.639065 0.581824
O O3 0.887107 0.759609 0.442597
O O4 0.109329 0.650237 0.532890
O O5 0.451960 0.077141 0.502456
O O6 0.370139 0.227446 0.371667
O O7 0.480286 0.239568 0.567644
O O8 0.683742 0.181432 0.401615
O O9 0.663625 0.580291 0.786173
O O10 0.847780 0.528809 0.957022
O O11 0.659335 0.753341 0.736298
O O12 0.942643 0.663860 0.765630
O O13 0.236280 0.351461 0.224157
O O14 0.109502 0.439156 0.041884
O O15 0.134451 0.595763 0.920760
O O16 0.038114 0.596146 0.128170
#
# Coordination Sequence:
#
# PCOD9313864 Si02
#       8
#     4   4   4   4   4   4   4   4
#     4  11  23  40  57  79 110 147 184 225 272 326
#     4   9  16  31  55  83 109 140 179 223 267 318
#     4  10  20  37  58  83 110 144 186 228 269 324
#     4   8  18  36  58  79 109 149 183 214 271 338
#     4  11  23  40  57  79 110 147 184 225 272 326
#     4  10  20  37  58  83 110 144 186 228 269 324
#     4   8  18  36  58  79 109 149 183 214 271 338
#     4   9  16  31  55  83 109 140 179 223 267 318
#
# _framework density 23.297574999999998
#
# number of rings (size 3 to 8) (size 9 to 14) (size 15 to 20)
#    0.000    2.500    0.000    3.750    0.000    2.000 
#    0.000   25.000    0.000    0.000    0.000    0.000 
#    0.000    0.000    0.000    0.000    0.000    0.000 
#
# Total GULP energy -178888.544398 kJ/mol
# GULP energy per Si atom -5590.267012 kJ/mol
# Density = 2.324455 g / cm^3
# Si number density = 23.297575 Si / 1000 Ang^3
#
#
#
# Elastic Constant Matrix: (Units=GPa)
#
#
# Indices 1 2 3 4 5 6 
#
# 1 82.9832 22.7872 22.8135 0.0000 0.0000 0.0000
# 2 22.7872 156.2256 26.7500 0.0000 0.0000 0.0000
# 3 22.8135 26.7500 82.5000 0.0000 0.0000 0.0000
# 4 0.0000 0.0000 0.0000 18.0791 0.0000 0.0000
# 5 0.0000 0.0000 0.0000 0.0000 30.4088 0.0000
# 6 0.0000 0.0000 0.0000 0.0000 0.0000 18.5056
#
#
#
# Elastic Compliance Matrix: (Units=1/GPa)
#
#
# Indices 1 2 3 4 5 6 
#
# 1 0.013321 -0.001389 -0.003233 0.000000 0.000000 0.000000
# 2 -0.001389 0.006922 -0.001860 0.000000 0.000000 0.000000
# 3 -0.003233 -0.001860 0.013618 0.000000 0.000000 0.000000
# 4 0.000000 0.000000 0.000000 0.055313 0.000000 0.000000
# 5 0.000000 0.000000 0.000000 0.000000 0.032885 0.000000
# 6 0.000000 0.000000 0.000000 0.000000 0.000000 0.054038
#
#
# Mechanical properties :
#
#
# Convention : Reuss Voigt Hill
#
# Bulk Modulus (GPa) = 47.85591 51.82334 49.83963
# Shear Modulus (GPa) = 25.50656 30.02256 27.76456
#
# Velocity S-wave (km/s) = 3.31239 3.59368 3.45590
# Velocity P-wave (km/s) = 5.93422 6.28584 6.11256
#
# Compressibility (1/GPa) = 0.02089606
#
# Stress axis : x y z
#
# Youngs Moduli (GPa) = 75.06937 144.46299 73.42990
#
# Poissons Ratio (x) = 0.20072 0.23741
# Poissons Ratio (y) = 0.10430 0.13660
# Poissons Ratio (z) = 0.24271 0.26874
#
# Static dielectric constant tensor:
#      x y z
#    x 1.892410 0.000000 0.000000 
#    y 0.000000 1.849820 0.000000 
#    z 0.000000 0.000000 1.899030 
# 
# From -- ./inp_files/4740.got.cif
#   From: 2010.05.17/outbox.cif.g08.bks.cpg/sg19_3_cif.got.tgz:4740.got - 2010.06.03 22:46:19.
