data_PCOD9313048
_publ_section_title
;
Structure prediction by ZEFSAII (Michael W. Deem and Ramdas Pophale) SiO2 
 PCOD9313048
Probable space group: P 21 21 2
;
_chemical_formula_sum "Si O2"
_cell_formula_units_Z 32
_cell_length_a 8.690372
_cell_length_b 15.569053
_cell_length_c 11.514942
_cell_angle_alpha 90.000000
_cell_angle_beta 90.000000
_cell_angle_gamma 90.000000
_cell_volume 1557.981581
_symmetry_space_group_name_H-M "P 21 21 2"
_symmetry_group_IT_number 18
_symmetry_cell_setting 'orthorhombic'
loop_
_space_group_symop_operation_xyz
x,y,z
-x,-y,z
1/2+x,1/2-y,-z
1/2-x,1/2+y,-z
loop_
_atom_site_type_symbol
_atom_site_label
_atom_site_fract_x
_atom_site_fract_y
_atom_site_fract_z
Si Si1 0.568686 0.593657 0.550719
Si Si2 0.820760 0.468907 0.896791
Si Si3 0.891669 0.218781 0.048848
Si Si4 0.351198 0.339816 0.301758
Si Si5 0.134293 0.429157 0.696507
Si Si6 0.860016 0.822896 0.244496
Si Si7 0.430800 0.765035 0.161598
Si Si8 0.161674 0.953691 0.896091
O O1 0.500000 0.500000 0.526607
O O2 0.590926 0.643777 0.430692
O O3 0.743159 0.583936 0.596824
O O4 0.456265 0.635893 0.648200
O O5 0.761164 0.541162 0.806156
O O6 0.753593 0.387713 0.825679
O O7 0.000000 0.500000 0.900258
O O8 0.760377 0.480535 0.025994
O O9 0.736948 0.249461 0.109658
O O10 0.018184 0.205088 0.147116
O O11 0.854483 0.130890 0.978708
O O12 0.962800 0.281755 0.951405
O O13 0.237487 0.258575 0.289368
O O14 0.502018 0.316490 0.226796
O O15 0.280377 0.419730 0.228860
O O16 0.066174 0.340588 0.743821
O O17 0.000000 0.500000 0.670519
O O18 0.000000 0.000000 0.880224
#
# Coordination Sequence:
#
# PCOD9313048 Si02
#       8
#     4   4   4   4   4   4   4   4
#     4  12  26  48  74  97 138 190 248 298 356 424
#     4  11  22  39  67 102 130 168 226 289 345 421
#     4  11  22  39  66 102 142 180 225 284 357 419
#     4  11  28  45  66 101 146 187 234 298 362 420
#     4  11  23  42  69  99 131 175 239 294 343 418
#     4  12  24  44  70 103 132 186 241 292 351 424
#     4  11  23  41  65 102 147 179 226 292 359 424
#     4  11  21  42  67  97 143 181 222 276 359 428
#
# _framework density 20.539394999999999
#
# number of rings (size 3 to 8) (size 9 to 14) (size 15 to 20)
#    0.000    0.750    5.000    3.375    1.750    0.000 
#    0.000    1.875    0.000    0.000    0.000    0.000 
#    0.000    0.000    0.000    0.000    0.000    0.000 
#
# Total GULP energy -178457.352234 kJ/mol
# GULP energy per Si atom -5576.792257 kJ/mol
# Density = 2.049265 g / cm^3
# Si number density = 20.539395 Si / 1000 Ang^3
#
#
#
# Elastic Constant Matrix: (Units=GPa)
#
#
# Indices 1 2 3 4 5 6 
#
# 1 130.5014 44.8291 68.2298 0.0000 0.0000 0.0000
# 2 44.8291 53.3532 54.9389 0.0000 0.0000 0.0000
# 3 68.2298 54.9389 123.9147 0.0000 0.0000 0.0000
# 4 0.0000 0.0000 0.0000 28.8180 0.0000 0.0000
# 5 0.0000 0.0000 0.0000 0.0000 17.6517 0.0000
# 6 0.0000 0.0000 0.0000 0.0000 0.0000 27.2373
#
#
#
# Elastic Compliance Matrix: (Units=1/GPa)
#
#
# Indices 1 2 3 4 5 6 
#
# 1 0.011682 -0.005874 -0.003828 0.000000 0.000000 0.000000
# 2 -0.005874 0.037441 -0.013366 0.000000 0.000000 0.000000
# 3 -0.003828 -0.013366 0.016104 0.000000 0.000000 0.000000
# 4 0.000000 0.000000 0.000000 0.034701 0.000000 0.000000
# 5 0.000000 0.000000 0.000000 0.000000 0.056652 0.000000
# 6 0.000000 0.000000 0.000000 0.000000 0.000000 0.036714
#
#
# Mechanical properties :
#
#
# Convention : Reuss Voigt Hill
#
# Bulk Modulus (GPa) = 52.37852 71.52945 61.95398
# Shear Modulus (GPa) = 20.34232 24.05950 22.20091
#
# Velocity S-wave (km/s) = 3.15048 3.42626 3.29126
# Velocity P-wave (km/s) = 6.22824 7.11009 6.68372
#
# Compressibility (1/GPa) = 0.01909180
#
# Stress axis : x y z
#
# Youngs Moduli (GPa) = 85.60270 26.70839 62.09682
#
# Poissons Ratio (x) = 0.15687 0.23772
# Poissons Ratio (y) = 0.50279 0.82998
# Poissons Ratio (z) = 0.32770 0.35698
#
# Static dielectric constant tensor:
#      x y z
#    x 1.762460 0.000000 0.000000 
#    y 0.000000 1.872540 0.000000 
#    z 0.000000 0.000000 1.745000 
# 
# From -- ./inp_files/5665.got.cif
#   From: 2010.05.17/outbox.cif.g08.bks.cpg/sg18_3_cif.got.tgz:5665.got - 2010.06.03 22:40:56.
