data_PCOD9313041
_publ_section_title
;
Structure prediction by ZEFSAII (Michael W. Deem and Ramdas Pophale) SiO2 
 PCOD9313041
Probable space group: P 21 21 2
;
_chemical_formula_sum "Si O2"
_cell_formula_units_Z 24
_cell_length_a 8.758626
_cell_length_b 12.830182
_cell_length_c 8.826913
_cell_angle_alpha 90.000000
_cell_angle_beta 90.000000
_cell_angle_gamma 90.000000
_cell_volume 991.922280
_symmetry_space_group_name_H-M "P 21 21 2"
_symmetry_group_IT_number 18
_symmetry_cell_setting 'orthorhombic'
loop_
_space_group_symop_operation_xyz
x,y,z
-x,-y,z
1/2+x,1/2-y,-z
1/2-x,1/2+y,-z
loop_
_atom_site_type_symbol
_atom_site_label
_atom_site_fract_x
_atom_site_fract_y
_atom_site_fract_z
Si Si1 0.069878 0.598615 0.838732
Si Si2 0.675530 0.359988 0.449345
Si Si3 0.852289 0.199439 0.656489
Si Si4 0.179053 0.755758 0.190706
Si Si5 0.179160 0.987527 0.289778
Si Si6 0.865572 0.681493 0.094853
O O1 0.066081 0.707434 0.752017
O O2 0.242743 0.558592 0.840145
O O3 0.000000 0.500000 0.747958
O O4 0.971094 0.608457 0.990096
O O5 0.737287 0.261376 0.546800
O O6 0.492774 0.356872 0.425035
O O7 0.757854 0.339816 0.289538
O O8 0.719990 0.460330 0.548452
O O9 0.748788 0.137704 0.777730
O O10 0.219051 0.867068 0.265616
O O11 0.996532 0.749335 0.175440
O O12 0.257978 0.759410 0.026135
O O13 0.000000 0.000000 0.272958
#
# Coordination Sequence:
#
# PCOD9313041 Si02
#       6
#     4   4   4   4   4   4
#     4  11  21  40  66 102 138 183 241 297 363 433
#     4  11  23  43  71 104 148 193 250 289 370 442
#     4  11  22  41  68 105 144 195 243 300 364 440
#     4  12  23  45  75 107 149 195 246 306 375 441
#     4  11  24  42  73 103 142 192 246 294 365 442
#     4  12  23  42  75 106 144 194 242 305 377 432
#
# _framework density 24.195443999999998
#
# number of rings (size 3 to 8) (size 9 to 14) (size 15 to 20)
#    0.000    0.667    5.000    4.000    0.000    0.000 
#    0.000    3.333    0.000    2.000    0.000    0.000 
#    0.000    0.000    0.000    0.000    0.000    0.000 
#
# Total GULP energy -134095.228220 kJ/mol
# GULP energy per Si atom -5587.301176 kJ/mol
# Density = 2.414037 g / cm^3
# Si number density = 24.195444 Si / 1000 Ang^3
#
#
#
# Elastic Constant Matrix: (Units=GPa)
#
#
# Indices 1 2 3 4 5 6 
#
# 1 135.7194 18.1312 58.3479 0.0000 0.0000 0.0000
# 2 18.1312 89.6370 28.7750 0.0000 0.0000 0.0000
# 3 58.3479 28.7750 117.8520 0.0000 0.0000 0.0000
# 4 0.0000 0.0000 0.0000 29.3139 0.0000 0.0000
# 5 0.0000 0.0000 0.0000 0.0000 62.9391 0.0000
# 6 0.0000 0.0000 0.0000 0.0000 0.0000 41.8817
#
#
#
# Elastic Compliance Matrix: (Units=1/GPa)
#
#
# Indices 1 2 3 4 5 6 
#
# 1 0.009377 -0.000441 -0.004535 0.000000 0.000000 0.000000
# 2 -0.000441 0.012126 -0.002742 0.000000 0.000000 0.000000
# 3 -0.004535 -0.002742 0.011400 0.000000 0.000000 0.000000
# 4 0.000000 0.000000 0.000000 0.034114 0.000000 0.000000
# 5 0.000000 0.000000 0.000000 0.000000 0.015888 0.000000
# 6 0.000000 0.000000 0.000000 0.000000 0.000000 0.023877
#
#
# Mechanical properties :
#
#
# Convention : Reuss Voigt Hill
#
# Bulk Modulus (GPa) = 57.25316 61.52408 59.38862
# Shear Modulus (GPa) = 39.05073 42.69055 40.87064
#
# Velocity S-wave (km/s) = 4.02178 4.20504 4.11443
# Velocity P-wave (km/s) = 6.72908 7.00426 6.86805
#
# Compressibility (1/GPa) = 0.01746629
#
# Stress axis : x y z
#
# Youngs Moduli (GPa) = 106.64897 82.47000 87.72043
#
# Poissons Ratio (x) = 0.03636 0.39778
# Poissons Ratio (y) = 0.04703 0.24056
# Poissons Ratio (z) = 0.48361 0.22616
#
# Static dielectric constant tensor:
#      x y z
#    x 2.015100 0.000000 0.000000 
#    y 0.000000 1.948570 0.000000 
#    z 0.000000 0.000000 2.001510 
# 
# From -- ./inp_files/3173.got.cif
#   From: 2010.05.17/outbox.cif.g08.bks.cpg/sg18_2_cif.got.tgz:3173.got - 2010.06.03 22:40:56.
