data_PCOD9313326
_publ_section_title
;
Structure prediction by ZEFSAII (Michael W. Deem and Ramdas Pophale) SiO2 
 PCOD9313326
Probable space group: P 21 21 21
;
_chemical_formula_sum "Si O2"
_cell_formula_units_Z 32
_cell_length_a 12.478106
_cell_length_b 8.383773
_cell_length_c 13.761959
_cell_angle_alpha 90.000000
_cell_angle_beta 90.000000
_cell_angle_gamma 90.000000
_cell_volume 1439.688187
_symmetry_space_group_name_H-M "P 21 21 21"
_symmetry_group_IT_number 19
_symmetry_cell_setting 'orthorhombic'
loop_
_space_group_symop_operation_xyz
x,y,z
1/2-x,-y,1/2+z
1/2+x,1/2-y,-z
-x,1/2+y,1/2-z
loop_
_atom_site_type_symbol
_atom_site_label
_atom_site_fract_x
_atom_site_fract_y
_atom_site_fract_z
Si Si1 0.474614 0.942041 0.881452
Si Si2 0.808262 0.228487 0.810160
Si Si3 0.983384 0.079468 0.695504
Si Si4 0.087378 0.283139 0.535318
Si Si5 0.781360 0.119834 0.340764
Si Si6 0.000559 0.813194 0.554875
Si Si7 0.212389 0.955756 0.267849
Si Si8 0.402367 0.987054 0.402183
O O1 0.593951 0.880882 0.865059
O O2 0.411858 0.014712 0.791111
O O3 0.409135 0.797533 0.930938
O O4 0.481986 0.079249 0.962331
O O5 0.888779 0.202047 0.718395
O O6 0.887358 0.244958 0.902906
O O7 0.748683 0.396528 0.800247
O O8 0.744248 0.062005 0.807196
O O9 0.066043 0.152072 0.619423
O O10 0.036798 0.041895 0.798411
O O11 0.949371 0.917185 0.643034
O O12 0.197999 0.361536 0.569351
O O13 0.977363 0.384642 0.544297
O O14 0.766083 0.276346 0.271446
O O15 0.920227 0.670700 0.534432
O O16 0.280014 0.989746 0.367352
#
# Coordination Sequence:
#
# PCOD9313326 Si02
#       8
#     4   4   4   4   4   4   4   4
#     4  11  30  44  62 102 145 190 226 277 363 429
#     4  11  22  41  77 102 134 180 236 297 342 408
#     4  10  16  34  67 105 129 165 228 294 348 387
#     4  11  21  42  69 100 139 170 232 304 346 397
#     4  12  26  47  72  99 141 190 234 283 353 428
#     4  10  20  40  64 105 141 164 231 300 337 398
#     4  12  25  46  70  99 137 186 238 283 338 429
#     4  11  18  36  69 102 126 171 225 294 343 392
#
# _framework density 22.227035999999998
#
# number of rings (size 3 to 8) (size 9 to 14) (size 15 to 20)
#    0.000    1.000    6.250    2.250    3.500    1.000 
#    4.500    0.000    0.000    0.000    0.000    0.000 
#    0.000    0.000    0.000    0.000    0.000    0.000 
#
# Total GULP energy -178455.526928 kJ/mol
# GULP energy per Si atom -5576.735216 kJ/mol
# Density = 2.217645 g / cm^3
# Si number density = 22.227036 Si / 1000 Ang^3
#
#
#
# Elastic Constant Matrix: (Units=GPa)
#
#
# Indices 1 2 3 4 5 6 
#
# 1 103.7936 35.2841 16.8168 0.0000 0.0000 0.0000
# 2 35.2841 130.6348 17.9494 0.0000 0.0000 0.0000
# 3 16.8168 17.9494 13.7612 0.0000 0.0000 0.0000
# 4 0.0000 0.0000 0.0000 20.9919 0.0000 0.0000
# 5 0.0000 0.0000 0.0000 0.0000 8.6534 0.0000
# 6 0.0000 0.0000 0.0000 0.0000 0.0000 25.4218
#
#
#
# Elastic Compliance Matrix: (Units=1/GPa)
#
#
# Indices 1 2 3 4 5 6 
#
# 1 0.012258 -0.001526 -0.012989 0.000000 0.000000 0.000000
# 2 -0.001526 0.009516 -0.010548 0.000000 0.000000 0.000000
# 3 -0.012989 -0.010548 0.102300 0.000000 0.000000 0.000000
# 4 0.000000 0.000000 0.000000 0.047637 0.000000 0.000000
# 5 0.000000 0.000000 0.000000 0.000000 0.115562 0.000000
# 6 0.000000 0.000000 0.000000 0.000000 0.000000 0.039336
#
#
# Mechanical properties :
#
#
# Convention : Reuss Voigt Hill
#
# Bulk Modulus (GPa) = 13.52303 43.14335 28.33319
# Shear Modulus (GPa) = 12.45688 22.88936 17.67312
#
# Velocity S-wave (km/s) = 2.36993 3.21253 2.82284
# Velocity P-wave (km/s) = 3.68592 5.76306 4.83730
#
# Compressibility (1/GPa) = 0.07394795
#
# Stress axis : x y z
#
# Youngs Moduli (GPa) = 81.58084 105.08160 9.77521
#
# Poissons Ratio (x) = 0.16036 0.12697
# Poissons Ratio (y) = 0.12450 0.10311
# Poissons Ratio (z) = 1.05965 1.10838
#
# Static dielectric constant tensor:
#      x y z
#    x 1.873020 0.000000 0.000000 
#    y 0.000000 1.931940 0.000000 
#    z 0.000000 0.000000 1.800660 
# 
# From -- ./inp_files/6161.got.cif
#   From: 2010.05.17/outbox.cif.g08.bks.cpg/sg19_4_cif.got.tgz:6161.got - 2010.06.03 22:46:19.
