data_PCOD9313302
_publ_section_title
;
Structure prediction by ZEFSAII (Michael W. Deem and Ramdas Pophale) SiO2 
 PCOD9313302
Probable space group: P 21 21 21
;
_chemical_formula_sum "Si O2"
_cell_formula_units_Z 28
_cell_length_a 7.369835
_cell_length_b 12.762171
_cell_length_c 11.309133
_cell_angle_alpha 90.000000
_cell_angle_beta 90.000000
_cell_angle_gamma 90.000000
_cell_volume 1063.681573
_symmetry_space_group_name_H-M "P 21 21 21"
_symmetry_group_IT_number 19
_symmetry_cell_setting 'orthorhombic'
loop_
_space_group_symop_operation_xyz
x,y,z
1/2-x,-y,1/2+z
1/2+x,1/2-y,-z
-x,1/2+y,1/2-z
loop_
_atom_site_type_symbol
_atom_site_label
_atom_site_fract_x
_atom_site_fract_y
_atom_site_fract_z
Si Si1 0.432012 0.938300 0.336830
Si Si2 0.553480 0.611998 0.525059
Si Si3 0.795660 0.373802 0.784319
Si Si4 0.402144 0.177500 0.557672
Si Si5 0.957965 0.225793 0.211821
Si Si6 0.013486 0.111651 0.566031
Si Si7 0.948176 0.033607 0.083724
O O1 0.236106 0.907048 0.394278
O O2 0.494651 0.894556 0.209473
O O3 0.558905 0.925607 0.449969
O O4 0.415574 0.061419 0.304579
O O5 0.593237 0.663084 0.397230
O O6 0.470066 0.702685 0.604959
O O7 0.456525 0.500796 0.493549
O O8 0.649181 0.300684 0.724591
O O9 0.648129 0.450651 0.852268
O O10 0.348461 0.218788 0.687650
O O11 0.221452 0.117295 0.522216
O O12 0.434633 0.279355 0.479593
O O13 0.563483 0.091772 0.575994
O O14 0.854024 0.122462 0.163905
#
# Coordination Sequence:
#
# PCOD9313302 Si02
#       7
#     4   4   4   4   4   4   4
#     4  10  15  38  59  83 120 154 213 246 306 377
#     4  10  17  36  63  83 117 156 218 244 312 385
#     4   8  17  31  57  88 106 156 206 251 294 371
#     4  12  22  38  65  88 129 158 219 256 317 382
#     4  10  20  34  64  88 116 160 209 267 298 385
#     4  11  23  37  64  95 118 172 205 265 317 379
#     4   9  20  36  58  89 118 160 206 257 310 371
#
# _framework density 26.323665999999999
#
# number of rings (size 3 to 8) (size 9 to 14) (size 15 to 20)
#    0.857    1.143    5.714    0.857    2.000    0.000 
#    5.143    1.429    3.143    0.000    0.000    0.000 
#    0.000    0.000    0.000    0.000    0.000    0.000 
#
# Total GULP energy -155943.897415 kJ/mol
# GULP energy per Si atom -5569.424908 kJ/mol
# Density = 2.626375 g / cm^3
# Si number density = 26.323666 Si / 1000 Ang^3
#
#
#
# Elastic Constant Matrix: (Units=GPa)
#
#
# Indices 1 2 3 4 5 6 
#
# 1 26.3212 12.5035 0.6596 0.0000 0.0000 0.0000
# 2 12.5035 114.6237 36.8529 0.0000 0.0000 0.0000
# 3 0.6596 36.8529 149.8937 0.0000 0.0000 0.0000
# 4 0.0000 0.0000 0.0000 44.3966 0.0000 0.0000
# 5 0.0000 0.0000 0.0000 0.0000 21.8238 0.0000
# 6 0.0000 0.0000 0.0000 0.0000 0.0000 26.8746
#
#
#
# Elastic Compliance Matrix: (Units=1/GPa)
#
#
# Indices 1 2 3 4 5 6 
#
# 1 0.040200 -0.004700 0.000979 0.000000 0.000000 0.000000
# 2 -0.004700 0.010022 -0.002443 0.000000 0.000000 0.000000
# 3 0.000979 -0.002443 0.007268 0.000000 0.000000 0.000000
# 4 0.000000 0.000000 0.000000 0.022524 0.000000 0.000000
# 5 0.000000 0.000000 0.000000 0.000000 0.045822 0.000000
# 6 0.000000 0.000000 0.000000 0.000000 0.000000 0.037210
#
#
# Mechanical properties :
#
#
# Convention : Reuss Voigt Hill
#
# Bulk Modulus (GPa) = 22.14285 43.43006 32.78646
# Shear Modulus (GPa) = 26.25646 34.67383 30.46515
#
# Velocity S-wave (km/s) = 3.16166 3.63328 3.40564
# Velocity P-wave (km/s) = 4.66457 5.84254 5.28647
#
# Compressibility (1/GPa) = 0.04516130
#
# Stress axis : x y z
#
# Youngs Moduli (GPa) = 24.87544 99.77591 137.59261
#
# Poissons Ratio (x) = 0.46893 -0.13465
# Poissons Ratio (y) = 0.11691 0.33620
# Poissons Ratio (z) = -0.02434 0.24380
#
# Static dielectric constant tensor:
#      x y z
#    x 2.195540 0.000000 0.000000 
#    y 0.000000 2.183840 0.000000 
#    z 0.000000 0.000000 2.022710 
# 
# From -- ./inp_files/4993.got.cif
#   From: 2010.05.17/outbox.cif.g08.bks.cpg/sg19_3_cif.got.tgz:4993.got - 2010.06.03 22:46:19.
