data_PCOD9313395
_publ_section_title
;
Structure prediction by ZEFSAII (Michael W. Deem and Ramdas Pophale) SiO2 
 PCOD9313395
Probable space group: P 21 21 21
;
_chemical_formula_sum "Si O2"
_cell_formula_units_Z 24
_cell_length_a 14.186228
_cell_length_b 4.942179
_cell_length_c 11.883573
_cell_angle_alpha 90.000000
_cell_angle_beta 90.000000
_cell_angle_gamma 90.000000
_cell_volume 833.167738
_symmetry_space_group_name_H-M "P 21 21 21"
_symmetry_group_IT_number 19
_symmetry_cell_setting 'orthorhombic'
loop_
_space_group_symop_operation_xyz
x,y,z
1/2-x,-y,1/2+z
1/2+x,1/2-y,-z
-x,1/2+y,1/2-z
loop_
_atom_site_type_symbol
_atom_site_label
_atom_site_fract_x
_atom_site_fract_y
_atom_site_fract_z
Si Si1 0.306364 0.176498 0.404391
Si Si2 0.918607 0.318513 0.364303
Si Si3 0.924899 0.508872 0.998466
Si Si4 0.654569 0.983665 0.406399
Si Si5 0.663094 0.186763 0.769076
Si Si6 0.588332 0.162147 0.174517
O O1 0.346423 0.150940 0.530364
O O2 0.207494 0.155399 0.337007
O O3 0.325995 0.493350 0.380764
O O4 0.376581 0.969833 0.337007
O O5 0.011497 0.177943 0.414782
O O6 0.918307 0.622413 0.319558
O O7 0.877480 0.115109 0.270959
O O8 0.000175 0.433303 0.898859
O O9 0.879567 0.212832 0.005605
O O10 0.845260 0.713082 0.952772
O O11 0.748153 0.854603 0.354277
O O12 0.585517 0.036489 0.299330
#
# Coordination Sequence:
#
# PCOD9313395 Si02
#       6
#     4   4   4   4   4   4
#     4  10  20  35  54  80 112 147 187 226 277 341
#     4  11  22  37  56  82 114 151 192 236 283 341
#     4  11  20  32  51  79 111 146 180 223 280 345
#     4  11  20  32  51  79 111 146 180 223 280 345
#     4  11  22  37  56  82 114 151 192 236 283 341
#     4  10  18  31  50  78 114 145 171 212 277 361
#
# _framework density 28.805726
#
# number of rings (size 3 to 8) (size 9 to 14) (size 15 to 20)
#    0.000    1.333    0.000   11.000    0.000    0.000 
#    0.000    0.000    0.000    0.000    0.000   23.333 
#    0.000    0.000    0.000    0.000    0.000    0.000 
#
# Total GULP energy -134222.481443 kJ/mol
# GULP energy per Si atom -5592.603393 kJ/mol
# Density = 2.874016 g / cm^3
# Si number density = 28.805726 Si / 1000 Ang^3
#
#
#
# Elastic Constant Matrix: (Units=GPa)
#
#
# Indices 1 2 3 4 5 6 
#
# 1 147.8306 28.5668 29.5458 0.0000 0.0000 0.0000
# 2 28.5668 166.6984 28.8560 0.0000 0.0000 0.0000
# 3 29.5458 28.8560 135.4011 0.0000 0.0000 0.0000
# 4 0.0000 0.0000 0.0000 10.0977 0.0000 0.0000
# 5 0.0000 0.0000 0.0000 0.0000 31.4499 0.0000
# 6 0.0000 0.0000 0.0000 0.0000 0.0000 43.0670
#
#
#
# Elastic Compliance Matrix: (Units=1/GPa)
#
#
# Indices 1 2 3 4 5 6 
#
# 1 0.007231 -0.001003 -0.001364 0.000000 0.000000 0.000000
# 2 -0.001003 0.006368 -0.001138 0.000000 0.000000 0.000000
# 3 -0.001364 -0.001138 0.007926 0.000000 0.000000 0.000000
# 4 0.000000 0.000000 0.000000 0.099033 0.000000 0.000000
# 5 0.000000 0.000000 0.000000 0.000000 0.031797 0.000000
# 6 0.000000 0.000000 0.000000 0.000000 0.000000 0.023220
#
#
# Mechanical properties :
#
#
# Convention : Reuss Voigt Hill
#
# Bulk Modulus (GPa) = 68.90012 69.31860 69.10936
# Shear Modulus (GPa) = 26.67778 41.12035 33.89906
#
# Velocity S-wave (km/s) = 3.04654 3.78233 3.43420
# Velocity P-wave (km/s) = 6.02876 6.57200 6.30623
#
# Compressibility (1/GPa) = 0.01451376
#
# Stress axis : x y z
#
# Youngs Moduli (GPa) = 138.29430 157.04081 126.17199
#
# Poissons Ratio (x) = 0.15752 0.17211
# Poissons Ratio (y) = 0.13871 0.14361
# Poissons Ratio (z) = 0.18865 0.17874
#
# Static dielectric constant tensor:
#      x y z
#    x 2.566990 0.000000 0.000000 
#    y 0.000000 2.064260 0.000000 
#    z 0.000000 0.000000 2.408970 
# 
# From -- ./inp_files/6209.got.cif
#   From: 2010.05.17/outbox.cif.g08.bks.cpg/sg19_4_cif.got.tgz:6209.got - 2010.06.03 22:46:19.
