data_PCOD9313012
_publ_section_title
;
Structure prediction by ZEFSAII (Michael W. Deem and Ramdas Pophale) SiO2 
 PCOD9313012
Probable space group: P 21 21 2
;
_chemical_formula_sum "Si O2"
_cell_formula_units_Z 28
_cell_length_a 25.773332
_cell_length_b 8.666214
_cell_length_c 5.666987
_cell_angle_alpha 90.000000
_cell_angle_beta 90.000000
_cell_angle_gamma 90.000000
_cell_volume 1265.762409
_symmetry_space_group_name_H-M "P 21 21 2"
_symmetry_group_IT_number 18
_symmetry_cell_setting 'orthorhombic'
loop_
_space_group_symop_operation_xyz
x,y,z
-x,-y,z
1/2+x,1/2-y,-z
1/2-x,1/2+y,-z
loop_
_atom_site_type_symbol
_atom_site_label
_atom_site_fract_x
_atom_site_fract_y
_atom_site_fract_z
Si Si1 0.937663 0.324582 0.377277
Si Si2 0.655464 0.980412 0.836703
Si Si3 0.000000 0.500000 0.748502
Si Si4 0.690832 0.276698 0.592230
Si Si5 0.908790 0.970114 0.397730
Si Si6 0.205993 0.534440 0.657880
Si Si7 0.000000 0.000000 0.749826
Si Si8 0.472648 0.736542 0.932127
O O1 0.953076 0.411573 0.614515
O O2 0.910439 0.156255 0.381142
O O3 0.903570 0.433605 0.211089
O O4 0.995919 0.299791 0.286227
O O5 0.675740 0.935210 0.096208
O O6 0.681728 0.909375 0.594832
O O7 0.668614 0.161055 0.794213
O O8 0.966112 0.623163 0.894449
O O9 0.644756 0.393080 0.524513
O O10 0.739027 0.379929 0.673386
O O11 0.707087 0.151371 0.391139
O O12 0.928435 0.877113 0.164616
O O13 0.953301 0.942484 0.591631
O O14 0.985254 0.134994 0.925250
#
# Coordination Sequence:
#
# PCOD9313012 Si02
#       8
#     4   4   2   4   4   4   2   4
#     4  12  26  46  69 110 149 200 254 310 378 460
#     4  10  28  45  77 109 146 189 254 308 385 453
#     4  12  28  42  74 102 160 204 256 316 370 458
#     4  10  28  45  81 104 150 192 255 315 397 454
#     4  12  25  48  72 111 148 198 255 307 386 465
#     4  10  26  53  73 108 147 188 250 322 379 460
#     4  12  22  46  70 104 154 200 246 304 370 468
#     4  12  25  45  70 104 156 203 251 308 375 457
#
# _framework density 22.121054000000001
#
# number of rings (size 3 to 8) (size 9 to 14) (size 15 to 20)
#    0.857    0.000    4.286    0.429   12.000    1.143 
#    0.000    0.000    0.000    0.000    0.000    0.000 
#    0.000    0.000    0.000    0.000    0.000    0.000 
#
# Total GULP energy -155898.332431 kJ/mol
# GULP energy per Si atom -5567.797587 kJ/mol
# Density = 2.207071 g / cm^3
# Si number density = 22.121054 Si / 1000 Ang^3
#
#
#
# Elastic Constant Matrix: (Units=GPa)
#
#
# Indices 1 2 3 4 5 6 
#
# 1 79.4667 64.7552 10.8739 0.0000 0.0000 0.0000
# 2 64.7552 140.2279 64.2555 0.0000 0.0000 0.0000
# 3 10.8739 64.2555 85.4853 0.0000 0.0000 0.0000
# 4 0.0000 0.0000 0.0000 44.1679 0.0000 0.0000
# 5 0.0000 0.0000 0.0000 0.0000 7.4103 0.0000
# 6 0.0000 0.0000 0.0000 0.0000 0.0000 37.1886
#
#
#
# Elastic Compliance Matrix: (Units=1/GPa)
#
#
# Indices 1 2 3 4 5 6 
#
# 1 0.023117 -0.014228 0.007754 0.000000 0.000000 0.000000
# 2 -0.014228 0.019635 -0.012949 0.000000 0.000000 0.000000
# 3 0.007754 -0.012949 0.020445 0.000000 0.000000 0.000000
# 4 0.000000 0.000000 0.000000 0.022641 0.000000 0.000000
# 5 0.000000 0.000000 0.000000 0.000000 0.134948 0.000000
# 6 0.000000 0.000000 0.000000 0.000000 0.000000 0.026890
#
#
# Mechanical properties :
#
#
# Convention : Reuss Voigt Hill
#
# Bulk Modulus (GPa) = 41.06634 64.99433 53.03033
# Shear Modulus (GPa) = 16.96994 28.77303 22.87149
#
# Velocity S-wave (km/s) = 2.77273 3.61045 3.21896
# Velocity P-wave (km/s) = 5.37172 6.84291 6.15146
#
# Compressibility (1/GPa) = 0.02435084
#
# Stress axis : x y z
#
# Youngs Moduli (GPa) = 43.25813 50.92904 48.91232
#
# Poissons Ratio (x) = 0.72463 -0.37928
# Poissons Ratio (y) = 0.61549 0.63337
# Poissons Ratio (z) = -0.33543 0.65948
#
# Static dielectric constant tensor:
#      x y z
#    x 1.818500 0.000000 0.000000 
#    y 0.000000 1.880490 0.000000 
#    z 0.000000 0.000000 1.891500 
# 
# From -- ./inp_files/2215.got.cif
#   From: 2010.05.17/outbox.cif.g08.bks.cpg/sg18_2_cif.got.tgz:2215.got - 2010.06.03 22:40:56.
