data_PCOD9313882
_publ_section_title
;
Structure prediction by ZEFSAII (Michael W. Deem and Ramdas Pophale) SiO2 
 PCOD9313882
Probable space group: P 21 21 21
;
_chemical_formula_sum "Si O2"
_cell_formula_units_Z 28
_cell_length_a 11.214233
_cell_length_b 12.624736
_cell_length_c 7.626623
_cell_angle_alpha 90.000000
_cell_angle_beta 90.000000
_cell_angle_gamma 90.000000
_cell_volume 1079.752353
_symmetry_space_group_name_H-M "P 21 21 21"
_symmetry_group_IT_number 19
_symmetry_cell_setting 'orthorhombic'
loop_
_space_group_symop_operation_xyz
x,y,z
1/2-x,-y,1/2+z
1/2+x,1/2-y,-z
-x,1/2+y,1/2-z
loop_
_atom_site_type_symbol
_atom_site_label
_atom_site_fract_x
_atom_site_fract_y
_atom_site_fract_z
Si Si1 0.531101 0.240787 0.001606
Si Si2 0.386723 0.032888 0.651139
Si Si3 0.019309 0.634114 0.179922
Si Si4 0.211887 0.381989 0.754922
Si Si5 0.521575 0.964186 0.335264
Si Si6 0.333343 0.102492 0.142595
Si Si7 0.811841 0.260427 0.507895
O O1 0.640340 0.178346 0.091352
O O2 0.500989 0.344154 0.115809
O O3 0.412260 0.170860 0.012766
O O4 0.546370 0.280460 0.803226
O O5 0.439295 0.970821 0.818584
O O6 0.493462 0.030545 0.512547
O O7 0.285702 0.952738 0.576519
O O8 0.331342 0.148169 0.639276
O O9 0.146111 0.609841 0.277924
O O10 0.069300 0.686327 0.003472
O O11 0.149010 0.495318 0.731533
O O12 0.208275 0.312608 0.573948
O O13 0.419646 0.009707 0.209879
O O14 0.303788 0.178422 0.309922
#
# Coordination Sequence:
#
# PCOD9313882 Si02
#       7
#     4   4   4   4   4   4   4
#     4  10  20  37  62  84 120 162 204 256 308 369
#     4  10  20  37  61  90 122 159 209 254 314 372
#     4   9  22  38  59  90 121 161 203 263 308 378
#     4   9  20  41  60  85 125 167 205 250 326 368
#     4   9  20  39  58  84 123 162 201 259 309 373
#     4  10  21  35  63  92 114 163 212 253 315 376
#     4   9  21  41  59  85 127 160 200 267 308 376
#
# _framework density 25.931871999999998
#
# number of rings (size 3 to 8) (size 9 to 14) (size 15 to 20)
#    0.857    1.714    0.000    0.857    4.000    4.571 
#    7.714    2.857    0.000    0.000    0.000    0.000 
#    0.000    0.000    0.000    0.000    0.000    0.000 
#
# Total GULP energy -156443.351121 kJ/mol
# GULP energy per Si atom -5587.262540 kJ/mol
# Density = 2.587285 g / cm^3
# Si number density = 25.931872 Si / 1000 Ang^3
#
#
#
# Elastic Constant Matrix: (Units=GPa)
#
#
# Indices 1 2 3 4 5 6 
#
# 1 100.1331 32.6027 -1.4794 0.0000 0.0000 0.0000
# 2 32.6027 103.4894 3.2817 0.0000 0.0000 0.0000
# 3 -1.4794 3.2817 77.8737 0.0000 0.0000 0.0000
# 4 0.0000 0.0000 0.0000 34.9980 0.0000 0.0000
# 5 0.0000 0.0000 0.0000 0.0000 24.6353 0.0000
# 6 0.0000 0.0000 0.0000 0.0000 0.0000 37.3174
#
#
#
# Elastic Compliance Matrix: (Units=1/GPa)
#
#
# Indices 1 2 3 4 5 6 
#
# 1 0.011138 -0.003520 0.000360 0.000000 0.000000 0.000000
# 2 -0.003520 0.010788 -0.000522 0.000000 0.000000 0.000000
# 3 0.000360 -0.000522 0.012870 0.000000 0.000000 0.000000
# 4 0.000000 0.000000 0.000000 0.028573 0.000000 0.000000
# 5 0.000000 0.000000 0.000000 0.000000 0.040592 0.000000
# 6 0.000000 0.000000 0.000000 0.000000 0.000000 0.026797
#
#
# Mechanical properties :
#
#
# Convention : Reuss Voigt Hill
#
# Bulk Modulus (GPa) = 36.45256 38.92293 37.68775
# Shear Modulus (GPa) = 33.95188 35.86288 34.90738
#
# Velocity S-wave (km/s) = 3.62231 3.72286 3.67293
# Velocity P-wave (km/s) = 5.61982 5.78980 5.70545
#
# Compressibility (1/GPa) = 0.02743291
#
# Stress axis : x y z
#
# Youngs Moduli (GPa) = 89.78099 92.69227 77.69937
#
# Poissons Ratio (x) = 0.32631 -0.02797
# Poissons Ratio (y) = 0.31606 0.04052
# Poissons Ratio (z) = -0.03232 0.04834
#
# Static dielectric constant tensor:
#      x y z
#    x 1.986580 0.000000 0.000000 
#    y 0.000000 2.052460 0.000000 
#    z 0.000000 0.000000 2.095050 
# 
# From -- ./inp_files/3538.got.cif
#   From: 2010.05.17/outbox.cif.g08.bks.cpg/sg19_2_cif.got.tgz:3538.got - 2010.06.03 22:46:19.
