data_PCOD9313935
_publ_section_title
;
Structure prediction by ZEFSAII (Michael W. Deem and Ramdas Pophale) SiO2 
 PCOD9313935
Probable space group: P 21 21 21
;
_chemical_formula_sum "Si O2"
_cell_formula_units_Z 32
_cell_length_a 13.947433
_cell_length_b 7.720158
_cell_length_c 12.749959
_cell_angle_alpha 90.000000
_cell_angle_beta 90.000000
_cell_angle_gamma 90.000000
_cell_volume 1372.869513
_symmetry_space_group_name_H-M "P 21 21 21"
_symmetry_group_IT_number 19
_symmetry_cell_setting 'orthorhombic'
loop_
_space_group_symop_operation_xyz
x,y,z
1/2-x,-y,1/2+z
1/2+x,1/2-y,-z
-x,1/2+y,1/2-z
loop_
_atom_site_type_symbol
_atom_site_label
_atom_site_fract_x
_atom_site_fract_y
_atom_site_fract_z
Si Si1 0.496946 0.526444 0.420188
Si Si2 0.628887 0.811579 0.670583
Si Si3 0.144277 0.168555 0.445331
Si Si4 0.300557 0.925007 0.362491
Si Si5 0.653098 0.219247 0.938618
Si Si6 0.549311 0.166970 0.743390
Si Si7 0.847856 0.024826 0.948386
Si Si8 0.994942 0.125781 0.783952
O O1 0.593297 0.470491 0.479705
O O2 0.416259 0.580817 0.503388
O O3 0.508921 0.690791 0.343390
O O4 0.466868 0.377352 0.337919
O O5 0.736003 0.738453 0.675366
O O6 0.558340 0.664630 0.714315
O O7 0.601920 0.982369 0.735819
O O8 0.610767 0.869516 0.549722
O O9 0.062773 0.243633 0.368082
O O10 0.178842 0.334437 0.510818
O O11 0.229441 0.085442 0.377597
O O12 0.334312 0.873833 0.479529
O O13 0.395259 0.938835 0.293835
O O14 0.603609 0.276252 0.832197
O O15 0.754438 0.131175 0.915942
O O16 0.922878 0.012852 0.854417
#
# Coordination Sequence:
#
# PCOD9313935 Si02
#       8
#     4   4   4   4   4   4   4   4
#     4  11  23  42  65  95 131 170 214 270 325 387
#     4  10  20  38  61  91 126 164 214 271 323 383
#     4  11  24  41  63  94 128 165 217 272 326 392
#     4  10  22  41  62  91 128 168 213 265 323 390
#     4  10  22  41  64  88 124 169 212 267 325 383
#     4  11  22  39  67  93 123 169 218 269 330 388
#     4  10  23  40  61  91 126 165 214 266 323 391
#     4  11  24  42  67  93 130 174 216 262 327 394
#
# _framework density 23.308841999999999
#
# number of rings (size 3 to 8) (size 9 to 14) (size 15 to 20)
#    0.000    1.500    0.000    6.000    0.000    9.000 
#    0.000    3.750    0.000    0.000    0.000    0.000 
#    0.000    0.000    0.000    0.000    0.000    0.000 
#
# Total GULP energy -179015.064924 kJ/mol
# GULP energy per Si atom -5594.220779 kJ/mol
# Density = 2.325579 g / cm^3
# Si number density = 23.308842 Si / 1000 Ang^3
#
#
#
# Elastic Constant Matrix: (Units=GPa)
#
#
# Indices 1 2 3 4 5 6 
#
# 1 61.1660 0.9064 23.2657 0.0000 0.0000 0.0000
# 2 0.9064 61.9889 0.5337 0.0000 0.0000 0.0000
# 3 23.2657 0.5337 64.9762 0.0000 0.0000 0.0000
# 4 0.0000 0.0000 0.0000 37.1180 0.0000 0.0000
# 5 0.0000 0.0000 0.0000 0.0000 24.8712 0.0000
# 6 0.0000 0.0000 0.0000 0.0000 0.0000 22.7532
#
#
#
# Elastic Compliance Matrix: (Units=1/GPa)
#
#
# Indices 1 2 3 4 5 6 
#
# 1 0.018930 -0.000218 -0.006776 0.000000 0.000000 0.000000
# 2 -0.000218 0.016136 -0.000054 0.000000 0.000000 0.000000
# 3 -0.006776 -0.000054 0.017817 0.000000 0.000000 0.000000
# 4 0.000000 0.000000 0.000000 0.026941 0.000000 0.000000
# 5 0.000000 0.000000 0.000000 0.000000 0.040207 0.000000
# 6 0.000000 0.000000 0.000000 0.000000 0.000000 0.043950
#
#
# Mechanical properties :
#
#
# Convention : Reuss Voigt Hill
#
# Bulk Modulus (GPa) = 25.78366 26.39363 26.08864
# Shear Modulus (GPa) = 26.17713 27.84351 27.01032
#
# Velocity S-wave (km/s) = 3.35484 3.45997 3.40781
# Velocity P-wave (km/s) = 5.10807 5.22589 5.16731
#
# Compressibility (1/GPa) = 0.03878425
#
# Stress axis : x y z
#
# Youngs Moduli (GPa) = 52.82715 61.97486 56.12604
#
# Poissons Ratio (x) = 0.01354 0.38032
# Poissons Ratio (y) = 0.01154 0.00305
# Poissons Ratio (z) = 0.35797 0.00337
#
# Static dielectric constant tensor:
#      x y z
#    x 1.845600 0.000000 0.000000 
#    y 0.000000 1.928570 0.000000 
#    z 0.000000 0.000000 1.859430 
# 
# From -- ./inp_files/5234.got.cif
#   From: 2010.05.17/outbox.cif.g08.bks.cpg/sg19_3_cif.got.tgz:5234.got - 2010.06.03 22:46:19.
