data_PCOD9313283
_publ_section_title
;
Structure prediction by ZEFSAII (Michael W. Deem and Ramdas Pophale) SiO2 
 PCOD9313283
Probable space group: P 21 21 2
;
_chemical_formula_sum "Si O2"
_cell_formula_units_Z 32
_cell_length_a 9.000000
_cell_length_b 15.000000
_cell_length_c 12.000000
_cell_angle_alpha 90.000000
_cell_angle_beta 90.000000
_cell_angle_gamma 90.000000
_cell_volume 1620.000000
_symmetry_space_group_name_H-M "P 21 21 2"
_symmetry_group_IT_number 18
_symmetry_cell_setting 'orthorhombic'
loop_
_space_group_symop_operation_xyz
x,y,z
-x,-y,z
1/2+x,1/2-y,-z
1/2-x,1/2+y,-z
loop_
_atom_site_type_symbol
_atom_site_label
_atom_site_fract_x
_atom_site_fract_y
_atom_site_fract_z
Si Si1 0.594231 0.191453 0.446565
Si Si2 0.241932 0.155682 0.423021
Si Si3 0.765943 0.788987 0.171491
Si Si4 0.876444 0.639852 0.006308
Si Si5 0.677528 0.013536 0.544879
Si Si6 0.210006 0.560827 0.001141
Si Si7 0.148432 0.058016 0.755922
Si Si8 0.915767 0.738493 0.788792
O O1 0.414838 0.182026 0.447958
O O2 0.641064 0.286556 0.494688
O O3 0.685585 0.117957 0.516829
O O4 0.629712 0.178069 0.315909
O O5 0.193215 0.181936 0.297602
O O6 0.243366 0.050895 0.454363
O O7 0.787961 0.874018 0.088881
O O8 0.590096 0.770583 0.184579
O O9 0.833839 0.698742 0.115694
O O10 0.801370 0.544838 0.974308
O O11 0.843155 0.706780 0.903676
O O12 0.047853 0.607418 0.015145
O O13 0.500000 0.000000 0.541171
O O14 0.740656 0.981482 0.663363
O O15 0.286242 0.555635 0.120543
O O16 0.114832 0.162563 0.745691
O O17 0.000000 0.000000 0.748457
#
# Coordination Sequence:
#
# PCOD9313283 Si02
#       8
#     4   4   4   4   4   4   4   4
#     4  10  22  39  62  88 121 162 205 254 306 361
#     4  10  22  40  62  89 121 160 207 250 309 368
#     4  10  21  39  64  88 124 162 207 255 311 367
#     4  10  21  39  62  91 125 161 209 258 307 378
#     4  10  24  40  62  92 125 163 207 257 309 371
#     4  10  23  38  62  93 123 164 208 251 316 372
#     4  12  24  40  65  90 127 159 209 258 314 370
#     4  10  21  40  61  88 122 167 203 256 311 371
#
# _framework density 19.753086
#
# number of rings (size 3 to 8) (size 9 to 14) (size 15 to 20)
#    0.000    1.750    2.500    0.750    8.750    1.000 
#    0.000    0.000    0.000    0.750    0.000    0.000 
#    0.000    0.000    0.000    0.000    0.000    0.000 
#
# Total GULP energy -178302.102631 kJ/mol
# GULP energy per Si atom -5571.940707 kJ/mol
# Density = 1.970813 g / cm^3
# Si number density = 19.753086 Si / 1000 Ang^3
#
#
#
# Elastic Constant Matrix: (Units=GPa)
#
#
# Indices 1 2 3 4 5 6 
#
# 1 -0.2280 11.1000 8.2151 0.0000 0.0000 0.0000
# 2 11.1000 93.0563 12.5012 0.0000 0.0000 0.0000
# 3 8.2151 12.5012 93.8020 0.0000 0.0000 0.0000
# 4 0.0000 0.0000 0.0000 39.7395 0.0000 0.0000
# 5 0.0000 0.0000 0.0000 0.0000 21.7215 0.0000
# 6 0.0000 0.0000 0.0000 0.0000 0.0000 21.1687
#
#
#
# Elastic Compliance Matrix: (Units=1/GPa)
#
#
# Indices 1 2 3 4 5 6 
#
# 1 -0.489524 0.053592 0.035730 0.000000 0.000000 0.000000
# 2 0.053592 0.005075 -0.005370 0.000000 0.000000 0.000000
# 3 0.035730 -0.005370 0.008247 0.000000 0.000000 0.000000
# 4 0.000000 0.000000 0.000000 0.025164 0.000000 0.000000
# 5 0.000000 0.000000 0.000000 0.000000 0.046037 0.000000
# 6 0.000000 0.000000 0.000000 0.000000 0.000000 0.047239
#
#
# Mechanical properties :
#
#
# Convention : Reuss Voigt Hill
#
# Bulk Modulus (GPa) = -3.24361 27.80699 12.28169
# Shear Modulus (GPa) = -7.95632 26.84687 9.44527
#
# Velocity S-wave (km/s) = -2.00914 3.69063 2.18908
# Velocity P-wave (km/s) = 2.65100 5.68057 3.55253
#
# Compressibility (1/GPa) = -0.30829833
#
# Stress axis : x y z
#
# Youngs Moduli (GPa) = -2.04280 197.04558 121.25270
#
# Poissons Ratio (x) = -10.56006 -4.33232
# Poissons Ratio (y) = 0.10948 0.65111
# Poissons Ratio (z) = 0.07299 1.05811
#
# Static dielectric constant tensor:
#      x y z
#    x 1.693410 0.000000 0.000000 
#    y 0.000000 1.744320 0.000000 
#    z 0.000000 0.000000 1.712580 
# 
# From -- ./inp_files/5678.got.cif
#   From: 2010.05.17/outbox.ucp.g08.bks.cvg/sg18_3_cif.got.tgz:5678.got - 2010.06.11 13:13:23.
