data_PCOD9313101
_publ_section_title
;
Structure prediction by ZEFSAII (Michael W. Deem and Ramdas Pophale) SiO2 
 PCOD9313101
Probable space group: P 21 21 2
;
_chemical_formula_sum "Si O2"
_cell_formula_units_Z 32
_cell_length_a 8.610206
_cell_length_b 29.146034
_cell_length_c 5.171948
_cell_angle_alpha 90.000000
_cell_angle_beta 90.000000
_cell_angle_gamma 90.000000
_cell_volume 1297.917712
_symmetry_space_group_name_H-M "P 21 21 2"
_symmetry_group_IT_number 18
_symmetry_cell_setting 'orthorhombic'
loop_
_space_group_symop_operation_xyz
x,y,z
-x,-y,z
1/2+x,1/2-y,-z
1/2-x,1/2+y,-z
loop_
_atom_site_type_symbol
_atom_site_label
_atom_site_fract_x
_atom_site_fract_y
_atom_site_fract_z
Si Si1 0.670880 0.575504 0.350801
Si Si2 0.421497 0.882620 0.313414
Si Si3 0.739256 0.379104 0.592896
Si Si4 0.090644 0.463032 0.011629
Si Si5 0.159664 0.013892 0.330511
Si Si6 0.557358 0.356038 0.112933
Si Si7 0.629406 0.216718 0.256511
Si Si8 0.173079 0.774141 0.782920
O O1 0.746842 0.604231 0.586788
O O2 0.648989 0.523148 0.437173
O O3 0.535425 0.597091 0.183309
O O4 0.820442 0.573556 0.174868
O O5 0.578679 0.872601 0.475187
O O6 0.490291 0.928531 0.182107
O O7 0.395825 0.835585 0.163181
O O8 0.683682 0.433260 0.589844
O O9 0.653316 0.349614 0.375014
O O10 0.670883 0.361801 0.868831
O O11 0.201280 0.495602 0.845318
O O12 0.000000 0.500000 0.181199
O O13 0.000000 0.000000 0.185596
O O14 0.424256 0.317673 0.106521
O O15 0.724241 0.215705 0.527194
O O16 0.461225 0.238764 0.293776
O O17 0.720587 0.241700 0.023442
#
# Coordination Sequence:
#
# PCOD9313101 Si02
#       8
#     4   4   4   4   4   4   4   4
#     4  11  25  42  71  95 149 202 244 302 377 435
#     4  11  27  46  70 105 148 199 247 304 382 444
#     4  12  28  44  73 108 147 195 254 307 358 440
#     4  11  24  41  67  98 143 191 251 306 359 438
#     4  11  23  41  62 102 139 192 247 307 359 422
#     4  12  27  49  73 106 149 194 244 305 370 442
#     4  12  28  51  83 113 154 191 245 305 381 455
#     4  12  28  52  83 117 151 192 246 308 379 454
#
# _framework density 24.654874
#
# number of rings (size 3 to 8) (size 9 to 14) (size 15 to 20)
#    0.000    0.500    3.750    3.000   10.500    0.500 
#    0.000    0.000    0.000    0.000    0.000    0.000 
#    0.000    0.000    0.000    0.000    0.000    0.000 
#
# Total GULP energy -178530.432504 kJ/mol
# GULP energy per Si atom -5579.076016 kJ/mol
# Density = 2.459876 g / cm^3
# Si number density = 24.654874 Si / 1000 Ang^3
#
#
#
# Elastic Constant Matrix: (Units=GPa)
#
#
# Indices 1 2 3 4 5 6 
#
# 1 66.7656 23.4981 15.2612 0.0000 0.0000 0.0000
# 2 23.4981 66.9476 5.3564 0.0000 0.0000 0.0000
# 3 15.2612 5.3564 83.9371 0.0000 0.0000 0.0000
# 4 0.0000 0.0000 0.0000 18.9043 0.0000 0.0000
# 5 0.0000 0.0000 0.0000 0.0000 33.3267 0.0000
# 6 0.0000 0.0000 0.0000 0.0000 0.0000 33.1083
#
#
#
# Elastic Compliance Matrix: (Units=1/GPa)
#
#
# Indices 1 2 3 4 5 6 
#
# 1 0.017739 -0.005999 -0.002842 0.000000 0.000000 0.000000
# 2 -0.005999 0.017042 0.000003 0.000000 0.000000 0.000000
# 3 -0.002842 0.000003 0.012430 0.000000 0.000000 0.000000
# 4 0.000000 0.000000 0.000000 0.052898 0.000000 0.000000
# 5 0.000000 0.000000 0.000000 0.000000 0.030006 0.000000
# 6 0.000000 0.000000 0.000000 0.000000 0.000000 0.030204
#
#
# Mechanical properties :
#
#
# Convention : Reuss Voigt Hill
#
# Bulk Modulus (GPa) = 33.85777 33.98684 33.92231
# Shear Modulus (GPa) = 26.61836 28.63685 27.62761
#
# Velocity S-wave (km/s) = 3.28935 3.41179 3.35113
# Velocity P-wave (km/s) = 5.30933 5.41621 5.36304
#
# Compressibility (1/GPa) = 0.02953532
#
# Stress axis : x y z
#
# Youngs Moduli (GPa) = 56.37381 58.67746 80.44869
#
# Poissons Ratio (x) = 0.35199 0.22867
# Poissons Ratio (y) = 0.33817 -0.00025
# Poissons Ratio (z) = 0.16024 -0.00018
#
# Static dielectric constant tensor:
#      x y z
#    x 1.987370 0.000000 0.000000 
#    y 0.000000 1.982930 0.000000 
#    z 0.000000 0.000000 2.154060 
# 
# From -- ./inp_files/793.got.cif
#   From: 2010.05.17/outbox.cif.g08.bks.cpg/sg18_1_cif.got.tgz:793.got - 2010.06.03 22:40:56.
