data_PCOD9313637
_publ_section_title
;
Structure prediction by ZEFSAII (Michael W. Deem and Ramdas Pophale) SiO2 
 PCOD9313637
Probable space group: P 21 21 21
;
_chemical_formula_sum "Si O2"
_cell_formula_units_Z 28
_cell_length_a 13.366485
_cell_length_b 11.476420
_cell_length_c 9.776997
_cell_angle_alpha 90.000000
_cell_angle_beta 90.000000
_cell_angle_gamma 90.000000
_cell_volume 1499.785432
_symmetry_space_group_name_H-M "P 21 21 21"
_symmetry_group_IT_number 19
_symmetry_cell_setting 'orthorhombic'
loop_
_space_group_symop_operation_xyz
x,y,z
1/2-x,-y,1/2+z
1/2+x,1/2-y,-z
-x,1/2+y,1/2-z
loop_
_atom_site_type_symbol
_atom_site_label
_atom_site_fract_x
_atom_site_fract_y
_atom_site_fract_z
Si Si1 0.333444 0.008023 0.760119
Si Si2 0.235391 0.377247 0.714736
Si Si3 0.614167 0.296467 0.926712
Si Si4 0.974238 0.581598 0.006584
Si Si5 0.125187 0.143939 0.765633
Si Si6 0.556698 0.741380 0.789523
Si Si7 0.682437 0.048637 0.993270
O O1 0.224892 0.064977 0.777128
O O2 0.407555 0.108464 0.702932
O O3 0.333069 0.900840 0.655043
O O4 0.381330 0.965410 0.903424
O O5 0.159234 0.269768 0.706475
O O6 0.343625 0.317292 0.734865
O O7 0.244761 0.462698 0.587343
O O8 0.208609 0.450151 0.848158
O O9 0.518776 0.261511 0.835635
O O10 0.683330 0.182090 0.942336
O O11 0.586421 0.335516 0.080645
O O12 0.005537 0.704896 0.075220
O O13 0.069573 0.498052 0.026212
O O14 0.947428 0.590873 0.847747
#
# Coordination Sequence:
#
# PCOD9313637 Si02
#       7
#     4   4   4   4   4   4   4
#     4  10  19  37  59  79 113 152 190 227 283 353
#     4   9  21  37  58  80 116 145 188 234 280 337
#     4  10  20  36  58  84 113 148 194 232 288 339
#     4  10  20  36  59  80 115 146 188 235 280 340
#     4  10  21  37  55  87 115 144 188 243 284 330
#     4   9  19  37  56  80 107 156 190 225 281 346
#     4  10  20  38  57  86 111 149 186 234 282 337
#
# _framework density 18.669338
#
# number of rings (size 3 to 8) (size 9 to 14) (size 15 to 20)
#    0.000    2.286    1.429    0.857    0.000    3.429 
#    5.143    1.429    0.000    0.000    0.000    0.000 
#    0.000    0.000    0.000    0.000    0.000    0.000 
#
# Total GULP energy -156196.392842 kJ/mol
# GULP energy per Si atom -5578.442602 kJ/mol
# Density = 1.862685 g / cm^3
# Si number density = 18.669338 Si / 1000 Ang^3
#
#
#
# Elastic Constant Matrix: (Units=GPa)
#
#
# Indices 1 2 3 4 5 6 
#
# 1 16.2476 -0.9148 6.0329 0.0000 0.0000 0.0000
# 2 -0.9148 68.2998 19.5929 0.0000 0.0000 0.0000
# 3 6.0329 19.5929 53.8912 0.0000 0.0000 0.0000
# 4 0.0000 0.0000 0.0000 27.8761 0.0000 0.0000
# 5 0.0000 0.0000 0.0000 0.0000 23.9317 0.0000
# 6 0.0000 0.0000 0.0000 0.0000 0.0000 3.4136
#
#
#
# Elastic Compliance Matrix: (Units=1/GPa)
#
#
# Indices 1 2 3 4 5 6 
#
# 1 0.064875 0.003296 -0.008461 0.000000 0.000000 0.000000
# 2 0.003296 0.016514 -0.006373 0.000000 0.000000 0.000000
# 3 -0.008461 -0.006373 0.021820 0.000000 0.000000 0.000000
# 4 0.000000 0.000000 0.000000 0.035873 0.000000 0.000000
# 5 0.000000 0.000000 0.000000 0.000000 0.041786 0.000000
# 6 0.000000 0.000000 0.000000 0.000000 0.000000 0.292948
#
#
# Mechanical properties :
#
#
# Convention : Reuss Voigt Hill
#
# Bulk Modulus (GPa) = 12.47920 20.87340 16.67630
# Shear Modulus (GPa) = 9.54924 18.62610 14.08767
#
# Velocity S-wave (km/s) = 2.26408 3.16204 2.74996
# Velocity P-wave (km/s) = 3.67880 4.95340 4.36290
#
# Compressibility (1/GPa) = 0.08013333
#
# Stress axis : x y z
#
# Youngs Moduli (GPa) = 15.41430 60.55620 45.82958
#
# Poissons Ratio (x) = -0.19959 0.38776
# Poissons Ratio (y) = -0.05081 0.29206
# Poissons Ratio (z) = 0.13042 0.38591
#
# Static dielectric constant tensor:
#      x y z
#    x 1.624140 0.000000 0.000000 
#    y 0.000000 1.655330 0.000000 
#    z 0.000000 0.000000 1.620600 
# 
# From -- ./inp_files/3556.got.cif
#   From: 2010.05.17/outbox.cif.g08.bks.cpg/sg19_2_cif.got.tgz:3556.got - 2010.06.03 22:46:19.
