data_PCOD9313924
_publ_section_title
;
Structure prediction by ZEFSAII (Michael W. Deem and Ramdas Pophale) SiO2 
 PCOD9313924
Probable space group: P 21 21 21
;
_chemical_formula_sum "Si O2"
_cell_formula_units_Z 20
_cell_length_a 8.288800
_cell_length_b 9.952439
_cell_length_c 11.522333
_cell_angle_alpha 90.000000
_cell_angle_beta 90.000000
_cell_angle_gamma 90.000000
_cell_volume 950.520762
_symmetry_space_group_name_H-M "P 21 21 21"
_symmetry_group_IT_number 19
_symmetry_cell_setting 'orthorhombic'
loop_
_space_group_symop_operation_xyz
x,y,z
1/2-x,-y,1/2+z
1/2+x,1/2-y,-z
-x,1/2+y,1/2-z
loop_
_atom_site_type_symbol
_atom_site_label
_atom_site_fract_x
_atom_site_fract_y
_atom_site_fract_z
Si Si1 0.767996 0.505705 0.772087
Si Si2 0.173207 0.273961 0.301395
Si Si3 0.898210 0.000465 0.781423
Si Si4 0.165414 0.719264 0.314045
Si Si5 0.026345 0.491984 0.456757
O O1 0.718952 0.380890 0.690821
O O2 0.763323 0.643539 0.698470
O O3 0.639219 0.508328 0.879564
O O4 0.953941 0.484805 0.808929
O O5 0.312342 0.356849 0.236764
O O6 0.128453 0.362864 0.412717
O O7 0.008856 0.267847 0.228827
O O8 0.759880 0.888675 0.765338
O O9 0.978389 0.984534 0.906397
O O10 0.125405 0.628389 0.425583
#
# Coordination Sequence:
#
# PCOD9313924 Si02
#       5
#     4   4   4   4   4
#     4  10  20  38  60  88 122 156 202 250 290 352
#     4   9  20  39  59  85 121 156 200 251 296 358
#     4  11  21  37  62  88 120 165 201 242 305 357
#     4   9  20  39  59  85 121 156 200 251 296 358
#     4   9  21  39  58  86 122 161 201 244 297 353
#
# _framework density 21.041096
#
# number of rings (size 3 to 8) (size 9 to 14) (size 15 to 20)
#    0.000    2.400    0.000    2.400    0.000    6.400 
#    0.000   16.000    0.000    0.000    0.000    0.000 
#    0.000    0.000    0.000    0.000    0.000    0.000 
#
# Total GULP energy -111358.993243 kJ/mol
# GULP energy per Si atom -5567.949662 kJ/mol
# Density = 2.099321 g / cm^3
# Si number density = 21.041096 Si / 1000 Ang^3
#
#
#
# Elastic Constant Matrix: (Units=GPa)
#
#
# Indices 1 2 3 4 5 6 
#
# 1 84.0893 -18.7609 26.4448 0.0000 0.0000 0.0000
# 2 -18.7609 80.2991 5.6070 0.0000 0.0000 0.0000
# 3 26.4448 5.6070 65.4678 0.0000 0.0000 0.0000
# 4 0.0000 0.0000 0.0000 -0.8462 0.0000 0.0000
# 5 0.0000 0.0000 0.0000 0.0000 14.4860 0.0000
# 6 0.0000 0.0000 0.0000 0.0000 0.0000 36.7684
#
#
#
# Elastic Compliance Matrix: (Units=1/GPa)
#
#
# Indices 1 2 3 4 5 6 
#
# 1 0.014734 0.003881 -0.006284 0.000000 0.000000 0.000000
# 2 0.003881 0.013551 -0.002728 0.000000 0.000000 0.000000
# 3 -0.006284 -0.002728 0.018047 0.000000 0.000000 0.000000
# 4 0.000000 0.000000 0.000000 -1.181761 0.000000 0.000000
# 5 0.000000 0.000000 0.000000 0.000000 0.069032 0.000000
# 6 0.000000 0.000000 0.000000 0.000000 0.000000 0.027197
#
#
# Mechanical properties :
#
#
# Convention : Reuss Voigt Hill
#
# Bulk Modulus (GPa) = 27.72431 28.49312 28.10872
# Shear Modulus (GPa) = -4.91684 24.51932 9.80124
#
# Velocity S-wave (km/s) = -1.53031 3.41736 2.16061
# Velocity P-wave (km/s) = 3.17528 5.39835 4.42858
#
# Compressibility (1/GPa) = 0.03606943
#
# Stress axis : x y z
#
# Youngs Moduli (GPa) = 67.86872 73.79654 55.41166
#
# Poissons Ratio (x) = -0.28643 0.34821
# Poissons Ratio (y) = -0.26342 0.15118
# Poissons Ratio (z) = 0.42650 0.20134
#
# Static dielectric constant tensor:
#      x y z
#    x 1.850960 0.000000 0.000000 
#    y 0.000000 1.785530 0.000000 
#    z 0.000000 0.000000 1.711390 
# 
# From -- ./inp_files/2622.got.cif
#   From: 2010.05.17/outbox.cif.g08.bks.cpg/sg19_2_cif.got.tgz:2622.got - 2010.06.03 22:46:19.
