data_PCOD9313440
_publ_section_title
;
Structure prediction by ZEFSAII (Michael W. Deem and Ramdas Pophale) SiO2 
 PCOD9313440
Probable space group: P 21 21 21
;
_chemical_formula_sum "Si O2"
_cell_formula_units_Z 32
_cell_length_a 12.577287
_cell_length_b 6.175138
_cell_length_c 20.437473
_cell_angle_alpha 90.000000
_cell_angle_beta 90.000000
_cell_angle_gamma 90.000000
_cell_volume 1587.306647
_symmetry_space_group_name_H-M "P 21 21 21"
_symmetry_group_IT_number 19
_symmetry_cell_setting 'orthorhombic'
loop_
_space_group_symop_operation_xyz
x,y,z
1/2-x,-y,1/2+z
1/2+x,1/2-y,-z
-x,1/2+y,1/2-z
loop_
_atom_site_type_symbol
_atom_site_label
_atom_site_fract_x
_atom_site_fract_y
_atom_site_fract_z
Si Si1 0.782669 0.542024 0.522454
Si Si2 0.644210 0.081822 0.942684
Si Si3 0.571911 0.837906 0.068210
Si Si4 0.909383 0.848664 0.116298
Si Si5 0.856015 0.462368 0.205549
Si Si6 0.644086 0.189404 0.465729
Si Si7 0.056477 0.191631 0.178192
Si Si8 0.721205 0.150401 0.138659
O O1 0.855933 0.680494 0.474912
O O2 0.842701 0.355833 0.563047
O O3 0.697274 0.422718 0.478292
O O4 0.743743 0.721193 0.573098
O O5 0.601571 0.127011 0.870782
O O6 0.762083 0.973135 0.943545
O O7 0.576527 0.939564 0.994390
O O8 0.457887 0.729878 0.079381
O O9 0.613408 0.024061 0.118097
O O10 0.893231 0.606759 0.143147
O O11 0.808301 0.967465 0.148573
O O12 0.896043 0.873066 0.038449
O O13 0.012385 0.979376 0.140159
O O14 0.858732 0.614673 0.268551
O O15 0.746371 0.332424 0.192930
O O16 0.953082 0.292518 0.213721
#
# Coordination Sequence:
#
# PCOD9313440 Si02
#       8
#     4   4   4   4   4   4   4   4
#     4  10  18  35  52  82 120 154 200 242 308 358
#     4  10  22  35  51  86 126 166 195 255 308 369
#     4  10  20  33  54  83 119 168 198 246 308 365
#     4  11  19  35  54  82 120 162 200 248 295 379
#     4  11  21  36  58  82 122 165 204 245 304 369
#     4  11  20  34  55  84 124 166 197 245 315 368
#     4  11  23  36  55  87 123 163 205 244 310 370
#     4  10  19  34  53  78 120 154 209 241 290 368
#
# _framework density 20.159936999999999
#
# number of rings (size 3 to 8) (size 9 to 14) (size 15 to 20)
#    0.000    1.500    6.250    1.500    1.750    3.000 
#    0.000    0.000    0.000    0.000    0.000    0.000 
#   37.500    0.000    0.000    0.000    0.000    0.000 
#
# Total GULP energy -178241.258869 kJ/mol
# GULP energy per Si atom -5570.039340 kJ/mol
# Density = 2.011405 g / cm^3
# Si number density = 20.159937 Si / 1000 Ang^3
#
#
#
# Elastic Constant Matrix: (Units=GPa)
#
#
# Indices 1 2 3 4 5 6 
#
# 1 53.3197 17.7968 6.9369 0.0000 0.0000 0.0000
# 2 17.7968 74.5523 8.6707 0.0000 0.0000 0.0000
# 3 6.9369 8.6707 38.4031 0.0000 0.0000 0.0000
# 4 0.0000 0.0000 0.0000 23.8346 0.0000 0.0000
# 5 0.0000 0.0000 0.0000 0.0000 17.8170 0.0000
# 6 0.0000 0.0000 0.0000 0.0000 0.0000 24.5528
#
#
#
# Elastic Compliance Matrix: (Units=1/GPa)
#
#
# Indices 1 2 3 4 5 6 
#
# 1 0.020645 -0.004616 -0.002687 0.000000 0.000000 0.000000
# 2 -0.004616 0.014807 -0.002509 0.000000 0.000000 0.000000
# 3 -0.002687 -0.002509 0.027092 0.000000 0.000000 0.000000
# 4 0.000000 0.000000 0.000000 0.041956 0.000000 0.000000
# 5 0.000000 0.000000 0.000000 0.000000 0.056126 0.000000
# 6 0.000000 0.000000 0.000000 0.000000 0.000000 0.040729
#
#
# Mechanical properties :
#
#
# Convention : Reuss Voigt Hill
#
# Bulk Modulus (GPa) = 23.29961 25.89824 24.59892
# Shear Modulus (GPa) = 21.25082 22.09892 21.67487
#
# Velocity S-wave (km/s) = 3.25023 3.31445 3.28250
# Velocity P-wave (km/s) = 5.06634 5.24612 5.15701
#
# Compressibility (1/GPa) = 0.04291917
#
# Stress axis : x y z
#
# Youngs Moduli (GPa) = 48.43783 67.53510 36.91194
#
# Poissons Ratio (x) = 0.31173 0.09918
# Poissons Ratio (y) = 0.22358 0.09263
# Poissons Ratio (z) = 0.13015 0.16947
#
# Static dielectric constant tensor:
#      x y z
#    x 1.744570 0.000000 0.000000 
#    y 0.000000 1.761730 0.000000 
#    z 0.000000 0.000000 1.760860 
# 
# From -- ./inp_files/1995.got.cif
#   From: 2010.05.17/outbox.cif.g08.bks.cpg/sg19_1_cif.got.tgz:1995.got - 2010.06.03 22:46:19.
