data_PCOD9313415
_publ_section_title
;
Structure prediction by ZEFSAII (Michael W. Deem and Ramdas Pophale) SiO2 
 PCOD9313415
Probable space group: P 21 21 21
;
_chemical_formula_sum "Si O2"
_cell_formula_units_Z 32
_cell_length_a 15.871498
_cell_length_b 5.267749
_cell_length_c 20.129040
_cell_angle_alpha 90.000000
_cell_angle_beta 90.000000
_cell_angle_gamma 90.000000
_cell_volume 1682.930010
_symmetry_space_group_name_H-M "P 21 21 21"
_symmetry_group_IT_number 19
_symmetry_cell_setting 'orthorhombic'
loop_
_space_group_symop_operation_xyz
x,y,z
1/2-x,-y,1/2+z
1/2+x,1/2-y,-z
-x,1/2+y,1/2-z
loop_
_atom_site_type_symbol
_atom_site_label
_atom_site_fract_x
_atom_site_fract_y
_atom_site_fract_z
Si Si1 0.158585 0.322563 0.550993
Si Si2 0.952405 0.358463 0.100693
Si Si3 0.556193 0.500993 0.817466
Si Si4 0.294267 0.499941 0.903813
Si Si5 0.871404 0.790972 0.531197
Si Si6 0.052629 0.823432 0.556365
Si Si7 0.386027 0.750718 0.804460
Si Si8 0.151505 0.783403 0.060171
O O1 0.178048 0.348699 0.471130
O O2 0.114920 0.588454 0.570832
O O3 0.250988 0.262919 0.578729
O O4 0.096887 0.091947 0.570062
O O5 0.929745 0.626057 0.130823
O O6 0.031285 0.242178 0.138490
O O7 0.869272 0.191843 0.113497
O O8 0.960537 0.332908 0.022973
O O9 0.465098 0.569794 0.784542
O O10 0.618887 0.439424 0.757327
O O11 0.598687 0.680334 0.872523
O O12 0.210686 0.350158 0.924056
O O13 0.297710 0.661428 0.835681
O O14 0.858495 0.534380 0.487249
O O15 0.955644 0.779428 0.576425
O O16 0.875549 0.038643 0.482924
#
# Coordination Sequence:
#
# PCOD9313415 Si02
#       8
#     4   4   4   4   4   4   4   4
#     4  10  20  34  52  75 108 146 183 232 283 331
#     4  10  18  33  48  71 109 150 183 218 271 325
#     4  11  22  32  52  78 114 159 194 226 265 345
#     4   9  21  32  51  74 108 149 182 231 279 330
#     4  11  22  35  56  82 109 148 196 238 287 336
#     4  11  19  34  54  77 106 146 185 228 290 331
#     4  11  20  34  50  78 114 157 194 221 276 334
#     4  11  22  36  53  81 114 153 193 234 281 332
#
# _framework density 19.014455000000002
#
# number of rings (size 3 to 8) (size 9 to 14) (size 15 to 20)
#    0.000    1.500    3.750    3.750    3.500    0.000 
#    0.000    0.000    0.000    0.000    0.000    0.000 
#    3.750    0.000    0.000    0.000    0.000    0.000 
#
# Total GULP energy -178137.341294 kJ/mol
# GULP energy per Si atom -5566.791915 kJ/mol
# Density = 1.897118 g / cm^3
# Si number density = 19.014455 Si / 1000 Ang^3
#
#
#
# Elastic Constant Matrix: (Units=GPa)
#
#
# Indices 1 2 3 4 5 6 
#
# 1 106.9256 32.9828 17.8120 0.0000 0.0000 0.0000
# 2 32.9828 94.3995 6.1410 0.0000 0.0000 0.0000
# 3 17.8120 6.1410 35.9255 0.0000 0.0000 0.0000
# 4 0.0000 0.0000 0.0000 12.0347 0.0000 0.0000
# 5 0.0000 0.0000 0.0000 0.0000 23.2669 0.0000
# 6 0.0000 0.0000 0.0000 0.0000 0.0000 30.5109
#
#
#
# Elastic Compliance Matrix: (Units=1/GPa)
#
#
# Indices 1 2 3 4 5 6 
#
# 1 0.011300 -0.003624 -0.004983 0.000000 0.000000 0.000000
# 2 -0.003624 0.011875 -0.000233 0.000000 0.000000 0.000000
# 3 -0.004983 -0.000233 0.030346 0.000000 0.000000 0.000000
# 4 0.000000 0.000000 0.000000 0.083093 0.000000 0.000000
# 5 0.000000 0.000000 0.000000 0.000000 0.042980 0.000000
# 6 0.000000 0.000000 0.000000 0.000000 0.000000 0.032775
#
#
# Mechanical properties :
#
#
# Convention : Reuss Voigt Hill
#
# Bulk Modulus (GPa) = 27.90158 39.01356 33.45757
# Shear Modulus (GPa) = 20.66150 25.18349 22.92249
#
# Velocity S-wave (km/s) = 3.29997 3.64323 3.47584
# Velocity P-wave (km/s) = 5.40606 6.18546 5.80885
#
# Compressibility (1/GPa) = 0.03584026
#
# Stress axis : x y z
#
# Youngs Moduli (GPa) = 88.49298 84.21274 32.95337
#
# Poissons Ratio (x) = 0.30520 0.16421
# Poissons Ratio (y) = 0.32071 0.00768
# Poissons Ratio (z) = 0.44098 0.01962
#
# Static dielectric constant tensor:
#      x y z
#    x 1.736820 0.000000 0.000000 
#    y 0.000000 1.867340 0.000000 
#    z 0.000000 0.000000 1.686300 
# 
# From -- ./inp_files/6968.got.cif
#   From: 2010.05.17/outbox.cif.g08.bks.cpg/sg19_4_cif.got.tgz:6968.got - 2010.06.03 22:46:19.
