data_PCOD9313931
_publ_section_title
;
Structure prediction by ZEFSAII (Michael W. Deem and Ramdas Pophale) SiO2 
 PCOD9313931
Probable space group: P 21 21 21
;
_chemical_formula_sum "Si O2"
_cell_formula_units_Z 20
_cell_length_a 10.023262
_cell_length_b 9.743844
_cell_length_c 7.997110
_cell_angle_alpha 90.000000
_cell_angle_beta 90.000000
_cell_angle_gamma 90.000000
_cell_volume 781.038558
_symmetry_space_group_name_H-M "P 21 21 21"
_symmetry_group_IT_number 19
_symmetry_cell_setting 'orthorhombic'
loop_
_space_group_symop_operation_xyz
x,y,z
1/2-x,-y,1/2+z
1/2+x,1/2-y,-z
-x,1/2+y,1/2-z
loop_
_atom_site_type_symbol
_atom_site_label
_atom_site_fract_x
_atom_site_fract_y
_atom_site_fract_z
Si Si1 0.088629 0.279938 0.471055
Si Si2 0.545537 0.535000 0.219924
Si Si3 0.236549 0.818784 0.270144
Si Si4 0.983111 0.487655 0.098370
Si Si5 0.275699 0.516122 0.380295
O O1 0.847817 0.575245 0.656642
O O2 0.204598 0.217561 0.589956
O O3 0.157469 0.408804 0.385499
O O4 0.047195 0.147044 0.367433
O O5 0.524074 0.665243 0.100853
O O6 0.421153 0.062168 0.083852
O O7 0.393374 0.480325 0.245996
O O8 0.095127 0.893919 0.272341
O O9 0.231985 0.672744 0.359706
O O10 0.138244 0.486293 0.052138
#
# Coordination Sequence:
#
# PCOD9313931 Si02
#       5
#     4   4   4   4   4
#     4  10  20  38  61  85 121 154 195 242 291 343
#     4   8  20  38  62  82 114 158 192 240 292 334
#     4  10  20  38  61  85 121 154 195 242 291 343
#     4   9  21  36  59  90 115 151 202 231 289 354
#     4   9  21  36  59  90 115 151 202 231 289 354
#
# _framework density 25.606928
#
# number of rings (size 3 to 8) (size 9 to 14) (size 15 to 20)
#    1.200    1.600    0.000    0.000    5.600    0.000 
#    0.000    8.000    0.000    0.000    0.000    0.000 
#    0.000    0.000    0.000    0.000    0.000    0.000 
#
# Total GULP energy -111726.728237 kJ/mol
# GULP energy per Si atom -5586.336412 kJ/mol
# Density = 2.554865 g / cm^3
# Si number density = 25.606928 Si / 1000 Ang^3
#
#
#
# Elastic Constant Matrix: (Units=GPa)
#
#
# Indices 1 2 3 4 5 6 
#
# 1 165.3241 82.5095 13.0505 0.0000 0.0000 0.0000
# 2 82.5095 133.3270 17.7861 0.0000 0.0000 0.0000
# 3 13.0505 17.7861 33.3106 0.0000 0.0000 0.0000
# 4 0.0000 0.0000 0.0000 28.5051 0.0000 0.0000
# 5 0.0000 0.0000 0.0000 0.0000 34.5734 0.0000
# 6 0.0000 0.0000 0.0000 0.0000 0.0000 59.6867
#
#
#
# Elastic Compliance Matrix: (Units=1/GPa)
#
#
# Indices 1 2 3 4 5 6 
#
# 1 0.008762 -0.005345 -0.000579 0.000000 0.000000 0.000000
# 2 -0.005345 0.011336 -0.003959 0.000000 0.000000 0.000000
# 3 -0.000579 -0.003959 0.032361 0.000000 0.000000 0.000000
# 4 0.000000 0.000000 0.000000 0.035081 0.000000 0.000000
# 5 0.000000 0.000000 0.000000 0.000000 0.028924 0.000000
# 6 0.000000 0.000000 0.000000 0.000000 0.000000 0.016754
#
#
# Mechanical properties :
#
#
# Convention : Reuss Voigt Hill
#
# Bulk Modulus (GPa) = 30.58680 62.07265 46.32973
# Shear Modulus (GPa) = 30.50962 39.12741 34.81851
#
# Velocity S-wave (km/s) = 3.45550 3.91321 3.69145
# Velocity P-wave (km/s) = 5.28122 6.68661 6.02503
#
# Compressibility (1/GPa) = 0.03269384
#
# Stress axis : x y z
#
# Youngs Moduli (GPa) = 114.12801 88.21165 30.90130
#
# Poissons Ratio (x) = 0.47151 0.01789
# Poissons Ratio (y) = 0.61004 0.12233
# Poissons Ratio (z) = 0.06606 0.34922
#
# Static dielectric constant tensor:
#      x y z
#    x 2.001700 0.000000 0.000000 
#    y 0.000000 1.943320 0.000000 
#    z 0.000000 0.000000 2.204310 
# 
# From -- ./inp_files/4883.got.cif
#   From: 2010.05.17/outbox.cif.g08.bks.cpg/sg19_3_cif.got.tgz:4883.got - 2010.06.03 22:46:19.
