data_PCOD9313799
_publ_section_title
;
Structure prediction by ZEFSAII (Michael W. Deem and Ramdas Pophale) SiO2 
 PCOD9313799
Probable space group: P 21 21 21
;
_chemical_formula_sum "Si O2"
_cell_formula_units_Z 24
_cell_length_a 14.203371
_cell_length_b 8.321330
_cell_length_c 9.712317
_cell_angle_alpha 90.000000
_cell_angle_beta 90.000000
_cell_angle_gamma 90.000000
_cell_volume 1147.907849
_symmetry_space_group_name_H-M "P 21 21 21"
_symmetry_group_IT_number 19
_symmetry_cell_setting 'orthorhombic'
loop_
_space_group_symop_operation_xyz
x,y,z
1/2-x,-y,1/2+z
1/2+x,1/2-y,-z
-x,1/2+y,1/2-z
loop_
_atom_site_type_symbol
_atom_site_label
_atom_site_fract_x
_atom_site_fract_y
_atom_site_fract_z
Si Si1 0.150652 0.901793 0.552971
Si Si2 0.551311 0.669249 0.852583
Si Si3 0.242838 0.953093 0.278586
Si Si4 0.404633 0.708092 0.320048
Si Si5 0.032781 0.618736 0.891729
Si Si6 0.017512 0.660750 0.429709
O O1 0.218413 0.978254 0.437792
O O2 0.113041 0.732376 0.496265
O O3 0.202245 0.906770 0.698918
O O4 0.057794 0.012488 0.561673
O O5 0.645491 0.584409 0.797515
O O6 0.484887 0.529398 0.911471
O O7 0.508170 0.759690 0.720774
O O8 0.571683 0.791340 0.975794
O O9 0.311627 0.798822 0.271084
O O10 0.399057 0.516483 0.329485
O O11 0.490645 0.757615 0.219070
O O12 0.434616 0.782283 0.467950
#
# Coordination Sequence:
#
# PCOD9313799 Si02
#       6
#     4   4   4   4   4   4
#     4   9  20  37  58  86 118 157 195 237 293 354
#     4  11  21  38  61  88 117 155 199 245 293 352
#     4  10  20  35  58  88 122 152 190 245 300 339
#     4  10  20  37  58  84 115 152 194 242 291 352
#     4  10  21  38  59  83 114 154 200 237 290 360
#     4  10  20  35  60  85 114 154 198 236 287 355
#
# _framework density 20.907599999999999
#
# number of rings (size 3 to 8) (size 9 to 14) (size 15 to 20)
#    0.000    2.000    0.000    5.000    0.000    2.667 
#    0.000   11.667    0.000   18.000    0.000    0.000 
#    0.000    0.000    0.000    0.000    0.000    0.000 
#
# Total GULP energy -134040.347585 kJ/mol
# GULP energy per Si atom -5585.014483 kJ/mol
# Density = 2.086001 g / cm^3
# Si number density = 20.907600 Si / 1000 Ang^3
#
#
#
# Elastic Constant Matrix: (Units=GPa)
#
#
# Indices 1 2 3 4 5 6 
#
# 1 31.8921 7.3610 11.4730 0.0000 0.0000 0.0000
# 2 7.3610 55.7493 26.6439 0.0000 0.0000 0.0000
# 3 11.4730 26.6439 77.7492 0.0000 0.0000 0.0000
# 4 0.0000 0.0000 0.0000 42.5989 0.0000 0.0000
# 5 0.0000 0.0000 0.0000 0.0000 31.0451 0.0000
# 6 0.0000 0.0000 0.0000 0.0000 0.0000 16.8007
#
#
#
# Elastic Compliance Matrix: (Units=1/GPa)
#
#
# Indices 1 2 3 4 5 6 
#
# 1 0.033392 -0.002456 -0.004086 0.000000 0.000000 0.000000
# 2 -0.002456 0.021631 -0.007050 0.000000 0.000000 0.000000
# 3 -0.004086 -0.007050 0.015881 0.000000 0.000000 0.000000
# 4 0.000000 0.000000 0.000000 0.023475 0.000000 0.000000
# 5 0.000000 0.000000 0.000000 0.000000 0.032211 0.000000
# 6 0.000000 0.000000 0.000000 0.000000 0.000000 0.059521
#
#
# Mechanical properties :
#
#
# Convention : Reuss Voigt Hill
#
# Bulk Modulus (GPa) = 22.87299 28.48293 25.67796
# Shear Modulus (GPa) = 21.94234 26.08314 24.01274
#
# Velocity S-wave (km/s) = 3.24310 3.53589 3.39265
# Velocity P-wave (km/s) = 4.99874 5.50662 5.25881
#
# Compressibility (1/GPa) = 0.04371968
#
# Stress axis : x y z
#
# Youngs Moduli (GPa) = 29.94688 46.22932 62.96889
#
# Poissons Ratio (x) = 0.11356 0.25727
# Poissons Ratio (y) = 0.07356 0.44395
# Poissons Ratio (z) = 0.12236 0.32593
#
# Static dielectric constant tensor:
#      x y z
#    x 1.751310 0.000000 0.000000 
#    y 0.000000 1.753820 0.000000 
#    z 0.000000 0.000000 1.771840 
# 
# From -- ./inp_files/2791.got.cif
#   From: 2010.05.17/outbox.cif.g08.bks.cpg/sg19_2_cif.got.tgz:2791.got - 2010.06.03 22:46:19.
