data_PCOD9313681
_publ_section_title
;
Structure prediction by ZEFSAII (Michael W. Deem and Ramdas Pophale) SiO2 
 PCOD9313681
Probable space group: P 21 21 21
;
_chemical_formula_sum "Si O2"
_cell_formula_units_Z 32
_cell_length_a 8.551840
_cell_length_b 12.181281
_cell_length_c 12.069458
_cell_angle_alpha 90.000000
_cell_angle_beta 90.000000
_cell_angle_gamma 90.000000
_cell_volume 1257.303997
_symmetry_space_group_name_H-M "P 21 21 21"
_symmetry_group_IT_number 19
_symmetry_cell_setting 'orthorhombic'
loop_
_space_group_symop_operation_xyz
x,y,z
1/2-x,-y,1/2+z
1/2+x,1/2-y,-z
-x,1/2+y,1/2-z
loop_
_atom_site_type_symbol
_atom_site_label
_atom_site_fract_x
_atom_site_fract_y
_atom_site_fract_z
Si Si1 0.420590 0.203080 0.377013
Si Si2 0.100187 0.144070 0.293681
Si Si3 0.295240 0.420723 0.368709
Si Si4 0.902931 0.088417 0.875237
Si Si5 0.033512 0.875882 0.111605
Si Si6 0.917926 0.971448 0.443748
Si Si7 0.815320 0.669268 0.740786
Si Si8 0.055532 0.731259 0.410744
O O1 0.336113 0.309132 0.434283
O O2 0.451431 0.124262 0.479966
O O3 0.572590 0.249923 0.313634
O O4 0.286523 0.150409 0.302427
O O5 0.027907 0.256486 0.346821
O O6 0.027918 0.047562 0.368797
O O7 0.049114 0.153076 0.166452
O O8 0.330400 0.384301 0.244466
O O9 0.413833 0.505535 0.424206
O O10 0.115150 0.452410 0.364708
O O11 0.082311 0.085272 0.833098
O O12 0.534223 0.153199 0.922441
O O13 0.907664 0.178508 0.971445
O O14 0.194411 0.891697 0.176845
O O15 0.734785 0.994104 0.414316
O O16 0.713461 0.742202 0.656716
#
# Coordination Sequence:
#
# PCOD9313681 Si02
#       8
#     4   4   4   4   4   4   4   4
#     4  10  19  38  71 109 160 198 251 337 403 459
#     4  10  23  43  75 114 155 210 267 325 403 482
#     4  10  23  43  74 108 146 205 274 319 397 487
#     4  11  25  46  73 103 156 207 256 334 410 473
#     4  10  19  38  71 108 156 198 257 339 402 456
#     4  12  25  48  82 114 155 219 281 326 405 507
#     4  10  21  40  71 105 151 217 257 312 423 483
#     4  11  25  48  75 109 169 210 259 342 405 473
#
# _framework density 25.451281000000002
#
# number of rings (size 3 to 8) (size 9 to 14) (size 15 to 20)
#    0.000    1.500    1.250    5.250    5.250    0.000 
#    2.250    0.000   16.500    0.000    0.000    0.000 
#    0.000    0.000    0.000    0.000    0.000    0.000 
#
# Total GULP energy -178786.488070 kJ/mol
# GULP energy per Si atom -5587.077752 kJ/mol
# Density = 2.539335 g / cm^3
# Si number density = 25.451281 Si / 1000 Ang^3
#
#
#
# Elastic Constant Matrix: (Units=GPa)
#
#
# Indices 1 2 3 4 5 6 
#
# 1 165.6610 37.1551 74.6098 0.0000 0.0000 0.0000
# 2 37.1551 79.7405 48.6060 0.0000 0.0000 0.0000
# 3 74.6098 48.6060 153.9596 0.0000 0.0000 0.0000
# 4 0.0000 0.0000 0.0000 21.7079 0.0000 0.0000
# 5 0.0000 0.0000 0.0000 0.0000 43.9870 0.0000
# 6 0.0000 0.0000 0.0000 0.0000 0.0000 34.9375
#
#
#
# Elastic Compliance Matrix: (Units=1/GPa)
#
#
# Indices 1 2 3 4 5 6 
#
# 1 0.007897 -0.001668 -0.003300 0.000000 0.000000 0.000000
# 2 -0.001668 0.015881 -0.004206 0.000000 0.000000 0.000000
# 3 -0.003300 -0.004206 0.009422 0.000000 0.000000 0.000000
# 4 0.000000 0.000000 0.000000 0.046066 0.000000 0.000000
# 5 0.000000 0.000000 0.000000 0.000000 0.022734 0.000000
# 6 0.000000 0.000000 0.000000 0.000000 0.000000 0.028623
#
#
# Mechanical properties :
#
#
# Convention : Reuss Voigt Hill
#
# Bulk Modulus (GPa) = 67.32643 80.01143 73.66893
# Shear Modulus (GPa) = 32.48404 36.05915 34.27160
#
# Velocity S-wave (km/s) = 3.57644 3.76811 3.67353
# Velocity P-wave (km/s) = 6.60038 7.10189 6.85573
#
# Compressibility (1/GPa) = 0.01485301
#
# Stress axis : x y z
#
# Youngs Moduli (GPa) = 126.63214 62.96696 106.13108
#
# Poissons Ratio (x) = 0.10502 0.35027
# Poissons Ratio (y) = 0.21120 0.44634
# Poissons Ratio (z) = 0.41793 0.26481
#
# Static dielectric constant tensor:
#      x y z
#    x 2.084720 0.000000 0.000000 
#    y 0.000000 2.156830 0.000000 
#    z 0.000000 0.000000 2.092870 
# 
# From -- ./inp_files/4801.got.cif
#   From: 2010.05.17/outbox.cif.g08.bks.cpg/sg19_3_cif.got.tgz:4801.got - 2010.06.03 22:46:19.
