data_PCOD9313532
_publ_section_title
;
Structure prediction by ZEFSAII (Michael W. Deem and Ramdas Pophale) SiO2 
 PCOD9313532
Probable space group: P 21 21 21
;
_chemical_formula_sum "Si O2"
_cell_formula_units_Z 24
_cell_length_a 8.102502
_cell_length_b 7.913333
_cell_length_c 16.654410
_cell_angle_alpha 90.000000
_cell_angle_beta 90.000000
_cell_angle_gamma 90.000000
_cell_volume 1067.844071
_symmetry_space_group_name_H-M "P 21 21 21"
_symmetry_group_IT_number 19
_symmetry_cell_setting 'orthorhombic'
loop_
_space_group_symop_operation_xyz
x,y,z
1/2-x,-y,1/2+z
1/2+x,1/2-y,-z
-x,1/2+y,1/2-z
loop_
_atom_site_type_symbol
_atom_site_label
_atom_site_fract_x
_atom_site_fract_y
_atom_site_fract_z
Si Si1 0.880887 0.101011 0.602501
Si Si2 0.477144 0.498621 0.633551
Si Si3 0.589224 0.452469 0.929233
Si Si4 0.102827 0.354430 0.297253
Si Si5 0.921882 0.312908 0.972709
Si Si6 0.793933 0.794223 0.949900
O O1 0.797644 0.115376 0.688771
O O2 0.731789 0.144109 0.540901
O O3 0.030539 0.228884 0.581904
O O4 0.949064 0.914878 0.582516
O O5 0.456037 0.626104 0.706598
O O6 0.563793 0.330643 0.667989
O O7 0.571455 0.579967 0.557193
O O8 0.299565 0.430569 0.604126
O O9 0.491760 0.499016 0.848486
O O10 0.478638 0.371473 0.999735
O O11 0.679512 0.627336 0.948385
O O12 0.745138 0.323623 0.930042
#
# Coordination Sequence:
#
# PCOD9313532 Si02
#       6
#     4   4   4   4   4   4
#     4  10  19  35  60  83 109 144 186 231 279 330
#     4  10  22  38  56  79 113 149 188 229 282 333
#     4  10  19  33  56  84 112 143 186 226 270 325
#     4  11  21  37  58  81 112 149 186 232 281 334
#     4  10  20  35  57  86 112 145 188 231 273 329
#     4   9  19  36  57  83 110 144 186 231 277 331
#
# _framework density 22.475192
#
# number of rings (size 3 to 8) (size 9 to 14) (size 15 to 20)
#    0.000    2.000    0.000    6.000    0.000    1.333 
#    0.000    8.333    0.000    4.000    0.000    0.000 
#    0.000    0.000    0.000    0.000    0.000    0.000 
#
# Total GULP energy -134006.002645 kJ/mol
# GULP energy per Si atom -5583.583444 kJ/mol
# Density = 2.242404 g / cm^3
# Si number density = 22.475192 Si / 1000 Ang^3
#
#
#
# Elastic Constant Matrix: (Units=GPa)
#
#
# Indices 1 2 3 4 5 6 
#
# 1 88.4523 39.5093 24.4754 0.0000 0.0000 0.0000
# 2 39.5093 81.1058 9.7580 0.0000 0.0000 0.0000
# 3 24.4754 9.7580 48.3454 0.0000 0.0000 0.0000
# 4 0.0000 0.0000 0.0000 33.7566 0.0000 0.0000
# 5 0.0000 0.0000 0.0000 0.0000 21.6424 0.0000
# 6 0.0000 0.0000 0.0000 0.0000 0.0000 32.0763
#
#
#
# Elastic Compliance Matrix: (Units=1/GPa)
#
#
# Indices 1 2 3 4 5 6 
#
# 1 0.016404 -0.007166 -0.006858 0.000000 0.000000 0.000000
# 2 -0.007166 0.015767 0.000445 0.000000 0.000000 0.000000
# 3 -0.006858 0.000445 0.024067 0.000000 0.000000 0.000000
# 4 0.000000 0.000000 0.000000 0.029624 0.000000 0.000000
# 5 0.000000 0.000000 0.000000 0.000000 0.046206 0.000000
# 6 0.000000 0.000000 0.000000 0.000000 0.000000 0.031176
#
#
# Mechanical properties :
#
#
# Convention : Reuss Voigt Hill
#
# Bulk Modulus (GPa) = 34.38797 40.59875 37.49336
# Shear Modulus (GPa) = 24.98831 27.10577 26.04704
#
# Velocity S-wave (km/s) = 3.33801 3.47656 3.40799
# Velocity P-wave (km/s) = 5.49455 5.84964 5.67487
#
# Compressibility (1/GPa) = 0.02907994
#
# Stress axis : x y z
#
# Youngs Moduli (GPa) = 60.96043 63.42489 41.55114
#
# Poissons Ratio (x) = 0.45449 0.28498
# Poissons Ratio (y) = 0.43683 -0.01851
# Poissons Ratio (z) = 0.41809 -0.02825
#
# Static dielectric constant tensor:
#      x y z
#    x 1.864110 0.000000 0.000000 
#    y 0.000000 1.900950 0.000000 
#    z 0.000000 0.000000 1.832520 
# 
# From -- ./inp_files/2814.got.cif
#   From: 2010.05.17/outbox.cif.g08.bks.cpg/sg19_2_cif.got.tgz:2814.got - 2010.06.03 22:46:19.
