data_PCOD9313846
_publ_section_title
;
Structure prediction by ZEFSAII (Michael W. Deem and Ramdas Pophale) SiO2 
 PCOD9313846
Probable space group: P 21 21 21
;
_chemical_formula_sum "Si O2"
_cell_formula_units_Z 32
_cell_length_a 5.416984
_cell_length_b 27.106444
_cell_length_c 9.786823
_cell_angle_alpha 90.000000
_cell_angle_beta 90.000000
_cell_angle_gamma 90.000000
_cell_volume 1437.049853
_symmetry_space_group_name_H-M "P 21 21 21"
_symmetry_group_IT_number 19
_symmetry_cell_setting 'orthorhombic'
loop_
_space_group_symop_operation_xyz
x,y,z
1/2-x,-y,1/2+z
1/2+x,1/2-y,-z
-x,1/2+y,1/2-z
loop_
_atom_site_type_symbol
_atom_site_label
_atom_site_fract_x
_atom_site_fract_y
_atom_site_fract_z
Si Si1 0.053589 0.058345 0.491660
Si Si2 0.125035 0.565611 0.720694
Si Si3 0.257841 0.232558 0.570858
Si Si4 0.351817 0.460723 0.773339
Si Si5 0.823239 0.182221 0.246910
Si Si6 0.327311 0.144753 0.396626
Si Si7 0.860206 0.880568 0.517370
Si Si8 0.752997 0.450193 0.981482
O O1 0.286095 0.087952 0.432890
O O2 0.846655 0.062608 0.375790
O O3 0.088097 0.999835 0.504146
O O4 0.986356 0.081697 0.636051
O O5 0.283870 0.517719 0.761835
O O6 0.266770 0.606956 0.633945
O O7 0.926234 0.546546 0.611568
O O8 0.474686 0.257130 0.475628
O O9 0.305829 0.259780 0.714522
O O10 0.304957 0.175662 0.537808
O O11 0.623784 0.457635 0.836580
O O12 0.210434 0.426519 0.881188
O O13 0.585807 0.159123 0.327408
O O14 0.760207 0.165835 0.092088
O O15 0.088929 0.162200 0.302868
O O16 0.148603 0.893751 0.512988
#
# Coordination Sequence:
#
# PCOD9313846 Si02
#       8
#     4   4   4   4   4   4   4   4
#     4  12  21  35  55  81 109 150 185 239 278 334
#     4  11  24  37  49  77 113 153 186 233 282 332
#     4   8  16  33  54  84 116 136 174 239 295 329
#     4  11  21  38  53  75 105 145 195 235 275 320
#     4  10  20  36  59  86 113 146 185 239 287 338
#     4  10  21  34  58  90 113 142 188 236 291 337
#     4  11  22  36  55  77 109 147 191 228 278 347
#     4  11  23  37  53  74 110 149 194 231 278 333
#
# _framework density 22.267842000000002
#
# number of rings (size 3 to 8) (size 9 to 14) (size 15 to 20)
#    0.000    1.500    3.750    2.250    3.500    1.000 
#    0.000    0.000    0.000    0.000    3.250    0.000 
#    0.000    0.000    0.000    0.000    0.000    0.000 
#
# Total GULP energy -178234.922990 kJ/mol
# GULP energy per Si atom -5569.841343 kJ/mol
# Density = 2.221716 g / cm^3
# Si number density = 22.267842 Si / 1000 Ang^3
#
#
#
# Elastic Constant Matrix: (Units=GPa)
#
#
# Indices 1 2 3 4 5 6 
#
# 1 72.6656 -4.1303 17.5942 0.0000 0.0000 0.0000
# 2 -4.1303 12.7602 -15.3677 0.0000 0.0000 0.0000
# 3 17.5942 -15.3677 92.9252 0.0000 0.0000 0.0000
# 4 0.0000 0.0000 0.0000 7.7435 0.0000 0.0000
# 5 0.0000 0.0000 0.0000 0.0000 17.6863 0.0000
# 6 0.0000 0.0000 0.0000 0.0000 0.0000 21.7020
#
#
#
# Elastic Compliance Matrix: (Units=1/GPa)
#
#
# Indices 1 2 3 4 5 6 
#
# 1 0.014453 0.001726 -0.002451 0.000000 0.000000 0.000000
# 2 0.001726 0.098066 0.015891 0.000000 0.000000 0.000000
# 3 -0.002451 0.015891 0.013853 0.000000 0.000000 0.000000
# 4 0.000000 0.000000 0.000000 0.129141 0.000000 0.000000
# 5 0.000000 0.000000 0.000000 0.000000 0.056541 0.000000
# 6 0.000000 0.000000 0.000000 0.000000 0.000000 0.046079
#
#
# Mechanical properties :
#
#
# Convention : Reuss Voigt Hill
#
# Bulk Modulus (GPa) = 6.38140 19.39371 12.88756
# Shear Modulus (GPa) = 13.15665 21.44334 17.30000
#
# Velocity S-wave (km/s) = 2.43335 3.10655 2.79033
# Velocity P-wave (km/s) = 3.28129 4.64712 4.02260
#
# Compressibility (1/GPa) = 0.15670535
#
# Stress axis : x y z
#
# Youngs Moduli (GPa) = 69.18858 10.19722 72.18428
#
# Poissons Ratio (x) = -0.01760 0.17693
# Poissons Ratio (y) = -0.11945 -1.14708
# Poissons Ratio (z) = 0.16958 -0.16204
#
# Static dielectric constant tensor:
#      x y z
#    x 2.203670 0.000000 0.000000 
#    y 0.000000 1.821480 0.000000 
#    z 0.000000 0.000000 1.836780 
# 
# From -- ./inp_files/722.got.cif
#   From: 2010.05.17/outbox.cif.g08.bks.cpg/sg19_1_cif.got.tgz:722.got - 2010.06.03 22:46:19.
