data_PCOD9313744
_publ_section_title
;
Structure prediction by ZEFSAII (Michael W. Deem and Ramdas Pophale) SiO2 
 PCOD9313744
Probable space group: P 21 21 21
;
_chemical_formula_sum "Si O2"
_cell_formula_units_Z 32
_cell_length_a 6.923007
_cell_length_b 7.911593
_cell_length_c 24.631711
_cell_angle_alpha 90.000000
_cell_angle_beta 90.000000
_cell_angle_gamma 90.000000
_cell_volume 1349.128413
_symmetry_space_group_name_H-M "P 21 21 21"
_symmetry_group_IT_number 19
_symmetry_cell_setting 'orthorhombic'
loop_
_space_group_symop_operation_xyz
x,y,z
1/2-x,-y,1/2+z
1/2+x,1/2-y,-z
-x,1/2+y,1/2-z
loop_
_atom_site_type_symbol
_atom_site_label
_atom_site_fract_x
_atom_site_fract_y
_atom_site_fract_z
Si Si1 0.869577 0.436682 0.117979
Si Si2 0.614474 0.250003 0.422867
Si Si3 0.780741 0.547584 0.233621
Si Si4 0.937849 0.750002 0.048857
Si Si5 0.828554 0.445000 0.850214
Si Si6 0.719258 0.047580 0.733620
Si Si7 0.630422 0.936676 0.617978
Si Si8 0.828554 0.054993 0.850213
O O1 0.756925 0.465673 0.174665
O O2 0.840503 0.583697 0.074183
O O3 0.829213 0.250004 0.096227
O O4 0.098254 0.442533 0.134581
O O5 0.544090 0.250000 0.484362
O O6 0.573018 0.419394 0.389223
O O7 0.846013 0.250003 0.428738
O O8 0.573019 0.080614 0.389222
O O9 0.661504 0.497027 0.287275
O O10 0.767136 0.750002 0.228083
O O11 0.999999 0.500002 0.250000
O O12 0.840504 0.916311 0.074182
O O13 0.598255 0.442526 0.865420
O O14 0.890668 0.249996 0.855584
O O15 0.838495 0.997021 0.787274
O O16 0.743074 0.965670 0.674664
#
# Coordination Sequence:
#
# PCOD9313744 Si02
#       8
#     4   4   4   4   4   4   4   4
#     4   9  16  26  42  65  95 121 148 189 237 278
#     4  10  20  32  50  64  96 126 159 188 224 272
#     4   9  14  21  37  64  96 120 143 182 240 288
#     4  10  20  34  46  70  92 128 159 190 224 274
#     4   8  16  26  40  66  94 120 147 186 234 276
#     4   9  14  21  37  64  96 120 143 182 240 288
#     4   9  16  26  42  65  95 121 148 189 237 278
#     4   8  16  26  40  66  94 120 147 186 234 276
#
# _framework density 23.719017000000001
#
# number of rings (size 3 to 8) (size 9 to 14) (size 15 to 20)
#    0.000    3.000    1.250    2.250    7.000    1.000 
#    0.000    0.000    0.000    0.000    0.000    1.750 
#    0.000    0.000    0.000    0.000    0.000    0.000 
#
# Total GULP energy -178980.272095 kJ/mol
# GULP energy per Si atom -5593.133503 kJ/mol
# Density = 2.366503 g / cm^3
# Si number density = 23.719017 Si / 1000 Ang^3
#
#
#
# Elastic Constant Matrix: (Units=GPa)
#
#
# Indices 1 2 3 4 5 6 
#
# 1 84.2230 9.7085 27.7041 0.0000 0.0000 0.0000
# 2 9.7085 188.9986 124.7897 0.0000 0.0000 0.0000
# 3 27.7041 124.7897 189.3073 0.0000 0.0000 0.0000
# 4 0.0000 0.0000 0.0000 34.2768 0.0000 0.0000
# 5 0.0000 0.0000 0.0000 0.0000 37.9371 0.0000
# 6 0.0000 0.0000 0.0000 0.0000 0.0000 -2.4519
#
#
#
# Elastic Compliance Matrix: (Units=1/GPa)
#
#
# Indices 1 2 3 4 5 6 
#
# 1 0.012581 0.001008 -0.002506 0.000000 0.000000 0.000000
# 2 0.001008 0.009450 -0.006377 0.000000 0.000000 0.000000
# 3 -0.002506 -0.006377 0.009853 0.000000 0.000000 0.000000
# 4 0.000000 0.000000 0.000000 0.029174 0.000000 0.000000
# 5 0.000000 0.000000 0.000000 0.000000 0.026359 0.000000
# 6 0.000000 0.000000 0.000000 0.000000 0.000000 -0.407850
#
#
# Mechanical properties :
#
#
# Convention : Reuss Voigt Hill
#
# Bulk Modulus (GPa) = 61.97716 87.43704 74.70710
# Shear Modulus (GPa) = -16.70527 33.97418 8.63446
#
# Velocity S-wave (km/s) = -2.65674 3.78876 1.91003
# Velocity P-wave (km/s) = 4.09578 7.48888 6.03567
#
# Compressibility (1/GPa) = 0.01613498
#
# Stress axis : x y z
#
# Youngs Moduli (GPa) = 79.48314 105.82570 101.49695
#
# Poissons Ratio (x) = -0.10670 0.25433
# Poissons Ratio (y) = -0.08014 0.64720
# Poissons Ratio (z) = 0.19917 0.67481
#
# Static dielectric constant tensor:
#      x y z
#    x 1.946850 0.000000 0.000000 
#    y 0.000000 1.829510 0.000000 
#    z 0.000000 0.000000 1.859830 
# 
# From -- ./inp_files/3158.got.cif
#   From: 2010.05.17/outbox.cif.g08.bks.cpg/sg19_2_cif.got.tgz:3158.got - 2010.06.03 22:46:19.
