data_PCOD9313493
_publ_section_title
;
Structure prediction by ZEFSAII (Michael W. Deem and Ramdas Pophale) SiO2 
 PCOD9313493
Probable space group: P 21 21 21
;
_chemical_formula_sum "Si O2"
_cell_formula_units_Z 32
_cell_length_a 12.461558
_cell_length_b 26.579157
_cell_length_c 5.369918
_cell_angle_alpha 90.000000
_cell_angle_beta 90.000000
_cell_angle_gamma 90.000000
_cell_volume 1778.611924
_symmetry_space_group_name_H-M "P 21 21 21"
_symmetry_group_IT_number 19
_symmetry_cell_setting 'orthorhombic'
loop_
_space_group_symop_operation_xyz
x,y,z
1/2-x,-y,1/2+z
1/2+x,1/2-y,-z
-x,1/2+y,1/2-z
loop_
_atom_site_type_symbol
_atom_site_label
_atom_site_fract_x
_atom_site_fract_y
_atom_site_fract_z
Si Si1 0.368278 0.239631 0.895064
Si Si2 0.121650 0.594415 0.429276
Si Si3 0.272783 0.321111 0.226921
Si Si4 0.671680 0.113014 0.393468
Si Si5 0.529649 0.325068 0.746465
Si Si6 0.943442 0.815971 0.606121
Si Si7 0.814302 0.991688 0.115704
Si Si8 0.635738 0.289226 0.256870
O O1 0.437314 0.281816 0.749917
O O2 0.262088 0.221556 0.756908
O O3 0.329603 0.269640 0.145842
O O4 0.448225 0.194387 0.958442
O O5 0.146092 0.633120 0.654624
O O6 0.238400 0.594463 0.298502
O O7 0.101090 0.535284 0.461134
O O8 0.031628 0.622178 0.269619
O O9 0.229788 0.337587 0.492772
O O10 0.161925 0.320006 0.068975
O O11 0.564408 0.134200 0.270563
O O12 0.653197 0.066559 0.578138
O O13 0.599192 0.319039 0.499723
O O14 0.597787 0.314613 0.997559
O O15 0.924185 0.764745 0.760121
O O16 0.723019 0.001043 0.901630
#
# Coordination Sequence:
#
# PCOD9313493 Si02
#       8
#     4   4   4   4   4   4   4   4
#     4   9  20  36  50  73 109 151 183 222 270 312
#     4   9  19  32  50  76 105 147 172 220 275 321
#     4   9  17  33  47  71 104 141 181 214 261 319
#     4  10  19  30  52  75 110 143 177 219 264 328
#     4  10  22  35  53  76 107 144 184 220 267 323
#     4   9  20  32  48  73 105 145 181 217 260 316
#     4  10  19  32  51  77 108 142 175 216 271 332
#     4  10  22  36  51  77 106 145 189 222 256 321
#
# _framework density 17.991558999999999
#
# number of rings (size 3 to 8) (size 9 to 14) (size 15 to 20)
#    0.000    2.500    1.250    0.750   10.500    2.000 
#    0.000    0.000    0.000    0.000    0.000    0.000 
#    3.750    0.000    0.000    0.000    0.000    0.000 
#
# Total GULP energy -178208.054405 kJ/mol
# GULP energy per Si atom -5569.001700 kJ/mol
# Density = 1.795061 g / cm^3
# Si number density = 17.991559 Si / 1000 Ang^3
#
#
#
# Elastic Constant Matrix: (Units=GPa)
#
#
# Indices 1 2 3 4 5 6 
#
# 1 82.6057 22.7937 21.5897 0.0000 0.0000 0.0000
# 2 22.7937 56.7268 15.9148 0.0000 0.0000 0.0000
# 3 21.5897 15.9148 55.8069 0.0000 0.0000 0.0000
# 4 0.0000 0.0000 0.0000 22.3085 0.0000 0.0000
# 5 0.0000 0.0000 0.0000 0.0000 22.8166 0.0000
# 6 0.0000 0.0000 0.0000 0.0000 0.0000 17.4726
#
#
#
# Elastic Compliance Matrix: (Units=1/GPa)
#
#
# Indices 1 2 3 4 5 6 
#
# 1 0.014503 -0.004623 -0.004292 0.000000 0.000000 0.000000
# 2 -0.004623 0.020635 -0.004096 0.000000 0.000000 0.000000
# 3 -0.004292 -0.004096 0.020748 0.000000 0.000000 0.000000
# 4 0.000000 0.000000 0.000000 0.044826 0.000000 0.000000
# 5 0.000000 0.000000 0.000000 0.000000 0.043828 0.000000
# 6 0.000000 0.000000 0.000000 0.000000 0.000000 0.057232
#
#
# Mechanical properties :
#
#
# Convention : Reuss Voigt Hill
#
# Bulk Modulus (GPa) = 33.48676 35.08175 34.28425
# Shear Modulus (GPa) = 21.03050 21.50896 21.26973
#
# Velocity S-wave (km/s) = 3.42264 3.46136 3.44205
# Velocity P-wave (km/s) = 5.85424 5.95953 5.90712
#
# Compressibility (1/GPa) = 0.02986255
#
# Stress axis : x y z
#
# Youngs Moduli (GPa) = 68.94989 48.46068 48.19838
#
# Poissons Ratio (x) = 0.22405 0.20688
# Poissons Ratio (y) = 0.31878 0.19742
# Poissons Ratio (z) = 0.29595 0.19850
#
# Static dielectric constant tensor:
#      x y z
#    x 1.615480 0.000000 0.000000 
#    y 0.000000 1.682450 0.000000 
#    z 0.000000 0.000000 1.729630 
# 
# From -- ./inp_files/1343.got.cif
#   From: 2010.05.17/outbox.cif.g08.bks.cpg/sg19_1_cif.got.tgz:1343.got - 2010.06.03 22:46:19.
