data_PCOD9313408
_publ_section_title
;
Structure prediction by ZEFSAII (Michael W. Deem and Ramdas Pophale) SiO2 
 PCOD9313408
Probable space group: P 21 21 21
;
_chemical_formula_sum "Si O2"
_cell_formula_units_Z 20
_cell_length_a 10.032892
_cell_length_b 9.819630
_cell_length_c 8.506102
_cell_angle_alpha 90.000000
_cell_angle_beta 90.000000
_cell_angle_gamma 90.000000
_cell_volume 838.015106
_symmetry_space_group_name_H-M "P 21 21 21"
_symmetry_group_IT_number 19
_symmetry_cell_setting 'orthorhombic'
loop_
_space_group_symop_operation_xyz
x,y,z
1/2-x,-y,1/2+z
1/2+x,1/2-y,-z
-x,1/2+y,1/2-z
loop_
_atom_site_type_symbol
_atom_site_label
_atom_site_fract_x
_atom_site_fract_y
_atom_site_fract_z
Si Si1 0.392783 0.702445 0.596109
Si Si2 0.516358 0.445772 0.115815
Si Si3 0.210352 0.088641 0.305165
Si Si4 0.566483 0.637737 0.888866
Si Si5 0.946304 0.085088 0.525074
O O1 0.505923 0.698981 0.728539
O O2 0.373563 0.548956 0.540635
O O3 0.444613 0.800329 0.457339
O O4 0.277467 0.778048 0.694205
O O5 0.651223 0.534363 0.133124
O O6 0.458300 0.431452 0.288276
O O7 0.454438 0.547899 0.983950
O O8 0.093705 0.093212 0.438798
O O9 0.164942 0.973333 0.182201
O O10 0.618469 0.771381 0.978291
#
# Coordination Sequence:
#
# PCOD9313408 Si02
#       5
#     4   4   4   4   4
#     4   9  19  34  52  78 111 141 171 216 270 314
#     4  11  19  33  57  82 104 142 188 217 253 322
#     4   9  19  35  55  77 107 143 176 216 264 313
#     4   9  19  34  52  78 111 141 171 216 270 314
#     4  10  18  32  54  79 107 141 182 221 257 307
#
# _framework density 23.865921
#
# number of rings (size 3 to 8) (size 9 to 14) (size 15 to 20)
#    0.000    2.400    0.000    4.800    0.000    0.000 
#    0.000    2.000    0.000   19.200    0.000    0.000 
#    0.000    0.000    0.000    0.000    0.000    0.000 
#
# Total GULP energy -111558.554467 kJ/mol
# GULP energy per Si atom -5577.927723 kJ/mol
# Density = 2.381160 g / cm^3
# Si number density = 23.865921 Si / 1000 Ang^3
#
#
#
# Elastic Constant Matrix: (Units=GPa)
#
#
# Indices 1 2 3 4 5 6 
#
# 1 23.4402 9.3736 -2.2606 0.0000 0.0000 0.0000
# 2 9.3736 173.8802 59.3094 0.0000 0.0000 0.0000
# 3 -2.2606 59.3094 117.9232 0.0000 0.0000 0.0000
# 4 0.0000 0.0000 0.0000 48.4255 0.0000 0.0000
# 5 0.0000 0.0000 0.0000 0.0000 23.1316 0.0000
# 6 0.0000 0.0000 0.0000 0.0000 0.0000 11.1184
#
#
#
# Elastic Compliance Matrix: (Units=1/GPa)
#
#
# Indices 1 2 3 4 5 6 
#
# 1 0.044189 -0.003224 0.002469 0.000000 0.000000 0.000000
# 2 -0.003224 0.007177 -0.003672 0.000000 0.000000 0.000000
# 3 0.002469 -0.003672 0.010374 0.000000 0.000000 0.000000
# 4 0.000000 0.000000 0.000000 0.020650 0.000000 0.000000
# 5 0.000000 0.000000 0.000000 0.000000 0.043231 0.000000
# 6 0.000000 0.000000 0.000000 0.000000 0.000000 0.089941
#
#
# Mechanical properties :
#
#
# Convention : Reuss Voigt Hill
#
# Bulk Modulus (GPa) = 18.90848 49.78759 34.34803
# Shear Modulus (GPa) = 20.65726 33.12319 26.89023
#
# Velocity S-wave (km/s) = 2.94522 3.72948 3.36031
# Velocity P-wave (km/s) = 4.41653 6.28108 5.42945
#
# Compressibility (1/GPa) = 0.05288633
#
# Stress axis : x y z
#
# Youngs Moduli (GPa) = 22.62995 139.32892 96.39436
#
# Poissons Ratio (x) = 0.44923 -0.23797
# Poissons Ratio (y) = 0.07296 0.35392
# Poissons Ratio (z) = -0.05587 0.51156
#
# Static dielectric constant tensor:
#      x y z
#    x 2.065980 0.000000 0.000000 
#    y 0.000000 1.956820 0.000000 
#    z 0.000000 0.000000 2.332380 
# 
# From -- ./inp_files/2726.got.cif
#   From: 2010.05.17/outbox.cif.g08.bks.cpg/sg19_2_cif.got.tgz:2726.got - 2010.06.03 22:46:19.
