data_PCOD9313132
_publ_section_title
;
Structure prediction by ZEFSAII (Michael W. Deem and Ramdas Pophale) SiO2 
 PCOD9313132
Probable space group: P 21 21 2
;
_chemical_formula_sum "Si O2"
_cell_formula_units_Z 30
_cell_length_a 11.204684
_cell_length_b 18.489026
_cell_length_c 6.667258
_cell_angle_alpha 90.000000
_cell_angle_beta 90.000000
_cell_angle_gamma 90.000000
_cell_volume 1381.213795
_symmetry_space_group_name_H-M "P 21 21 2"
_symmetry_group_IT_number 18
_symmetry_cell_setting 'orthorhombic'
loop_
_space_group_symop_operation_xyz
x,y,z
-x,-y,z
1/2+x,1/2-y,-z
1/2-x,1/2+y,-z
loop_
_atom_site_type_symbol
_atom_site_label
_atom_site_fract_x
_atom_site_fract_y
_atom_site_fract_z
Si Si1 0.563266 0.102483 0.843703
Si Si2 0.758256 0.104079 0.188043
Si Si3 0.258727 0.052717 0.352307
Si Si4 0.816374 0.699197 0.432998
Si Si5 0.000000 0.500000 0.485417
Si Si6 0.652216 0.344206 0.336743
Si Si7 0.165574 0.653111 0.985951
Si Si8 0.904275 0.189791 0.867961
O O1 0.579141 0.176854 0.720796
O O2 0.580422 0.046943 0.663864
O O3 0.656606 0.093752 0.019853
O O4 0.432024 0.097273 0.931779
O O5 0.701502 0.151847 0.366277
O O6 0.787890 0.024908 0.276025
O O7 0.862242 0.146481 0.067343
O O8 0.190304 0.082821 0.547363
O O9 0.255514 0.113548 0.180593
O O10 0.401825 0.044564 0.393651
O O11 0.838863 0.779983 0.502969
O O12 0.698977 0.685065 0.300170
O O13 0.524852 0.341041 0.227488
O O14 0.749767 0.326091 0.168318
O O15 0.094436 0.724026 0.911994
#
# Coordination Sequence:
#
# PCOD9313132 Si02
#       8
#     4   4   4   4   2   4   4   4
#     4  11  24  40  74 107 143 176 237 295 365 440
#     4  11  24  47  72 101 147 192 234 294 375 431
#     4  12  26  45  72 109 148 191 237 310 371 430
#     4  11  24  46  71 103 140 188 238 296 359 437
#     4  12  22  42  72 110 142 178 234 310 372 430
#     4  12  27  45  73 109 145 188 255 295 363 445
#     4  12  25  44  72 110 144 186 238 305 363 430
#     4  11  27  45  74 105 142 197 247 296 360 443
#
# _framework density 21.720027999999999
#
# number of rings (size 3 to 8) (size 9 to 14) (size 15 to 20)
#    0.000    0.533    5.333    2.400    5.600    1.067 
#    0.000    4.000    0.000    0.000    0.000    0.000 
#    0.000    0.000    0.000    0.000    0.000    0.000 
#
# Total GULP energy -167665.646236 kJ/mol
# GULP energy per Si atom -5588.854875 kJ/mol
# Density = 2.167059 g / cm^3
# Si number density = 21.720028 Si / 1000 Ang^3
#
#
#
# Elastic Constant Matrix: (Units=GPa)
#
#
# Indices 1 2 3 4 5 6 
#
# 1 44.6369 -4.5485 5.7202 0.0000 0.0000 0.0000
# 2 -4.5485 90.9814 27.3448 0.0000 0.0000 0.0000
# 3 5.7202 27.3448 88.3684 0.0000 0.0000 0.0000
# 4 0.0000 0.0000 0.0000 45.5533 0.0000 0.0000
# 5 0.0000 0.0000 0.0000 0.0000 32.3789 0.0000
# 6 0.0000 0.0000 0.0000 0.0000 0.0000 24.5092
#
#
#
# Elastic Compliance Matrix: (Units=1/GPa)
#
#
# Indices 1 2 3 4 5 6 
#
# 1 0.022840 0.001749 -0.002020 0.000000 0.000000 0.000000
# 2 0.001749 0.012252 -0.003905 0.000000 0.000000 0.000000
# 3 -0.002020 -0.003905 0.012655 0.000000 0.000000 0.000000
# 4 0.000000 0.000000 0.000000 0.021952 0.000000 0.000000
# 5 0.000000 0.000000 0.000000 0.000000 0.030884 0.000000
# 6 0.000000 0.000000 0.000000 0.000000 0.000000 0.040801
#
#
# Mechanical properties :
#
#
# Convention : Reuss Voigt Hill
#
# Bulk Modulus (GPa) = 25.38277 31.22442 28.30359
# Shear Modulus (GPa) = 30.69970 33.51962 32.10966
#
# Velocity S-wave (km/s) = 3.76364 3.93270 3.84909
# Velocity P-wave (km/s) = 5.53158 5.91849 5.72830
#
# Compressibility (1/GPa) = 0.03939681
#
# Stress axis : x y z
#
# Youngs Moduli (GPa) = 43.78282 81.61793 79.01872
#
# Poissons Ratio (x) = -0.14274 0.15959
# Poissons Ratio (y) = -0.07657 0.30853
# Poissons Ratio (z) = 0.08843 0.31868
#
# Static dielectric constant tensor:
#      x y z
#    x 1.777020 0.000000 0.000000 
#    y 0.000000 1.846620 0.000000 
#    z 0.000000 0.000000 1.766280 
# 
# From -- ./inp_files/1277.got.cif
#   From: 2010.05.17/outbox.cif.g08.bks.cpg/sg18_1_cif.got.tgz:1277.got - 2010.06.03 22:40:56.
