data_PCOD9313137
_publ_section_title
;
Structure prediction by ZEFSAII (Michael W. Deem and Ramdas Pophale) SiO2 
 PCOD9313137
Probable space group: P 21 21 2
;
_chemical_formula_sum "Si O2"
_cell_formula_units_Z 18
_cell_length_a 8.670225
_cell_length_b 4.753697
_cell_length_c 18.684534
_cell_angle_alpha 90.000000
_cell_angle_beta 90.000000
_cell_angle_gamma 90.000000
_cell_volume 770.094701
_symmetry_space_group_name_H-M "P 21 21 2"
_symmetry_group_IT_number 18
_symmetry_cell_setting 'orthorhombic'
loop_
_space_group_symop_operation_xyz
x,y,z
-x,-y,z
1/2+x,1/2-y,-z
1/2-x,1/2+y,-z
loop_
_atom_site_type_symbol
_atom_site_label
_atom_site_fract_x
_atom_site_fract_y
_atom_site_fract_z
Si Si1 0.152654 0.849847 0.233744
Si Si2 0.154542 0.839865 0.975237
Si Si3 0.655152 0.650262 0.189171
Si Si4 0.500000 0.000000 0.642321
Si Si5 0.846549 0.853144 0.480795
O O1 0.281917 0.091643 0.235679
O O2 0.899421 0.296114 0.307593
O O3 0.216926 0.593202 0.188224
O O4 0.000000 0.000000 0.203736
O O5 0.129911 0.754870 0.892406
O O6 0.207899 0.565881 0.017321
O O7 0.000000 0.000000 0.999965
O O8 0.500000 0.500000 0.216079
O O9 0.396609 0.804447 0.591457
O O10 0.773427 0.606960 0.528508
O O11 0.000000 0.000000 0.511254
#
# Coordination Sequence:
#
# PCOD9313137 Si02
#       5
#     4   4   4   2   4
#     4  12  24  44  74 101 136 194 241 294 348 433
#     4  11  24  42  66  99 142 182 236 305 364 429
#     4  11  25  44  69 102 144 189 240 305 370 420
#     4  12  26  48  80 106 154 184 250 296 354 422
#     4  12  25  46  81 109 148 191 236 295 358 422
#
# _framework density 23.373747999999999
#
# number of rings (size 3 to 8) (size 9 to 14) (size 15 to 20)
#    0.000    0.444    4.444    3.333    0.000    8.889 
#    0.000    1.111   14.667    0.000    0.000    0.000 
#    0.000    0.000    0.000    0.000    0.000    0.000 
#
# Total GULP energy -100748.629243 kJ/mol
# GULP energy per Si atom -5597.146069 kJ/mol
# Density = 2.332055 g / cm^3
# Si number density = 23.373748 Si / 1000 Ang^3
#
#
#
# Elastic Constant Matrix: (Units=GPa)
#
#
# Indices 1 2 3 4 5 6 
#
# 1 108.0170 73.1335 46.0025 0.0000 0.0000 0.0000
# 2 73.1335 187.1576 51.4885 0.0000 0.0000 0.0000
# 3 46.0025 51.4885 61.8856 0.0000 0.0000 0.0000
# 4 0.0000 0.0000 0.0000 64.8909 0.0000 0.0000
# 5 0.0000 0.0000 0.0000 0.0000 27.4213 0.0000
# 6 0.0000 0.0000 0.0000 0.0000 0.0000 76.3187
#
#
#
# Elastic Compliance Matrix: (Units=1/GPa)
#
#
# Indices 1 2 3 4 5 6 
#
# 1 0.015290 -0.003693 -0.008293 0.000000 0.000000 0.000000
# 2 -0.003693 0.007821 -0.003762 0.000000 0.000000 0.000000
# 3 -0.008293 -0.003762 0.025453 0.000000 0.000000 0.000000
# 4 0.000000 0.000000 0.000000 0.015410 0.000000 0.000000
# 5 0.000000 0.000000 0.000000 0.000000 0.036468 0.000000
# 6 0.000000 0.000000 0.000000 0.000000 0.000000 0.013103
#
#
# Mechanical properties :
#
#
# Convention : Reuss Voigt Hill
#
# Bulk Modulus (GPa) = 58.58817 77.58992 68.08905
# Shear Modulus (GPa) = 33.17141 46.15523 39.66332
#
# Velocity S-wave (km/s) = 3.77128 4.44854 4.12383
# Velocity P-wave (km/s) = 6.63955 7.72356 7.20198
#
# Compressibility (1/GPa) = 0.01706829
#
# Stress axis : x y z
#
# Youngs Moduli (GPa) = 65.40105 127.85803 39.28753
#
# Poissons Ratio (x) = 0.47222 0.32582
# Poissons Ratio (y) = 0.24155 0.14779
# Poissons Ratio (z) = 0.54238 0.48097
#
# Static dielectric constant tensor:
#      x y z
#    x 1.919590 0.000000 0.000000 
#    y 0.000000 1.888290 0.000000 
#    z 0.000000 0.000000 1.818760 
# 
# From -- ./inp_files/7257.got.cif
#   From: 2010.05.17/outbox.cif.g08.bks.cpg/sg18_4_cif.got.tgz:7257.got - 2010.06.03 22:40:56.
