data_PCOD9313769
_publ_section_title
;
Structure prediction by ZEFSAII (Michael W. Deem and Ramdas Pophale) SiO2 
 PCOD9313769
Probable space group: P 21 21 21
;
_chemical_formula_sum "Si O2"
_cell_formula_units_Z 32
_cell_length_a 14.405352
_cell_length_b 8.726739
_cell_length_c 14.835560
_cell_angle_alpha 90.000000
_cell_angle_beta 90.000000
_cell_angle_gamma 90.000000
_cell_volume 1865.004167
_symmetry_space_group_name_H-M "P 21 21 21"
_symmetry_group_IT_number 19
_symmetry_cell_setting 'orthorhombic'
loop_
_space_group_symop_operation_xyz
x,y,z
1/2-x,-y,1/2+z
1/2+x,1/2-y,-z
-x,1/2+y,1/2-z
loop_
_atom_site_type_symbol
_atom_site_label
_atom_site_fract_x
_atom_site_fract_y
_atom_site_fract_z
Si Si1 0.249999 0.638058 0.423924
Si Si2 0.249999 0.680879 0.755762
Si Si3 0.891471 0.135800 0.589797
Si Si4 0.108530 0.364200 0.410203
Si Si5 0.890557 0.342816 0.411887
Si Si6 0.750000 0.177708 0.281634
Si Si7 0.109444 0.157183 0.588114
Si Si8 0.250001 0.885492 0.580636
O O1 0.339388 0.525178 0.429574
O O2 0.160610 0.525180 0.429574
O O3 0.249999 0.713077 0.324696
O O4 0.250000 0.762147 0.501518
O O5 0.161796 0.697049 0.821991
O O6 0.338200 0.697049 0.821994
O O7 0.250000 0.507536 0.716052
O O8 0.250000 0.799567 0.675662
O O9 0.878008 0.244366 0.503229
O O10 0.001163 0.128688 0.605561
O O11 0.121992 0.255636 0.496773
O O12 0.998837 0.371307 0.394437
O O13 0.838505 0.249405 0.332726
O O14 0.838113 0.502707 0.424363
O O15 0.661493 0.249405 0.332724
O O16 0.161891 0.997296 0.575637
#
# Coordination Sequence:
#
# PCOD9313769 Si02
#       8
#     4   4   4   4   4   4   4   4
#     4  10  21  38  54  77 109 140 174 215 262 309
#     4  10  20  34  55  77 105 142 173 215 262 309
#     4   9  20  38  56  75 106 143 174 209 263 316
#     4   9  20  38  56  75 106 143 174 209 263 316
#     4  10  20  35  56  80 105 137 175 217 260 310
#     4   9  19  36  55  73 104 143 173 211 260 312
#     4  10  20  35  56  80 105 137 175 217 260 310
#     4  11  22  34  54  83 108 133 176 223 258 302
#
# _framework density 17.158138999999998
#
# number of rings (size 3 to 8) (size 9 to 14) (size 15 to 20)
#    0.000    2.500    0.000    4.500    0.000    9.000 
#    0.000    5.000    0.000    0.000    0.000    0.000 
#    0.000    0.000    0.000    0.000    0.000    0.000 
#
# Total GULP energy -178506.488332 kJ/mol
# GULP energy per Si atom -5578.327760 kJ/mol
# Density = 1.711909 g / cm^3
# Si number density = 17.158139 Si / 1000 Ang^3
#
#
#
# Elastic Constant Matrix: (Units=GPa)
#
#
# Indices 1 2 3 4 5 6 
#
# 1 180.3595 81.0282 98.0523 0.0000 0.0000 0.0000
# 2 81.0282 85.9774 94.8207 0.0000 0.0000 0.0000
# 3 98.0523 94.8207 148.8236 0.0000 0.0000 0.0000
# 4 0.0000 0.0000 0.0000 11.3559 0.0000 0.0000
# 5 0.0000 0.0000 0.0000 0.0000 27.6604 0.0000
# 6 0.0000 0.0000 0.0000 0.0000 0.0000 2.0458
#
#
#
# Elastic Compliance Matrix: (Units=1/GPa)
#
#
# Indices 1 2 3 4 5 6 
#
# 1 0.009776 -0.007096 -0.001920 0.000000 0.000000 0.000000
# 2 -0.007096 0.044269 -0.023530 0.000000 0.000000 0.000000
# 3 -0.001920 -0.023530 0.022976 0.000000 0.000000 0.000000
# 4 0.000000 0.000000 0.000000 0.088060 0.000000 0.000000
# 5 0.000000 0.000000 0.000000 0.000000 0.036153 0.000000
# 6 0.000000 0.000000 0.000000 0.000000 0.000000 0.488809
#
#
# Mechanical properties :
#
#
# Convention : Reuss Voigt Hill
#
# Bulk Modulus (GPa) = 83.82815 106.99589 95.41202
# Shear Modulus (GPa) = 6.58665 17.62970 12.10818
#
# Velocity S-wave (km/s) = 1.96141 3.20892 2.65935
# Velocity P-wave (km/s) = 7.35471 8.73061 8.07203
#
# Compressibility (1/GPa) = 0.01192917
#
# Stress axis : x y z
#
# Youngs Moduli (GPa) = 102.28903 22.58932 43.52381
#
# Poissons Ratio (x) = 0.16030 0.08356
# Poissons Ratio (y) = 0.72586 1.02411
# Poissons Ratio (z) = 0.19638 0.53152
#
# Static dielectric constant tensor:
#      x y z
#    x 1.575440 0.000000 0.000000 
#    y 0.000000 1.563840 0.000000 
#    z 0.000000 0.000000 1.568990 
# 
# From -- ./inp_files/6258.got.cif
#   From: 2010.05.17/outbox.cif.g08.bks.cpg/sg19_4_cif.got.tgz:6258.got - 2010.06.03 22:46:19.
