data_PCOD9313179
_publ_section_title
;
Structure prediction by ZEFSAII (Michael W. Deem and Ramdas Pophale) SiO2 
 PCOD9313179
Probable space group: P 21 21 2
;
_chemical_formula_sum "Si O2"
_cell_formula_units_Z 20
_cell_length_a 4.934997
_cell_length_b 8.519989
_cell_length_c 18.182924
_cell_angle_alpha 90.000000
_cell_angle_beta 90.000000
_cell_angle_gamma 90.000000
_cell_volume 764.521407
_symmetry_space_group_name_H-M "P 21 21 2"
_symmetry_group_IT_number 18
_symmetry_cell_setting 'orthorhombic'
loop_
_space_group_symop_operation_xyz
x,y,z
-x,-y,z
1/2+x,1/2-y,-z
1/2-x,1/2+y,-z
loop_
_atom_site_type_symbol
_atom_site_label
_atom_site_fract_x
_atom_site_fract_y
_atom_site_fract_z
Si Si1 0.500000 0.500000 0.474442
Si Si2 0.500000 0.000000 0.673530
Si Si3 0.000000 0.000000 0.025558
Si Si4 0.154590 0.230763 0.899675
Si Si5 0.000000 0.500000 0.826470
Si Si6 0.500000 0.500000 0.725379
Si Si7 0.000000 0.000000 0.774621
Si Si8 0.845410 0.769237 0.399675
O O1 0.654082 0.628873 0.426627
O O2 0.338216 0.609783 0.532736
O O3 0.409408 0.152256 0.625832
O O4 0.246729 0.943571 0.723171
O O5 0.154082 0.871126 0.073373
O O6 0.838216 0.890217 0.967264
O O7 0.909409 0.347744 0.874168
O O8 0.157216 0.119076 0.828856
O O9 0.253271 0.443571 0.776829
O O10 0.342784 0.619076 0.671144
#
# Coordination Sequence:
#
# PCOD9313179 Si02
#       8
#     2   2   2   4   2   2   2   4
#     4  11  25  46  74 116 157 211 262 326 400 473
#     4  12  24  46  74 108 150 200 254 318 384 458
#     4  11  25  46  74 116 157 211 262 326 400 473
#     4  11  25  45  74 109 156 203 260 321 390 470
#     4  12  24  46  74 108 150 200 254 318 384 458
#     4  11  27  46  74 108 147 199 256 318 384 457
#     4  11  27  46  74 108 147 199 256 318 384 457
#     4  11  25  45  74 109 156 203 260 321 390 470
#
# _framework density 26.160156000000001
#
# number of rings (size 3 to 8) (size 9 to 14) (size 15 to 20)
#    0.000    0.800    0.000    6.000    0.000    9.600 
#    0.000    0.000    0.000    0.000    0.000    0.000 
#    0.000    0.000    0.000    0.000    0.000    0.000 
#
# Total GULP energy -111355.281524 kJ/mol
# GULP energy per Si atom -5567.764076 kJ/mol
# Density = 2.610061 g / cm^3
# Si number density = 26.160156 Si / 1000 Ang^3
#
#
#
# Elastic Constant Matrix: (Units=GPa)
#
#
# Indices 1 2 3 4 5 6 
#
# 1 93.6420 46.7746 57.4213 0.0000 0.0000 0.0000
# 2 46.7746 203.3208 92.4819 0.0000 0.0000 0.0000
# 3 57.4213 92.4819 188.7113 0.0000 0.0000 0.0000
# 4 0.0000 0.0000 0.0000 28.7228 0.0000 0.0000
# 5 0.0000 0.0000 0.0000 0.0000 16.4616 0.0000
# 6 0.0000 0.0000 0.0000 0.0000 0.0000 52.5157
#
#
#
# Elastic Compliance Matrix: (Units=1/GPa)
#
#
# Indices 1 2 3 4 5 6 
#
# 1 0.013519 -0.001594 -0.003332 0.000000 0.000000 0.000000
# 2 -0.001594 0.006517 -0.002709 0.000000 0.000000 0.000000
# 3 -0.003332 -0.002709 0.007640 0.000000 0.000000 0.000000
# 4 0.000000 0.000000 0.000000 0.034816 0.000000 0.000000
# 5 0.000000 0.000000 0.000000 0.000000 0.060747 0.000000
# 6 0.000000 0.000000 0.000000 0.000000 0.000000 0.019042
#
#
# Mechanical properties :
#
#
# Convention : Reuss Voigt Hill
#
# Bulk Modulus (GPa) = 80.60719 97.66997 89.13858
# Shear Modulus (GPa) = 30.92395 38.80643 34.86519
#
# Velocity S-wave (km/s) = 3.44190 3.85569 3.65466
# Velocity P-wave (km/s) = 6.83194 7.56560 7.20811
#
# Compressibility (1/GPa) = 0.01240584
#
# Stress axis : x y z
#
# Youngs Moduli (GPa) = 73.97211 153.43946 130.88177
#
# Poissons Ratio (x) = 0.24464 0.43611
# Poissons Ratio (y) = 0.11794 0.35453
# Poissons Ratio (z) = 0.24648 0.41563
#
# Static dielectric constant tensor:
#      x y z
#    x 2.236200 0.000000 0.000000 
#    y 0.000000 2.124040 0.000000 
#    z 0.000000 0.000000 2.176660 
# 
# From -- ./inp_files/7141.got.cif
#   From: 2010.05.17/outbox.cif.g08.bks.cpg/sg18_4_cif.got.tgz:7141.got - 2010.06.03 22:40:56.
