data_PCOD9313051
_publ_section_title
;
Structure prediction by ZEFSAII (Michael W. Deem and Ramdas Pophale) SiO2 
 PCOD9313051
Probable space group: P 21 21 2
;
_chemical_formula_sum "Si O2"
_cell_formula_units_Z 18
_cell_length_a 7.718134
_cell_length_b 13.930544
_cell_length_c 7.668039
_cell_angle_alpha 90.000000
_cell_angle_beta 90.000000
_cell_angle_gamma 90.000000
_cell_volume 824.450724
_symmetry_space_group_name_H-M "P 21 21 2"
_symmetry_group_IT_number 18
_symmetry_cell_setting 'orthorhombic'
loop_
_space_group_symop_operation_xyz
x,y,z
-x,-y,z
1/2+x,1/2-y,-z
1/2-x,1/2+y,-z
loop_
_atom_site_type_symbol
_atom_site_label
_atom_site_fract_x
_atom_site_fract_y
_atom_site_fract_z
Si Si1 0.823017 0.060882 0.363235
Si Si2 0.848444 0.080320 0.977791
Si Si3 0.500000 0.000000 0.811255
Si Si4 0.843774 0.380848 0.482114
Si Si5 0.968008 0.192927 0.650124
O O1 0.840573 0.133400 0.522232
O O2 0.688211 0.977734 0.407840
O O3 0.814019 0.111766 0.176586
O O4 0.000000 0.000000 0.358896
O O5 0.914331 0.161896 0.844676
O O6 0.670946 0.030678 0.914997
O O7 0.000000 0.000000 0.974124
O O8 0.548822 0.910982 0.686981
O O9 0.935505 0.302889 0.603012
O O10 0.659756 0.341004 0.408075
#
# Coordination Sequence:
#
# PCOD9313051 Si02
#       5
#     4   4   2   4   4
#     4   9  21  42  68  93 131 177 218 277 338 389
#     4  11  21  43  67  93 132 174 221 278 331 395
#     4  12  22  40  70  96 130 180 222 264 346 394
#     4  11  23  41  70 100 136 180 223 277 343 399
#     4  11  21  44  65  99 138 172 225 280 331 404
#
# _framework density 21.832718
#
# number of rings (size 3 to 8) (size 9 to 14) (size 15 to 20)
#    0.000    1.333    4.444    2.000    0.000    0.889 
#    4.000    0.000    0.000    0.000    0.000    0.000 
#    0.000    0.000    0.000    0.000    0.000    0.000 
#
# Total GULP energy -100637.913092 kJ/mol
# GULP energy per Si atom -5590.995172 kJ/mol
# Density = 2.178303 g / cm^3
# Si number density = 21.832718 Si / 1000 Ang^3
#
#
#
# Elastic Constant Matrix: (Units=GPa)
#
#
# Indices 1 2 3 4 5 6 
#
# 1 128.4995 8.4132 8.4364 0.0000 0.0000 0.0000
# 2 8.4132 57.4503 8.4480 0.0000 0.0000 0.0000
# 3 8.4364 8.4480 97.6323 0.0000 0.0000 0.0000
# 4 0.0000 0.0000 0.0000 -8.5309 0.0000 0.0000
# 5 0.0000 0.0000 0.0000 0.0000 12.4389 0.0000
# 6 0.0000 0.0000 0.0000 0.0000 0.0000 32.1683
#
#
#
# Elastic Compliance Matrix: (Units=1/GPa)
#
#
# Indices 1 2 3 4 5 6 
#
# 1 0.007891 -0.001069 -0.000589 0.000000 0.000000 0.000000
# 2 -0.001069 0.017775 -0.001446 0.000000 0.000000 0.000000
# 3 -0.000589 -0.001446 0.010419 0.000000 0.000000 0.000000
# 4 0.000000 0.000000 0.000000 -0.117220 0.000000 0.000000
# 5 0.000000 0.000000 0.000000 0.000000 0.080393 0.000000
# 6 0.000000 0.000000 0.000000 0.000000 0.000000 0.031086
#
#
# Mechanical properties :
#
#
# Convention : Reuss Voigt Hill
#
# Bulk Modulus (GPa) = 33.47071 37.13081 35.30076
# Shear Modulus (GPa) = 107.50222 24.43423 65.96822
#
# Velocity S-wave (km/s) = 7.02467 3.34901 5.50281
# Velocity P-wave (km/s) = 9.00880 5.65671 7.52186
#
# Compressibility (1/GPa) = 0.02987686
#
# Stress axis : x y z
#
# Youngs Moduli (GPa) = 126.72974 56.25732 95.98282
#
# Poissons Ratio (x) = 0.06013 0.05657
# Poissons Ratio (y) = 0.13546 0.13876
# Poissons Ratio (z) = 0.07469 0.08133
#
# Static dielectric constant tensor:
#      x y z
#    x 1.847280 0.000000 0.000000 
#    y 0.000000 1.802300 0.000000 
#    z 0.000000 0.000000 1.784050 
# 
# From -- ./inp_files/2905.got.cif
#   From: 2010.05.17/outbox.cif.g08.bks.cpg/sg18_2_cif.got.tgz:2905.got - 2010.06.03 22:40:56.
