data_PCOD9313918
_publ_section_title
;
Structure prediction by ZEFSAII (Michael W. Deem and Ramdas Pophale) SiO2 
 PCOD9313918
Probable space group: P 21 21 21
;
_chemical_formula_sum "Si O2"
_cell_formula_units_Z 32
_cell_length_a 8.963217
_cell_length_b 17.658125
_cell_length_c 11.622880
_cell_angle_alpha 90.000000
_cell_angle_beta 90.000000
_cell_angle_gamma 90.000000
_cell_volume 1839.595132
_symmetry_space_group_name_H-M "P 21 21 21"
_symmetry_group_IT_number 19
_symmetry_cell_setting 'orthorhombic'
loop_
_space_group_symop_operation_xyz
x,y,z
1/2-x,-y,1/2+z
1/2+x,1/2-y,-z
-x,1/2+y,1/2-z
loop_
_atom_site_type_symbol
_atom_site_label
_atom_site_fract_x
_atom_site_fract_y
_atom_site_fract_z
Si Si1 0.522854 0.530248 0.852899
Si Si2 0.728003 0.586372 0.274820
Si Si3 0.502696 0.006689 0.388532
Si Si4 0.085894 0.843934 0.335898
Si Si5 0.019588 0.181301 0.219137
Si Si6 0.263798 0.429436 0.768718
Si Si7 0.968136 0.838761 0.579633
Si Si8 0.579338 0.336134 0.057147
O O1 0.650986 0.467142 0.835553
O O2 0.566692 0.593445 0.761181
O O3 0.360279 0.496753 0.823156
O O4 0.515406 0.546062 0.987731
O O5 0.637058 0.535288 0.186247
O O6 0.610416 0.622124 0.362286
O O7 0.825007 0.655802 0.223981
O O8 0.649750 0.036998 0.323892
O O9 0.497804 0.914998 0.402933
O O10 0.040906 0.765488 0.276184
O O11 0.974294 0.854428 0.443736
O O12 0.249904 0.841120 0.395722
O O13 0.892899 0.127464 0.272151
O O14 0.050393 0.168745 0.080932
O O15 0.172374 0.379512 0.861474
O O16 0.973096 0.747723 0.598524
#
# Coordination Sequence:
#
# PCOD9313918 Si02
#       8
#     4   4   4   4   4   4   4   4
#     4  11  23  38  58  87 122 152 197 236 285 363
#     4  10  20  38  59  82 119 155 188 238 292 350
#     4  11  22  38  58  86 120 156 193 234 296 346
#     4  11  21  35  63  90 114 153 193 245 290 346
#     4  10  20  38  58  88 119 146 195 243 295 334
#     4  10  22  37  55  85 124 152 183 246 290 344
#     4  10  21  35  61  90 114 148 192 246 301 331
#     4  11  19  35  62  90 118 142 195 256 287 334
#
# _framework density 17.395132
#
# number of rings (size 3 to 8) (size 9 to 14) (size 15 to 20)
#    0.000    1.500    6.250    0.000    1.750    1.000 
#    0.000    1.250    0.000    0.000    0.000    0.000 
#    0.000    0.000    0.000    0.000    0.000    0.000 
#
# Total GULP energy -178186.760494 kJ/mol
# GULP energy per Si atom -5568.336265 kJ/mol
# Density = 1.735554 g / cm^3
# Si number density = 17.395132 Si / 1000 Ang^3
#
#
#
# Elastic Constant Matrix: (Units=GPa)
#
#
# Indices 1 2 3 4 5 6 
#
# 1 82.3209 25.7133 25.3453 0.0000 0.0000 0.0000
# 2 25.7133 116.4098 40.8167 0.0000 0.0000 0.0000
# 3 25.3453 40.8167 70.9186 0.0000 0.0000 0.0000
# 4 0.0000 0.0000 0.0000 32.1383 0.0000 0.0000
# 5 0.0000 0.0000 0.0000 0.0000 13.7324 0.0000
# 6 0.0000 0.0000 0.0000 0.0000 0.0000 23.9626
#
#
#
# Elastic Compliance Matrix: (Units=1/GPa)
#
#
# Indices 1 2 3 4 5 6 
#
# 1 0.013902 -0.001665 -0.004010 0.000000 0.000000 0.000000
# 2 -0.001665 0.010962 -0.005714 0.000000 0.000000 0.000000
# 3 -0.004010 -0.005714 0.018823 0.000000 0.000000 0.000000
# 4 0.000000 0.000000 0.000000 0.031116 0.000000 0.000000
# 5 0.000000 0.000000 0.000000 0.000000 0.072821 0.000000
# 6 0.000000 0.000000 0.000000 0.000000 0.000000 0.041732
#
#
# Mechanical properties :
#
#
# Convention : Reuss Voigt Hill
#
# Bulk Modulus (GPa) = 47.82764 50.37777 49.10270
# Shear Modulus (GPa) = 22.82048 25.81825 24.31936
#
# Velocity S-wave (km/s) = 3.62593 3.85674 3.74311
# Velocity P-wave (km/s) = 6.71449 6.98973 6.85349
#
# Compressibility (1/GPa) = 0.02090841
#
# Stress axis : x y z
#
# Youngs Moduli (GPa) = 71.93057 91.22838 53.12785
#
# Poissons Ratio (x) = 0.15186 0.21306
# Poissons Ratio (y) = 0.11974 0.30357
# Poissons Ratio (z) = 0.28847 0.52127
#
# Static dielectric constant tensor:
#      x y z
#    x 1.615100 0.000000 0.000000 
#    y 0.000000 1.624120 0.000000 
#    z 0.000000 0.000000 1.571900 
# 
# From -- ./inp_files/4243.got.cif
#   From: 2010.05.17/outbox.cif.g08.bks.cpg/sg19_3_cif.got.tgz:4243.got - 2010.06.03 22:46:19.
