data_PCOD9313722
_publ_section_title
;
Structure prediction by ZEFSAII (Michael W. Deem and Ramdas Pophale) SiO2 
 PCOD9313722
Probable space group: P 21 21 21
;
_chemical_formula_sum "Si O2"
_cell_formula_units_Z 32
_cell_length_a 11.352976
_cell_length_b 19.575441
_cell_length_c 6.066138
_cell_angle_alpha 90.000000
_cell_angle_beta 90.000000
_cell_angle_gamma 90.000000
_cell_volume 1348.135548
_symmetry_space_group_name_H-M "P 21 21 21"
_symmetry_group_IT_number 19
_symmetry_cell_setting 'orthorhombic'
loop_
_space_group_symop_operation_xyz
x,y,z
1/2-x,-y,1/2+z
1/2+x,1/2-y,-z
-x,1/2+y,1/2-z
loop_
_atom_site_type_symbol
_atom_site_label
_atom_site_fract_x
_atom_site_fract_y
_atom_site_fract_z
Si Si1 0.033635 0.932748 0.476428
Si Si2 0.385899 0.508372 0.884203
Si Si3 0.636053 0.433700 0.465288
Si Si4 0.285349 0.168839 0.827747
Si Si5 0.199273 0.410499 0.730425
Si Si6 0.367626 0.295812 0.585912
Si Si7 0.070608 0.618462 0.702142
Si Si8 0.100104 0.171986 0.171546
O O1 0.094648 0.861861 0.422697
O O2 0.911149 0.917935 0.605072
O O3 0.131029 0.984969 0.576515
O O4 0.999415 0.976299 0.259558
O O5 0.355955 0.581133 0.989420
O O6 0.396208 0.448827 0.065036
O O7 0.282609 0.477114 0.739471
O O8 0.717996 0.394547 0.289449
O O9 0.502355 0.413912 0.402422
O O10 0.649994 0.394756 0.698640
O O11 0.311186 0.223092 0.636588
O O12 0.210485 0.200277 0.031295
O O13 0.288913 0.347486 0.738013
O O14 0.354855 0.325899 0.338387
O O15 0.506819 0.292697 0.658517
O O16 0.987655 0.656160 0.530022
#
# Coordination Sequence:
#
# PCOD9313722 Si02
#       8
#     4   4   4   4   4   4   4   4
#     4  12  26  42  71 107 140 182 249 300 367 432
#     4  12  21  41  69 106 136 174 230 298 363 411
#     4  10  22  44  67  98 136 180 235 300 359 422
#     4  11  29  45  68 105 144 195 240 299 358 445
#     4  12  24  40  71 107 142 178 233 304 362 434
#     4  11  25  45  69 108 144 194 239 295 371 444
#     4  10  19  41  71  98 135 181 231 291 358 433
#     4  10  22  46  74  93 139 194 231 289 364 435
#
# _framework density 23.736484000000001
#
# number of rings (size 3 to 8) (size 9 to 14) (size 15 to 20)
#    0.000    1.000    5.000    1.500    3.500    2.000 
#    6.750    0.000    0.000    0.000    0.000    0.000 
#    0.000    0.000    0.000    0.000    0.000    0.000 
#
# Total GULP energy -178213.107215 kJ/mol
# GULP energy per Si atom -5569.159600 kJ/mol
# Density = 2.368246 g / cm^3
# Si number density = 23.736484 Si / 1000 Ang^3
#
#
#
# Elastic Constant Matrix: (Units=GPa)
#
#
# Indices 1 2 3 4 5 6 
#
# 1 82.8470 25.9693 10.5239 0.0000 0.0000 0.0000
# 2 25.9693 49.9602 -2.3975 0.0000 0.0000 0.0000
# 3 10.5239 -2.3975 49.3900 0.0000 0.0000 0.0000
# 4 0.0000 0.0000 0.0000 17.5902 0.0000 0.0000
# 5 0.0000 0.0000 0.0000 0.0000 23.4980 0.0000
# 6 0.0000 0.0000 0.0000 0.0000 0.0000 16.5702
#
#
#
# Elastic Compliance Matrix: (Units=1/GPa)
#
#
# Indices 1 2 3 4 5 6 
#
# 1 0.015029 -0.007985 -0.003590 0.000000 0.000000 0.000000
# 2 -0.007985 0.024305 0.002881 0.000000 0.000000 0.000000
# 3 -0.003590 0.002881 0.021152 0.000000 0.000000 0.000000
# 4 0.000000 0.000000 0.000000 0.056850 0.000000 0.000000
# 5 0.000000 0.000000 0.000000 0.000000 0.042557 0.000000
# 6 0.000000 0.000000 0.000000 0.000000 0.000000 0.060349
#
#
# Mechanical properties :
#
#
# Convention : Reuss Voigt Hill
#
# Bulk Modulus (GPa) = 23.20246 27.82096 25.51171
# Shear Modulus (GPa) = 19.84168 21.40510 20.62339
#
# Velocity S-wave (km/s) = 2.89436 3.00622 2.95082
# Velocity P-wave (km/s) = 4.57886 4.87812 4.73086
#
# Compressibility (1/GPa) = 0.04309888
#
# Stress axis : x y z
#
# Youngs Moduli (GPa) = 66.53665 41.14453 47.27726
#
# Poissons Ratio (x) = 0.32852 0.16972
# Poissons Ratio (y) = 0.53126 -0.13621
# Poissons Ratio (z) = 0.23887 -0.11854
#
# Static dielectric constant tensor:
#      x y z
#    x 1.984090 0.000000 0.000000 
#    y 0.000000 2.019660 0.000000 
#    z 0.000000 0.000000 2.010460 
# 
# From -- ./inp_files/1167.got.cif
#   From: 2010.05.17/outbox.cif.g08.bks.cpg/sg19_1_cif.got.tgz:1167.got - 2010.06.03 22:46:19.
