data_PCOD9313886
_publ_section_title
;
Structure prediction by ZEFSAII (Michael W. Deem and Ramdas Pophale) SiO2 
 PCOD9313886
Probable space group: P 21 21 21
;
_chemical_formula_sum "Si O2"
_cell_formula_units_Z 32
_cell_length_a 5.446461
_cell_length_b 23.817856
_cell_length_c 8.928098
_cell_angle_alpha 90.000000
_cell_angle_beta 90.000000
_cell_angle_gamma 90.000000
_cell_volume 1158.179869
_symmetry_space_group_name_H-M "P 21 21 21"
_symmetry_group_IT_number 19
_symmetry_cell_setting 'orthorhombic'
loop_
_space_group_symop_operation_xyz
x,y,z
1/2-x,-y,1/2+z
1/2+x,1/2-y,-z
-x,1/2+y,1/2-z
loop_
_atom_site_type_symbol
_atom_site_label
_atom_site_fract_x
_atom_site_fract_y
_atom_site_fract_z
Si Si1 0.431839 0.071766 0.771219
Si Si2 0.399518 0.310894 0.427108
Si Si3 0.599527 0.739070 0.791974
Si Si4 0.925441 0.370750 0.768310
Si Si5 0.658089 0.406191 0.518748
Si Si6 0.694311 0.966488 0.752964
Si Si7 0.967390 0.591267 0.514401
Si Si8 0.376278 0.678094 0.551849
O O1 0.339943 0.069427 0.602265
O O2 0.195524 0.055754 0.870968
O O3 0.476039 0.132266 0.846323
O O4 0.669171 0.032457 0.778001
O O5 0.141771 0.291583 0.362311
O O6 0.392145 0.293858 0.602885
O O7 0.440672 0.376872 0.426316
O O8 0.633812 0.286931 0.333939
O O9 0.502376 0.734926 0.618745
O O10 0.072643 0.427072 0.723587
O O11 0.805595 0.357021 0.609607
O O12 0.077119 0.327565 0.872093
O O13 0.714112 0.386438 0.884671
O O14 0.522293 0.444534 0.637963
O O15 0.641050 0.950175 0.580273
O O16 0.110270 0.647575 0.568964
#
# Coordination Sequence:
#
# PCOD9313886 Si02
#       8
#     4   4   4   4   4   4   4   4
#     4  11  21  34  59  89 118 158 217 258 319 382
#     4  10  22  39  66 101 130 162 208 274 324 385
#     4  10  21  40  66  99 130 160 213 268 329 384
#     4   9  22  38  55  79 123 162 206 253 315 374
#     4  11  22  37  61  90 127 164 208 268 327 378
#     4  10  22  37  55  84 123 170 200 264 315 389
#     4   9  20  38  54  78 113 158 209 255 309 372
#     4  10  20  37  62  84 118 166 207 260 318 386
#
# _framework density 27.629556999999998
#
# number of rings (size 3 to 8) (size 9 to 14) (size 15 to 20)
#    0.000    2.000    1.250    1.500    3.500    6.000 
#    0.000    0.000    8.250    0.000    0.000    0.000 
#    0.000    0.000    0.000    0.000    0.000    0.000 
#
# Total GULP energy -178604.830157 kJ/mol
# GULP energy per Si atom -5581.400942 kJ/mol
# Density = 2.756667 g / cm^3
# Si number density = 27.629557 Si / 1000 Ang^3
#
#
#
# Elastic Constant Matrix: (Units=GPa)
#
#
# Indices 1 2 3 4 5 6 
#
# 1 96.2671 -1.8154 26.9645 0.0000 0.0000 0.0000
# 2 -1.8154 42.3674 -2.1769 0.0000 0.0000 0.0000
# 3 26.9645 -2.1769 118.7245 0.0000 0.0000 0.0000
# 4 0.0000 0.0000 0.0000 10.9940 0.0000 0.0000
# 5 0.0000 0.0000 0.0000 0.0000 60.1574 0.0000
# 6 0.0000 0.0000 0.0000 0.0000 0.0000 35.6201
#
#
#
# Elastic Compliance Matrix: (Units=1/GPa)
#
#
# Indices 1 2 3 4 5 6 
#
# 1 0.011099 0.000346 -0.002514 0.000000 0.000000 0.000000
# 2 0.000346 0.023636 0.000355 0.000000 0.000000 0.000000
# 3 -0.002514 0.000355 0.009000 0.000000 0.000000 0.000000
# 4 0.000000 0.000000 0.000000 0.090958 0.000000 0.000000
# 5 0.000000 0.000000 0.000000 0.000000 0.016623 0.000000
# 6 0.000000 0.000000 0.000000 0.000000 0.000000 0.028074
#
#
# Mechanical properties :
#
#
# Convention : Reuss Voigt Hill
#
# Bulk Modulus (GPa) = 24.93231 33.70039 29.31635
# Shear Modulus (GPa) = 25.45999 36.98010 31.22005
#
# Velocity S-wave (km/s) = 3.03888 3.66242 3.36512
# Velocity P-wave (km/s) = 4.62130 5.48709 5.07270
#
# Compressibility (1/GPa) = 0.04010860
#
# Stress axis : x y z
#
# Youngs Moduli (GPa) = 90.10173 42.30813 111.10596
#
# Poissons Ratio (x) = -0.01465 0.27936
# Poissons Ratio (y) = -0.03121 -0.03941
# Poissons Ratio (z) = 0.22655 -0.01501
#
# Static dielectric constant tensor:
#      x y z
#    x 2.219920 0.000000 0.000000 
#    y 0.000000 2.207850 0.000000 
#    z 0.000000 0.000000 2.205670 
# 
# From -- ./inp_files/711.got.cif
#   From: 2010.05.17/outbox.cif.g08.bks.cpg/sg19_1_cif.got.tgz:711.got - 2010.06.03 22:46:19.
