data_PCOD9313108
_publ_section_title
;
Structure prediction by ZEFSAII (Michael W. Deem and Ramdas Pophale) SiO2 
 PCOD9313108
Probable space group: P 21 21 2
;
_chemical_formula_sum "Si O2"
_cell_formula_units_Z 18
_cell_length_a 11.547732
_cell_length_b 7.857200
_cell_length_c 8.336116
_cell_angle_alpha 90.000000
_cell_angle_beta 90.000000
_cell_angle_gamma 90.000000
_cell_volume 756.359478
_symmetry_space_group_name_H-M "P 21 21 2"
_symmetry_group_IT_number 18
_symmetry_cell_setting 'orthorhombic'
loop_
_space_group_symop_operation_xyz
x,y,z
-x,-y,z
1/2+x,1/2-y,-z
1/2-x,1/2+y,-z
loop_
_atom_site_type_symbol
_atom_site_label
_atom_site_fract_x
_atom_site_fract_y
_atom_site_fract_z
Si Si1 0.368638 0.731876 0.697242
Si Si2 0.131362 0.768124 0.197242
Si Si3 0.315094 0.071017 0.496105
Si Si4 0.000000 0.500000 0.750000
Si Si5 0.684906 0.071017 0.003895
O O1 0.500000 0.702704 0.750000
O O2 0.305304 0.583618 0.599145
O O3 0.354840 0.896644 0.580563
O O4 0.307779 0.794055 0.860319
O O5 0.192221 0.705944 0.360319
O O6 0.194697 0.916382 0.099145
O O7 0.145160 0.603356 0.080564
O O8 0.414536 0.107838 0.364097
O O9 0.085463 0.392161 0.864098
#
# Coordination Sequence:
#
# PCOD9313108 Si02
#       5
#     4   4   4   2   4
#     4  11  23  46  71 108 143 192 244 307 360 449
#     4  11  23  46  71 108 143 192 244 307 360 449
#     4  11  23  42  74 100 147 190 245 298 376 425
#     4  12  20  42  70 102 136 210 224 296 380 426
#     4  11  23  42  74 100 147 190 245 298 376 425
#
# _framework density 23.798209
#
# number of rings (size 3 to 8) (size 9 to 14) (size 15 to 20)
#    0.000    0.889    4.444    4.000    0.000    0.000 
#    0.000   12.222    0.000    0.000    0.000    0.000 
#    0.000    0.000    0.000    0.000    0.000    0.000 
#
# Total GULP energy -100630.992849 kJ/mol
# GULP energy per Si atom -5590.610714 kJ/mol
# Density = 2.374404 g / cm^3
# Si number density = 23.798209 Si / 1000 Ang^3
#
#
#
# Elastic Constant Matrix: (Units=GPa)
#
#
# Indices 1 2 3 4 5 6 
#
# 1 187.8361 35.1309 89.7913 0.0000 0.0000 0.0000
# 2 35.1309 112.5381 35.8145 0.0000 0.0000 0.0000
# 3 89.7913 35.8145 174.2682 0.0000 0.0000 0.0000
# 4 0.0000 0.0000 0.0000 45.2019 0.0000 0.0000
# 5 0.0000 0.0000 0.0000 0.0000 64.0499 0.0000
# 6 0.0000 0.0000 0.0000 0.0000 0.0000 29.6225
#
#
#
# Elastic Compliance Matrix: (Units=1/GPa)
#
#
# Indices 1 2 3 4 5 6 
#
# 1 0.007198 -0.001141 -0.003474 0.000000 0.000000 0.000000
# 2 -0.001141 0.009689 -0.001403 0.000000 0.000000 0.000000
# 3 -0.003474 -0.001403 0.007817 0.000000 0.000000 0.000000
# 4 0.000000 0.000000 0.000000 0.022123 0.000000 0.000000
# 5 0.000000 0.000000 0.000000 0.000000 0.015613 0.000000
# 6 0.000000 0.000000 0.000000 0.000000 0.000000 0.033758
#
#
# Mechanical properties :
#
#
# Convention : Reuss Voigt Hill
#
# Bulk Modulus (GPa) = 78.95053 88.45729 83.70391
# Shear Modulus (GPa) = 44.46155 48.70190 46.58172
#
# Velocity S-wave (km/s) = 4.32704 4.52868 4.42901
# Velocity P-wave (km/s) = 7.62964 8.03714 7.83604
#
# Compressibility (1/GPa) = 0.01266616
#
# Stress axis : x y z
#
# Youngs Moduli (GPa) = 138.92681 103.21304 127.93105
#
# Poissons Ratio (x) = 0.11780 0.44446
# Poissons Ratio (y) = 0.15857 0.17950
# Poissons Ratio (z) = 0.48266 0.14482
#
# Static dielectric constant tensor:
#      x y z
#    x 1.889650 0.000000 0.000000 
#    y 0.000000 1.983990 0.000000 
#    z 0.000000 0.000000 1.900740 
# 
# From -- ./inp_files/3625.got.cif
#   From: 2010.05.17/outbox.cif.g08.bks.cpg/sg18_2_cif.got.tgz:3625.got - 2010.06.03 22:40:56.
