data_PCOD9313733
_publ_section_title
;
Structure prediction by ZEFSAII (Michael W. Deem and Ramdas Pophale) SiO2 
 PCOD9313733
Probable space group: P 21 21 21
;
_chemical_formula_sum "Si O2"
_cell_formula_units_Z 28
_cell_length_a 9.041114
_cell_length_b 13.255148
_cell_length_c 11.695982
_cell_angle_alpha 90.000000
_cell_angle_beta 90.000000
_cell_angle_gamma 90.000000
_cell_volume 1401.661736
_symmetry_space_group_name_H-M "P 21 21 21"
_symmetry_group_IT_number 19
_symmetry_cell_setting 'orthorhombic'
loop_
_space_group_symop_operation_xyz
x,y,z
1/2-x,-y,1/2+z
1/2+x,1/2-y,-z
-x,1/2+y,1/2-z
loop_
_atom_site_type_symbol
_atom_site_label
_atom_site_fract_x
_atom_site_fract_y
_atom_site_fract_z
Si Si1 0.558703 0.341146 0.076494
Si Si2 0.895179 0.035260 0.615777
Si Si3 0.536958 0.526804 0.922636
Si Si4 0.169311 0.505710 0.217098
Si Si5 0.216636 0.343479 0.536188
Si Si6 0.180645 0.135442 0.664541
Si Si7 0.797096 0.850599 0.454838
O O1 0.623665 0.342832 0.206009
O O2 0.378504 0.335382 0.067464
O O3 0.600302 0.442614 0.007578
O O4 0.628908 0.247422 0.008015
O O5 0.816493 0.139831 0.576893
O O6 0.067106 0.053649 0.613042
O O7 0.837492 0.008824 0.740659
O O8 0.832242 0.943579 0.540679
O O9 0.434501 0.475901 0.824937
O O10 0.658218 0.588915 0.852815
O O11 0.432714 0.598423 0.000041
O O12 0.182873 0.597135 0.129392
O O13 0.130772 0.398578 0.159221
O O14 0.179671 0.235993 0.587658
#
# Coordination Sequence:
#
# PCOD9313733 Si02
#       7
#     4   4   4   4   4   4   4
#     4  12  26  44  65 101 133 172 225 278 325 410
#     4  10  20  42  65  89 132 177 213 274 334 390
#     4  11  25  43  66 101 139 169 231 277 326 404
#     4  10  19  43  67  86 131 184 204 267 342 384
#     4  10  21  42  68  92 132 180 220 267 336 398
#     4  12  25  40  70 100 133 172 228 276 334 391
#     4  11  24  42  69  93 134 172 223 269 341 389
#
# _framework density 19.976288
#
# number of rings (size 3 to 8) (size 9 to 14) (size 15 to 20)
#    0.000    1.143    5.714    1.714    4.000    1.143 
#    0.000    1.429    0.000    0.000    0.000    0.000 
#    0.000    0.000    0.000    0.000    0.000    0.000 
#
# Total GULP energy -156006.977398 kJ/mol
# GULP energy per Si atom -5571.677764 kJ/mol
# Density = 1.993082 g / cm^3
# Si number density = 19.976288 Si / 1000 Ang^3
#
#
#
# Elastic Constant Matrix: (Units=GPa)
#
#
# Indices 1 2 3 4 5 6 
#
# 1 66.3136 17.9502 6.4276 0.0000 0.0000 0.0000
# 2 17.9502 33.2111 -10.7900 0.0000 0.0000 0.0000
# 3 6.4276 -10.7900 37.0004 0.0000 0.0000 0.0000
# 4 0.0000 0.0000 0.0000 28.8077 0.0000 0.0000
# 5 0.0000 0.0000 0.0000 0.0000 31.6069 0.0000
# 6 0.0000 0.0000 0.0000 0.0000 0.0000 27.2515
#
#
#
# Elastic Compliance Matrix: (Units=1/GPa)
#
#
# Indices 1 2 3 4 5 6 
#
# 1 0.019185 -0.012651 -0.007022 0.000000 0.000000 0.000000
# 2 -0.012651 0.041604 0.014330 0.000000 0.000000 0.000000
# 3 -0.007022 0.014330 0.032425 0.000000 0.000000 0.000000
# 4 0.000000 0.000000 0.000000 0.034713 0.000000 0.000000
# 5 0.000000 0.000000 0.000000 0.000000 0.031639 0.000000
# 6 0.000000 0.000000 0.000000 0.000000 0.000000 0.036695
#
#
# Mechanical properties :
#
#
# Convention : Reuss Voigt Hill
#
# Bulk Modulus (GPa) = 12.11693 18.18897 15.15295
# Shear Modulus (GPa) = 21.32603 25.72905 23.52754
#
# Velocity S-wave (km/s) = 3.27091 3.59274 3.43559
# Velocity P-wave (km/s) = 4.51043 5.13180 4.83112
#
# Compressibility (1/GPa) = 0.08252915
#
# Stress axis : x y z
#
# Youngs Moduli (GPa) = 52.12449 24.03633 30.83996
#
# Poissons Ratio (x) = 0.30407 0.21655
# Poissons Ratio (y) = 0.65940 -0.44194
# Poissons Ratio (z) = 0.36601 -0.34444
#
# Static dielectric constant tensor:
#      x y z
#    x 1.711560 0.000000 0.000000 
#    y 0.000000 1.698970 0.000000 
#    z 0.000000 0.000000 1.778640 
# 
# From -- ./inp_files/4581.got.cif
#   From: 2010.05.17/outbox.cif.g08.bks.cpg/sg19_3_cif.got.tgz:4581.got - 2010.06.03 22:46:19.
