data_PCOD9313421
_publ_section_title
;
Structure prediction by ZEFSAII (Michael W. Deem and Ramdas Pophale) SiO2 
 PCOD9313421
Probable space group: P 21 21 21
;
_chemical_formula_sum "Si O2"
_cell_formula_units_Z 28
_cell_length_a 20.249194
_cell_length_b 7.587826
_cell_length_c 6.721750
_cell_angle_alpha 90.000000
_cell_angle_beta 90.000000
_cell_angle_gamma 90.000000
_cell_volume 1032.779147
_symmetry_space_group_name_H-M "P 21 21 21"
_symmetry_group_IT_number 19
_symmetry_cell_setting 'orthorhombic'
loop_
_space_group_symop_operation_xyz
x,y,z
1/2-x,-y,1/2+z
1/2+x,1/2-y,-z
-x,1/2+y,1/2-z
loop_
_atom_site_type_symbol
_atom_site_label
_atom_site_fract_x
_atom_site_fract_y
_atom_site_fract_z
Si Si1 0.596677 0.675329 0.901448
Si Si2 0.730693 0.731464 0.110475
Si Si3 0.223051 0.355467 0.012027
Si Si4 0.000048 0.157612 0.707209
Si Si5 0.515416 0.650425 0.575018
Si Si6 0.651583 0.272991 0.369662
Si Si7 0.895200 0.940658 0.202855
O O1 0.573311 0.563923 0.708843
O O2 0.598873 0.860932 0.779942
O O3 0.666704 0.647631 0.006136
O O4 0.483719 0.520986 0.410459
O O5 0.724692 0.753527 0.348938
O O6 0.797647 0.641429 0.029096
O O7 0.735126 0.938976 0.041186
O O8 0.160375 0.360805 0.155200
O O9 0.199874 0.259659 0.814568
O O10 0.080333 0.155081 0.697014
O O11 0.956856 0.298219 0.577707
O O12 0.976845 0.180027 0.934650
O O13 0.460181 0.668645 0.743187
O O14 0.627818 0.093930 0.480065
#
# Coordination Sequence:
#
# PCOD9313421 Si02
#       7
#     4   4   4   4   4   4   4
#     4  10  23  40  62  96 135 175 228 280 344 414
#     4  10  21  34  60  96 130 175 214 284 341 408
#     4  10  18  33  57  95 134 163 212 276 349 399
#     4  11  25  40  67  98 135 184 228 287 346 408
#     4  11  23  41  64  97 138 180 232 278 348 407
#     4  11  20  37  62  95 132 171 227 281 341 402
#     4   9  20  35  60  95 126 170 213 280 333 402
#
# _framework density 27.111315000000001
#
# number of rings (size 3 to 8) (size 9 to 14) (size 15 to 20)
#    0.000    1.714    4.286    0.000    2.000    1.143 
#    0.000    0.000    3.143    0.000    0.000    0.000 
#    0.000    0.000    0.000    0.000    0.000    0.000 
#
# Total GULP energy -156329.791864 kJ/mol
# GULP energy per Si atom -5583.206852 kJ/mol
# Density = 2.704961 g / cm^3
# Si number density = 27.111315 Si / 1000 Ang^3
#
#
#
# Elastic Constant Matrix: (Units=GPa)
#
#
# Indices 1 2 3 4 5 6 
#
# 1 132.3277 13.5706 63.2661 0.0000 0.0000 0.0000
# 2 13.5706 54.2542 15.8377 0.0000 0.0000 0.0000
# 3 63.2661 15.8377 157.8998 0.0000 0.0000 0.0000
# 4 0.0000 0.0000 0.0000 20.1230 0.0000 0.0000
# 5 0.0000 0.0000 0.0000 0.0000 61.4179 0.0000
# 6 0.0000 0.0000 0.0000 0.0000 0.0000 22.9348
#
#
#
# Elastic Compliance Matrix: (Units=1/GPa)
#
#
# Indices 1 2 3 4 5 6 
#
# 1 0.009435 -0.001294 -0.003651 0.000000 0.000000 0.000000
# 2 -0.001294 0.019165 -0.001404 0.000000 0.000000 0.000000
# 3 -0.003651 -0.001404 0.007937 0.000000 0.000000 0.000000
# 4 0.000000 0.000000 0.000000 0.049694 0.000000 0.000000
# 5 0.000000 0.000000 0.000000 0.000000 0.016282 0.000000
# 6 0.000000 0.000000 0.000000 0.000000 0.000000 0.043602
#
#
# Mechanical properties :
#
#
# Convention : Reuss Voigt Hill
#
# Bulk Modulus (GPa) = 41.94677 58.87005 50.40841
# Shear Modulus (GPa) = 29.98342 37.68228 33.83285
#
# Velocity S-wave (km/s) = 3.32917 3.73219 3.53643
# Velocity P-wave (km/s) = 5.50304 6.35088 5.94210
#
# Compressibility (1/GPa) = 0.02383974
#
# Stress axis : x y z
#
# Youngs Moduli (GPa) = 105.98758 52.17772 125.99855
#
# Poissons Ratio (x) = 0.06754 0.45996
# Poissons Ratio (y) = 0.13718 0.17687
# Poissons Ratio (z) = 0.38691 0.07324
#
# Static dielectric constant tensor:
#      x y z
#    x 2.174190 0.000000 0.000000 
#    y 0.000000 2.285820 0.000000 
#    z 0.000000 0.000000 2.120680 
# 
# From -- ./inp_files/2197.got.cif
#   From: 2010.05.17/outbox.cif.g08.bks.cpg/sg19_2_cif.got.tgz:2197.got - 2010.06.03 22:46:19.
