data_PCOD9313832
_publ_section_title
;
Structure prediction by ZEFSAII (Michael W. Deem and Ramdas Pophale) SiO2 
 PCOD9313832
Probable space group: P 21 21 21
;
_chemical_formula_sum "Si O2"
_cell_formula_units_Z 28
_cell_length_a 22.012875
_cell_length_b 5.241295
_cell_length_c 10.297982
_cell_angle_alpha 90.000000
_cell_angle_beta 90.000000
_cell_angle_gamma 90.000000
_cell_volume 1188.139680
_symmetry_space_group_name_H-M "P 21 21 21"
_symmetry_group_IT_number 19
_symmetry_cell_setting 'orthorhombic'
loop_
_space_group_symop_operation_xyz
x,y,z
1/2-x,-y,1/2+z
1/2+x,1/2-y,-z
-x,1/2+y,1/2-z
loop_
_atom_site_type_symbol
_atom_site_label
_atom_site_fract_x
_atom_site_fract_y
_atom_site_fract_z
Si Si1 0.509648 0.524787 0.959436
Si Si2 0.211975 0.387662 0.110920
Si Si3 0.034748 0.266458 0.791259
Si Si4 0.894638 0.645067 0.934975
Si Si5 0.134637 0.900934 0.122062
Si Si6 0.412113 0.248415 0.869992
Si Si7 0.200737 0.403606 0.402464
O O1 0.570034 0.683089 0.936490
O O2 0.478295 0.362724 0.844512
O O3 0.533929 0.315690 0.061002
O O4 0.451926 0.687222 0.009788
O O5 0.180513 0.666666 0.109116
O O6 0.231814 0.336216 0.263271
O O7 0.166478 0.157948 0.076132
O O8 0.261199 0.410820 0.996241
O O9 0.097540 0.203257 0.716737
O O10 0.012288 0.554555 0.769434
O O11 0.909879 0.362721 0.984768
O O12 0.828816 0.701892 0.996158
O O13 0.111758 0.959627 0.269349
O O14 0.360668 0.458108 0.857008
#
# Coordination Sequence:
#
# PCOD9313832 Si02
#       7
#     4   4   4   4   4   4   4
#     4  10  23  37  63  97 133 171 209 265 322 393
#     4  11  26  46  66  94 132 168 224 276 321 392
#     4  10  20  36  56  89 129 163 202 250 306 381
#     4  10  20  39  63  92 127 171 210 261 323 389
#     4  11  26  41  65  99 131 166 217 271 327 387
#     4  10  21  40  66  91 130 169 212 261 324 390
#     4  10  24  45  67  94 124 174 220 272 327 378
#
# _framework density 23.566254000000001
#
# number of rings (size 3 to 8) (size 9 to 14) (size 15 to 20)
#    0.000    1.714    2.857    0.000    6.000    1.143 
#    2.571    0.000    0.000    0.000    0.000    0.000 
#    0.000    0.000    0.000    0.000    0.000    0.000 
#
# Total GULP energy -155885.638088 kJ/mol
# GULP energy per Si atom -5567.344217 kJ/mol
# Density = 2.351262 g / cm^3
# Si number density = 23.566254 Si / 1000 Ang^3
#
#
#
# Elastic Constant Matrix: (Units=GPa)
#
#
# Indices 1 2 3 4 5 6 
#
# 1 37.3202 -2.4585 14.4426 0.0000 0.0000 0.0000
# 2 -2.4585 71.0492 -7.9557 0.0000 0.0000 0.0000
# 3 14.4426 -7.9557 24.4915 0.0000 0.0000 0.0000
# 4 0.0000 0.0000 0.0000 20.1455 0.0000 0.0000
# 5 0.0000 0.0000 0.0000 0.0000 26.9074 0.0000
# 6 0.0000 0.0000 0.0000 0.0000 0.0000 22.7746
#
#
#
# Elastic Compliance Matrix: (Units=1/GPa)
#
#
# Indices 1 2 3 4 5 6 
#
# 1 0.034806 -0.001135 -0.020894 0.000000 0.000000 0.000000
# 2 -0.001135 0.014643 0.005426 0.000000 0.000000 0.000000
# 3 -0.020894 0.005426 0.054914 0.000000 0.000000 0.000000
# 4 0.000000 0.000000 0.000000 0.049639 0.000000 0.000000
# 5 0.000000 0.000000 0.000000 0.000000 0.037165 0.000000
# 6 0.000000 0.000000 0.000000 0.000000 0.000000 0.043909
#
#
# Mechanical properties :
#
#
# Convention : Reuss Voigt Hill
#
# Bulk Modulus (GPa) = 14.05340 15.65753 14.85546
# Shear Modulus (GPa) = 17.12324 22.55433 19.83878
#
# Velocity S-wave (km/s) = 2.69848 3.09700 2.90458
# Velocity P-wave (km/s) = 3.96047 4.40987 4.19120
#
# Compressibility (1/GPa) = 0.07115717
#
# Stress axis : x y z
#
# Youngs Moduli (GPa) = 28.73055 68.29176 18.21020
#
# Poissons Ratio (x) = 0.07753 0.38048
# Poissons Ratio (y) = 0.03262 -0.09881
# Poissons Ratio (z) = 0.60030 -0.37055
#
# Static dielectric constant tensor:
#      x y z
#    x 1.924360 0.000000 0.000000 
#    y 0.000000 1.913080 0.000000 
#    z 0.000000 0.000000 2.103810 
# 
# From -- ./inp_files/1133.got.cif
#   From: 2010.05.17/outbox.cif.g08.bks.cpg/sg19_1_cif.got.tgz:1133.got - 2010.06.03 22:46:19.
