data_PCOD9313038
_publ_section_title
;
Structure prediction by ZEFSAII (Michael W. Deem and Ramdas Pophale) SiO2 
 PCOD9313038
Probable space group: P 21 21 2
;
_chemical_formula_sum "Si O2"
_cell_formula_units_Z 24
_cell_length_a 15.558569
_cell_length_b 8.656277
_cell_length_c 6.675486
_cell_angle_alpha 90.000000
_cell_angle_beta 90.000000
_cell_angle_gamma 90.000000
_cell_volume 899.049668
_symmetry_space_group_name_H-M "P 21 21 2"
_symmetry_group_IT_number 18
_symmetry_cell_setting 'orthorhombic'
loop_
_space_group_symop_operation_xyz
x,y,z
-x,-y,z
1/2+x,1/2-y,-z
1/2-x,1/2+y,-z
loop_
_atom_site_type_symbol
_atom_site_label
_atom_site_fract_x
_atom_site_fract_y
_atom_site_fract_z
Si Si1 0.132285 0.867637 0.502428
Si Si2 0.419044 0.084846 0.669268
Si Si3 0.813035 0.396700 0.983374
Si Si4 0.893233 0.632133 0.685792
Si Si5 0.536019 0.652485 0.110891
Si Si6 0.794582 0.822095 0.347406
O O1 0.068495 0.766843 0.365934
O O2 0.083215 0.923486 0.697139
O O3 0.204669 0.745986 0.572628
O O4 0.179490 0.003210 0.391212
O O5 0.500000 0.000000 0.773972
O O6 0.418761 0.016097 0.447077
O O7 0.329380 0.054528 0.786616
O O8 0.833556 0.546888 0.849548
O O9 0.889029 0.267381 0.968964
O O10 0.725422 0.325517 0.893235
O O11 0.858316 0.732412 0.497530
O O12 0.961604 0.732975 0.809189
O O13 0.500000 0.500000 0.996507
#
# Coordination Sequence:
#
# PCOD9313038 Si02
#       6
#     4   4   4   4   4   4
#     4  11  21  40  65  95 129 170 222 263 333 395
#     4  12  23  41  68  93 132 175 217 272 334 398
#     4  11  25  42  65  97 135 170 222 271 334 393
#     4  12  21  41  68  92 128 174 217 263 336 389
#     4  11  21  39  68  93 124 171 220 274 322 383
#     4  11  22  40  67  96 128 176 216 274 326 403
#
# _framework density 26.694853999999999
#
# number of rings (size 3 to 8) (size 9 to 14) (size 15 to 20)
#    0.000    0.667    8.333    1.500    0.000    1.333 
#    0.000    4.167    0.000    0.000    0.000    0.000 
#    0.000    0.000    0.000    0.000    0.000    0.000 
#
# Total GULP energy -133875.023720 kJ/mol
# GULP energy per Si atom -5578.125988 kJ/mol
# Density = 2.663410 g / cm^3
# Si number density = 26.694854 Si / 1000 Ang^3
#
#
#
# Elastic Constant Matrix: (Units=GPa)
#
#
# Indices 1 2 3 4 5 6 
#
# 1 40.4700 28.3756 -17.3455 0.0000 0.0000 0.0000
# 2 28.3756 153.5620 11.8304 0.0000 0.0000 0.0000
# 3 -17.3455 11.8304 66.1100 0.0000 0.0000 0.0000
# 4 0.0000 0.0000 0.0000 29.8675 0.0000 0.0000
# 5 0.0000 0.0000 0.0000 0.0000 20.5771 0.0000
# 6 0.0000 0.0000 0.0000 0.0000 0.0000 45.4982
#
#
#
# Elastic Compliance Matrix: (Units=1/GPa)
#
#
# Indices 1 2 3 4 5 6 
#
# 1 0.034042 -0.007076 0.010198 0.000000 0.000000 0.000000
# 2 -0.007076 0.008074 -0.003301 0.000000 0.000000 0.000000
# 3 0.010198 -0.003301 0.018393 0.000000 0.000000 0.000000
# 4 0.000000 0.000000 0.000000 0.033481 0.000000 0.000000
# 5 0.000000 0.000000 0.000000 0.000000 0.048598 0.000000
# 6 0.000000 0.000000 0.000000 0.000000 0.000000 0.021979
#
#
# Mechanical properties :
#
#
# Convention : Reuss Voigt Hill
#
# Bulk Modulus (GPa) = 16.62522 33.98480 25.30501
# Shear Modulus (GPa) = 27.03068 35.00734 31.01901
#
# Velocity S-wave (km/s) = 3.18556 3.62524 3.41249
# Velocity P-wave (km/s) = 4.44655 5.50287 5.00267
#
# Compressibility (1/GPa) = 0.06014957
#
# Stress axis : x y z
#
# Youngs Moduli (GPa) = 29.37559 123.85605 54.36926
#
# Poissons Ratio (x) = 0.87641 -0.55445
# Poissons Ratio (y) = 0.20786 0.17949
# Poissons Ratio (z) = -0.29957 0.40890
#
# Static dielectric constant tensor:
#      x y z
#    x 2.184460 0.000000 0.000000 
#    y 0.000000 2.196920 0.000000 
#    z 0.000000 0.000000 2.164490 
# 
# From -- ./inp_files/4471.got.cif
#   From: 2010.05.17/outbox.cif.g08.bks.cpg/sg18_3_cif.got.tgz:4471.got - 2010.06.03 22:40:56.
