data_PCOD9313765
_publ_section_title
;
Structure prediction by ZEFSAII (Michael W. Deem and Ramdas Pophale) SiO2 
 PCOD9313765
Probable space group: P 21 21 21
;
_chemical_formula_sum "Si O2"
_cell_formula_units_Z 24
_cell_length_a 5.569095
_cell_length_b 24.749906
_cell_length_c 7.113277
_cell_angle_alpha 90.000000
_cell_angle_beta 90.000000
_cell_angle_gamma 90.000000
_cell_volume 980.455532
_symmetry_space_group_name_H-M "P 21 21 21"
_symmetry_group_IT_number 19
_symmetry_cell_setting 'orthorhombic'
loop_
_space_group_symop_operation_xyz
x,y,z
1/2-x,-y,1/2+z
1/2+x,1/2-y,-z
-x,1/2+y,1/2-z
loop_
_atom_site_type_symbol
_atom_site_label
_atom_site_fract_x
_atom_site_fract_y
_atom_site_fract_z
Si Si1 0.130687 0.403304 0.904490
Si Si2 0.885398 0.988988 0.101140
Si Si3 0.352226 0.383452 0.320784
Si Si4 0.759563 0.560641 0.627633
Si Si5 0.220471 0.735036 0.746391
Si Si6 0.778288 0.208822 0.204659
O O1 0.201938 0.463503 0.848643
O O2 0.234972 0.355358 0.780756
O O3 0.245517 0.392134 0.110205
O O4 0.847647 0.404608 0.954132
O O5 0.054779 0.974692 0.276046
O O6 0.759321 0.932015 0.059044
O O7 0.052739 0.017610 0.949263
O O8 0.629992 0.398770 0.282692
O O9 0.290340 0.321680 0.358907
O O10 0.466869 0.768346 0.778195
O O11 0.220593 0.721980 0.521191
O O12 0.966076 0.764165 0.781249
#
# Coordination Sequence:
#
# PCOD9313765 Si02
#       6
#     4   4   4   4   4   4
#     4   9  19  31  49  74 110 143 185 224 277 333
#     4  10  20  34  52  80 114 144 186 228 280 332
#     4   9  19  31  49  74 110 143 185 224 277 333
#     4  10  20  34  56  78 114 148 182 234 280 336
#     4   9  18  28  46  72 106 145 180 219 279 337
#     4   9  18  28  46  72 106 145 180 219 279 337
#
# _framework density 24.478414999999998
#
# number of rings (size 3 to 8) (size 9 to 14) (size 15 to 20)
#    0.000    2.667    0.000    1.000   16.333    0.000 
#    0.000    0.000    0.000    0.000    0.000    0.000 
#   25.000    0.000    0.000    0.000    0.000    0.000 
#
# Total GULP energy -133989.846030 kJ/mol
# GULP energy per Si atom -5582.910251 kJ/mol
# Density = 2.442270 g / cm^3
# Si number density = 24.478415 Si / 1000 Ang^3
#
#
#
# Elastic Constant Matrix: (Units=GPa)
#
#
# Indices 1 2 3 4 5 6 
#
# 1 142.2551 78.7966 13.4467 0.0000 0.0000 0.0000
# 2 78.7966 176.9938 22.2476 0.0000 0.0000 0.0000
# 3 13.4467 22.2476 58.1160 0.0000 0.0000 0.0000
# 4 0.0000 0.0000 0.0000 33.6348 0.0000 0.0000
# 5 0.0000 0.0000 0.0000 0.0000 18.6002 0.0000
# 6 0.0000 0.0000 0.0000 0.0000 0.0000 28.8273
#
#
#
# Elastic Compliance Matrix: (Units=1/GPa)
#
#
# Indices 1 2 3 4 5 6 
#
# 1 0.009350 -0.004087 -0.000599 0.000000 0.000000 0.000000
# 2 -0.004087 0.007722 -0.002010 0.000000 0.000000 0.000000
# 3 -0.000599 -0.002010 0.018115 0.000000 0.000000 0.000000
# 4 0.000000 0.000000 0.000000 0.029731 0.000000 0.000000
# 5 0.000000 0.000000 0.000000 0.000000 0.053763 0.000000
# 6 0.000000 0.000000 0.000000 0.000000 0.000000 0.034689
#
#
# Mechanical properties :
#
#
# Convention : Reuss Voigt Hill
#
# Bulk Modulus (GPa) = 45.88312 67.37185 56.62749
# Shear Modulus (GPa) = 28.73082 33.73739 31.23411
#
# Velocity S-wave (km/s) = 3.42968 3.71651 3.57597
# Velocity P-wave (km/s) = 5.87100 6.78228 6.34302
#
# Compressibility (1/GPa) = 0.02179451
#
# Stress axis : x y z
#
# Youngs Moduli (GPa) = 106.94849 129.49461 55.20243
#
# Poissons Ratio (x) = 0.52930 0.03305
# Poissons Ratio (y) = 0.43715 0.11098
# Poissons Ratio (z) = 0.06403 0.26034
#
# Static dielectric constant tensor:
#      x y z
#    x 2.100430 0.000000 0.000000 
#    y 0.000000 1.941650 0.000000 
#    z 0.000000 0.000000 2.050310 
# 
# From -- ./inp_files/489.got.cif
#   From: 2010.05.17/outbox.cif.g08.bks.cpg/sg19_1_cif.got.tgz:489.got - 2010.06.03 22:46:19.
