data_PCOD9313978
_publ_section_title
;
Structure prediction by ZEFSAII (Michael W. Deem and Ramdas Pophale) SiO2 
 PCOD9313978
Probable space group: P 21 21 21
;
_chemical_formula_sum "Si O2"
_cell_formula_units_Z 28
_cell_length_a 8.254916
_cell_length_b 27.025528
_cell_length_c 4.772981
_cell_angle_alpha 90.000000
_cell_angle_beta 90.000000
_cell_angle_gamma 90.000000
_cell_volume 1064.820862
_symmetry_space_group_name_H-M "P 21 21 21"
_symmetry_group_IT_number 19
_symmetry_cell_setting 'orthorhombic'
loop_
_space_group_symop_operation_xyz
x,y,z
1/2-x,-y,1/2+z
1/2+x,1/2-y,-z
-x,1/2+y,1/2-z
loop_
_atom_site_type_symbol
_atom_site_label
_atom_site_fract_x
_atom_site_fract_y
_atom_site_fract_z
Si Si1 0.851556 0.696073 0.400696
Si Si2 0.504240 0.701910 0.672717
Si Si3 0.325079 0.125205 0.464718
Si Si4 0.062404 0.452094 0.584284
Si Si5 0.030361 0.125918 0.626827
Si Si6 0.413964 0.444927 0.845150
Si Si7 0.264606 0.625151 0.716783
O O1 0.666065 0.705608 0.490804
O O2 0.929984 0.744959 0.276357
O O3 0.946454 0.677221 0.668345
O O4 0.837551 0.652242 0.166462
O O5 0.558348 0.669531 0.942012
O O6 0.364109 0.665735 0.553278
O O7 0.419158 0.082841 0.304388
O O8 0.221253 0.106619 0.726956
O O9 0.224609 0.455779 0.769905
O O10 0.015982 0.505916 0.481068
O O11 0.120662 0.418623 0.319879
O O12 0.003487 0.074072 0.425402
O O13 0.839502 0.145445 0.525630
O O14 0.397304 0.401197 0.079964
#
# Coordination Sequence:
#
# PCOD9313978 Si02
#       7
#     4   4   4   4   4   4   4
#     4  11  22  42  63  95 133 174 219 275 337 407
#     4  10  23  38  64  93 126 171 221 269 335 402
#     4  10  23  43  62  93 132 169 222 283 329 401
#     4  10  21  38  64  95 126 173 228 270 333 395
#     4  10  23  39  60  92 133 170 216 269 330 395
#     4  11  20  39  65  93 129 178 219 274 332 395
#     4  10  20  39  62  93 129 167 221 278 320 401
#
# _framework density 26.295504000000001
#
# number of rings (size 3 to 8) (size 9 to 14) (size 15 to 20)
#    0.000    1.714    1.429    2.571    0.000    3.429 
#    2.571    2.857    0.000    0.000    0.000    0.000 
#    0.000    0.000    0.000    0.000    0.000    0.000 
#
# Total GULP energy -155878.377151 kJ/mol
# GULP energy per Si atom -5567.084898 kJ/mol
# Density = 2.623565 g / cm^3
# Si number density = 26.295504 Si / 1000 Ang^3
#
#
#
# Elastic Constant Matrix: (Units=GPa)
#
#
# Indices 1 2 3 4 5 6 
#
# 1 130.2530 84.7717 22.3554 0.0000 0.0000 0.0000
# 2 84.7717 166.2311 54.7122 0.0000 0.0000 0.0000
# 3 22.3554 54.7122 93.3792 0.0000 0.0000 0.0000
# 4 0.0000 0.0000 0.0000 30.0470 0.0000 0.0000
# 5 0.0000 0.0000 0.0000 0.0000 45.0477 0.0000
# 6 0.0000 0.0000 0.0000 0.0000 0.0000 46.1070
#
#
#
# Elastic Compliance Matrix: (Units=1/GPa)
#
#
# Indices 1 2 3 4 5 6 
#
# 1 0.011545 -0.006167 0.000850 0.000000 0.000000 0.000000
# 2 -0.006167 0.010747 -0.004821 0.000000 0.000000 0.000000
# 3 0.000850 -0.004821 0.013330 0.000000 0.000000 0.000000
# 4 0.000000 0.000000 0.000000 0.033281 0.000000 0.000000
# 5 0.000000 0.000000 0.000000 0.000000 0.022199 0.000000
# 6 0.000000 0.000000 0.000000 0.000000 0.000000 0.021689
#
#
# Mechanical properties :
#
#
# Convention : Reuss Voigt Hill
#
# Bulk Modulus (GPa) = 65.16310 79.28246 72.22278
# Shear Modulus (GPa) = 36.18369 39.44193 37.81281
#
# Velocity S-wave (km/s) = 3.71353 3.87712 3.79620
# Velocity P-wave (km/s) = 6.57434 7.08934 6.83669
#
# Compressibility (1/GPa) = 0.01534611
#
# Stress axis : x y z
#
# Youngs Moduli (GPa) = 86.61449 93.04526 75.01816
#
# Poissons Ratio (x) = 0.57384 -0.06373
# Poissons Ratio (y) = 0.53418 0.36163
# Poissons Ratio (z) = -0.07358 0.44853
#
# Static dielectric constant tensor:
#      x y z
#    x 2.257580 0.000000 0.000000 
#    y 0.000000 2.093370 0.000000 
#    z 0.000000 0.000000 2.345200 
# 
# From -- ./inp_files/638.got.cif
#   From: 2010.05.17/outbox.cif.g08.bks.cpg/sg19_1_cif.got.tgz:638.got - 2010.06.03 22:46:19.
