data_PCOD9313335
_publ_section_title
;
Structure prediction by ZEFSAII (Michael W. Deem and Ramdas Pophale) SiO2 
 PCOD9313335
Probable space group: P 21 21 21
;
_chemical_formula_sum "Si O2"
_cell_formula_units_Z 32
_cell_length_a 5.776188
_cell_length_b 7.661604
_cell_length_c 25.308972
_cell_angle_alpha 90.000000
_cell_angle_beta 90.000000
_cell_angle_gamma 90.000000
_cell_volume 1120.045141
_symmetry_space_group_name_H-M "P 21 21 21"
_symmetry_group_IT_number 19
_symmetry_cell_setting 'orthorhombic'
loop_
_space_group_symop_operation_xyz
x,y,z
1/2-x,-y,1/2+z
1/2+x,1/2-y,-z
-x,1/2+y,1/2-z
loop_
_atom_site_type_symbol
_atom_site_label
_atom_site_fract_x
_atom_site_fract_y
_atom_site_fract_z
Si Si1 0.134237 0.497953 0.009398
Si Si2 0.741819 0.414947 0.181175
Si Si3 0.565336 0.633957 0.886038
Si Si4 0.520876 0.230851 0.083404
Si Si5 0.145937 0.240914 0.153476
Si Si6 0.069902 0.642052 0.857141
Si Si7 0.022310 0.779475 0.753596
Si Si8 0.632176 0.604664 0.012430
O O1 0.118107 0.325883 0.973059
O O2 0.872569 0.519810 0.031784
O O3 0.395244 0.516480 0.032906
O O4 0.129663 0.687285 0.977726
O O5 0.595064 0.567966 0.206517
O O6 0.643189 0.357966 0.124626
O O7 0.722448 0.263729 0.226760
O O8 0.009839 0.414827 0.168923
O O9 0.534869 0.450278 0.854684
O O10 0.809771 0.719408 0.868051
O O11 0.606725 0.595147 0.948340
O O12 0.317445 0.724601 0.874502
O O13 0.250555 0.267044 0.094782
O O14 0.549140 0.042060 0.113207
O O15 0.317043 0.219399 0.202409
O O16 0.076715 0.620266 0.794001
#
# Coordination Sequence:
#
# PCOD9313335 Si02
#       8
#     4   4   4   4   4   4   4   4
#     4  10  18  28  51  85 121 145 184 231 286 346
#     4  11  22  39  56  77 114 149 198 241 291 346
#     4  11  19  37  59  81 115 153 186 233 293 337
#     4  10  19  36  55  81 114 152 186 233 294 337
#     4  10  21  33  56  74 110 151 188 234 286 338
#     4  11  22  37  57  81 113 151 190 238 282 341
#     4  11  26  37  55  84 108 156 200 248 290 341
#     4  10  17  29  51  85 119 147 184 230 290 342
#
# _framework density 28.570274000000001
#
# number of rings (size 3 to 8) (size 9 to 14) (size 15 to 20)
#    0.000    1.500    5.000    2.250    3.500    1.000 
#    0.000    0.000    0.000    0.000    0.000    1.750 
#    0.000    0.000    0.000    0.000    0.000    0.000 
#
# Total GULP energy -178550.866145 kJ/mol
# GULP energy per Si atom -5579.714567 kJ/mol
# Density = 2.850525 g / cm^3
# Si number density = 28.570274 Si / 1000 Ang^3
#
#
#
# Elastic Constant Matrix: (Units=GPa)
#
#
# Indices 1 2 3 4 5 6 
#
# 1 195.1033 19.9568 18.1765 0.0000 0.0000 0.0000
# 2 19.9568 65.4680 -1.0786 0.0000 0.0000 0.0000
# 3 18.1765 -1.0786 115.1406 0.0000 0.0000 0.0000
# 4 0.0000 0.0000 0.0000 48.3318 0.0000 0.0000
# 5 0.0000 0.0000 0.0000 0.0000 22.2502 0.0000
# 6 0.0000 0.0000 0.0000 0.0000 0.0000 17.4850
#
#
#
# Elastic Compliance Matrix: (Units=1/GPa)
#
#
# Indices 1 2 3 4 5 6 
#
# 1 0.005375 -0.001653 -0.000864 0.000000 0.000000 0.000000
# 2 -0.001653 0.015785 0.000409 0.000000 0.000000 0.000000
# 3 -0.000864 0.000409 0.008825 0.000000 0.000000 0.000000
# 4 0.000000 0.000000 0.000000 0.020690 0.000000 0.000000
# 5 0.000000 0.000000 0.000000 0.000000 0.044943 0.000000
# 6 0.000000 0.000000 0.000000 0.000000 0.000000 0.057192
#
#
# Mechanical properties :
#
#
# Convention : Reuss Voigt Hill
#
# Bulk Modulus (GPa) = 38.80547 49.98015 44.39281
# Shear Modulus (GPa) = 30.19015 40.19054 35.19035
#
# Velocity S-wave (km/s) = 3.25422 3.75470 3.51338
# Velocity P-wave (km/s) = 5.26610 6.02734 5.65953
#
# Compressibility (1/GPa) = 0.02576956
#
# Stress axis : x y z
#
# Youngs Moduli (GPa) = 186.04526 63.35061 113.31108
#
# Poissons Ratio (x) = 0.10470 0.09790
# Poissons Ratio (y) = 0.30748 -0.04632
# Poissons Ratio (z) = 0.16074 -0.02590
#
# Static dielectric constant tensor:
#      x y z
#    x 2.464440 0.000000 0.000000 
#    y 0.000000 2.561540 0.000000 
#    z 0.000000 0.000000 2.208760 
# 
# From -- ./inp_files/7553.got.cif
#   From: 2010.05.17/outbox.cif.g08.bks.cpg/sg19_4_cif.got.tgz:7553.got - 2010.06.03 22:46:19.
