data_PCOD9313293
_publ_section_title
;
Structure prediction by ZEFSAII (Michael W. Deem and Ramdas Pophale) SiO2 
 PCOD9313293
Probable space group: P 21 21 2
;
_chemical_formula_sum "Si O2"
_cell_formula_units_Z 26
_cell_length_a 12.000000
_cell_length_b 12.000000
_cell_length_c 9.000000
_cell_angle_alpha 90.000000
_cell_angle_beta 90.000000
_cell_angle_gamma 90.000000
_cell_volume 1296.000000
_symmetry_space_group_name_H-M "P 21 21 2"
_symmetry_group_IT_number 18
_symmetry_cell_setting 'orthorhombic'
loop_
_space_group_symop_operation_xyz
x,y,z
-x,-y,z
1/2+x,1/2-y,-z
1/2-x,1/2+y,-z
loop_
_atom_site_type_symbol
_atom_site_label
_atom_site_fract_x
_atom_site_fract_y
_atom_site_fract_z
Si Si1 0.173083 0.026117 0.708695
Si Si2 0.552831 0.255095 0.920521
Si Si3 0.732370 0.734648 0.282945
Si Si4 0.080873 0.229154 0.526272
Si Si5 0.500000 0.500000 0.023275
Si Si6 0.000247 0.634201 0.777250
Si Si7 0.570162 0.883339 0.674147
O O1 0.193566 0.892996 0.681974
O O2 0.092014 0.107210 0.607380
O O3 0.107903 0.017565 0.867841
O O4 0.298335 0.082449 0.691728
O O5 0.678926 0.245301 0.854565
O O6 0.474778 0.172413 0.824601
O O7 0.505948 0.383284 0.929748
O O8 0.544316 0.200096 0.080832
O O9 0.813863 0.769354 0.417109
O O10 0.624134 0.813381 0.256871
O O11 0.085141 0.324241 0.651076
O O12 0.971919 0.281719 0.437345
O O13 0.000000 0.500000 0.790186
O O14 0.500000 0.000000 0.643436
#
# Coordination Sequence:
#
# PCOD9313293 Si02
#       7
#     4   4   4   4   2   4   4
#     4  12  23  46  77 101 154 197 244 319 377 453
#     4  11  25  47  69 109 147 198 250 308 383 459
#     4  11  26  46  75 105 148 195 252 318 386 447
#     4  11  24  44  70 110 141 196 249 310 382 453
#     4  12  26  44  68 106 152 192 250 318 378 454
#     4  12  26  45  72 107 142 190 257 306 378 469
#     4  11  23  47  76 104 148 198 252 309 385 461
#
# _framework density 20.061727999999999
#
# number of rings (size 3 to 8) (size 9 to 14) (size 15 to 20)
#    0.000    0.615    6.154    1.846    4.308    0.000 
#    2.769    9.231    0.000    0.000    0.000    0.000 
#    0.000    0.000    0.000    0.000    0.000    0.000 
#
# Total GULP energy -144826.504391 kJ/mol
# GULP energy per Si atom -5570.250169 kJ/mol
# Density = 2.001607 g / cm^3
# Si number density = 20.061728 Si / 1000 Ang^3
#
#
#
# Elastic Constant Matrix: (Units=GPa)
#
#
# Indices 1 2 3 4 5 6 
#
# 1 137.3455 46.4734 23.8418 0.0000 0.0000 0.0000
# 2 46.4734 177.1922 17.4463 0.0000 0.0000 0.0000
# 3 23.8418 17.4463 83.1013 0.0000 0.0000 0.0000
# 4 0.0000 0.0000 0.0000 43.2663 0.0000 0.0000
# 5 0.0000 0.0000 0.0000 0.0000 37.1371 0.0000
# 6 0.0000 0.0000 0.0000 0.0000 0.0000 50.5740
#
#
#
# Elastic Compliance Matrix: (Units=1/GPa)
#
#
# Indices 1 2 3 4 5 6 
#
# 1 0.008292 -0.001982 -0.001963 0.000000 0.000000 0.000000
# 2 -0.001982 0.006236 -0.000741 0.000000 0.000000 0.000000
# 3 -0.001963 -0.000741 0.012752 0.000000 0.000000 0.000000
# 4 0.000000 0.000000 0.000000 0.023113 0.000000 0.000000
# 5 0.000000 0.000000 0.000000 0.000000 0.026927 0.000000
# 6 0.000000 0.000000 0.000000 0.000000 0.000000 0.019773
#
#
# Mechanical properties :
#
#
# Convention : Reuss Voigt Hill
#
# Bulk Modulus (GPa) = 55.83473 63.68466 59.75970
# Shear Modulus (GPa) = 44.47048 46.85399 45.66224
#
# Velocity S-wave (km/s) = 4.71327 4.83793 4.77601
# Velocity P-wave (km/s) = 7.58365 7.93856 7.76314
#
# Compressibility (1/GPa) = 0.01791000
#
# Stress axis : x y z
#
# Youngs Moduli (GPa) = 120.59577 160.35305 78.41787
#
# Poissons Ratio (x) = 0.31775 0.15394
# Poissons Ratio (y) = 0.23897 0.05809
# Poissons Ratio (z) = 0.23673 0.11878
#
# Static dielectric constant tensor:
#      x y z
#    x 1.724000 0.000000 0.000000 
#    y 0.000000 1.698560 0.000000 
#    z 0.000000 0.000000 1.837460 
# 
# From -- ./inp_files/3770.got.cif
#   From: 2010.05.17/outbox.ucp.g08.bks.cvg/sg18_2_cif.got.tgz:3770.got - 2010.06.11 13:13:23.
