data_PCOD9313834
_publ_section_title
;
Structure prediction by ZEFSAII (Michael W. Deem and Ramdas Pophale) SiO2 
 PCOD9313834
Probable space group: P 21 21 21
;
_chemical_formula_sum "Si O2"
_cell_formula_units_Z 28
_cell_length_a 6.882329
_cell_length_b 9.271403
_cell_length_c 16.781876
_cell_angle_alpha 90.000000
_cell_angle_beta 90.000000
_cell_angle_gamma 90.000000
_cell_volume 1070.832137
_symmetry_space_group_name_H-M "P 21 21 21"
_symmetry_group_IT_number 19
_symmetry_cell_setting 'orthorhombic'
loop_
_space_group_symop_operation_xyz
x,y,z
1/2-x,-y,1/2+z
1/2+x,1/2-y,-z
-x,1/2+y,1/2-z
loop_
_atom_site_type_symbol
_atom_site_label
_atom_site_fract_x
_atom_site_fract_y
_atom_site_fract_z
Si Si1 0.954656 0.390916 0.178927
Si Si2 0.628498 0.707960 0.912425
Si Si3 0.807641 0.118016 0.255243
Si Si4 0.978260 0.538881 0.508684
Si Si5 0.469181 0.131164 0.998231
Si Si6 0.092136 0.896705 0.828394
Si Si7 0.576352 0.871540 0.079892
O O1 0.888119 0.226524 0.189746
O O2 0.045051 0.396658 0.090853
O O3 0.763108 0.491232 0.189654
O O4 0.106044 0.458345 0.240948
O O5 0.604474 0.805842 0.835326
O O6 0.847030 0.649809 0.900871
O O7 0.490113 0.572073 0.935450
O O8 0.615539 0.802642 0.992742
O O9 0.574506 0.115127 0.262069
O O10 0.745886 0.564672 0.506042
O O11 0.056697 0.699722 0.510894
O O12 0.013945 0.459072 0.592149
O O13 0.590980 0.042895 0.064005
O O14 0.167105 0.739596 0.856585
#
# Coordination Sequence:
#
# PCOD9313834 Si02
#       7
#     4   4   4   4   4   4   4
#     4  11  25  43  62  96 130 169 225 258 311 394
#     4   9  18  34  57  87 116 158 202 251 314 374
#     4  11  24  42  66  87 127 179 210 260 314 381
#     4   9  20  34  60  91 126 154 202 268 327 371
#     4  10  20  36  56  95 127 155 205 267 318 382
#     4   9  22  45  63  89 125 166 216 261 316 387
#     4   9  17  34  62  87 115 155 200 261 322 361
#
# _framework density 26.147887999999998
#
# number of rings (size 3 to 8) (size 9 to 14) (size 15 to 20)
#    0.000    2.286    1.429    0.857    4.000    2.286 
#    0.000    8.571    0.000    0.000    0.000    0.000 
#    0.000    0.000    0.000    0.000    0.000    0.000 
#
# Total GULP energy -156567.632231 kJ/mol
# GULP energy per Si atom -5591.701151 kJ/mol
# Density = 2.608837 g / cm^3
# Si number density = 26.147888 Si / 1000 Ang^3
#
#
#
# Elastic Constant Matrix: (Units=GPa)
#
#
# Indices 1 2 3 4 5 6 
#
# 1 60.8655 20.6325 11.8677 0.0000 0.0000 0.0000
# 2 20.6325 153.4325 28.2960 0.0000 0.0000 0.0000
# 3 11.8677 28.2960 48.5749 0.0000 0.0000 0.0000
# 4 0.0000 0.0000 0.0000 41.3114 0.0000 0.0000
# 5 0.0000 0.0000 0.0000 0.0000 17.7671 0.0000
# 6 0.0000 0.0000 0.0000 0.0000 0.0000 30.3188
#
#
#
# Elastic Compliance Matrix: (Units=1/GPa)
#
#
# Indices 1 2 3 4 5 6 
#
# 1 0.017670 -0.001770 -0.003286 0.000000 0.000000 0.000000
# 2 -0.001770 0.007479 -0.003924 0.000000 0.000000 0.000000
# 3 -0.003286 -0.003924 0.023676 0.000000 0.000000 0.000000
# 4 0.000000 0.000000 0.000000 0.024206 0.000000 0.000000
# 5 0.000000 0.000000 0.000000 0.000000 0.056284 0.000000
# 6 0.000000 0.000000 0.000000 0.000000 0.000000 0.032983
#
#
# Mechanical properties :
#
#
# Convention : Reuss Voigt Hill
#
# Bulk Modulus (GPa) = 32.40000 42.71838 37.55919
# Shear Modulus (GPa) = 26.24015 31.35123 28.79569
#
# Velocity S-wave (km/s) = 3.17129 3.46641 3.32213
# Velocity P-wave (km/s) = 5.08207 5.69157 5.39543
#
# Compressibility (1/GPa) = 0.03086420
#
# Stress axis : x y z
#
# Youngs Moduli (GPa) = 56.59165 133.70240 42.23751
#
# Poissons Ratio (x) = 0.23668 0.13879
# Poissons Ratio (y) = 0.10018 0.16576
# Poissons Ratio (z) = 0.18596 0.52470
#
# Static dielectric constant tensor:
#      x y z
#    x 2.082140 0.000000 0.000000 
#    y 0.000000 2.169320 0.000000 
#    z 0.000000 0.000000 2.038790 
# 
# From -- ./inp_files/3064.got.cif
#   From: 2010.05.17/outbox.cif.g08.bks.cpg/sg19_2_cif.got.tgz:3064.got - 2010.06.03 22:46:19.
