data_PCOD9313905
_publ_section_title
;
Structure prediction by ZEFSAII (Michael W. Deem and Ramdas Pophale) SiO2 
 PCOD9313905
Probable space group: P 21 21 21
;
_chemical_formula_sum "Si O2"
_cell_formula_units_Z 32
_cell_length_a 9.328242
_cell_length_b 10.954975
_cell_length_c 14.524824
_cell_angle_alpha 90.000000
_cell_angle_beta 90.000000
_cell_angle_gamma 90.000000
_cell_volume 1484.301320
_symmetry_space_group_name_H-M "P 21 21 21"
_symmetry_group_IT_number 19
_symmetry_cell_setting 'orthorhombic'
loop_
_space_group_symop_operation_xyz
x,y,z
1/2-x,-y,1/2+z
1/2+x,1/2-y,-z
-x,1/2+y,1/2-z
loop_
_atom_site_type_symbol
_atom_site_label
_atom_site_fract_x
_atom_site_fract_y
_atom_site_fract_z
Si Si1 0.175575 0.711139 0.262559
Si Si2 0.224925 0.009130 0.501043
Si Si3 0.665908 0.992738 0.295285
Si Si4 0.598772 0.736418 0.536124
Si Si5 0.994834 0.141716 0.417274
Si Si6 0.569740 0.365331 0.323539
Si Si7 0.814730 0.909737 0.455389
Si Si8 0.499805 0.153109 0.440974
O O1 0.252580 0.580256 0.275454
O O2 0.102392 0.756273 0.354127
O O3 0.070681 0.687449 0.177210
O O4 0.300859 0.802230 0.231144
O O5 0.146251 0.062030 0.592398
O O6 0.378145 0.067301 0.482672
O O7 0.131775 0.054886 0.413421
O O8 0.210447 0.864908 0.501387
O O9 0.527953 0.940570 0.245413
O O10 0.776484 0.902372 0.346026
O O11 0.611226 0.074356 0.382044
O O12 0.666658 0.863792 0.501659
O O13 0.443529 0.679779 0.511478
O O14 0.044823 0.260091 0.474517
O O15 0.879453 0.048255 0.466101
O O16 0.466519 0.260350 0.366722
#
# Coordination Sequence:
#
# PCOD9313905 Si02
#       8
#     4   4   4   4   4   4   4   4
#     4  10  21  40  62  90 128 170 221 272 324 385
#     4  10  21  38  62  94 130 169 219 266 329 394
#     4  10  23  40  65  97 130 171 223 271 335 390
#     4  11  25  41  67  92 139 173 213 282 329 394
#     4   9  20  41  62  90 131 162 227 274 317 395
#     4  10  21  37  64  95 132 172 218 276 321 395
#     4  10  25  44  63  95 134 176 222 268 336 400
#     4  10  20  37  65  95 122 177 215 267 327 393
#
# _framework density 21.558962999999999
#
# number of rings (size 3 to 8) (size 9 to 14) (size 15 to 20)
#    0.000    2.000    1.250    0.750   10.500    2.000 
#    0.000    7.500    0.000    0.000    0.000    0.000 
#    0.000    0.000    0.000    0.000    0.000    0.000 
#
# Total GULP energy -178190.545459 kJ/mol
# GULP energy per Si atom -5568.454546 kJ/mol
# Density = 2.150989 g / cm^3
# Si number density = 21.558963 Si / 1000 Ang^3
#
#
#
# Elastic Constant Matrix: (Units=GPa)
#
#
# Indices 1 2 3 4 5 6 
#
# 1 34.6233 13.7580 11.5260 0.0000 0.0000 0.0000
# 2 13.7580 54.6391 16.3663 0.0000 0.0000 0.0000
# 3 11.5260 16.3663 25.0466 0.0000 0.0000 0.0000
# 4 0.0000 0.0000 0.0000 25.5275 0.0000 0.0000
# 5 0.0000 0.0000 0.0000 0.0000 25.6397 0.0000
# 6 0.0000 0.0000 0.0000 0.0000 0.0000 36.9940
#
#
#
# Elastic Compliance Matrix: (Units=1/GPa)
#
#
# Indices 1 2 3 4 5 6 
#
# 1 0.035165 -0.004983 -0.012927 0.000000 0.000000 0.000000
# 2 -0.004983 0.023462 -0.013038 0.000000 0.000000 0.000000
# 3 -0.012927 -0.013038 0.054394 0.000000 0.000000 0.000000
# 4 0.000000 0.000000 0.000000 0.039173 0.000000 0.000000
# 5 0.000000 0.000000 0.000000 0.000000 0.039002 0.000000
# 6 0.000000 0.000000 0.000000 0.000000 0.000000 0.027031
#
#
# Mechanical properties :
#
#
# Convention : Reuss Voigt Hill
#
# Bulk Modulus (GPa) = 19.55930 21.95661 20.75796
# Shear Modulus (GPa) = 16.82571 22.47615 19.65093
#
# Velocity S-wave (km/s) = 2.79669 3.23235 3.02238
# Velocity P-wave (km/s) = 4.41823 4.91297 4.67216
#
# Compressibility (1/GPa) = 0.05112657
#
# Stress axis : x y z
#
# Youngs Moduli (GPa) = 28.43703 42.62253 18.38449
#
# Poissons Ratio (x) = 0.21237 0.23765
# Poissons Ratio (y) = 0.14169 0.23969
# Poissons Ratio (z) = 0.36760 0.55570
#
# Static dielectric constant tensor:
#      x y z
#    x 1.811800 0.000000 0.000000 
#    y 0.000000 1.870390 0.000000 
#    z 0.000000 0.000000 1.799430 
# 
# From -- ./inp_files/5251.got.cif
#   From: 2010.05.17/outbox.cif.g08.bks.cpg/sg19_3_cif.got.tgz:5251.got - 2010.06.03 22:46:19.
