data_PCOD9313569
_publ_section_title
;
Structure prediction by ZEFSAII (Michael W. Deem and Ramdas Pophale) SiO2 
 PCOD9313569
Probable space group: P 21 21 21
;
_chemical_formula_sum "Si O2"
_cell_formula_units_Z 32
_cell_length_a 8.638802
_cell_length_b 11.970030
_cell_length_c 11.969495
_cell_angle_alpha 90.000000
_cell_angle_beta 90.000000
_cell_angle_gamma 90.000000
_cell_volume 1237.726207
_symmetry_space_group_name_H-M "P 21 21 21"
_symmetry_group_IT_number 19
_symmetry_cell_setting 'orthorhombic'
loop_
_space_group_symop_operation_xyz
x,y,z
1/2-x,-y,1/2+z
1/2+x,1/2-y,-z
-x,1/2+y,1/2-z
loop_
_atom_site_type_symbol
_atom_site_label
_atom_site_fract_x
_atom_site_fract_y
_atom_site_fract_z
Si Si1 0.450623 0.486458 0.073832
Si Si2 0.251087 0.477231 0.256423
Si Si3 0.063328 0.648672 0.923877
Si Si4 0.048016 0.912176 0.144587
Si Si5 0.711146 0.271358 0.844081
Si Si6 0.159327 0.165303 0.767671
Si Si7 0.631931 0.775836 0.555251
Si Si8 0.654299 0.304127 0.610834
O O1 0.330794 0.546524 0.157727
O O2 0.567033 0.416135 0.149820
O O3 0.547187 0.556246 0.985127
O O4 0.359687 0.399031 0.995701
O O5 0.359069 0.459132 0.364762
O O6 0.073333 0.492471 0.289700
O O7 0.252997 0.351478 0.202853
O O8 0.958950 0.705511 0.826986
O O9 0.207386 0.732327 0.947057
O O10 0.946506 0.623436 0.025221
O O11 0.970434 0.790370 0.146745
O O12 0.210328 0.903186 0.202413
O O13 0.541375 0.262523 0.899207
O O14 0.713424 0.346138 0.731721
O O15 0.824879 0.300086 0.946893
O O16 0.247009 0.253894 0.845963
#
# Coordination Sequence:
#
# PCOD9313569 Si02
#       8
#     4   4   4   4   4   4   4   4
#     4  10  22  38  59  88 119 154 206 246 298 373
#     4   8  18  38  58  81 114 155 194 242 301 349
#     4   9  19  34  59  84 116 155 197 241 292 355
#     4  10  20  39  60  84 119 162 190 250 311 352
#     4   9  18  30  56  85 107 146 193 238 287 338
#     4  11  20  38  64  83 122 160 197 251 308 341
#     4  11  18  34  61  86 113 153 200 246 290 349
#     4  10  19  35  57  89 120 153 199 240 305 355
#
# _framework density 25.853857999999999
#
# number of rings (size 3 to 8) (size 9 to 14) (size 15 to 20)
#    0.000    2.500    3.750    1.500    0.000    0.000 
#    2.250    7.500    0.000    0.000    0.000    0.000 
#    0.000    0.000    0.000    0.000    0.000    0.000 
#
# Total GULP energy -178815.313254 kJ/mol
# GULP energy per Si atom -5587.978539 kJ/mol
# Density = 2.579501 g / cm^3
# Si number density = 25.853858 Si / 1000 Ang^3
#
#
#
# Elastic Constant Matrix: (Units=GPa)
#
#
# Indices 1 2 3 4 5 6 
#
# 1 140.1615 9.8092 70.1699 0.0000 0.0000 0.0000
# 2 9.8092 35.2699 17.8570 0.0000 0.0000 0.0000
# 3 70.1699 17.8570 161.7152 0.0000 0.0000 0.0000
# 4 0.0000 0.0000 0.0000 27.5111 0.0000 0.0000
# 5 0.0000 0.0000 0.0000 0.0000 63.0353 0.0000
# 6 0.0000 0.0000 0.0000 0.0000 0.0000 13.8109
#
#
#
# Elastic Compliance Matrix: (Units=1/GPa)
#
#
# Indices 1 2 3 4 5 6 
#
# 1 0.009125 -0.000565 -0.003897 0.000000 0.000000 0.000000
# 2 -0.000565 0.030067 -0.003075 0.000000 0.000000 0.000000
# 3 -0.003897 -0.003075 0.008214 0.000000 0.000000 0.000000
# 4 0.000000 0.000000 0.000000 0.036349 0.000000 0.000000
# 5 0.000000 0.000000 0.000000 0.000000 0.015864 0.000000
# 6 0.000000 0.000000 0.000000 0.000000 0.000000 0.072407
#
#
# Mechanical properties :
#
#
# Convention : Reuss Voigt Hill
#
# Bulk Modulus (GPa) = 30.92875 59.20209 45.06542
# Shear Modulus (GPa) = 25.26818 36.82548 31.04683
#
# Velocity S-wave (km/s) = 3.12965 3.77818 3.46910
# Velocity P-wave (km/s) = 5.00484 6.47930 5.78920
#
# Compressibility (1/GPa) = 0.03233238
#
# Stress axis : x y z
#
# Youngs Moduli (GPa) = 109.58648 33.25935 121.73928
#
# Poissons Ratio (x) = 0.01878 0.47444
# Poissons Ratio (y) = 0.06189 0.37435
# Poissons Ratio (z) = 0.42708 0.10227
#
# Static dielectric constant tensor:
#      x y z
#    x 2.028980 0.000000 0.000000 
#    y 0.000000 2.077910 0.000000 
#    z 0.000000 0.000000 2.160910 
# 
# From -- ./inp_files/4806.got.cif
#   From: 2010.05.17/outbox.cif.g08.bks.cpg/sg19_3_cif.got.tgz:4806.got - 2010.06.03 22:46:19.
