data_PCOD9313665
_publ_section_title
;
Structure prediction by ZEFSAII (Michael W. Deem and Ramdas Pophale) SiO2 
 PCOD9313665
Probable space group: P 21 21 21
;
_chemical_formula_sum "Si O2"
_cell_formula_units_Z 28
_cell_length_a 24.778786
_cell_length_b 5.035524
_cell_length_c 9.570434
_cell_angle_alpha 90.000000
_cell_angle_beta 90.000000
_cell_angle_gamma 90.000000
_cell_volume 1194.142974
_symmetry_space_group_name_H-M "P 21 21 21"
_symmetry_group_IT_number 19
_symmetry_cell_setting 'orthorhombic'
loop_
_space_group_symop_operation_xyz
x,y,z
1/2-x,-y,1/2+z
1/2+x,1/2-y,-z
-x,1/2+y,1/2-z
loop_
_atom_site_type_symbol
_atom_site_label
_atom_site_fract_x
_atom_site_fract_y
_atom_site_fract_z
Si Si1 0.149048 0.330236 0.714218
Si Si2 0.534850 0.243081 0.277418
Si Si3 0.005558 0.099927 0.432808
Si Si4 0.263055 0.422717 0.821460
Si Si5 0.335263 0.184275 0.033202
Si Si6 0.439734 0.900293 0.628996
Si Si7 0.171555 0.046215 0.247543
O O1 0.093564 0.263415 0.791562
O O2 0.199447 0.436329 0.802125
O O3 0.135702 0.569246 0.606049
O O4 0.167968 0.063435 0.635739
O O5 0.492762 0.457923 0.222091
O O6 0.543489 0.339937 0.436830
O O7 0.958295 0.318452 0.429469
O O8 0.037121 0.118932 0.287694
O O9 0.974496 0.823936 0.447166
O O10 0.278924 0.309495 0.975053
O O11 0.293698 0.698989 0.794296
O O12 0.288397 0.199727 0.716244
O O13 0.357940 0.076505 0.886119
O O14 0.375213 0.879641 0.639840
#
# Coordination Sequence:
#
# PCOD9313665 Si02
#       7
#     4   4   4   4   4   4   4
#     4  12  23  43  69  91 125 183 210 271 324 371
#     4  12  27  47  66  93 130 181 235 265 309 403
#     4  10  22  37  63  95 125 169 221 263 330 372
#     4  10  22  38  61  98 131 154 220 262 316 405
#     4  10  21  38  66  97 126 165 223 255 318 403
#     4  10  20  37  64  98 130 159 209 283 330 379
#     4  10  19  38  59  94 133 159 200 271 327 395
#
# _framework density 23.447776999999999
#
# number of rings (size 3 to 8) (size 9 to 14) (size 15 to 20)
#    0.857    0.571    1.429    4.286    0.000    2.286 
#    0.000    8.571    0.000    0.000    0.000    0.000 
#    0.000    0.000    0.000    0.000    0.000    0.000 
#
# Total GULP energy -156403.621856 kJ/mol
# GULP energy per Si atom -5585.843638 kJ/mol
# Density = 2.339441 g / cm^3
# Si number density = 23.447777 Si / 1000 Ang^3
#
#
#
# Elastic Constant Matrix: (Units=GPa)
#
#
# Indices 1 2 3 4 5 6 
#
# 1 132.9950 29.0544 5.5614 0.0000 0.0000 0.0000
# 2 29.0544 144.3371 2.8233 0.0000 0.0000 0.0000
# 3 5.5614 2.8233 33.4657 0.0000 0.0000 0.0000
# 4 0.0000 0.0000 0.0000 29.5448 0.0000 0.0000
# 5 0.0000 0.0000 0.0000 0.0000 17.8350 0.0000
# 6 0.0000 0.0000 0.0000 0.0000 0.0000 25.1666
#
#
#
# Elastic Compliance Matrix: (Units=1/GPa)
#
#
# Indices 1 2 3 4 5 6 
#
# 1 0.007911 -0.001569 -0.001182 0.000000 0.000000 0.000000
# 2 -0.001569 0.007251 -0.000351 0.000000 0.000000 0.000000
# 3 -0.001182 -0.000351 0.030107 0.000000 0.000000 0.000000
# 4 0.000000 0.000000 0.000000 0.033847 0.000000 0.000000
# 5 0.000000 0.000000 0.000000 0.000000 0.056070 0.000000
# 6 0.000000 0.000000 0.000000 0.000000 0.000000 0.039735
#
#
# Mechanical properties :
#
#
# Convention : Reuss Voigt Hill
#
# Bulk Modulus (GPa) = 25.59868 42.85288 34.22578
# Shear Modulus (GPa) = 25.75352 32.73320 29.24336
#
# Velocity S-wave (km/s) = 3.31771 3.74037 3.53536
# Velocity P-wave (km/s) = 5.06135 6.08024 5.59404
#
# Compressibility (1/GPa) = 0.03906452
#
# Stress axis : x y z
#
# Youngs Moduli (GPa) = 126.40034 137.91194 33.21442
#
# Poissons Ratio (x) = 0.21644 0.03927
# Poissons Ratio (y) = 0.19837 0.01166
# Poissons Ratio (z) = 0.14945 0.04840
#
# Static dielectric constant tensor:
#      x y z
#    x 1.889410 0.000000 0.000000 
#    y 0.000000 1.825980 0.000000 
#    z 0.000000 0.000000 1.964170 
# 
# From -- ./inp_files/5568.got.cif
#   From: 2010.05.17/outbox.cif.g08.bks.cpg/sg19_3_cif.got.tgz:5568.got - 2010.06.03 22:46:19.
