data_PCOD9313111
_publ_section_title
;
Structure prediction by ZEFSAII (Michael W. Deem and Ramdas Pophale) SiO2 
 PCOD9313111
Probable space group: P 21 21 2
;
_chemical_formula_sum "Si O2"
_cell_formula_units_Z 24
_cell_length_a 14.621688
_cell_length_b 9.702262
_cell_length_c 8.570999
_cell_angle_alpha 90.000000
_cell_angle_beta 90.000000
_cell_angle_gamma 90.000000
_cell_volume 1215.911470
_symmetry_space_group_name_H-M "P 21 21 2"
_symmetry_group_IT_number 18
_symmetry_cell_setting 'orthorhombic'
loop_
_space_group_symop_operation_xyz
x,y,z
-x,-y,z
1/2+x,1/2-y,-z
1/2-x,1/2+y,-z
loop_
_atom_site_type_symbol
_atom_site_label
_atom_site_fract_x
_atom_site_fract_y
_atom_site_fract_z
Si Si1 0.777028 0.093344 0.974817
Si Si2 0.000000 0.500000 0.240646
Si Si3 0.152194 0.192868 0.889447
Si Si4 0.670434 0.398384 0.464478
Si Si5 0.185254 0.387350 0.363107
Si Si6 0.500000 0.500000 0.660622
Si Si7 0.964519 0.225030 0.074598
O O1 0.729009 0.120682 0.809267
O O2 0.795641 0.929712 0.983969
O O3 0.711346 0.167595 0.099326
O O4 0.875264 0.166716 0.989464
O O5 0.919704 0.568063 0.341174
O O6 0.955334 0.381087 0.134127
O O7 0.144164 0.140091 0.713091
O O8 0.053830 0.213958 0.966907
O O9 0.757385 0.498054 0.454640
O O10 0.692264 0.258322 0.553982
O O11 0.587410 0.471375 0.553529
O O12 0.481476 0.371108 0.774522
#
# Coordination Sequence:
#
# PCOD9313111 Si02
#       7
#     4   2   4   4   4   2   4
#     4  11  23  43  71  99 129 180 230 285 331 419
#     4  12  24  50  66 106 134 186 228 292 340 424
#     4  11  24  43  67 104 131 175 236 282 340 415
#     4  11  27  43  68 104 138 182 225 290 349 422
#     4  11  26  46  70  98 144 178 234 280 359 415
#     4  12  24  44  74  92 138 186 224 278 362 404
#     4  12  24  44  74  95 135 185 235 286 339 412
#
# _framework density 19.73828
#
# number of rings (size 3 to 8) (size 9 to 14) (size 15 to 20)
#    0.000    0.667    5.000    2.000    9.333    0.000 
#    0.000    0.000    0.000    0.000    0.000    0.000 
#    0.000    0.000    0.000    0.000    0.000    0.000 
#
# Total GULP energy -134259.609704 kJ/mol
# GULP energy per Si atom -5594.150404 kJ/mol
# Density = 1.969336 g / cm^3
# Si number density = 19.738280 Si / 1000 Ang^3
#
#
#
# Elastic Constant Matrix: (Units=GPa)
#
#
# Indices 1 2 3 4 5 6 
#
# 1 106.1840 -4.3363 17.8630 0.0000 0.0000 0.0000
# 2 -4.3363 61.0351 -0.6736 0.0000 0.0000 0.0000
# 3 17.8630 -0.6736 19.4798 0.0000 0.0000 0.0000
# 4 0.0000 0.0000 0.0000 32.8658 0.0000 0.0000
# 5 0.0000 0.0000 0.0000 0.0000 5.2731 0.0000
# 6 0.0000 0.0000 0.0000 0.0000 0.0000 30.9357
#
#
#
# Elastic Compliance Matrix: (Units=1/GPa)
#
#
# Indices 1 2 3 4 5 6 
#
# 1 0.011164 0.000680 -0.010214 0.000000 0.000000 0.000000
# 2 0.000680 0.016432 -0.000056 0.000000 0.000000 0.000000
# 3 -0.010214 -0.000056 0.060699 0.000000 0.000000 0.000000
# 4 0.000000 0.000000 0.000000 0.030427 0.000000 0.000000
# 5 0.000000 0.000000 0.000000 0.000000 0.189640 0.000000
# 6 0.000000 0.000000 0.000000 0.000000 0.000000 0.032325
#
#
# Mechanical properties :
#
#
# Convention : Reuss Voigt Hill
#
# Bulk Modulus (GPa) = 14.46825 23.60055 19.03440
# Shear Modulus (GPa) = 13.05813 25.40465 19.23139
#
# Velocity S-wave (km/s) = 2.57488 3.59148 3.12480
# Velocity P-wave (km/s) = 4.02318 5.40194 4.76272
#
# Compressibility (1/GPa) = 0.06911686
#
# Stress axis : x y z
#
# Youngs Moduli (GPa) = 89.57692 60.85778 16.47468
#
# Poissons Ratio (x) = -0.04141 0.16826
# Poissons Ratio (y) = -0.06095 0.00092
# Poissons Ratio (z) = 0.91489 0.00339
#
# Static dielectric constant tensor:
#      x y z
#    x 1.669430 0.000000 0.000000 
#    y 0.000000 1.697280 0.000000 
#    z 0.000000 0.000000 1.670320 
# 
# From -- ./inp_files/3212.got.cif
#   From: 2010.05.17/outbox.cif.g08.bks.cpg/sg18_2_cif.got.tgz:3212.got - 2010.06.03 22:40:56.
