data_PCOD9313914
_publ_section_title
;
Structure prediction by ZEFSAII (Michael W. Deem and Ramdas Pophale) SiO2 
 PCOD9313914
Probable space group: P 21 21 21
;
_chemical_formula_sum "Si O2"
_cell_formula_units_Z 32
_cell_length_a 5.347737
_cell_length_b 8.646536
_cell_length_c 27.733573
_cell_angle_alpha 90.000000
_cell_angle_beta 90.000000
_cell_angle_gamma 90.000000
_cell_volume 1282.383789
_symmetry_space_group_name_H-M "P 21 21 21"
_symmetry_group_IT_number 19
_symmetry_cell_setting 'orthorhombic'
loop_
_space_group_symop_operation_xyz
x,y,z
1/2-x,-y,1/2+z
1/2+x,1/2-y,-z
-x,1/2+y,1/2-z
loop_
_atom_site_type_symbol
_atom_site_label
_atom_site_fract_x
_atom_site_fract_y
_atom_site_fract_z
Si Si1 0.618871 0.449696 0.116608
Si Si2 0.141599 0.247924 0.416677
Si Si3 0.686894 0.236996 0.285108
Si Si4 0.138134 0.361255 0.546528
Si Si5 0.404437 0.230630 0.190531
Si Si6 0.136042 0.567944 0.838777
Si Si7 0.456794 0.824362 0.482053
Si Si8 0.054780 0.441147 0.238581
O O1 0.820677 0.585591 0.112595
O O2 0.372073 0.534561 0.095888
O O3 0.565905 0.368812 0.166580
O O4 0.654564 0.328393 0.072719
O O5 0.395433 0.248080 0.448557
O O6 0.166953 0.390286 0.380095
O O7 0.897142 0.227051 0.448740
O O8 0.492236 0.188179 0.244189
O O9 0.550410 0.285881 0.333473
O O10 0.797820 0.393141 0.262334
O O11 0.896037 0.105452 0.285936
O O12 0.065160 0.500359 0.509715
O O13 0.135786 0.307020 0.200730
O O14 0.466112 0.084471 0.157209
O O15 0.276151 0.559274 0.787406
O O16 0.208009 0.779383 0.512311
#
# Coordination Sequence:
#
# PCOD9313914 Si02
#       8
#     4   4   4   4   4   4   4   4
#     4   8  20  30  55  79 114 140 183 223 293 321
#     4   9  18  34  51  78 109 144 182 228 266 331
#     4  10  21  35  50  75  99 151 188 243 287 332
#     4   8  19  31  54  83 109 144 177 220 283 322
#     4  10  20  38  46  79 104 144 183 247 273 345
#     4  10  21  33  54  68 110 143 202 226 291 319
#     4   9  16  31  55  85 117 141 175 227 278 342
#     4  10  21  34  53  71 104 143 198 238 289 330
#
# _framework density 24.953530000000001
#
# number of rings (size 3 to 8) (size 9 to 14) (size 15 to 20)
#    1.500    1.000    0.000    3.000    1.750    4.000 
#    0.000    0.000    0.000    0.000    0.000   10.500 
#    0.000    0.000    0.000    0.000    0.000    0.000 
#
# Total GULP energy -178149.491885 kJ/mol
# GULP energy per Si atom -5567.171621 kJ/mol
# Density = 2.489673 g / cm^3
# Si number density = 24.953530 Si / 1000 Ang^3
#
#
#
# Elastic Constant Matrix: (Units=GPa)
#
#
# Indices 1 2 3 4 5 6 
#
# 1 90.0320 19.4688 -6.0608 0.0000 0.0000 0.0000
# 2 19.4688 80.3019 21.1861 0.0000 0.0000 0.0000
# 3 -6.0608 21.1861 63.5337 0.0000 0.0000 0.0000
# 4 0.0000 0.0000 0.0000 38.7206 0.0000 0.0000
# 5 0.0000 0.0000 0.0000 0.0000 -31.9544 0.0000
# 6 0.0000 0.0000 0.0000 0.0000 0.0000 69.6434
#
#
#
# Elastic Compliance Matrix: (Units=1/GPa)
#
#
# Indices 1 2 3 4 5 6 
#
# 1 0.012027 -0.003529 0.002324 0.000000 0.000000 0.000000
# 2 -0.003529 0.014690 -0.005235 0.000000 0.000000 0.000000
# 3 0.002324 -0.005235 0.017707 0.000000 0.000000 0.000000
# 4 0.000000 0.000000 0.000000 0.025826 0.000000 0.000000
# 5 0.000000 0.000000 0.000000 0.000000 -0.031295 0.000000
# 6 0.000000 0.000000 0.000000 0.000000 0.000000 0.014359
#
#
# Mechanical properties :
#
#
# Convention : Reuss Voigt Hill
#
# Bulk Modulus (GPa) = 31.70220 33.67285 32.68752
# Shear Modulus (GPa) = 65.18184 28.56684 46.87434
#
# Velocity S-wave (km/s) = 5.11644 3.38716 4.33883
# Velocity P-wave (km/s) = 6.90189 5.36849 6.18291
#
# Compressibility (1/GPa) = 0.03154355
#
# Stress axis : x y z
#
# Youngs Moduli (GPa) = 83.14816 68.07461 56.47449
#
# Poissons Ratio (x) = 0.24023 -0.13125
# Poissons Ratio (y) = 0.29343 0.29565
# Poissons Ratio (z) = -0.19324 0.35638
#
# Static dielectric constant tensor:
#      x y z
#    x 1.987700 0.000000 0.000000 
#    y 0.000000 2.037560 0.000000 
#    z 0.000000 0.000000 1.848580 
# 
# From -- ./inp_files/7559.got.cif
#   From: 2010.05.17/outbox.cif.g08.bks.cpg/sg19_4_cif.got.tgz:7559.got - 2010.06.03 22:46:19.
