data_PCOD9313888
_publ_section_title
;
Structure prediction by ZEFSAII (Michael W. Deem and Ramdas Pophale) SiO2 
 PCOD9313888
Probable space group: P 21 21 21
;
_chemical_formula_sum "Si O2"
_cell_formula_units_Z 32
_cell_length_a 7.403637
_cell_length_b 12.302457
_cell_length_c 14.598808
_cell_angle_alpha 90.000000
_cell_angle_beta 90.000000
_cell_angle_gamma 90.000000
_cell_volume 1329.702146
_symmetry_space_group_name_H-M "P 21 21 21"
_symmetry_group_IT_number 19
_symmetry_cell_setting 'orthorhombic'
loop_
_space_group_symop_operation_xyz
x,y,z
1/2-x,-y,1/2+z
1/2+x,1/2-y,-z
-x,1/2+y,1/2-z
loop_
_atom_site_type_symbol
_atom_site_label
_atom_site_fract_x
_atom_site_fract_y
_atom_site_fract_z
Si Si1 0.732693 0.505813 0.322637
Si Si2 0.654452 0.713665 0.781979
Si Si3 0.008185 0.870851 0.394901
Si Si4 0.413752 0.634450 0.313052
Si Si5 0.102369 0.521620 0.421312
Si Si6 0.401284 0.796475 0.465817
Si Si7 0.542586 0.690048 0.992221
Si Si8 0.901893 0.580928 0.011730
O O1 0.715284 0.390507 0.274712
O O2 0.597355 0.586394 0.273488
O O3 0.653745 0.493018 0.425199
O O4 0.945128 0.524060 0.341788
O O5 0.503794 0.679367 0.707331
O O6 0.768487 0.818407 0.757000
O O7 0.593755 0.716686 0.886257
O O8 0.208834 0.840383 0.432206
O O9 0.880670 0.795986 0.456437
O O10 0.999871 0.000422 0.416121
O O11 0.291003 0.553266 0.375386
O O12 0.475517 0.732014 0.378949
O O13 0.025372 0.610661 0.491684
O O14 0.101642 0.406442 0.474515
O O15 0.709873 0.632831 0.043717
O O16 0.493841 0.809112 0.027261
#
# Coordination Sequence:
#
# PCOD9313888 Si02
#       8
#     4   4   4   4   4   4   4   4
#     4  10  22  43  60  89 127 167 201 271 311 372
#     4   9  22  41  59  88 132 157 206 270 319 363
#     4  11  20  37  64  92 121 161 205 273 313 373
#     4  11  21  37  68  89 123 166 211 260 321 384
#     4  10  20  37  62  89 126 156 211 261 308 368
#     4  11  17  34  62  91 116 151 209 260 312 358
#     4  10  23  40  59  87 127 169 207 259 308 382
#     4  10  21  39  62  85 122 165 214 244 312 380
#
# _framework density 24.065538
#
# number of rings (size 3 to 8) (size 9 to 14) (size 15 to 20)
#    0.000    2.000    6.250    0.000    1.750    2.000 
#    4.500    2.500    8.250    0.000    0.000    0.000 
#    0.000    0.000    0.000    0.000    0.000    0.000 
#
# Total GULP energy -178474.976273 kJ/mol
# GULP energy per Si atom -5577.343009 kJ/mol
# Density = 2.401076 g / cm^3
# Si number density = 24.065538 Si / 1000 Ang^3
#
#
#
# Elastic Constant Matrix: (Units=GPa)
#
#
# Indices 1 2 3 4 5 6 
#
# 1 68.0711 0.0146 0.5341 0.0000 0.0000 0.0000
# 2 0.0146 60.6341 -2.7579 0.0000 0.0000 0.0000
# 3 0.5341 -2.7579 39.9537 0.0000 0.0000 0.0000
# 4 0.0000 0.0000 0.0000 15.7574 0.0000 0.0000
# 5 0.0000 0.0000 0.0000 0.0000 9.8541 0.0000
# 6 0.0000 0.0000 0.0000 0.0000 0.0000 33.2610
#
#
#
# Elastic Compliance Matrix: (Units=1/GPa)
#
#
# Indices 1 2 3 4 5 6 
#
# 1 0.014692 -0.000013 -0.000197 0.000000 0.000000 0.000000
# 2 -0.000013 0.016544 0.001142 0.000000 0.000000 0.000000
# 3 -0.000197 0.001142 0.025110 0.000000 0.000000 0.000000
# 4 0.000000 0.000000 0.000000 0.063462 0.000000 0.000000
# 5 0.000000 0.000000 0.000000 0.000000 0.101480 0.000000
# 6 0.000000 0.000000 0.000000 0.000000 0.000000 0.030065
#
#
# Mechanical properties :
#
#
# Convention : Reuss Voigt Hill
#
# Bulk Modulus (GPa) = 17.17868 18.24894 17.71381
# Shear Modulus (GPa) = 18.59470 23.16570 20.88020
#
# Velocity S-wave (km/s) = 2.78271 3.10596 2.94877
# Velocity P-wave (km/s) = 4.18072 4.52351 4.35549
#
# Compressibility (1/GPa) = 0.05821169
#
# Stress axis : x y z
#
# Youngs Moduli (GPa) = 68.06396 60.44365 39.82407
#
# Poissons Ratio (x) = 0.00076 0.00786
# Poissons Ratio (y) = 0.00085 -0.04549
# Poissons Ratio (z) = 0.01343 -0.06904
#
# Static dielectric constant tensor:
#      x y z
#    x 1.989460 0.000000 0.000000 
#    y 0.000000 2.001950 0.000000 
#    z 0.000000 0.000000 1.982830 
# 
# From -- ./inp_files/6677.got.cif
#   From: 2010.05.17/outbox.cif.g08.bks.cpg/sg19_4_cif.got.tgz:6677.got - 2010.06.03 22:46:19.
