data_PCOD9313843
_publ_section_title
;
Structure prediction by ZEFSAII (Michael W. Deem and Ramdas Pophale) SiO2 
 PCOD9313843
Probable space group: P 21 21 21
;
_chemical_formula_sum "Si O2"
_cell_formula_units_Z 28
_cell_length_a 12.070594
_cell_length_b 5.084074
_cell_length_c 18.305411
_cell_angle_alpha 90.000000
_cell_angle_beta 90.000000
_cell_angle_gamma 90.000000
_cell_volume 1123.362675
_symmetry_space_group_name_H-M "P 21 21 21"
_symmetry_group_IT_number 19
_symmetry_cell_setting 'orthorhombic'
loop_
_space_group_symop_operation_xyz
x,y,z
1/2-x,-y,1/2+z
1/2+x,1/2-y,-z
-x,1/2+y,1/2-z
loop_
_atom_site_type_symbol
_atom_site_label
_atom_site_fract_x
_atom_site_fract_y
_atom_site_fract_z
Si Si1 0.843510 0.164912 0.090610
Si Si2 0.241830 0.604802 0.045404
Si Si3 0.984196 0.936973 0.508972
Si Si4 0.511703 0.348440 0.337688
Si Si5 0.733560 0.605677 0.363438
Si Si6 0.024735 0.117211 0.205308
Si Si7 0.115500 0.162923 0.858026
O O1 0.935521 0.040782 0.143210
O O2 0.747325 0.322156 0.133697
O O3 0.785796 0.956507 0.035853
O O4 0.912694 0.351911 0.037660
O O5 0.247723 0.903228 0.070218
O O6 0.294259 0.394517 0.103454
O O7 0.112333 0.533064 0.043201
O O8 0.931725 0.705108 0.559195
O O9 0.014229 0.140743 0.572603
O O10 0.633079 0.464482 0.320156
O O11 0.576810 0.073090 0.182961
O O12 0.452924 0.074020 0.323687
O O13 0.848271 0.615888 0.320257
O O14 0.992586 0.408544 0.230603
#
# Coordination Sequence:
#
# PCOD9313843 Si02
#       7
#     4   4   4   4   4   4   4
#     4  11  22  44  70 102 152 193 236 312 365 453
#     4  11  23  35  65 109 134 182 224 304 400 406
#     4   9  20  33  57 101 140 168 216 280 371 446
#     4  10  20  36  58  96 141 166 221 286 377 435
#     4  12  23  42  69  97 146 182 238 309 355 441
#     4  12  30  51  70 102 151 213 259 284 351 455
#     4   9  22  37  57 101 142 174 218 291 377 442
#
# _framework density 24.925166000000001
#
# number of rings (size 3 to 8) (size 9 to 14) (size 15 to 20)
#    0.857    0.571    2.857    2.571    4.000    3.429 
#    2.571    0.000    0.000    3.429    0.000    0.000 
#    0.000    0.000    0.000    0.000    0.000    0.000 
#
# Total GULP energy -156587.918552 kJ/mol
# GULP energy per Si atom -5592.425663 kJ/mol
# Density = 2.486844 g / cm^3
# Si number density = 24.925166 Si / 1000 Ang^3
#
#
#
# Elastic Constant Matrix: (Units=GPa)
#
#
# Indices 1 2 3 4 5 6 
#
# 1 144.0033 -0.3209 26.6981 0.0000 0.0000 0.0000
# 2 -0.3209 75.3806 -1.0150 0.0000 0.0000 0.0000
# 3 26.6981 -1.0150 64.0392 0.0000 0.0000 0.0000
# 4 0.0000 0.0000 0.0000 -30.9809 0.0000 0.0000
# 5 0.0000 0.0000 0.0000 0.0000 50.3901 0.0000
# 6 0.0000 0.0000 0.0000 0.0000 0.0000 25.8796
#
#
#
# Elastic Compliance Matrix: (Units=1/GPa)
#
#
# Indices 1 2 3 4 5 6 
#
# 1 0.007526 -0.000010 -0.003138 0.000000 0.000000 0.000000
# 2 -0.000010 0.013269 0.000215 0.000000 0.000000 0.000000
# 3 -0.003138 0.000215 0.016927 0.000000 0.000000 0.000000
# 4 0.000000 0.000000 0.000000 -0.032278 0.000000 0.000000
# 5 0.000000 0.000000 0.000000 0.000000 0.019845 0.000000
# 6 0.000000 0.000000 0.000000 0.000000 0.000000 0.038640
#
#
# Mechanical properties :
#
#
# Convention : Reuss Voigt Hill
#
# Bulk Modulus (GPa) = 31.39225 37.12750 34.25987
# Shear Modulus (GPa) = 62.17768 26.26182 44.21975
#
# Velocity S-wave (km/s) = 4.99999 3.24948 4.21658
# Velocity P-wave (km/s) = 6.77902 5.38579 6.12217
#
# Compressibility (1/GPa) = 0.03185500
#
# Stress axis : x y z
#
# Youngs Moduli (GPa) = 132.87263 75.36443 59.07724
#
# Poissons Ratio (x) = 0.00077 0.18537
# Poissons Ratio (y) = 0.00136 -0.01268
# Poissons Ratio (z) = 0.41692 -0.01617
#
# Static dielectric constant tensor:
#      x y z
#    x 1.986530 0.000000 0.000000 
#    y 0.000000 1.963640 0.000000 
#    z 0.000000 0.000000 2.027710 
# 
# From -- ./inp_files/6704.got.cif
#   From: 2010.05.17/outbox.cif.g08.bks.cpg/sg19_4_cif.got.tgz:6704.got - 2010.06.03 22:46:19.
