data_PCOD9313785
_publ_section_title
;
Structure prediction by ZEFSAII (Michael W. Deem and Ramdas Pophale) SiO2 
 PCOD9313785
Probable space group: P 21 21 21
;
_chemical_formula_sum "Si O2"
_cell_formula_units_Z 32
_cell_length_a 12.274095
_cell_length_b 6.476788
_cell_length_c 19.749887
_cell_angle_alpha 90.000000
_cell_angle_beta 90.000000
_cell_angle_gamma 90.000000
_cell_volume 1570.051063
_symmetry_space_group_name_H-M "P 21 21 21"
_symmetry_group_IT_number 19
_symmetry_cell_setting 'orthorhombic'
loop_
_space_group_symop_operation_xyz
x,y,z
1/2-x,-y,1/2+z
1/2+x,1/2-y,-z
-x,1/2+y,1/2-z
loop_
_atom_site_type_symbol
_atom_site_label
_atom_site_fract_x
_atom_site_fract_y
_atom_site_fract_z
Si Si1 0.740931 0.391227 0.633611
Si Si2 0.413947 0.077185 0.487950
Si Si3 0.728090 0.851810 0.269203
Si Si4 0.168022 0.251112 0.097789
Si Si5 0.546631 0.590059 0.319499
Si Si6 0.826444 0.740558 0.728373
Si Si7 0.600498 0.756878 0.454793
Si Si8 0.025920 0.044220 0.436915
O O1 0.822570 0.377877 0.569279
O O2 0.763138 0.229264 0.693321
O O3 0.764357 0.608469 0.671904
O O4 0.616354 0.361327 0.611841
O O5 0.471785 0.281893 0.515985
O O6 0.365154 0.946666 0.552008
O O7 0.507840 0.931112 0.455626
O O8 0.801678 0.725759 0.323062
O O9 0.606815 0.800387 0.295719
O O10 0.746699 0.096422 0.269150
O O11 0.279233 0.334985 0.062925
O O12 0.073006 0.418008 0.095147
O O13 0.608435 0.412006 0.278708
O O14 0.420278 0.621943 0.306605
O O15 0.570637 0.585440 0.398525
O O16 0.594614 0.631927 0.523863
#
# Coordination Sequence:
#
# PCOD9313785 Si02
#       8
#     4   4   4   4   4   4   4   4
#     4  11  25  45  64 104 131 181 232 271 345 402
#     4  11  24  42  71  97 136 172 222 288 332 408
#     4  10  24  40  65  96 135 181 224 280 330 404
#     4  10  24  46  64  98 135 173 228 280 336 399
#     4  10  20  34  60 100 133 163 213 263 339 388
#     4  11  21  38  66  93 140 171 215 278 327 396
#     4  10  22  40  66  98 132 166 210 280 336 399
#     4  11  26  43  68  96 130 183 224 272 341 406
#
# _framework density 20.381505000000001
#
# number of rings (size 3 to 8) (size 9 to 14) (size 15 to 20)
#    0.000    1.500    3.750    0.000    3.500    7.000 
#    4.500    0.000    0.000    0.000    0.000    0.000 
#    0.000    0.000    0.000    0.000    0.000    0.000 
#
# Total GULP energy -178461.595821 kJ/mol
# GULP energy per Si atom -5576.924869 kJ/mol
# Density = 2.033512 g / cm^3
# Si number density = 20.381505 Si / 1000 Ang^3
#
#
#
# Elastic Constant Matrix: (Units=GPa)
#
#
# Indices 1 2 3 4 5 6 
#
# 1 97.1058 24.5793 34.9712 0.0000 0.0000 0.0000
# 2 24.5793 67.5352 29.7010 0.0000 0.0000 0.0000
# 3 34.9712 29.7010 77.8404 0.0000 0.0000 0.0000
# 4 0.0000 0.0000 0.0000 18.9124 0.0000 0.0000
# 5 0.0000 0.0000 0.0000 0.0000 25.8205 0.0000
# 6 0.0000 0.0000 0.0000 0.0000 0.0000 10.8964
#
#
#
# Elastic Compliance Matrix: (Units=1/GPa)
#
#
# Indices 1 2 3 4 5 6 
#
# 1 0.012635 -0.002526 -0.004713 0.000000 0.000000 0.000000
# 2 -0.002526 0.018298 -0.005847 0.000000 0.000000 0.000000
# 3 -0.004713 -0.005847 0.017195 0.000000 0.000000 0.000000
# 4 0.000000 0.000000 0.000000 0.052875 0.000000 0.000000
# 5 0.000000 0.000000 0.000000 0.000000 0.038729 0.000000
# 6 0.000000 0.000000 0.000000 0.000000 0.000000 0.091773
#
#
# Mechanical properties :
#
#
# Convention : Reuss Voigt Hill
#
# Bulk Modulus (GPa) = 45.54433 46.77605 46.16019
# Shear Modulus (GPa) = 18.86833 21.34119 20.10476
#
# Velocity S-wave (km/s) = 3.04593 3.23938 3.14414
# Velocity P-wave (km/s) = 5.89616 6.08207 5.98983
#
# Compressibility (1/GPa) = 0.02195663
#
# Stress axis : x y z
#
# Youngs Moduli (GPa) = 79.14817 54.65142 58.15651
#
# Poissons Ratio (x) = 0.13804 0.27406
# Poissons Ratio (y) = 0.19991 0.34004
# Poissons Ratio (z) = 0.37299 0.31955
#
# Static dielectric constant tensor:
#      x y z
#    x 1.744840 0.000000 0.000000 
#    y 0.000000 1.744460 0.000000 
#    z 0.000000 0.000000 1.745410 
# 
# From -- ./inp_files/1244.got.cif
#   From: 2010.05.17/outbox.cif.g08.bks.cpg/sg19_1_cif.got.tgz:1244.got - 2010.06.03 22:46:19.
