data_PCOD9313343
_publ_section_title
;
Structure prediction by ZEFSAII (Michael W. Deem and Ramdas Pophale) SiO2 
 PCOD9313343
Probable space group: P 21 21 21
;
_chemical_formula_sum "Si O2"
_cell_formula_units_Z 28
_cell_length_a 7.060838
_cell_length_b 18.715259
_cell_length_c 7.894026
_cell_angle_alpha 90.000000
_cell_angle_beta 90.000000
_cell_angle_gamma 90.000000
_cell_volume 1043.159318
_symmetry_space_group_name_H-M "P 21 21 21"
_symmetry_group_IT_number 19
_symmetry_cell_setting 'orthorhombic'
loop_
_space_group_symop_operation_xyz
x,y,z
1/2-x,-y,1/2+z
1/2+x,1/2-y,-z
-x,1/2+y,1/2-z
loop_
_atom_site_type_symbol
_atom_site_label
_atom_site_fract_x
_atom_site_fract_y
_atom_site_fract_z
Si Si1 0.465349 0.544805 0.963159
Si Si2 0.442655 0.685090 0.800527
Si Si3 0.534223 0.939773 0.105214
Si Si4 0.442032 0.087661 0.161891
Si Si5 0.362874 0.401844 0.002285
Si Si6 0.461476 0.237368 0.064967
Si Si7 0.989882 0.212433 0.594402
O O1 0.506392 0.603533 0.820118
O O2 0.234176 0.550404 0.990831
O O3 0.488694 0.462302 0.908520
O O4 0.553305 0.573964 0.137130
O O5 0.461346 0.711489 0.612962
O O6 0.223386 0.694924 0.847707
O O7 0.535014 0.735343 0.939315
O O8 0.600730 0.931159 0.303826
O O9 0.433621 0.865978 0.054398
O O10 0.400960 0.008729 0.086259
O O11 0.658323 0.096265 0.088978
O O12 0.346104 0.164083 0.118084
O O13 0.412035 0.318949 0.014505
O O14 0.579624 0.250937 0.239098
#
# Coordination Sequence:
#
# PCOD9313343 Si02
#       7
#     4   4   4   4   4   4   4
#     4   9  17  33  55  84 114 146 200 255 301 349
#     4  11  23  38  63  90 122 162 201 254 308 364
#     4   8  17  32  53  83 113 145 199 254 301 350
#     4  10  17  31  54  81 116 152 192 256 304 349
#     4   9  19  32  53  84 116 150 195 255 306 354
#     4  11  21  34  55  89 121 155 193 247 311 363
#     4  10  22  40  59  91 124 154 204 253 305 367
#
# _framework density 26.841535
#
# number of rings (size 3 to 8) (size 9 to 14) (size 15 to 20)
#    0.000    2.286    1.429    2.571    4.000    2.286 
#    0.000    0.000    0.000    3.429    0.000    0.000 
#    0.000    0.000    0.000    0.000    0.000    0.000 
#
# Total GULP energy -156170.473293 kJ/mol
# GULP energy per Si atom -5577.516903 kJ/mol
# Density = 2.678044 g / cm^3
# Si number density = 26.841535 Si / 1000 Ang^3
#
#
#
# Elastic Constant Matrix: (Units=GPa)
#
#
# Indices 1 2 3 4 5 6 
#
# 1 -49.3010 -57.5818 -4.6964 0.0000 0.0000 0.0000
# 2 -57.5818 247.9651 56.3124 0.0000 0.0000 0.0000
# 3 -4.6964 56.3124 86.7903 0.0000 0.0000 0.0000
# 4 0.0000 0.0000 0.0000 42.5786 0.0000 0.0000
# 5 0.0000 0.0000 0.0000 0.0000 16.7303 0.0000
# 6 0.0000 0.0000 0.0000 0.0000 0.0000 24.5857
#
#
#
# Elastic Compliance Matrix: (Units=1/GPa)
#
#
# Indices 1 2 3 4 5 6 
#
# 1 -0.015718 -0.004054 0.001780 0.000000 0.000000 0.000000
# 2 -0.004054 0.003684 -0.002610 0.000000 0.000000 0.000000
# 3 0.001780 -0.002610 0.013312 0.000000 0.000000 0.000000
# 4 0.000000 0.000000 0.000000 0.023486 0.000000 0.000000
# 5 0.000000 0.000000 0.000000 0.000000 0.059772 0.000000
# 6 0.000000 0.000000 0.000000 0.000000 0.000000 0.040674
#
#
# Mechanical properties :
#
#
# Convention : Reuss Voigt Hill
#
# Bulk Modulus (GPa) = -117.78279 30.39140 -43.69569
# Shear Modulus (GPa) = 37.83655 36.20693 37.02174
#
# Velocity S-wave (km/s) = 3.75857 3.67674 3.71788
# Velocity P-wave (km/s) = 5.01400 5.41956 1.45455
#
# Compressibility (1/GPa) = -0.00849020
#
# Stress axis : x y z
#
# Youngs Moduli (GPa) = -63.62151 271.44222 75.12242
#
# Poissons Ratio (x) = 1.10048 -0.13372
# Poissons Ratio (y) = -0.25794 0.19605
# Poissons Ratio (z) = 0.11324 0.70838
#
# Static dielectric constant tensor:
#      x y z
#    x 2.313590 0.000000 0.000000 
#    y 0.000000 2.266610 0.000000 
#    z 0.000000 0.000000 2.084970 
# 
# From -- ./inp_files/2943.got.cif
#   From: 2010.05.17/outbox.cif.g08.bks.cpg/sg19_2_cif.got.tgz:2943.got - 2010.06.03 22:46:19.
