data_PCOD9313582
_publ_section_title
;
Structure prediction by ZEFSAII (Michael W. Deem and Ramdas Pophale) SiO2 
 PCOD9313582
Probable space group: P 21 21 21
;
_chemical_formula_sum "Si O2"
_cell_formula_units_Z 20
_cell_length_a 5.226269
_cell_length_b 18.325402
_cell_length_c 11.355075
_cell_angle_alpha 90.000000
_cell_angle_beta 90.000000
_cell_angle_gamma 90.000000
_cell_volume 1087.515053
_symmetry_space_group_name_H-M "P 21 21 21"
_symmetry_group_IT_number 19
_symmetry_cell_setting 'orthorhombic'
loop_
_space_group_symop_operation_xyz
x,y,z
1/2-x,-y,1/2+z
1/2+x,1/2-y,-z
-x,1/2+y,1/2-z
loop_
_atom_site_type_symbol
_atom_site_label
_atom_site_fract_x
_atom_site_fract_y
_atom_site_fract_z
Si Si1 0.009321 0.096235 0.783044
Si Si2 0.490677 0.903766 0.716955
Si Si3 0.582283 0.796691 0.500000
Si Si4 0.004683 0.427970 0.638022
Si Si5 0.995319 0.927970 0.138021
O O1 0.273161 0.105978 0.712846
O O2 0.773899 0.096728 0.692181
O O3 0.013371 0.015528 0.841567
O O4 0.967438 0.154559 0.884922
O O5 0.532562 0.845441 0.615077
O O6 0.226837 0.894022 0.787152
O O7 0.726099 0.903272 0.807818
O O8 0.486627 0.984472 0.658431
O O9 0.371371 0.732751 0.500000
O O10 0.984411 0.412269 0.500001
#
# Coordination Sequence:
#
# PCOD9313582 Si02
#       5
#     4   4   4   4   4
#     4  10  21  35  56  88 113 149 193 227 298 332
#     4  10  21  35  56  88 113 149 193 227 298 332
#     4  12  24  40  60  82 122 158 194 232 270 354
#     4  10  19  35  60  85 118 140 182 256 287 337
#     4  10  19  35  60  85 118 140 182 256 287 337
#
# _framework density 18.390549
#
# number of rings (size 3 to 8) (size 9 to 14) (size 15 to 20)
#    0.000    1.600    2.000    3.600    0.000    0.000 
#    0.000    0.000    0.000   24.000    0.000    0.000 
#    0.000    0.000    0.000    0.000    0.000    0.000 
#
# Total GULP energy -111769.912222 kJ/mol
# GULP energy per Si atom -5588.495611 kJ/mol
# Density = 1.834869 g / cm^3
# Si number density = 18.390549 Si / 1000 Ang^3
#
#
#
# Elastic Constant Matrix: (Units=GPa)
#
#
# Indices 1 2 3 4 5 6 
#
# 1 48.8011 -17.6887 -19.2552 0.0000 0.0000 0.0000
# 2 -17.6887 19.1757 7.3515 0.0000 0.0000 0.0000
# 3 -19.2552 7.3515 93.9466 0.0000 0.0000 0.0000
# 4 0.0000 0.0000 0.0000 32.6550 0.0000 0.0000
# 5 0.0000 0.0000 0.0000 0.0000 21.6089 0.0000
# 6 0.0000 0.0000 0.0000 0.0000 0.0000 19.1216
#
#
#
# Elastic Compliance Matrix: (Units=1/GPa)
#
#
# Indices 1 2 3 4 5 6 
#
# 1 0.032492 0.028268 0.004448 0.000000 0.000000 0.000000
# 2 0.028268 0.078354 -0.000338 0.000000 0.000000 0.000000
# 3 0.004448 -0.000338 0.011582 0.000000 0.000000 0.000000
# 4 0.000000 0.000000 0.000000 0.030623 0.000000 0.000000
# 5 0.000000 0.000000 0.000000 0.000000 0.046277 0.000000
# 6 0.000000 0.000000 0.000000 0.000000 0.000000 0.052297
#
#
# Mechanical properties :
#
#
# Convention : Reuss Voigt Hill
#
# Bulk Modulus (GPa) = 5.34234 11.41538 8.37886
# Shear Modulus (GPa) = 20.05890 27.44483 23.75187
#
# Velocity S-wave (km/s) = 3.30619 3.86726 3.59768
# Velocity P-wave (km/s) = 4.18159 5.11485 4.67158
#
# Compressibility (1/GPa) = 0.18718375
#
# Stress axis : x y z
#
# Youngs Moduli (GPa) = 30.77662 12.76253 86.33828
#
# Poissons Ratio (x) = -0.36076 -0.38400
# Poissons Ratio (y) = -0.86998 0.02915
# Poissons Ratio (z) = -0.13688 0.00431
#
# Static dielectric constant tensor:
#      x y z
#    x 1.615130 0.000000 0.000000 
#    y 0.000000 1.622670 0.000000 
#    z 0.000000 0.000000 1.584790 
# 
# From -- ./inp_files/313.got.cif
#   From: 2010.05.17/outbox.cif.g08.bks.cpg/sg19_1_cif.got.tgz:313.got - 2010.06.03 22:46:19.
