data_PCOD9313113
_publ_section_title
;
Structure prediction by ZEFSAII (Michael W. Deem and Ramdas Pophale) SiO2 
 PCOD9313113
Probable space group: P 21 21 2
;
_chemical_formula_sum "Si O2"
_cell_formula_units_Z 20
_cell_length_a 10.902429
_cell_length_b 12.862155
_cell_length_c 5.975044
_cell_angle_alpha 90.000000
_cell_angle_beta 90.000000
_cell_angle_gamma 90.000000
_cell_volume 837.872842
_symmetry_space_group_name_H-M "P 21 21 2"
_symmetry_group_IT_number 18
_symmetry_cell_setting 'orthorhombic'
loop_
_space_group_symop_operation_xyz
x,y,z
-x,-y,z
1/2+x,1/2-y,-z
1/2-x,1/2+y,-z
loop_
_atom_site_type_symbol
_atom_site_label
_atom_site_fract_x
_atom_site_fract_y
_atom_site_fract_z
Si Si1 0.157547 0.188141 0.876001
Si Si2 0.044895 0.900092 0.168500
Si Si3 0.122191 0.546928 0.286974
Si Si4 0.533129 0.766791 0.452742
Si Si5 0.763619 0.144685 0.826328
O O1 0.284750 0.127966 0.832907
O O2 0.098770 0.242897 0.658065
O O3 0.169361 0.275500 0.065506
O O4 0.056293 0.110158 0.973182
O O5 0.043708 0.799750 0.321826
O O6 0.173691 0.907561 0.043887
O O7 0.000000 0.000000 0.306677
O O8 0.067253 0.614471 0.491720
O O9 0.205421 0.444808 0.326050
O O10 0.000000 0.500000 0.166791
O O11 0.635204 0.715207 0.293758
#
# Coordination Sequence:
#
# PCOD9313113 Si02
#       5
#     4   4   4   4   4
#     4  11  26  49  72 105 159 196 251 322 376 459
#     4  11  23  43  74 107 141 205 245 305 392 451
#     4  12  27  48  75 114 147 200 262 311 380 466
#     4  11  28  48  76 110 155 203 255 316 388 459
#     4  11  26  49  75 107 152 199 251 319 383 454
#
# _framework density 23.869972000000001
#
# number of rings (size 3 to 8) (size 9 to 14) (size 15 to 20)
#    0.000    0.800    4.000    1.200   11.200    0.000 
#    3.600    0.000    0.000    0.000    0.000    0.000 
#    0.000    0.000    0.000    0.000    0.000    0.000 
#
# Total GULP energy -111719.996540 kJ/mol
# GULP energy per Si atom -5585.999827 kJ/mol
# Density = 2.381564 g / cm^3
# Si number density = 23.869972 Si / 1000 Ang^3
#
#
#
# Elastic Constant Matrix: (Units=GPa)
#
#
# Indices 1 2 3 4 5 6 
#
# 1 87.1255 49.6175 23.7730 0.0000 0.0000 0.0000
# 2 49.6175 153.4109 22.9745 0.0000 0.0000 0.0000
# 3 23.7730 22.9745 48.4367 0.0000 0.0000 0.0000
# 4 0.0000 0.0000 0.0000 16.7273 0.0000 0.0000
# 5 0.0000 0.0000 0.0000 0.0000 29.8178 0.0000
# 6 0.0000 0.0000 0.0000 0.0000 0.0000 52.7916
#
#
#
# Elastic Compliance Matrix: (Units=1/GPa)
#
#
# Indices 1 2 3 4 5 6 
#
# 1 0.015351 -0.004130 -0.005575 0.000000 0.000000 0.000000
# 2 -0.004130 0.008128 -0.001828 0.000000 0.000000 0.000000
# 3 -0.005575 -0.001828 0.024249 0.000000 0.000000 0.000000
# 4 0.000000 0.000000 0.000000 0.059783 0.000000 0.000000
# 5 0.000000 0.000000 0.000000 0.000000 0.033537 0.000000
# 6 0.000000 0.000000 0.000000 0.000000 0.000000 0.018942
#
#
# Mechanical properties :
#
#
# Convention : Reuss Voigt Hill
#
# Bulk Modulus (GPa) = 40.55019 53.52257 47.03638
# Shear Modulus (GPa) = 26.14001 32.70789 29.42395
#
# Velocity S-wave (km/s) = 3.31282 3.70571 3.51476
# Velocity P-wave (km/s) = 5.62653 6.38599 6.01825
#
# Compressibility (1/GPa) = 0.02466080
#
# Stress axis : x y z
#
# Youngs Moduli (GPa) = 65.14232 123.03155 41.23863
#
# Poissons Ratio (x) = 0.50812 0.22992
# Poissons Ratio (y) = 0.26904 0.07539
# Poissons Ratio (z) = 0.36320 0.22493
#
# Static dielectric constant tensor:
#      x y z
#    x 1.936110 0.000000 0.000000 
#    y 0.000000 2.022160 0.000000 
#    z 0.000000 0.000000 1.879750 
# 
# From -- ./inp_files/967.got.cif
#   From: 2010.05.17/outbox.cif.g08.bks.cpg/sg18_1_cif.got.tgz:967.got - 2010.06.03 22:40:56.
