data_PCOD9313170
_publ_section_title
;
Structure prediction by ZEFSAII (Michael W. Deem and Ramdas Pophale) SiO2 
 PCOD9313170
Probable space group: P 21 21 2
;
_chemical_formula_sum "Si O2"
_cell_formula_units_Z 12
_cell_length_a 8.987105
_cell_length_b 5.068669
_cell_length_c 10.499501
_cell_angle_alpha 90.000000
_cell_angle_beta 90.000000
_cell_angle_gamma 90.000000
_cell_volume 478.280205
_symmetry_space_group_name_H-M "P 21 21 2"
_symmetry_group_IT_number 18
_symmetry_cell_setting 'orthorhombic'
loop_
_space_group_symop_operation_xyz
x,y,z
-x,-y,z
1/2+x,1/2-y,-z
1/2-x,1/2+y,-z
loop_
_atom_site_type_symbol
_atom_site_label
_atom_site_fract_x
_atom_site_fract_y
_atom_site_fract_z
Si Si1 0.822645 0.939065 0.437042
Si Si2 0.166131 0.410053 0.196983
Si Si3 0.896716 0.745688 0.910459
O O1 0.767758 0.704972 0.531465
O O2 0.790027 0.804419 0.300429
O O3 0.000000 0.000000 0.448036
O O4 0.268643 0.666482 0.185130
O O5 0.000000 0.500000 0.228682
O O6 0.164903 0.299708 0.052948
O O7 0.000000 0.500000 0.875448
O O8 0.000000 0.000000 0.917863
#
# Coordination Sequence:
#
# PCOD9313170 Si02
#       3
#     4   4   4
#     4  12  28  52  81 112 150 203 261 316 376 446
#     4  11  24  48  79 111 153 202 251 307 383 455
#     4  11  25  44  74 117 155 193 246 311 379 455
#
# _framework density 25.089898000000002
#
# number of rings (size 3 to 8) (size 9 to 14) (size 15 to 20)
#    0.000    0.667    0.000    8.000    0.000   12.000 
#    0.000   11.667    0.000    2.000    0.000    0.000 
#    0.000    0.000    0.000    0.000    0.000    0.000 
#
# Total GULP energy -67331.058330 kJ/mol
# GULP energy per Si atom -5610.921527 kJ/mol
# Density = 2.503279 g / cm^3
# Si number density = 25.089898 Si / 1000 Ang^3
#
#
#
# Elastic Constant Matrix: (Units=GPa)
#
#
# Indices 1 2 3 4 5 6 
#
# 1 135.9366 85.0843 85.3640 0.0000 0.0000 0.0000
# 2 85.0843 216.1332 94.6909 0.0000 0.0000 0.0000
# 3 85.3640 94.6909 125.8882 0.0000 0.0000 0.0000
# 4 0.0000 0.0000 0.0000 63.2387 0.0000 0.0000
# 5 0.0000 0.0000 0.0000 0.0000 -32.2775 0.0000
# 6 0.0000 0.0000 0.0000 0.0000 0.0000 22.4958
#
#
#
# Elastic Compliance Matrix: (Units=1/GPa)
#
#
# Indices 1 2 3 4 5 6 
#
# 1 0.013325 -0.001920 -0.007592 0.000000 0.000000 0.000000
# 2 -0.001920 0.007177 -0.004097 0.000000 0.000000 0.000000
# 3 -0.007592 -0.004097 0.016173 0.000000 0.000000 0.000000
# 4 0.000000 0.000000 0.000000 0.015813 0.000000 0.000000
# 5 0.000000 0.000000 0.000000 0.000000 -0.030981 0.000000
# 6 0.000000 0.000000 0.000000 0.000000 0.000000 0.044453
#
#
# Mechanical properties :
#
#
# Convention : Reuss Voigt Hill
#
# Bulk Modulus (GPa) = 105.72049 112.02626 108.87337
# Shear Modulus (GPa) = 51.90440 24.87934 38.39187
#
# Velocity S-wave (km/s) = 4.55327 3.15240 3.91599
# Velocity P-wave (km/s) = 8.35890 7.61558 7.99588
#
# Compressibility (1/GPa) = 0.00945890
#
# Stress axis : x y z
#
# Youngs Moduli (GPa) = 75.04456 139.32545 61.82997
#
# Poissons Ratio (x) = 0.26745 0.46941
# Poissons Ratio (y) = 0.14406 0.25332
# Poissons Ratio (z) = 0.56974 0.57083
#
# Static dielectric constant tensor:
#      x y z
#    x 1.995370 0.000000 0.000000 
#    y 0.000000 1.999170 0.000000 
#    z 0.000000 0.000000 2.097110 
# 
# From -- ./inp_files/4911.got.cif
#   From: 2010.05.17/outbox.cif.g08.bks.cpg/sg18_3_cif.got.tgz:4911.got - 2010.06.03 22:40:56.
