data_PCOD9313171
_publ_section_title
;
Structure prediction by ZEFSAII (Michael W. Deem and Ramdas Pophale) SiO2 
 PCOD9313171
Probable space group: P 21 21 2
;
_chemical_formula_sum "Si O2"
_cell_formula_units_Z 30
_cell_length_a 20.359664
_cell_length_b 10.808001
_cell_length_c 4.919646
_cell_angle_alpha 90.000000
_cell_angle_beta 90.000000
_cell_angle_gamma 90.000000
_cell_volume 1082.554666
_symmetry_space_group_name_H-M "P 21 21 2"
_symmetry_group_IT_number 18
_symmetry_cell_setting 'orthorhombic'
loop_
_space_group_symop_operation_xyz
x,y,z
-x,-y,z
1/2+x,1/2-y,-z
1/2-x,1/2+y,-z
loop_
_atom_site_type_symbol
_atom_site_label
_atom_site_fract_x
_atom_site_fract_y
_atom_site_fract_z
Si Si1 0.312490 0.288100 0.658826
Si Si2 0.928057 0.139582 0.746585
Si Si3 0.100581 0.400319 0.924331
Si Si4 0.423205 0.632506 0.258509
Si Si5 0.749489 0.528109 0.058186
Si Si6 0.000000 0.500000 0.474184
Si Si7 0.920840 0.359491 0.180614
Si Si8 0.207829 0.124732 0.432800
O O1 0.372427 0.343455 0.483339
O O2 0.295230 0.362896 0.928574
O O3 0.246830 0.249789 0.503669
O O4 0.346319 0.157351 0.733573
O O5 0.927740 0.256424 0.951526
O O6 0.002322 0.129940 0.642469
O O7 0.914500 0.003408 0.877909
O O8 0.088096 0.254824 0.923355
O O9 0.177017 0.430038 0.974560
O O10 0.064900 0.460452 0.665420
O O11 0.065883 0.492484 0.140783
O O12 0.367862 0.641091 0.491577
O O13 0.727093 0.412505 0.869913
O O14 0.733450 0.485938 0.365305
O O15 0.023967 0.643917 0.403861
#
# Coordination Sequence:
#
# PCOD9313171 Si02
#       8
#     4   4   4   4   4   2   4   4
#     4  12  25  46  77 109 154 211 262 328 410 479
#     4  11  25  49  76 109 159 206 263 326 410 483
#     4  12  25  48  74 114 153 201 272 336 396 486
#     4  11  24  49  74 113 157 204 266 331 402 484
#     4  12  27  48  78 114 160 209 270 332 408 485
#     4  12  26  46  76 114 148 208 266 336 402 474
#     4  12  24  47  77 105 150 201 263 325 403 476
#     4  12  26  50  75 116 158 209 267 333 403 484
#
# _framework density 27.712226999999999
#
# number of rings (size 3 to 8) (size 9 to 14) (size 15 to 20)
#    0.000    0.267    4.000    6.000    0.000    0.000 
#    7.200    2.667    0.000    0.000    0.000    0.000 
#    0.000    0.000    0.000    0.000    0.000    0.000 
#
# Total GULP energy -167719.378515 kJ/mol
# GULP energy per Si atom -5590.645950 kJ/mol
# Density = 2.764915 g / cm^3
# Si number density = 27.712227 Si / 1000 Ang^3
#
#
#
# Elastic Constant Matrix: (Units=GPa)
#
#
# Indices 1 2 3 4 5 6 
#
# 1 208.5873 43.3402 3.0781 0.0000 0.0000 0.0000
# 2 43.3402 192.5360 29.7224 0.0000 0.0000 0.0000
# 3 3.0781 29.7224 68.5892 0.0000 0.0000 0.0000
# 4 0.0000 0.0000 0.0000 30.0265 0.0000 0.0000
# 5 0.0000 0.0000 0.0000 0.0000 15.9456 0.0000
# 6 0.0000 0.0000 0.0000 0.0000 0.0000 50.3282
#
#
#
# Elastic Compliance Matrix: (Units=1/GPa)
#
#
# Indices 1 2 3 4 5 6 
#
# 1 0.005035 -0.001177 0.000284 0.000000 0.000000 0.000000
# 2 -0.001177 0.005841 -0.002478 0.000000 0.000000 0.000000
# 3 0.000284 -0.002478 0.015641 0.000000 0.000000 0.000000
# 4 0.000000 0.000000 0.000000 0.033304 0.000000 0.000000
# 5 0.000000 0.000000 0.000000 0.000000 0.062713 0.000000
# 6 0.000000 0.000000 0.000000 0.000000 0.000000 0.019870
#
#
# Mechanical properties :
#
#
# Convention : Reuss Voigt Hill
#
# Bulk Modulus (GPa) = 50.57185 69.11046 59.84116
# Shear Modulus (GPa) = 32.10521 45.49817 38.80169
#
# Velocity S-wave (km/s) = 3.40740 4.05632 3.74594
# Velocity P-wave (km/s) = 5.81111 6.85062 6.35217
#
# Compressibility (1/GPa) = 0.01977384
#
# Stress axis : x y z
#
# Youngs Moduli (GPa) = 198.62746 171.19110 63.93524
#
# Poissons Ratio (x) = 0.20152 -0.01817
# Poissons Ratio (y) = 0.23382 0.15846
# Poissons Ratio (z) = -0.05644 0.42430
#
# Static dielectric constant tensor:
#      x y z
#    x 2.804290 0.000000 0.000000 
#    y 0.000000 2.490260 0.000000 
#    z 0.000000 0.000000 2.314610 
# 
# From -- ./inp_files/2009.got.cif
#   From: 2010.05.17/outbox.cif.g08.bks.cpg/sg18_2_cif.got.tgz:2009.got - 2010.06.03 22:40:56.
