data_PCOD9313505
_publ_section_title
;
Structure prediction by ZEFSAII (Michael W. Deem and Ramdas Pophale) SiO2 
 PCOD9313505
Probable space group: P 21 21 21
;
_chemical_formula_sum "Si O2"
_cell_formula_units_Z 32
_cell_length_a 8.452941
_cell_length_b 16.719977
_cell_length_c 11.267210
_cell_angle_alpha 90.000000
_cell_angle_beta 90.000000
_cell_angle_gamma 90.000000
_cell_volume 1592.428355
_symmetry_space_group_name_H-M "P 21 21 21"
_symmetry_group_IT_number 19
_symmetry_cell_setting 'orthorhombic'
loop_
_space_group_symop_operation_xyz
x,y,z
1/2-x,-y,1/2+z
1/2+x,1/2-y,-z
-x,1/2+y,1/2-z
loop_
_atom_site_type_symbol
_atom_site_label
_atom_site_fract_x
_atom_site_fract_y
_atom_site_fract_z
Si Si1 0.770937 0.632147 0.211851
Si Si2 0.253900 0.704388 0.460365
Si Si3 0.469882 0.086011 0.084005
Si Si4 0.966936 0.072220 0.133835
Si Si5 0.663211 0.630150 0.658644
Si Si6 0.667171 0.969090 0.213864
Si Si7 0.089199 0.004625 0.896313
Si Si8 0.336124 0.691628 0.739253
O O1 0.666971 0.616893 0.330543
O O2 0.675544 0.580446 0.116231
O O3 0.802646 0.725613 0.193516
O O4 0.936462 0.593505 0.249031
O O5 0.394299 0.652894 0.403365
O O6 0.097859 0.652762 0.430004
O O7 0.235810 0.790071 0.400321
O O8 0.293060 0.707836 0.600099
O O9 0.535320 0.000437 0.122787
O O10 0.425051 0.084554 0.947827
O O11 0.822318 0.017756 0.175678
O O12 0.070995 0.029788 0.032509
O O13 0.807420 0.568901 0.681367
O O14 0.518970 0.659436 0.743242
O O15 0.586731 0.994100 0.339153
O O16 0.718836 0.877765 0.218143
#
# Coordination Sequence:
#
# PCOD9313505 Si02
#       8
#     4   4   4   4   4   4   4   4
#     4  11  21  36  59  90 120 157 201 250 296 356
#     4  10  19  31  57  90 117 150 185 255 320 338
#     4   9  20  33  52  85 118 150 187 235 305 359
#     4  11  20  41  59  85 130 152 200 253 296 362
#     4  11  20  34  60  89 119 153 191 252 320 353
#     4  10  23  37  58  84 120 165 197 239 300 365
#     4  11  23  38  60  90 123 166 196 241 311 364
#     4  11  20  34  57  89 119 151 207 247 296 363
#
# _framework density 20.095095000000001
#
# number of rings (size 3 to 8) (size 9 to 14) (size 15 to 20)
#    0.000    1.500    5.000    0.750    3.500    0.000 
#    0.000    0.000    2.750    0.000    0.000    0.000 
#    0.000    0.000    0.000    0.000    0.000    0.000 
#
# Total GULP energy -178490.725618 kJ/mol
# GULP energy per Si atom -5577.835176 kJ/mol
# Density = 2.004936 g / cm^3
# Si number density = 20.095095 Si / 1000 Ang^3
#
#
#
# Elastic Constant Matrix: (Units=GPa)
#
#
# Indices 1 2 3 4 5 6 
#
# 1 74.7285 42.2146 10.2727 0.0000 0.0000 0.0000
# 2 42.2146 114.9314 23.2618 0.0000 0.0000 0.0000
# 3 10.2727 23.2618 12.7339 0.0000 0.0000 0.0000
# 4 0.0000 0.0000 0.0000 29.0333 0.0000 0.0000
# 5 0.0000 0.0000 0.0000 0.0000 23.7988 0.0000
# 6 0.0000 0.0000 0.0000 0.0000 0.0000 28.3480
#
#
#
# Elastic Compliance Matrix: (Units=1/GPa)
#
#
# Indices 1 2 3 4 5 6 
#
# 1 0.016992 -0.005501 -0.003660 0.000000 0.000000 0.000000
# 2 -0.005501 0.015586 -0.024034 0.000000 0.000000 0.000000
# 3 -0.003660 -0.024034 0.125387 0.000000 0.000000 0.000000
# 4 0.000000 0.000000 0.000000 0.034443 0.000000 0.000000
# 5 0.000000 0.000000 0.000000 0.000000 0.042019 0.000000
# 6 0.000000 0.000000 0.000000 0.000000 0.000000 0.035276
#
#
# Mechanical properties :
#
#
# Convention : Reuss Voigt Hill
#
# Bulk Modulus (GPa) = 10.91983 39.32131 25.12057
# Shear Modulus (GPa) = 13.63826 24.67899 19.15862
#
# Velocity S-wave (km/s) = 2.60799 3.50824 3.09106
# Velocity P-wave (km/s) = 3.80981 6.00170 5.02668
#
# Compressibility (1/GPa) = 0.09157650
#
# Stress axis : x y z
#
# Youngs Moduli (GPa) = 58.85063 64.16193 7.97533
#
# Poissons Ratio (x) = 0.35293 0.02919
# Poissons Ratio (y) = 0.32371 0.19168
# Poissons Ratio (z) = 0.21537 1.54205
#
# Static dielectric constant tensor:
#      x y z
#    x 1.788200 0.000000 0.000000 
#    y 0.000000 1.728820 0.000000 
#    z 0.000000 0.000000 1.700730 
# 
# From -- ./inp_files/3765.got.cif
#   From: 2010.05.17/outbox.cif.g08.bks.cpg/sg19_2_cif.got.tgz:3765.got - 2010.06.03 22:46:19.
