data_PCOD9313806
_publ_section_title
;
Structure prediction by ZEFSAII (Michael W. Deem and Ramdas Pophale) SiO2 
 PCOD9313806
Probable space group: P 21 21 21
;
_chemical_formula_sum "Si O2"
_cell_formula_units_Z 28
_cell_length_a 21.948942
_cell_length_b 8.756525
_cell_length_c 7.417299
_cell_angle_alpha 90.000000
_cell_angle_beta 90.000000
_cell_angle_gamma 90.000000
_cell_volume 1425.578606
_symmetry_space_group_name_H-M "P 21 21 21"
_symmetry_group_IT_number 19
_symmetry_cell_setting 'orthorhombic'
loop_
_space_group_symop_operation_xyz
x,y,z
1/2-x,-y,1/2+z
1/2+x,1/2-y,-z
-x,1/2+y,1/2-z
loop_
_atom_site_type_symbol
_atom_site_label
_atom_site_fract_x
_atom_site_fract_y
_atom_site_fract_z
Si Si1 0.501916 0.509552 0.325977
Si Si2 0.386286 0.937501 0.939093
Si Si3 0.568160 0.837914 0.885584
Si Si4 0.177826 0.879723 0.130607
Si Si5 0.071060 0.216025 0.896036
Si Si6 0.307657 0.912838 0.283454
Si Si7 0.549838 0.157583 0.706842
O O1 0.552734 0.519852 0.485329
O O2 0.450340 0.405146 0.419084
O O3 0.467584 0.663525 0.279568
O O4 0.539259 0.442027 0.159458
O O5 0.404745 0.758938 0.917617
O O6 0.361139 0.002360 0.752927
O O7 0.336486 0.965406 0.093541
O O8 0.635117 0.767526 0.886261
O O9 0.518261 0.707320 0.845867
O O10 0.560911 0.977648 0.740893
O O11 0.240701 0.853620 0.237495
O O12 0.192040 0.956725 0.937179
O O13 0.142153 0.208300 0.852333
O O14 0.060539 0.267210 0.097497
#
# Coordination Sequence:
#
# PCOD9313806 Si02
#       7
#     4   4   4   4   4   4   4
#     4   9  21  35  58  96 126 156 207 252 327 370
#     4  10  21  40  63  90 124 160 211 256 316 378
#     4  10  22  37  62  92 127 168 203 262 319 377
#     4  12  22  42  64  85 124 171 217 256 309 372
#     4  10  20  35  59  91 128 156 201 260 311 375
#     4  11  24  38  66  89 120 170 215 259 302 371
#     4  10  20  39  62  95 125 163 200 263 328 373
#
# _framework density 19.641148000000001
#
# number of rings (size 3 to 8) (size 9 to 14) (size 15 to 20)
#    0.000    1.714    2.857    2.571    4.000    2.286 
#    0.000    2.857    0.000    0.000    0.000    0.000 
#    0.000    0.000    0.000    0.000    0.000    0.000 
#
# Total GULP energy -156163.690011 kJ/mol
# GULP energy per Si atom -5577.274643 kJ/mol
# Density = 1.959644 g / cm^3
# Si number density = 19.641148 Si / 1000 Ang^3
#
#
#
# Elastic Constant Matrix: (Units=GPa)
#
#
# Indices 1 2 3 4 5 6 
#
# 1 133.9167 48.5046 19.1066 0.0000 0.0000 0.0000
# 2 48.5046 58.7195 21.3793 0.0000 0.0000 0.0000
# 3 19.1066 21.3793 78.6764 0.0000 0.0000 0.0000
# 4 0.0000 0.0000 0.0000 29.8868 0.0000 0.0000
# 5 0.0000 0.0000 0.0000 0.0000 29.6197 0.0000
# 6 0.0000 0.0000 0.0000 0.0000 0.0000 27.3422
#
#
#
# Elastic Compliance Matrix: (Units=1/GPa)
#
#
# Indices 1 2 3 4 5 6 
#
# 1 0.010659 -0.008725 -0.000217 0.000000 0.000000 0.000000
# 2 -0.008725 0.026043 -0.004958 0.000000 0.000000 0.000000
# 3 -0.000217 -0.004958 0.014110 0.000000 0.000000 0.000000
# 4 0.000000 0.000000 0.000000 0.033460 0.000000 0.000000
# 5 0.000000 0.000000 0.000000 0.000000 0.033761 0.000000
# 6 0.000000 0.000000 0.000000 0.000000 0.000000 0.036574
#
#
# Mechanical properties :
#
#
# Convention : Reuss Voigt Hill
#
# Bulk Modulus (GPa) = 43.45848 49.92153 46.69001
# Shear Modulus (GPa) = 26.30506 29.52453 27.91480
#
# Velocity S-wave (km/s) = 3.66359 3.88132 3.77402
# Velocity P-wave (km/s) = 6.33010 6.74968 6.54325
#
# Compressibility (1/GPa) = 0.02301047
#
# Stress axis : x y z
#
# Youngs Moduli (GPa) = 93.82052 38.39853 70.87008
#
# Poissons Ratio (x) = 0.33504 0.01541
# Poissons Ratio (y) = 0.81861 0.35136
# Poissons Ratio (z) = 0.02040 0.19037
#
# Static dielectric constant tensor:
#      x y z
#    x 1.688030 0.000000 0.000000 
#    y 0.000000 1.745320 0.000000 
#    z 0.000000 0.000000 1.749290 
# 
# From -- ./inp_files/3069.got.cif
#   From: 2010.05.17/outbox.cif.g08.bks.cpg/sg19_2_cif.got.tgz:3069.got - 2010.06.03 22:46:19.
