data_PCOD9313261
_publ_section_title
;
Structure prediction by ZEFSAII (Michael W. Deem and Ramdas Pophale) SiO2 
 PCOD9313261
Probable space group: P 21 21 2
;
_chemical_formula_sum "Si O2"
_cell_formula_units_Z 16
_cell_length_a 7.708291
_cell_length_b 8.453143
_cell_length_c 9.570130
_cell_angle_alpha 90.000000
_cell_angle_beta 90.000000
_cell_angle_gamma 90.000000
_cell_volume 623.582839
_symmetry_space_group_name_H-M "P 21 21 2"
_symmetry_group_IT_number 18
_symmetry_cell_setting 'orthorhombic'
loop_
_space_group_symop_operation_xyz
x,y,z
-x,-y,z
1/2+x,1/2-y,-z
1/2-x,1/2+y,-z
loop_
_atom_site_type_symbol
_atom_site_label
_atom_site_fract_x
_atom_site_fract_y
_atom_site_fract_z
Si Si1 0.000000 0.500000 0.196440
Si Si2 0.199053 0.515955 0.680300
Si Si3 0.173915 0.165831 0.753245
Si Si4 0.389223 0.659110 0.917825
Si Si5 0.000000 0.000000 0.537902
O O1 0.827056 0.458296 0.281646
O O2 0.960822 0.663784 0.112762
O O3 0.244348 0.338617 0.727758
O O4 0.226579 0.629836 0.814173
O O5 0.340628 0.546589 0.561502
O O6 0.000000 0.500000 0.635221
O O7 0.141624 0.148160 0.917255
O O8 0.009278 0.140187 0.652571
O O9 0.500000 0.500000 0.887217
#
# Coordination Sequence:
#
# PCOD9313261 Si02
#       5
#     2   4   4   4   2
#     4  12  28  48  88 122 168 222 280 362 426 492
#     4  12  30  54  85 118 175 224 281 356 424 503
#     4  12  29  49  84 121 167 228 280 348 425 505
#     4  12  26  55  79 126 167 213 286 351 421 495
#     4  12  30  52  76 124 176 226 282 336 426 524
#
# _framework density 25.658179000000001
#
# number of rings (size 3 to 8) (size 9 to 14) (size 15 to 20)
#    0.000    0.000    5.000    1.500   15.750    0.000 
#    0.000    0.000    0.000    0.000    0.000    0.000 
#    0.000    0.000    0.000    0.000    0.000    0.000 
#
# Total GULP energy -89400.292751 kJ/mol
# GULP energy per Si atom -5587.518297 kJ/mol
# Density = 2.559978 g / cm^3
# Si number density = 25.658179 Si / 1000 Ang^3
#
#
#
# Elastic Constant Matrix: (Units=GPa)
#
#
# Indices 1 2 3 4 5 6 
#
# 1 105.3240 5.2968 46.1747 0.0000 0.0000 0.0000
# 2 5.2968 131.2626 10.3196 0.0000 0.0000 0.0000
# 3 46.1747 10.3196 151.8148 0.0000 0.0000 0.0000
# 4 0.0000 0.0000 0.0000 17.8641 0.0000 0.0000
# 5 0.0000 0.0000 0.0000 0.0000 21.9317 0.0000
# 6 0.0000 0.0000 0.0000 0.0000 0.0000 52.5541
#
#
#
# Elastic Compliance Matrix: (Units=1/GPa)
#
#
# Indices 1 2 3 4 5 6 
#
# 1 0.010960 -0.000181 -0.003321 0.000000 0.000000 0.000000
# 2 -0.000181 0.007662 -0.000466 0.000000 0.000000 0.000000
# 3 -0.003321 -0.000466 0.007629 0.000000 0.000000 0.000000
# 4 0.000000 0.000000 0.000000 0.055978 0.000000 0.000000
# 5 0.000000 0.000000 0.000000 0.000000 0.045596 0.000000
# 6 0.000000 0.000000 0.000000 0.000000 0.000000 0.019028
#
#
# Mechanical properties :
#
#
# Convention : Reuss Voigt Hill
#
# Bulk Modulus (GPa) = 54.60108 56.88706 55.74407
# Shear Modulus (GPa) = 31.07641 40.24399 35.66020
#
# Velocity S-wave (km/s) = 3.48396 3.96468 3.73207
# Velocity P-wave (km/s) = 6.12457 6.57096 6.35169
#
# Compressibility (1/GPa) = 0.01831466
#
# Stress axis : x y z
#
# Youngs Moduli (GPa) = 91.24421 130.51014 131.08325
#
# Poissons Ratio (x) = 0.02364 0.43534
# Poissons Ratio (y) = 0.01653 0.06105
# Poissons Ratio (z) = 0.30303 0.06078
#
# Static dielectric constant tensor:
#      x y z
#    x 2.148730 0.000000 0.000000 
#    y 0.000000 2.042100 0.000000 
#    z 0.000000 0.000000 2.009230 
# 
# From -- ./inp_files/2743.got.cif
#   From: 2010.05.17/outbox.cif.g08.bks.cpg/sg18_2_cif.got.tgz:2743.got - 2010.06.03 22:40:56.
