data_PCOD9313736
_publ_section_title
;
Structure prediction by ZEFSAII (Michael W. Deem and Ramdas Pophale) SiO2 
 PCOD9313736
Probable space group: P 21 21 21
;
_chemical_formula_sum "Si O2"
_cell_formula_units_Z 28
_cell_length_a 9.404297
_cell_length_b 5.553219
_cell_length_c 19.521252
_cell_angle_alpha 90.000000
_cell_angle_beta 90.000000
_cell_angle_gamma 90.000000
_cell_volume 1019.480222
_symmetry_space_group_name_H-M "P 21 21 21"
_symmetry_group_IT_number 19
_symmetry_cell_setting 'orthorhombic'
loop_
_space_group_symop_operation_xyz
x,y,z
1/2-x,-y,1/2+z
1/2+x,1/2-y,-z
-x,1/2+y,1/2-z
loop_
_atom_site_type_symbol
_atom_site_label
_atom_site_fract_x
_atom_site_fract_y
_atom_site_fract_z
Si Si1 0.541116 0.967539 0.840769
Si Si2 0.731245 0.027099 0.229616
Si Si3 0.073413 0.369636 0.900908
Si Si4 0.723321 0.968390 0.974991
Si Si5 0.176555 0.970326 0.701932
Si Si6 0.480356 0.971208 0.626711
Si Si7 0.796808 0.531306 0.508873
O O1 0.613696 0.968791 0.766507
O O2 0.452924 0.728263 0.855284
O O3 0.456763 0.209330 0.857525
O O4 0.670662 0.964093 0.896820
O O5 0.697797 0.044160 0.149835
O O6 0.659579 0.272332 0.260708
O O7 0.666954 0.771632 0.253331
O O8 0.090052 0.506837 0.972831
O O9 0.117260 0.095867 0.921971
O O10 0.931815 0.428503 0.860172
O O11 0.786473 0.716051 0.998696
O O12 0.793557 0.226024 0.991636
O O13 0.336463 0.972168 0.672735
O O14 0.417886 0.977803 0.550220
#
# Coordination Sequence:
#
# PCOD9313736 Si02
#       7
#     4   4   4   4   4   4   4
#     4   8  14  28  40  53  69 108 132 164 191 230
#     4  10  20  28  40  56  87 113 136 154 198 243
#     4  10  20  26  42  60  84 110 138 166 194 234
#     4   8  16  26  41  53  74 100 137 167 197 216
#     4  10  20  28  40  56  87 113 136 154 198 243
#     4   8  14  28  40  53  69 108 132 164 191 230
#     4   8  16  26  41  53  74 100 137 167 197 216
#
# _framework density 27.464973000000001
#
# number of rings (size 3 to 8) (size 9 to 14) (size 15 to 20)
#    0.857    2.286    0.000    0.857    4.000    0.000 
#    0.000    0.000    0.000    0.000    0.000    0.000 
#    0.000    0.000   29.143    0.000    0.000    3.429 
#
# Total GULP energy -156478.434505 kJ/mol
# GULP energy per Si atom -5588.515518 kJ/mol
# Density = 2.740246 g / cm^3
# Si number density = 27.464973 Si / 1000 Ang^3
#
#
#
# Elastic Constant Matrix: (Units=GPa)
#
#
# Indices 1 2 3 4 5 6 
#
# 1 92.7858 26.1110 9.0253 0.0000 0.0000 0.0000
# 2 26.1110 235.5665 24.4522 0.0000 0.0000 0.0000
# 3 9.0253 24.4522 113.0639 0.0000 0.0000 0.0000
# 4 0.0000 0.0000 0.0000 36.5245 0.0000 0.0000
# 5 0.0000 0.0000 0.0000 0.0000 30.0744 0.0000
# 6 0.0000 0.0000 0.0000 0.0000 0.0000 -8.4129
#
#
#
# Elastic Compliance Matrix: (Units=1/GPa)
#
#
# Indices 1 2 3 4 5 6 
#
# 1 0.011169 -0.001172 -0.000638 0.000000 0.000000 0.000000
# 2 -0.001172 0.004466 -0.000872 0.000000 0.000000 0.000000
# 3 -0.000638 -0.000872 0.009084 0.000000 0.000000 0.000000
# 4 0.000000 0.000000 0.000000 0.027379 0.000000 0.000000
# 5 0.000000 0.000000 0.000000 0.000000 0.033251 0.000000
# 6 0.000000 0.000000 0.000000 0.000000 0.000000 -0.118864
#
#
# Mechanical properties :
#
#
# Convention : Reuss Voigt Hill
#
# Bulk Modulus (GPa) = 51.66727 62.28815 56.97771
# Shear Modulus (GPa) = -230.41621 37.09237 -96.66192
#
# Velocity S-wave (km/s) = -9.16933 3.67895 -5.93894
# Velocity P-wave (km/s) = 9.65657 6.38550 5.12225
#
# Compressibility (1/GPa) = 0.01935461
#
# Stress axis : x y z
#
# Youngs Moduli (GPa) = 89.53076 223.93863 110.08212
#
# Poissons Ratio (x) = 0.26241 0.07025
# Poissons Ratio (y) = 0.10491 0.09601
# Poissons Ratio (z) = 0.05714 0.19532
#
# Static dielectric constant tensor:
#      x y z
#    x 2.118920 0.000000 0.000000 
#    y 0.000000 2.272090 0.000000 
#    z 0.000000 0.000000 2.092330 
# 
# From -- ./inp_files/1096.got.cif
#   From: 2010.05.17/outbox.cif.g08.bks.cpg/sg19_1_cif.got.tgz:1096.got - 2010.06.03 22:46:19.
