data_PCOD9313329
_publ_section_title
;
Structure prediction by ZEFSAII (Michael W. Deem and Ramdas Pophale) SiO2 
 PCOD9313329
Probable space group: P 21 21 21
;
_chemical_formula_sum "Si O2"
_cell_formula_units_Z 32
_cell_length_a 9.175126
_cell_length_b 10.632989
_cell_length_c 16.707196
_cell_angle_alpha 90.000000
_cell_angle_beta 90.000000
_cell_angle_gamma 90.000000
_cell_volume 1629.937566
_symmetry_space_group_name_H-M "P 21 21 21"
_symmetry_group_IT_number 19
_symmetry_cell_setting 'orthorhombic'
loop_
_space_group_symop_operation_xyz
x,y,z
1/2-x,-y,1/2+z
1/2+x,1/2-y,-z
-x,1/2+y,1/2-z
loop_
_atom_site_type_symbol
_atom_site_label
_atom_site_fract_x
_atom_site_fract_y
_atom_site_fract_z
Si Si1 0.699944 0.623363 0.937783
Si Si2 0.376434 0.883052 0.758986
Si Si3 0.863790 0.391178 0.612334
Si Si4 0.862689 0.770230 0.799326
Si Si5 0.842220 0.021201 0.720315
Si Si6 0.380189 0.089923 0.127561
Si Si7 0.952745 0.887518 0.185964
Si Si8 0.991131 0.651428 0.648975
O O1 0.780860 0.713259 0.874471
O O2 0.801531 0.497930 0.937679
O O3 0.545080 0.605375 0.894936
O O4 0.670250 0.668491 0.026909
O O5 0.284985 0.904387 0.839497
O O6 0.251114 0.882012 0.689935
O O7 0.455866 0.748640 0.770924
O O8 0.478946 0.001386 0.739904
O O9 0.934342 0.530651 0.601425
O O10 0.978669 0.313834 0.667115
O O11 0.877738 0.682703 0.721045
O O12 0.791243 0.892741 0.761343
O O13 0.715826 0.082015 0.669196
O O14 0.873941 0.108037 0.796442
O O15 0.990443 0.988515 0.672192
O O16 0.459213 0.221235 0.104983
#
# Coordination Sequence:
#
# PCOD9313329 Si02
#       8
#     4   4   4   4   4   4   4   4
#     4  11  24  38  55  94 134 157 194 262 340 367
#     4  11  21  40  61  91 123 160 213 263 313 361
#     4  11  23  38  64  90 127 163 206 258 314 389
#     4  10  19  37  63  89 114 166 213 255 293 384
#     4  10  17  34  65  90 107 161 221 252 291 360
#     4  10  19  37  65  85 118 162 211 255 299 386
#     4  11  23  37  62  96 125 160 206 275 316 363
#     4  10  16  37  65  85 106 163 222 242 288 374
#
# _framework density 19.632652
#
# number of rings (size 3 to 8) (size 9 to 14) (size 15 to 20)
#    0.000    1.500    6.250    1.500    1.750    1.000 
#    0.000    5.000    2.750    0.000    0.000    0.000 
#    0.000    0.000    0.000    0.000    0.000    0.000 
#
# Total GULP energy -178345.721121 kJ/mol
# GULP energy per Si atom -5573.303785 kJ/mol
# Density = 1.958797 g / cm^3
# Si number density = 19.632652 Si / 1000 Ang^3
#
#
#
# Elastic Constant Matrix: (Units=GPa)
#
#
# Indices 1 2 3 4 5 6 
#
# 1 71.9871 18.2329 5.5672 0.0000 0.0000 0.0000
# 2 18.2329 70.4023 -15.4812 0.0000 0.0000 0.0000
# 3 5.5672 -15.4812 39.6180 0.0000 0.0000 0.0000
# 4 0.0000 0.0000 0.0000 15.7473 0.0000 0.0000
# 5 0.0000 0.0000 0.0000 0.0000 16.1069 0.0000
# 6 0.0000 0.0000 0.0000 0.0000 0.0000 30.9143
#
#
#
# Elastic Compliance Matrix: (Units=1/GPa)
#
#
# Indices 1 2 3 4 5 6 
#
# 1 0.015448 -0.004899 -0.004085 0.000000 0.000000 0.000000
# 2 -0.004899 0.017093 0.007368 0.000000 0.000000 0.000000
# 3 -0.004085 0.007368 0.028694 0.000000 0.000000 0.000000
# 4 0.000000 0.000000 0.000000 0.063503 0.000000 0.000000
# 5 0.000000 0.000000 0.000000 0.000000 0.062085 0.000000
# 6 0.000000 0.000000 0.000000 0.000000 0.000000 0.032348
#
#
# Mechanical properties :
#
#
# Convention : Reuss Voigt Hill
#
# Bulk Modulus (GPa) = 17.24076 22.07171 19.65624
# Shear Modulus (GPa) = 20.68355 24.13294 22.40824
#
# Velocity S-wave (km/s) = 3.24933 3.50983 3.38209
# Velocity P-wave (km/s) = 4.78312 5.26232 5.02843
#
# Compressibility (1/GPa) = 0.05800207
#
# Stress axis : x y z
#
# Youngs Moduli (GPa) = 64.73263 58.50355 34.85032
#
# Poissons Ratio (x) = 0.28662 0.14237
# Poissons Ratio (y) = 0.31713 -0.25677
# Poissons Ratio (z) = 0.26445 -0.43104
#
# Static dielectric constant tensor:
#      x y z
#    x 1.736760 0.000000 0.000000 
#    y 0.000000 1.796640 0.000000 
#    z 0.000000 0.000000 1.633710 
# 
# From -- ./inp_files/6661.got.cif
#   From: 2010.05.17/outbox.cif.g08.bks.cpg/sg19_4_cif.got.tgz:6661.got - 2010.06.03 22:46:19.
