data_PCOD9313515
_publ_section_title
;
Structure prediction by ZEFSAII (Michael W. Deem and Ramdas Pophale) SiO2 
 PCOD9313515
Probable space group: P 21 21 21
;
_chemical_formula_sum "Si O2"
_cell_formula_units_Z 32
_cell_length_a 7.139724
_cell_length_b 12.066862
_cell_length_c 13.567026
_cell_angle_alpha 90.000000
_cell_angle_beta 90.000000
_cell_angle_gamma 90.000000
_cell_volume 1168.854429
_symmetry_space_group_name_H-M "P 21 21 21"
_symmetry_group_IT_number 19
_symmetry_cell_setting 'orthorhombic'
loop_
_space_group_symop_operation_xyz
x,y,z
1/2-x,-y,1/2+z
1/2+x,1/2-y,-z
-x,1/2+y,1/2-z
loop_
_atom_site_type_symbol
_atom_site_label
_atom_site_fract_x
_atom_site_fract_y
_atom_site_fract_z
Si Si1 0.965063 0.130188 0.690563
Si Si2 0.337570 0.374839 0.608860
Si Si3 0.823406 0.498084 0.073757
Si Si4 0.549800 0.689196 0.021231
Si Si5 0.758035 0.545570 0.303337
Si Si6 0.778334 0.794867 0.337627
Si Si7 0.399795 0.792572 0.396635
Si Si8 0.617095 0.855477 0.658739
O O1 0.929019 0.214510 0.603337
O O2 0.094112 0.180109 0.778678
O O3 0.288498 0.988256 0.809199
O O4 0.085537 0.025186 0.656503
O O5 0.456139 0.478976 0.568885
O O6 0.139835 0.370312 0.554378
O O7 0.441684 0.259424 0.578924
O O8 0.331264 0.372429 0.726473
O O9 0.714912 0.600937 0.025433
O O10 0.723682 0.383633 0.046346
O O11 0.728558 0.883311 0.252418
O O12 0.707673 0.674862 0.297267
O O13 0.959852 0.549671 0.358698
O O14 0.618595 0.813034 0.420240
O O15 0.991429 0.759567 0.355328
O O16 0.305995 0.672331 0.399131
#
# Coordination Sequence:
#
# PCOD9313515 Si02
#       8
#     4   4   4   4   4   4   4   4
#     4   9  16  30  46  70  98 137 160 208 262 307
#     4  11  21  31  50  71 107 146 170 210 258 316
#     4  10  19  33  46  75 101 135 175 206 251 329
#     4  12  20  32  52  69 109 141 171 210 263 307
#     4   8  16  30  48  68 104 127 166 207 255 317
#     4   8  16  28  49  68 102 123 164 208 257 304
#     4   9  17  30  51  71 102 130 166 211 267 307
#     4   9  17  32  48  72 101 133 168 210 259 317
#
# _framework density 27.377233
#
# number of rings (size 3 to 8) (size 9 to 14) (size 15 to 20)
#    1.500    1.000    3.750    0.000    0.000    1.000 
#    0.000    1.250    0.000    0.000    0.000    1.750 
#    0.000    0.000    0.000    0.000    0.000    0.000 
#
# Total GULP energy -178551.385930 kJ/mol
# GULP energy per Si atom -5579.730810 kJ/mol
# Density = 2.731492 g / cm^3
# Si number density = 27.377233 Si / 1000 Ang^3
#
#
#
# Elastic Constant Matrix: (Units=GPa)
#
#
# Indices 1 2 3 4 5 6 
#
# 1 102.3003 36.5486 12.6558 0.0000 0.0000 0.0000
# 2 36.5486 74.9861 26.3190 0.0000 0.0000 0.0000
# 3 12.6558 26.3190 86.3431 0.0000 0.0000 0.0000
# 4 0.0000 0.0000 0.0000 16.0009 0.0000 0.0000
# 5 0.0000 0.0000 0.0000 0.0000 7.8584 0.0000
# 6 0.0000 0.0000 0.0000 0.0000 0.0000 49.9096
#
#
#
# Elastic Compliance Matrix: (Units=1/GPa)
#
#
# Indices 1 2 3 4 5 6 
#
# 1 0.011836 -0.005778 0.000026 0.000000 0.000000 0.000000
# 2 -0.005778 0.017754 -0.004565 0.000000 0.000000 0.000000
# 3 0.000026 -0.004565 0.012969 0.000000 0.000000 0.000000
# 4 0.000000 0.000000 0.000000 0.062497 0.000000 0.000000
# 5 0.000000 0.000000 0.000000 0.000000 0.127252 0.000000
# 6 0.000000 0.000000 0.000000 0.000000 0.000000 0.020036
#
#
# Mechanical properties :
#
#
# Convention : Reuss Voigt Hill
#
# Bulk Modulus (GPa) = 45.60723 46.07515 45.84119
# Shear Modulus (GPa) = 17.83881 27.29417 22.56649
#
# Velocity S-wave (km/s) = 2.55540 3.16090 2.87414
# Velocity P-wave (km/s) = 5.04001 5.49436 5.27208
#
# Compressibility (1/GPa) = 0.02192635
#
# Stress axis : x y z
#
# Youngs Moduli (GPa) = 84.48595 56.32402 77.10520
#
# Poissons Ratio (x) = 0.32546 -0.00204
# Poissons Ratio (y) = 0.48819 0.35198
# Poissons Ratio (z) = -0.00223 0.25711
#
# Static dielectric constant tensor:
#      x y z
#    x 2.198110 0.000000 0.000000 
#    y 0.000000 2.159230 0.000000 
#    z 0.000000 0.000000 2.146080 
# 
# From -- ./inp_files/6685.got.cif
#   From: 2010.05.17/outbox.cif.g08.bks.cpg/sg19_4_cif.got.tgz:6685.got - 2010.06.03 22:46:19.
