data_PCOD9313605
_publ_section_title
;
Structure prediction by ZEFSAII (Michael W. Deem and Ramdas Pophale) SiO2 
 PCOD9313605
Probable space group: P 21 21 21
;
_chemical_formula_sum "Si O2"
_cell_formula_units_Z 28
_cell_length_a 22.430241
_cell_length_b 9.812628
_cell_length_c 5.169608
_cell_angle_alpha 90.000000
_cell_angle_beta 90.000000
_cell_angle_gamma 90.000000
_cell_volume 1137.828709
_symmetry_space_group_name_H-M "P 21 21 21"
_symmetry_group_IT_number 19
_symmetry_cell_setting 'orthorhombic'
loop_
_space_group_symop_operation_xyz
x,y,z
1/2-x,-y,1/2+z
1/2+x,1/2-y,-z
-x,1/2+y,1/2-z
loop_
_atom_site_type_symbol
_atom_site_label
_atom_site_fract_x
_atom_site_fract_y
_atom_site_fract_z
Si Si1 0.300058 0.141176 0.203066
Si Si2 0.352301 0.873632 0.304689
Si Si3 0.271000 0.425450 0.282766
Si Si4 0.559780 0.986192 0.786814
Si Si5 0.927170 0.552318 0.193969
Si Si6 0.127673 0.788459 0.203553
Si Si7 0.885071 0.918390 0.789730
O O1 0.254252 0.264900 0.261212
O O2 0.350255 0.176269 0.417266
O O3 0.296836 0.977602 0.252706
O O4 0.322444 0.170750 0.913918
O O5 0.381605 0.893218 0.587211
O O6 0.344231 0.714027 0.256462
O O7 0.401217 0.914078 0.087214
O O8 0.263332 0.486022 0.568568
O O9 0.339607 0.454952 0.208659
O O10 0.577813 0.084663 0.552818
O O11 0.495799 0.914586 0.764952
O O12 0.607426 0.864778 0.781066
O O13 0.569002 0.063464 0.055815
O O14 0.925856 0.388985 0.226932
#
# Coordination Sequence:
#
# PCOD9313605 Si02
#       7
#     4   4   4   4   4   4   4
#     4  10  20  42  61  87 117 162 191 246 304 359
#     4  10  23  42  62  87 131 163 205 241 303 359
#     4  12  24  42  66  93 116 149 204 255 313 378
#     4  12  22  38  60  90 129 159 210 248 292 345
#     4  10  23  37  59  90 124 172 205 242 283 354
#     4  10  19  36  60  83 121 162 205 231 290 355
#     4  12  25  41  62  92 122 161 196 261 307 350
#
# _framework density 24.608274999999999
#
# number of rings (size 3 to 8) (size 9 to 14) (size 15 to 20)
#    0.000    1.143    2.857    3.429    4.000    0.000 
#    0.000    1.429    0.000    0.000    0.000    0.000 
#    0.000    0.000    0.000    0.000    0.000    0.000 
#
# Total GULP energy -156526.207595 kJ/mol
# GULP energy per Si atom -5590.221700 kJ/mol
# Density = 2.455227 g / cm^3
# Si number density = 24.608275 Si / 1000 Ang^3
#
#
#
# Elastic Constant Matrix: (Units=GPa)
#
#
# Indices 1 2 3 4 5 6 
#
# 1 66.9702 -0.1531 30.1147 0.0000 0.0000 0.0000
# 2 -0.1531 116.5400 13.9367 0.0000 0.0000 0.0000
# 3 30.1147 13.9367 111.8846 0.0000 0.0000 0.0000
# 4 0.0000 0.0000 0.0000 19.7992 0.0000 0.0000
# 5 0.0000 0.0000 0.0000 0.0000 24.1085 0.0000
# 6 0.0000 0.0000 0.0000 0.0000 0.0000 26.3437
#
#
#
# Elastic Compliance Matrix: (Units=1/GPa)
#
#
# Indices 1 2 3 4 5 6 
#
# 1 0.017027 0.000579 -0.004655 0.000000 0.000000 0.000000
# 2 0.000579 0.008730 -0.001243 0.000000 0.000000 0.000000
# 3 -0.004655 -0.001243 0.010346 0.000000 0.000000 0.000000
# 4 0.000000 0.000000 0.000000 0.050507 0.000000 0.000000
# 5 0.000000 0.000000 0.000000 0.000000 0.041479 0.000000
# 6 0.000000 0.000000 0.000000 0.000000 0.000000 0.037960
#
#
# Mechanical properties :
#
#
# Convention : Reuss Voigt Hill
#
# Bulk Modulus (GPa) = 39.27139 42.57683 40.92411
# Shear Modulus (GPa) = 27.00151 30.81670 28.90910
#
# Velocity S-wave (km/s) = 3.31607 3.54261 3.43121
# Velocity P-wave (km/s) = 5.53670 5.83719 5.68893
#
# Compressibility (1/GPa) = 0.02546383
#
# Stress axis : x y z
#
# Youngs Moduli (GPa) = 58.73182 114.54503 96.65965
#
# Poissons Ratio (x) = -0.06633 0.44995
# Poissons Ratio (y) = -0.03401 0.12018
# Poissons Ratio (z) = 0.27339 0.14242
#
# Static dielectric constant tensor:
#      x y z
#    x 1.946870 0.000000 0.000000 
#    y 0.000000 2.029410 0.000000 
#    z 0.000000 0.000000 1.908340 
# 
# From -- ./inp_files/2140.got.cif
#   From: 2010.05.17/outbox.cif.g08.bks.cpg/sg19_2_cif.got.tgz:2140.got - 2010.06.03 22:46:19.
