data_PCOD9313481
_publ_section_title
;
Structure prediction by ZEFSAII (Michael W. Deem and Ramdas Pophale) SiO2 
 PCOD9313481
Probable space group: P 21 21 21
;
_chemical_formula_sum "Si O2"
_cell_formula_units_Z 32
_cell_length_a 11.844899
_cell_length_b 10.931508
_cell_length_c 11.368457
_cell_angle_alpha 90.000000
_cell_angle_beta 90.000000
_cell_angle_gamma 90.000000
_cell_volume 1472.017463
_symmetry_space_group_name_H-M "P 21 21 21"
_symmetry_group_IT_number 19
_symmetry_cell_setting 'orthorhombic'
loop_
_space_group_symop_operation_xyz
x,y,z
1/2-x,-y,1/2+z
1/2+x,1/2-y,-z
-x,1/2+y,1/2-z
loop_
_atom_site_type_symbol
_atom_site_label
_atom_site_fract_x
_atom_site_fract_y
_atom_site_fract_z
Si Si1 0.553053 0.774017 0.089625
Si Si2 0.099893 0.266615 0.164754
Si Si3 0.720753 0.490825 0.876658
Si Si4 0.672202 0.888684 0.307215
Si Si5 0.647164 0.165846 0.304182
Si Si6 0.839026 0.494455 0.627383
Si Si7 0.982472 0.740393 0.584968
Si Si8 0.109042 0.757926 0.165180
O O1 0.606163 0.864175 0.185358
O O2 0.418773 0.753953 0.104851
O O3 0.605351 0.639465 0.117489
O O4 0.587421 0.807960 0.958750
O O5 0.195793 0.361061 0.204719
O O6 0.999025 0.247634 0.254414
O O7 0.163722 0.138750 0.147342
O O8 0.046254 0.298323 0.039078
O O9 0.801804 0.508620 0.763431
O O10 0.630126 0.599496 0.862326
O O11 0.750841 0.497478 0.017186
O O12 0.613574 0.790758 0.394746
O O13 0.652155 0.026898 0.346549
O O14 0.571268 0.178335 0.187664
O O15 0.774187 0.209155 0.281082
O O16 0.922531 0.607300 0.599758
#
# Coordination Sequence:
#
# PCOD9313481 Si02
#       8
#     4   4   4   4   4   4   4   4
#     4  10  23  44  67  97 132 172 219 278 336 396
#     4  11  26  43  67  97 132 176 222 273 336 398
#     4  10  22  40  67  92 132 178 221 279 325 404
#     4  11  24  43  70 100 134 174 223 274 335 398
#     4  11  24  43  70 100 134 174 223 274 335 398
#     4  10  18  42  67  96 126 176 223 271 337 396
#     4  10  23  44  67  97 132 172 219 278 336 396
#     4  11  26  43  67  97 132 176 222 273 336 398
#
# _framework density 21.738872000000001
#
# number of rings (size 3 to 8) (size 9 to 14) (size 15 to 20)
#    0.000    1.500    3.750    0.000    5.250    1.000 
#    0.000    0.000    0.000    0.000    0.000    0.000 
#    0.000    0.000    0.000    0.000    0.000    0.000 
#
# Total GULP energy -178661.272727 kJ/mol
# GULP energy per Si atom -5583.164773 kJ/mol
# Density = 2.168939 g / cm^3
# Si number density = 21.738872 Si / 1000 Ang^3
#
#
#
# Elastic Constant Matrix: (Units=GPa)
#
#
# Indices 1 2 3 4 5 6 
#
# 1 101.5835 7.9097 34.2973 0.0000 0.0000 0.0000
# 2 7.9097 40.7010 -3.2977 0.0000 0.0000 0.0000
# 3 34.2973 -3.2977 85.2710 0.0000 0.0000 0.0000
# 4 0.0000 0.0000 0.0000 22.1933 0.0000 0.0000
# 5 0.0000 0.0000 0.0000 0.0000 26.0965 0.0000
# 6 0.0000 0.0000 0.0000 0.0000 0.0000 8.5340
#
#
#
# Elastic Compliance Matrix: (Units=1/GPa)
#
#
# Indices 1 2 3 4 5 6 
#
# 1 0.011671 -0.002657 -0.004797 0.000000 0.000000 0.000000
# 2 -0.002657 0.025251 0.002045 0.000000 0.000000 0.000000
# 3 -0.004797 0.002045 0.013736 0.000000 0.000000 0.000000
# 4 0.000000 0.000000 0.000000 0.045059 0.000000 0.000000
# 5 0.000000 0.000000 0.000000 0.000000 0.038319 0.000000
# 6 0.000000 0.000000 0.000000 0.000000 0.000000 0.117179
#
#
# Mechanical properties :
#
#
# Convention : Reuss Voigt Hill
#
# Bulk Modulus (GPa) = 25.09980 33.93047 29.51513
# Shear Modulus (GPa) = 18.16125 23.94115 21.05120
#
# Velocity S-wave (km/s) = 2.89351 3.32219 3.11524
# Velocity P-wave (km/s) = 4.76805 5.50981 5.15230
#
# Compressibility (1/GPa) = 0.03984096
#
# Stress axis : x y z
#
# Youngs Moduli (GPa) = 85.68604 39.60171 72.80269
#
# Poissons Ratio (x) = 0.10521 0.34922
# Poissons Ratio (y) = 0.22764 -0.14889
# Poissons Ratio (z) = 0.41102 -0.08099
#
# Static dielectric constant tensor:
#      x y z
#    x 1.827620 0.000000 0.000000 
#    y 0.000000 1.769350 0.000000 
#    z 0.000000 0.000000 1.822930 
# 
# From -- ./inp_files/5074.got.cif
#   From: 2010.05.17/outbox.cif.g08.bks.cpg/sg19_3_cif.got.tgz:5074.got - 2010.06.03 22:46:19.
