data_PCOD9313956
_publ_section_title
;
Structure prediction by ZEFSAII (Michael W. Deem and Ramdas Pophale) SiO2 
 PCOD9313956
Probable space group: P 21 21 21
;
_chemical_formula_sum "Si O2"
_cell_formula_units_Z 24
_cell_length_a 17.517110
_cell_length_b 4.937471
_cell_length_c 10.186773
_cell_angle_alpha 90.000000
_cell_angle_beta 90.000000
_cell_angle_gamma 90.000000
_cell_volume 881.056265
_symmetry_space_group_name_H-M "P 21 21 21"
_symmetry_group_IT_number 19
_symmetry_cell_setting 'orthorhombic'
loop_
_space_group_symop_operation_xyz
x,y,z
1/2-x,-y,1/2+z
1/2+x,1/2-y,-z
-x,1/2+y,1/2-z
loop_
_atom_site_type_symbol
_atom_site_label
_atom_site_fract_x
_atom_site_fract_y
_atom_site_fract_z
Si Si1 0.203281 0.716292 0.340708
Si Si2 0.469901 0.253652 0.757590
Si Si3 0.716092 0.460501 0.917524
Si Si4 0.338396 0.345661 0.365623
Si Si5 0.931469 0.762644 0.451430
Si Si6 0.534206 0.894000 0.311135
O O1 0.113558 0.710005 0.316580
O O2 0.251739 0.441736 0.352416
O O3 0.220895 0.860843 0.480169
O O4 0.237625 0.868469 0.210830
O O5 0.477229 0.509333 0.647096
O O6 0.467623 0.975599 0.665490
O O7 0.654484 0.241819 0.871659
O O8 0.659299 0.620825 0.020615
O O9 0.388671 0.583502 0.425681
O O10 0.379942 0.302656 0.227369
O O11 0.004656 0.672921 0.546378
O O12 0.484186 0.710253 0.210667
#
# Coordination Sequence:
#
# PCOD9313956 Si02
#       6
#     4   4   4   4   4   4
#     4  11  27  45  74 109 147 209 244 324 383 463
#     4  12  27  47  73 104 146 195 257 303 379 453
#     4  11  23  48  70 106 154 190 257 311 388 449
#     4  10  23  42  70 102 149 191 246 313 375 447
#     4  10  22  42  70  99 143 189 245 307 369 448
#     4  10  20  38  65 102 135 186 237 294 368 432
#
# _framework density 27.240033
#
# number of rings (size 3 to 8) (size 9 to 14) (size 15 to 20)
#    0.000    1.333    3.333    1.000    2.333    5.333 
#    6.000    0.000    0.000    0.000    0.000    0.000 
#    0.000    0.000    0.000    0.000    0.000    0.000 
#
# Total GULP energy -133785.434586 kJ/mol
# GULP energy per Si atom -5574.393108 kJ/mol
# Density = 2.717803 g / cm^3
# Si number density = 27.240033 Si / 1000 Ang^3
#
#
#
# Elastic Constant Matrix: (Units=GPa)
#
#
# Indices 1 2 3 4 5 6 
#
# 1 154.5646 28.9934 62.3744 0.0000 0.0000 0.0000
# 2 28.9934 132.6317 14.7348 0.0000 0.0000 0.0000
# 3 62.3744 14.7348 163.0252 0.0000 0.0000 0.0000
# 4 0.0000 0.0000 0.0000 46.7463 0.0000 0.0000
# 5 0.0000 0.0000 0.0000 0.0000 70.7216 0.0000
# 6 0.0000 0.0000 0.0000 0.0000 0.0000 32.1580
#
#
#
# Elastic Compliance Matrix: (Units=1/GPa)
#
#
# Indices 1 2 3 4 5 6 
#
# 1 0.007902 -0.001406 -0.002896 0.000000 0.000000 0.000000
# 2 -0.001406 0.007866 -0.000173 0.000000 0.000000 0.000000
# 3 -0.002896 -0.000173 0.007258 0.000000 0.000000 0.000000
# 4 0.000000 0.000000 0.000000 0.021392 0.000000 0.000000
# 5 0.000000 0.000000 0.000000 0.000000 0.014140 0.000000
# 6 0.000000 0.000000 0.000000 0.000000 0.000000 0.031096
#
#
# Mechanical properties :
#
#
# Convention : Reuss Voigt Hill
#
# Bulk Modulus (GPa) = 71.04361 73.60299 72.32330
# Shear Modulus (GPa) = 48.40397 52.86644 50.63521
#
# Velocity S-wave (km/s) = 4.21995 4.41019 4.31612
# Velocity P-wave (km/s) = 7.06266 7.28092 7.17262
#
# Compressibility (1/GPa) = 0.01407586
#
# Stress axis : x y z
#
# Youngs Moduli (GPa) = 126.54519 127.12628 137.78164
#
# Poissons Ratio (x) = 0.17870 0.39907
# Poissons Ratio (y) = 0.17788 0.02386
# Poissons Ratio (z) = 0.36653 0.02201
#
# Static dielectric constant tensor:
#      x y z
#    x 2.167380 0.000000 0.000000 
#    y 0.000000 2.212860 0.000000 
#    z 0.000000 0.000000 2.151540 
# 
# From -- ./inp_files/939.got.cif
#   From: 2010.05.17/outbox.cif.g08.bks.cpg/sg19_1_cif.got.tgz:939.got - 2010.06.03 22:46:19.
