data_PCOD9313550
_publ_section_title
;
Structure prediction by ZEFSAII (Michael W. Deem and Ramdas Pophale) SiO2 
 PCOD9313550
Probable space group: P 21 21 21
;
_chemical_formula_sum "Si O2"
_cell_formula_units_Z 32
_cell_length_a 9.090175
_cell_length_b 13.184427
_cell_length_c 11.001037
_cell_angle_alpha 90.000000
_cell_angle_beta 90.000000
_cell_angle_gamma 90.000000
_cell_volume 1318.460519
_symmetry_space_group_name_H-M "P 21 21 21"
_symmetry_group_IT_number 19
_symmetry_cell_setting 'orthorhombic'
loop_
_space_group_symop_operation_xyz
x,y,z
1/2-x,-y,1/2+z
1/2+x,1/2-y,-z
-x,1/2+y,1/2-z
loop_
_atom_site_type_symbol
_atom_site_label
_atom_site_fract_x
_atom_site_fract_y
_atom_site_fract_z
Si Si1 0.276488 0.557444 0.597358
Si Si2 0.533584 0.924017 0.194262
Si Si3 0.828129 0.166194 0.464967
Si Si4 0.552699 0.181100 0.627560
Si Si5 0.547683 0.614527 0.473738
Si Si6 0.289448 0.825851 0.690069
Si Si7 0.989643 0.029101 0.069595
Si Si8 0.204543 0.015704 0.858060
O O1 0.167882 0.571092 0.711014
O O2 0.339213 0.441905 0.603771
O O3 0.404860 0.634610 0.555806
O O4 0.168700 0.556032 0.480358
O O5 0.575808 0.847308 0.088045
O O6 0.506921 0.030661 0.124328
O O7 0.383441 0.907553 0.269358
O O8 0.660458 0.179829 0.509289
O O9 0.903265 0.257249 0.393550
O O10 0.648106 0.238952 0.726417
O O11 0.521948 0.064519 0.661972
O O12 0.645697 0.693114 0.394624
O O13 0.663834 0.563866 0.566180
O O14 0.250121 0.918527 0.781173
O O15 0.421038 0.874105 0.611935
O O16 0.084153 0.983289 0.958091
#
# Coordination Sequence:
#
# PCOD9313550 Si02
#       8
#     4   4   4   4   4   4   4   4
#     4   9  18  34  56  82 115 153 193 241 295 349
#     4   9  18  34  55  81 116 155 189 234 293 347
#     4  10  22  36  55  87 120 147 191 249 296 351
#     4  11  22  36  56  85 120 152 191 250 303 348
#     4   9  18  30  52  83 110 145 195 237 280 345
#     4  10  19  34  57  83 115 155 199 244 295 352
#     4   9  20  36  55  84 118 153 196 243 295 353
#     4   9  17  32  56  81 112 152 190 238 291 345
#
# _framework density 24.27073
#
# number of rings (size 3 to 8) (size 9 to 14) (size 15 to 20)
#    0.000    2.500    0.000    2.250    0.000   10.000 
#    0.000    0.000    0.000   13.500    0.000    7.000 
#    0.000    0.000    0.000    0.000    0.000    0.000 
#
# Total GULP energy -178926.962276 kJ/mol
# GULP energy per Si atom -5591.467571 kJ/mol
# Density = 2.421549 g / cm^3
# Si number density = 24.270730 Si / 1000 Ang^3
#
#
#
# Elastic Constant Matrix: (Units=GPa)
#
#
# Indices 1 2 3 4 5 6 
#
# 1 123.7217 33.3843 27.5840 0.0000 0.0000 0.0000
# 2 33.3843 71.2118 18.3583 0.0000 0.0000 0.0000
# 3 27.5840 18.3583 74.5008 0.0000 0.0000 0.0000
# 4 0.0000 0.0000 0.0000 26.2576 0.0000 0.0000
# 5 0.0000 0.0000 0.0000 0.0000 44.5387 0.0000
# 6 0.0000 0.0000 0.0000 0.0000 0.0000 26.5096
#
#
#
# Elastic Compliance Matrix: (Units=1/GPa)
#
#
# Indices 1 2 3 4 5 6 
#
# 1 0.009717 -0.003874 -0.002643 0.000000 0.000000 0.000000
# 2 -0.003874 0.016540 -0.002641 0.000000 0.000000 0.000000
# 3 -0.002643 -0.002641 0.015052 0.000000 0.000000 0.000000
# 4 0.000000 0.000000 0.000000 0.038084 0.000000 0.000000
# 5 0.000000 0.000000 0.000000 0.000000 0.022452 0.000000
# 6 0.000000 0.000000 0.000000 0.000000 0.000000 0.037722
#
#
# Mechanical properties :
#
#
# Convention : Reuss Voigt Hill
#
# Bulk Modulus (GPa) = 43.49328 47.56526 45.52927
# Shear Modulus (GPa) = 30.20251 32.13504 31.16877
#
# Velocity S-wave (km/s) = 3.53143 3.64266 3.58748
# Velocity P-wave (km/s) = 5.88107 6.11002 5.99664
#
# Compressibility (1/GPa) = 0.02299206
#
# Stress axis : x y z
#
# Youngs Moduli (GPa) = 102.90897 60.46049 66.43553
#
# Poissons Ratio (x) = 0.23423 0.17560
# Poissons Ratio (y) = 0.39868 0.17548
# Poissons Ratio (z) = 0.27201 0.15969
#
# Static dielectric constant tensor:
#      x y z
#    x 1.937160 0.000000 0.000000 
#    y 0.000000 1.975630 0.000000 
#    z 0.000000 0.000000 1.962390 
# 
# From -- ./inp_files/4749.got.cif
#   From: 2010.05.17/outbox.cif.g08.bks.cpg/sg19_3_cif.got.tgz:4749.got - 2010.06.03 22:46:19.
