data_PCOD9313341
_publ_section_title
;
Structure prediction by ZEFSAII (Michael W. Deem and Ramdas Pophale) SiO2 
 PCOD9313341
Probable space group: P 21 21 21
;
_chemical_formula_sum "Si O2"
_cell_formula_units_Z 28
_cell_length_a 9.387871
_cell_length_b 5.466460
_cell_length_c 22.071638
_cell_angle_alpha 90.000000
_cell_angle_beta 90.000000
_cell_angle_gamma 90.000000
_cell_volume 1132.681618
_symmetry_space_group_name_H-M "P 21 21 21"
_symmetry_group_IT_number 19
_symmetry_cell_setting 'orthorhombic'
loop_
_space_group_symop_operation_xyz
x,y,z
1/2-x,-y,1/2+z
1/2+x,1/2-y,-z
-x,1/2+y,1/2-z
loop_
_atom_site_type_symbol
_atom_site_label
_atom_site_fract_x
_atom_site_fract_y
_atom_site_fract_z
Si Si1 0.227973 0.500000 0.597802
Si Si2 0.640709 1.000000 0.664883
Si Si3 0.602439 0.500000 0.096228
Si Si4 0.466125 0.500000 0.285926
Si Si5 0.158304 0.000000 0.296550
Si Si6 0.748035 0.500000 0.342960
Si Si7 0.283844 0.500000 0.456368
O O1 0.291878 0.249671 0.624340
O O2 0.238255 0.500000 0.525547
O O3 0.061057 0.500000 0.615269
O O4 0.291878 0.750329 0.624340
O O5 0.576925 0.250554 0.688816
O O6 0.655427 1.000000 0.592697
O O7 0.802261 1.000000 0.693253
O O8 0.576925 0.749446 0.688816
O O9 0.711356 0.500000 0.153623
O O10 0.634418 0.747341 0.058735
O O11 0.634419 0.252660 0.058735
O O12 0.500000 0.250000 0.250000
O O13 0.575096 0.500000 0.341545
O O14 0.211923 1.000000 0.227921
#
# Coordination Sequence:
#
# PCOD9313341 Si02
#       7
#     4   4   4   4   4   4   4
#     4  12  24  35  53  81 109 154 188 221 268 325
#     4  10  17  31  45  66  99 144 171 207 250 301
#     4  10  21  37  56  74 106 147 183 227 275 310
#     4  12  19  27  45  74 106 139 163 196 264 348
#     4  10  18  30  47  74 104 143 162 202 270 346
#     4  12  21  30  48  79 119 138 176 212 272 345
#     4  10  22  38  52  72 111 147 197 225 251 327
#
# _framework density 24.720096000000002
#
# number of rings (size 3 to 8) (size 9 to 14) (size 15 to 20)
#    0.000    1.143    2.857    6.857    0.000    0.000 
#    0.000    0.000    0.000    0.000    0.000    0.000 
#    0.000   91.429    0.000    0.000    0.000    0.000 
#
# Total GULP energy -156837.516576 kJ/mol
# GULP energy per Si atom -5601.339878 kJ/mol
# Density = 2.466383 g / cm^3
# Si number density = 24.720096 Si / 1000 Ang^3
#
#
#
# Elastic Constant Matrix: (Units=GPa)
#
#
# Indices 1 2 3 4 5 6 
#
# 1 93.8025 13.7575 26.6437 0.0000 0.0000 0.0000
# 2 13.7575 294.0064 96.7237 0.0000 0.0000 0.0000
# 3 26.6437 96.7237 189.2660 0.0000 0.0000 0.0000
# 4 0.0000 0.0000 0.0000 41.5332 0.0000 0.0000
# 5 0.0000 0.0000 0.0000 0.0000 26.5070 0.0000
# 6 0.0000 0.0000 0.0000 0.0000 0.0000 -36.1005
#
#
#
# Elastic Compliance Matrix: (Units=1/GPa)
#
#
# Indices 1 2 3 4 5 6 
#
# 1 0.011105 -0.000006 -0.001560 0.000000 0.000000 0.000000
# 2 -0.000006 0.004089 -0.002089 0.000000 0.000000 0.000000
# 3 -0.001560 -0.002089 0.006571 0.000000 0.000000 0.000000
# 4 0.000000 0.000000 0.000000 0.024077 0.000000 0.000000
# 5 0.000000 0.000000 0.000000 0.000000 0.037726 0.000000
# 6 0.000000 0.000000 0.000000 0.000000 0.000000 -0.027700
#
#
# Mechanical properties :
#
#
# Convention : Reuss Voigt Hill
#
# Bulk Modulus (GPa) = 69.18512 94.59164 81.88838
# Shear Modulus (GPa) = 73.53530 35.71795 54.62662
#
# Velocity S-wave (km/s) = 5.46001 3.80530 4.70596
# Velocity P-wave (km/s) = 8.23390 7.59310 7.91999
#
# Compressibility (1/GPa) = 0.01445398
#
# Stress axis : x y z
#
# Youngs Moduli (GPa) = 90.05171 244.57586 152.19417
#
# Poissons Ratio (x) = 0.00157 0.23742
# Poissons Ratio (y) = 0.00058 0.31788
# Poissons Ratio (z) = 0.14048 0.51083
#
# Static dielectric constant tensor:
#      x y z
#    x 1.987850 0.000000 0.000000 
#    y 0.000000 2.032220 0.000000 
#    z 0.000000 0.000000 1.906750 
# 
# From -- ./inp_files/7216.got.cif
#   From: 2010.05.17/outbox.cif.g08.bks.cpg/sg19_4_cif.got.tgz:7216.got - 2010.06.03 22:46:19.
