data_PCOD9313986
_publ_section_title
;
Structure prediction by ZEFSAII (Michael W. Deem and Ramdas Pophale) SiO2 
 PCOD9313986
Probable space group: P 21 21 21
;
_chemical_formula_sum "Si O2"
_cell_formula_units_Z 20
_cell_length_a 25.707428
_cell_length_b 4.954626
_cell_length_c 6.179497
_cell_angle_alpha 90.000000
_cell_angle_beta 90.000000
_cell_angle_gamma 90.000000
_cell_volume 787.086804
_symmetry_space_group_name_H-M "P 21 21 21"
_symmetry_group_IT_number 19
_symmetry_cell_setting 'orthorhombic'
loop_
_space_group_symop_operation_xyz
x,y,z
1/2-x,-y,1/2+z
1/2+x,1/2-y,-z
-x,1/2+y,1/2-z
loop_
_atom_site_type_symbol
_atom_site_label
_atom_site_fract_x
_atom_site_fract_y
_atom_site_fract_z
Si Si1 0.771939 0.053247 0.790064
Si Si2 0.519091 0.297747 0.020833
Si Si3 0.919862 0.451940 0.162454
Si Si4 0.420954 0.294888 0.408145
Si Si5 0.836155 0.555332 0.842661
O O1 0.785663 0.365102 0.834858
O O2 0.748198 0.036396 0.539461
O O3 0.820918 0.849882 0.764271
O O4 0.472426 0.103347 0.404188
O O5 0.559295 0.093637 0.136852
O O6 0.544511 0.324829 0.780007
O O7 0.460578 0.199595 0.992512
O O8 0.904153 0.232184 0.341331
O O9 0.867633 0.573062 0.065951
O O10 0.376728 0.126280 0.291301
#
# Coordination Sequence:
#
# PCOD9313986 Si02
#       5
#     4   4   4   4   4
#     4  12  31  54  81 108 145 183 240 317 398 454
#     4  10  20  39  63  93 154 198 234 291 347 405
#     4  10  23  39  66 100 149 193 245 289 349 425
#     4  10  22  39  62  99 141 186 239 287 339 428
#     4  12  28  43  78 106 137 192 244 308 369 450
#
# _framework density 25.410160000000001
#
# number of rings (size 3 to 8) (size 9 to 14) (size 15 to 20)
#    1.200    0.000    2.000    2.400    8.400    1.600 
#    0.000    0.000    0.000    0.000    0.000    0.000 
#    0.000    0.000    0.000    0.000    0.000    0.000 
#
# Total GULP energy -111336.730057 kJ/mol
# GULP energy per Si atom -5566.836503 kJ/mol
# Density = 2.535233 g / cm^3
# Si number density = 25.410160 Si / 1000 Ang^3
#
#
#
# Elastic Constant Matrix: (Units=GPa)
#
#
# Indices 1 2 3 4 5 6 
#
# 1 36.9537 -4.7091 19.8445 0.0000 0.0000 0.0000
# 2 -4.7091 102.6577 -10.5117 0.0000 0.0000 0.0000
# 3 19.8445 -10.5117 108.1082 0.0000 0.0000 0.0000
# 4 0.0000 0.0000 0.0000 18.9445 0.0000 0.0000
# 5 0.0000 0.0000 0.0000 0.0000 42.3067 0.0000
# 6 0.0000 0.0000 0.0000 0.0000 0.0000 34.9501
#
#
#
# Elastic Compliance Matrix: (Units=1/GPa)
#
#
# Indices 1 2 3 4 5 6 
#
# 1 0.030089 0.000823 -0.005443 0.000000 0.000000 0.000000
# 2 0.000823 0.009862 0.000808 0.000000 0.000000 0.000000
# 3 -0.005443 0.000808 0.010328 0.000000 0.000000 0.000000
# 4 0.000000 0.000000 0.000000 0.052786 0.000000 0.000000
# 5 0.000000 0.000000 0.000000 0.000000 0.023637 0.000000
# 6 0.000000 0.000000 0.000000 0.000000 0.000000 0.028612
#
#
# Mechanical properties :
#
#
# Convention : Reuss Voigt Hill
#
# Bulk Modulus (GPa) = 23.44491 28.55190 25.99841
# Shear Modulus (GPa) = 28.22377 35.44665 31.83521
#
# Velocity S-wave (km/s) = 3.33637 3.73899 3.54341
# Velocity P-wave (km/s) = 4.90800 5.46817 5.19564
#
# Compressibility (1/GPa) = 0.04265317
#
# Stress axis : x y z
#
# Youngs Moduli (GPa) = 33.23496 101.40369 96.82705
#
# Poissons Ratio (x) = -0.08344 0.52704
# Poissons Ratio (y) = -0.02735 -0.07822
# Poissons Ratio (z) = 0.18090 -0.08192
#
# Static dielectric constant tensor:
#      x y z
#    x 2.061170 0.000000 0.000000 
#    y 0.000000 1.945280 0.000000 
#    z 0.000000 0.000000 2.305370 
# 
# From -- ./inp_files/131.got.cif
#   From: 2010.05.17/outbox.cif.g08.bks.cpg/sg19_1_cif.got.tgz:131.got - 2010.06.03 22:46:19.
