data_PCOD9313911
_publ_section_title
;
Structure prediction by ZEFSAII (Michael W. Deem and Ramdas Pophale) SiO2 
 PCOD9313911
Probable space group: P 21 21 21
;
_chemical_formula_sum "Si O2"
_cell_formula_units_Z 32
_cell_length_a 5.751802
_cell_length_b 26.867867
_cell_length_c 9.633466
_cell_angle_alpha 90.000000
_cell_angle_beta 90.000000
_cell_angle_gamma 90.000000
_cell_volume 1488.742842
_symmetry_space_group_name_H-M "P 21 21 21"
_symmetry_group_IT_number 19
_symmetry_cell_setting 'orthorhombic'
loop_
_space_group_symop_operation_xyz
x,y,z
1/2-x,-y,1/2+z
1/2+x,1/2-y,-z
-x,1/2+y,1/2-z
loop_
_atom_site_type_symbol
_atom_site_label
_atom_site_fract_x
_atom_site_fract_y
_atom_site_fract_z
Si Si1 0.451475 0.015165 0.306080
Si Si2 0.802228 0.016033 0.540152
Si Si3 0.344851 0.659456 0.713216
Si Si4 0.179621 0.094191 0.467782
Si Si5 0.863551 0.221828 0.019256
Si Si6 0.047478 0.686249 0.948236
Si Si7 0.923707 0.436276 0.257083
Si Si8 0.805577 0.251838 0.301945
O O1 0.648287 0.995206 0.413294
O O2 0.362608 0.068402 0.364123
O O3 0.533072 0.015544 0.144930
O O4 0.235834 0.976895 0.316564
O O5 0.619675 0.037182 0.651549
O O6 0.952703 0.059328 0.467620
O O7 0.184767 0.677659 0.587353
O O8 0.214961 0.650418 0.859987
O O9 0.474237 0.609149 0.670147
O O10 0.514442 0.705156 0.755476
O O11 0.267610 0.089685 0.625354
O O12 0.120642 0.152181 0.457942
O O13 0.824440 0.211138 0.181597
O O14 0.131696 0.241766 0.003394
O O15 0.930900 0.718545 0.826605
O O16 0.157806 0.725439 0.051837
#
# Coordination Sequence:
#
# PCOD9313911 Si02
#       8
#     4   4   4   4   4   4   4   4
#     4  10  22  39  67  94 127 167 222 276 332 407
#     4  10  20  39  66  89 128 169 211 271 340 392
#     4  11  21  38  67  95 128 176 222 268 331 411
#     4  10  21  37  65  98 125 168 221 270 331 398
#     4  10  22  40  66  93 138 180 222 276 340 396
#     4  12  21  38  66  98 132 169 220 275 334 404
#     4  10  20  37  66  99 120 167 230 268 322 408
#     4  11  23  38  63 102 132 172 220 274 336 398
#
# _framework density 21.494644999999998
#
# number of rings (size 3 to 8) (size 9 to 14) (size 15 to 20)
#    0.000    1.500    5.000    0.750    0.000    0.000 
#    0.000    0.000   22.000    4.500    0.000    0.000 
#    0.000    0.000    0.000    0.000    0.000    0.000 
#
# Total GULP energy -178240.536440 kJ/mol
# GULP energy per Si atom -5570.016764 kJ/mol
# Density = 2.144572 g / cm^3
# Si number density = 21.494645 Si / 1000 Ang^3
#
#
#
# Elastic Constant Matrix: (Units=GPa)
#
#
# Indices 1 2 3 4 5 6 
#
# 1 45.5737 -0.5919 9.0770 0.0000 0.0000 0.0000
# 2 -0.5919 32.8941 0.7015 0.0000 0.0000 0.0000
# 3 9.0770 0.7015 68.2882 0.0000 0.0000 0.0000
# 4 0.0000 0.0000 0.0000 21.0185 0.0000 0.0000
# 5 0.0000 0.0000 0.0000 0.0000 45.4366 0.0000
# 6 0.0000 0.0000 0.0000 0.0000 0.0000 27.2536
#
#
#
# Elastic Compliance Matrix: (Units=1/GPa)
#
#
# Indices 1 2 3 4 5 6 
#
# 1 0.022546 0.000470 -0.003002 0.000000 0.000000 0.000000
# 2 0.000470 0.030417 -0.000375 0.000000 0.000000 0.000000
# 3 -0.003002 -0.000375 0.015047 0.000000 0.000000 0.000000
# 4 0.000000 0.000000 0.000000 0.047577 0.000000 0.000000
# 5 0.000000 0.000000 0.000000 0.000000 0.022009 0.000000
# 6 0.000000 0.000000 0.000000 0.000000 0.000000 0.036692
#
#
# Mechanical properties :
#
#
# Convention : Reuss Voigt Hill
#
# Bulk Modulus (GPa) = 16.07812 18.34769 17.21290
# Shear Modulus (GPa) = 24.89614 27.91304 26.40459
#
# Velocity S-wave (km/s) = 3.40700 3.60752 3.50869
# Velocity P-wave (km/s) = 4.79303 5.08987 4.94368
#
# Compressibility (1/GPa) = 0.06219633
#
# Stress axis : x y z
#
# Youngs Moduli (GPa) = 44.35285 32.87633 66.45992
#
# Poissons Ratio (x) = -0.01544 0.19950
# Poissons Ratio (y) = -0.02083 0.02492
# Poissons Ratio (z) = 0.13314 0.01233
#
# Static dielectric constant tensor:
#      x y z
#    x 1.887600 0.000000 0.000000 
#    y 0.000000 1.806130 0.000000 
#    z 0.000000 0.000000 1.782720 
# 
# From -- ./inp_files/675.got.cif
#   From: 2010.05.17/outbox.cif.g08.bks.cpg/sg19_1_cif.got.tgz:675.got - 2010.06.03 22:46:19.
