data_PCOD9313590
_publ_section_title
;
Structure prediction by ZEFSAII (Michael W. Deem and Ramdas Pophale) SiO2 
 PCOD9313590
Probable space group: P 21 21 21
;
_chemical_formula_sum "Si O2"
_cell_formula_units_Z 32
_cell_length_a 5.351338
_cell_length_b 17.758642
_cell_length_c 13.539243
_cell_angle_alpha 90.000000
_cell_angle_beta 90.000000
_cell_angle_gamma 90.000000
_cell_volume 1286.668053
_symmetry_space_group_name_H-M "P 21 21 21"
_symmetry_group_IT_number 19
_symmetry_cell_setting 'orthorhombic'
loop_
_space_group_symop_operation_xyz
x,y,z
1/2-x,-y,1/2+z
1/2+x,1/2-y,-z
-x,1/2+y,1/2-z
loop_
_atom_site_type_symbol
_atom_site_label
_atom_site_fract_x
_atom_site_fract_y
_atom_site_fract_z
Si Si1 0.035395 0.241290 0.111561
Si Si2 0.806009 0.995066 0.509565
Si Si3 0.817343 0.592622 0.122922
Si Si4 0.871442 0.367727 0.979923
Si Si5 0.342024 0.277558 0.625605
Si Si6 0.531043 0.288259 0.226284
Si Si7 0.584845 0.141782 0.539904
Si Si8 0.590495 0.445255 0.155165
O O1 0.017242 0.293032 0.013277
O O2 0.271793 0.270143 0.174184
O O3 0.775323 0.256333 0.167016
O O4 0.125214 0.158494 0.077890
O O5 0.947594 0.929281 0.567631
O O6 0.633035 0.960175 0.422976
O O7 0.999420 0.046423 0.449069
O O8 0.661425 0.058060 0.573055
O O9 0.983742 0.657625 0.172883
O O10 0.686788 0.527350 0.188351
O O11 0.613215 0.625887 0.047811
O O12 0.792665 0.406179 0.082903
O O13 0.077731 0.258547 0.674929
O O14 0.474816 0.196838 0.621105
O O15 0.297435 0.309427 0.515615
O O16 0.539961 0.379208 0.233297
#
# Coordination Sequence:
#
# PCOD9313590 Si02
#       8
#     4   4   4   4   4   4   4   4
#     4  11  23  37  60  97 127 169 216 260 315 380
#     4   9  18  34  61  90 119 158 214 266 314 380
#     4   9  19  36  61  88 119 159 215 261 321 389
#     4  10  19  35  62  88 124 167 214 260 299 387
#     4  11  22  38  65  89 125 163 220 282 323 382
#     4  11  25  39  60  95 135 170 212 267 334 389
#     4  10  20  37  63  92 115 165 227 273 324 386
#     4   9  18  36  60  89 122 167 212 251 324 395
#
# _framework density 24.870438
#
# number of rings (size 3 to 8) (size 9 to 14) (size 15 to 20)
#    0.000    2.000    2.500    1.500    3.500    0.000 
#    0.000    1.250    0.000    0.000    0.000    0.000 
#    0.000    0.000    0.000    0.000    0.000    0.000 
#
# Total GULP energy -178633.231904 kJ/mol
# GULP energy per Si atom -5582.288497 kJ/mol
# Density = 2.481383 g / cm^3
# Si number density = 24.870438 Si / 1000 Ang^3
#
#
#
# Elastic Constant Matrix: (Units=GPa)
#
#
# Indices 1 2 3 4 5 6 
#
# 1 95.3955 37.1139 19.7408 0.0000 0.0000 0.0000
# 2 37.1139 122.9943 25.2691 0.0000 0.0000 0.0000
# 3 19.7408 25.2691 36.8002 0.0000 0.0000 0.0000
# 4 0.0000 0.0000 0.0000 22.4311 0.0000 0.0000
# 5 0.0000 0.0000 0.0000 0.0000 39.7698 0.0000
# 6 0.0000 0.0000 0.0000 0.0000 0.0000 49.6283
#
#
#
# Elastic Compliance Matrix: (Units=1/GPa)
#
#
# Indices 1 2 3 4 5 6 
#
# 1 0.012570 -0.002803 -0.004818 0.000000 0.000000 0.000000
# 2 -0.002803 0.010091 -0.005425 0.000000 0.000000 0.000000
# 3 -0.004818 -0.005425 0.033484 0.000000 0.000000 0.000000
# 4 0.000000 0.000000 0.000000 0.044581 0.000000 0.000000
# 5 0.000000 0.000000 0.000000 0.000000 0.025145 0.000000
# 6 0.000000 0.000000 0.000000 0.000000 0.000000 0.020150
#
#
# Mechanical properties :
#
#
# Convention : Reuss Voigt Hill
#
# Bulk Modulus (GPa) = 33.27621 46.60417 39.94019
# Shear Modulus (GPa) = 27.45274 33.90361 30.67818
#
# Velocity S-wave (km/s) = 3.32600 3.69617 3.51596
# Velocity P-wave (km/s) = 5.30646 6.08236 5.70761
#
# Compressibility (1/GPa) = 0.03005150
#
# Stress axis : x y z
#
# Youngs Moduli (GPa) = 79.55225 99.09855 29.86522
#
# Poissons Ratio (x) = 0.27780 0.14390
# Poissons Ratio (y) = 0.22300 0.16203
# Poissons Ratio (z) = 0.38330 0.53764
#
# Static dielectric constant tensor:
#      x y z
#    x 2.079620 0.000000 0.000000 
#    y 0.000000 2.045680 0.000000 
#    z 0.000000 0.000000 1.983670 
# 
# From -- ./inp_files/6504.got.cif
#   From: 2010.05.17/outbox.cif.g08.bks.cpg/sg19_4_cif.got.tgz:6504.got - 2010.06.03 22:46:19.
