data_PCOD9313952
_publ_section_title
;
Structure prediction by ZEFSAII (Michael W. Deem and Ramdas Pophale) SiO2 
 PCOD9313952
Probable space group: P 21 21 21
;
_chemical_formula_sum "Si O2"
_cell_formula_units_Z 32
_cell_length_a 13.491418
_cell_length_b 16.017070
_cell_length_c 6.720440
_cell_angle_alpha 90.000000
_cell_angle_beta 90.000000
_cell_angle_gamma 90.000000
_cell_volume 1452.239950
_symmetry_space_group_name_H-M "P 21 21 21"
_symmetry_group_IT_number 19
_symmetry_cell_setting 'orthorhombic'
loop_
_space_group_symop_operation_xyz
x,y,z
1/2-x,-y,1/2+z
1/2+x,1/2-y,-z
-x,1/2+y,1/2-z
loop_
_atom_site_type_symbol
_atom_site_label
_atom_site_fract_x
_atom_site_fract_y
_atom_site_fract_z
Si Si1 0.559094 0.081853 0.948353
Si Si2 0.411641 0.107411 0.622446
Si Si3 0.069253 0.063447 0.909664
Si Si4 0.899258 0.088552 0.236284
Si Si5 0.569383 0.846990 0.139816
Si Si6 0.758616 0.161240 0.927869
Si Si7 0.552849 0.187814 0.326824
Si Si8 0.729852 0.301271 0.210546
O O1 0.452780 0.085185 0.841340
O O2 0.604663 0.995471 0.866951
O O3 0.643631 0.148709 0.885660
O O4 0.550188 0.109763 0.176857
O O5 0.505605 0.154703 0.528216
O O6 0.313055 0.160895 0.647459
O O7 0.395057 0.027176 0.481458
O O8 0.160736 0.125344 0.875871
O O9 0.003400 0.077899 0.709992
O O10 0.991211 0.088149 0.083658
O O11 0.919600 0.157747 0.403652
O O12 0.801833 0.101401 0.103179
O O13 0.675879 0.857139 0.237229
O O14 0.520464 0.763808 0.232028
O O15 0.775559 0.251929 0.023622
O O16 0.659303 0.233242 0.321321
#
# Coordination Sequence:
#
# PCOD9313952 Si02
#       8
#     4   4   4   4   4   4   4   4
#     4  10  23  39  60  91 130 169 209 271 320 381
#     4  11  22  43  67  92 129 174 220 264 327 390
#     4   9  22  44  62  91 130 168 215 275 319 382
#     4  10  21  39  63  90 124 167 213 262 328 384
#     4  10  20  38  64  91 126 168 212 265 324 383
#     4  10  22  37  60  95 128 165 211 267 321 384
#     4  10  22  40  64  93 127 166 215 270 320 390
#     4  10  22  44  64  95 132 169 221 270 325 386
#
# _framework density 22.034924
#
# number of rings (size 3 to 8) (size 9 to 14) (size 15 to 20)
#    0.000    2.000    0.000    2.250    1.750    7.000 
#   15.750    1.250    0.000    0.000    0.000    0.000 
#    0.000    0.000    0.000    0.000    0.000    0.000 
#
# Total GULP energy -178493.071648 kJ/mol
# GULP energy per Si atom -5577.908489 kJ/mol
# Density = 2.198477 g / cm^3
# Si number density = 22.034924 Si / 1000 Ang^3
#
#
#
# Elastic Constant Matrix: (Units=GPa)
#
#
# Indices 1 2 3 4 5 6 
#
# 1 41.0150 7.0434 32.6305 0.0000 0.0000 0.0000
# 2 7.0434 80.9238 18.6805 0.0000 0.0000 0.0000
# 3 32.6305 18.6805 74.3734 0.0000 0.0000 0.0000
# 4 0.0000 0.0000 0.0000 16.5121 0.0000 0.0000
# 5 0.0000 0.0000 0.0000 0.0000 19.3015 0.0000
# 6 0.0000 0.0000 0.0000 0.0000 0.0000 34.1721
#
#
#
# Elastic Compliance Matrix: (Units=1/GPa)
#
#
# Indices 1 2 3 4 5 6 
#
# 1 0.037479 0.000567 -0.016586 0.000000 0.000000 0.000000
# 2 0.000567 0.013126 -0.003546 0.000000 0.000000 0.000000
# 3 -0.016586 -0.003546 0.021613 0.000000 0.000000 0.000000
# 4 0.000000 0.000000 0.000000 0.060562 0.000000 0.000000
# 5 0.000000 0.000000 0.000000 0.000000 0.051810 0.000000
# 6 0.000000 0.000000 0.000000 0.000000 0.000000 0.029264
#
#
# Mechanical properties :
#
#
# Convention : Reuss Voigt Hill
#
# Bulk Modulus (GPa) = 30.22146 34.78009 32.50077
# Shear Modulus (GPa) = 18.93844 23.19432 21.06638
#
# Velocity S-wave (km/s) = 2.93486 3.24792 3.09535
# Velocity P-wave (km/s) = 5.02290 5.46660 5.24944
#
# Compressibility (1/GPa) = 0.03308907
#
# Stress axis : x y z
#
# Youngs Moduli (GPa) = 26.68136 76.18199 46.26819
#
# Poissons Ratio (x) = -0.04317 0.76740
# Poissons Ratio (y) = -0.01512 0.16405
# Poissons Ratio (z) = 0.44254 0.27011
#
# Static dielectric constant tensor:
#      x y z
#    x 1.773230 0.000000 0.000000 
#    y 0.000000 1.881020 0.000000 
#    z 0.000000 0.000000 1.811490 
# 
# From -- ./inp_files/1571.got.cif
#   From: 2010.05.17/outbox.cif.g08.bks.cpg/sg19_1_cif.got.tgz:1571.got - 2010.06.03 22:46:19.
