data_PCOD9313702
_publ_section_title
;
Structure prediction by ZEFSAII (Michael W. Deem and Ramdas Pophale) SiO2 
 PCOD9313702
Probable space group: P 21 21 21
;
_chemical_formula_sum "Si O2"
_cell_formula_units_Z 28
_cell_length_a 5.287538
_cell_length_b 28.444148
_cell_length_c 8.107260
_cell_angle_alpha 90.000000
_cell_angle_beta 90.000000
_cell_angle_gamma 90.000000
_cell_volume 1219.327959
_symmetry_space_group_name_H-M "P 21 21 21"
_symmetry_group_IT_number 19
_symmetry_cell_setting 'orthorhombic'
loop_
_space_group_symop_operation_xyz
x,y,z
1/2-x,-y,1/2+z
1/2+x,1/2-y,-z
-x,1/2+y,1/2-z
loop_
_atom_site_type_symbol
_atom_site_label
_atom_site_fract_x
_atom_site_fract_y
_atom_site_fract_z
Si Si1 0.315890 0.996765 0.043971
Si Si2 0.658679 0.655381 0.714205
Si Si3 0.623415 0.144365 0.136233
Si Si4 0.474810 0.056700 0.304989
Si Si5 0.746022 0.246247 0.113989
Si Si6 0.967100 0.082815 0.931306
Si Si7 0.080404 0.429574 0.349304
O O1 0.533988 0.022393 0.150477
O O2 0.144367 0.041881 0.998158
O O3 0.170920 0.960964 0.167603
O O4 0.286475 0.963346 0.883690
O O5 0.512649 0.653228 0.538966
O O6 0.495437 0.625448 0.843163
O O7 0.717663 0.709907 0.737252
O O8 0.901078 0.623250 0.678714
O O9 0.456365 0.110245 0.247520
O O10 0.699685 0.195693 0.197156
O O11 0.855974 0.111111 0.086351
O O12 0.660525 0.056360 0.464954
O O13 0.998828 0.242457 0.999809
O O14 0.753668 0.062578 0.808729
#
# Coordination Sequence:
#
# PCOD9313702 Si02
#       7
#     4   4   4   4   4   4   4
#     4  10  22  38  60  87 126 174 214 263 335 400
#     4  10  19  40  63  87 123 167 213 273 336 402
#     4  10  21  37  62  92 125 158 218 276 335 392
#     4  10  22  39  58  85 129 168 211 271 326 406
#     4  10  20  37  68 102 129 172 226 285 343 414
#     4  11  20  37  59  89 116 168 206 272 319 400
#     4   9  24  38  58  86 130 161 220 268 334 398
#
# _framework density 22.963467999999999
#
# number of rings (size 3 to 8) (size 9 to 14) (size 15 to 20)
#    0.857    1.143    2.857    0.857    4.000    0.000 
#    5.143    0.000    3.143    0.000    0.000    0.000 
#    0.000    0.000    0.000    0.000    0.000    0.000 
#
# Total GULP energy -155932.356922 kJ/mol
# GULP energy per Si atom -5569.012747 kJ/mol
# Density = 2.291120 g / cm^3
# Si number density = 22.963468 Si / 1000 Ang^3
#
#
#
# Elastic Constant Matrix: (Units=GPa)
#
#
# Indices 1 2 3 4 5 6 
#
# 1 29.2005 15.0166 11.7347 0.0000 0.0000 0.0000
# 2 15.0166 204.7854 58.3481 0.0000 0.0000 0.0000
# 3 11.7347 58.3481 81.1851 0.0000 0.0000 0.0000
# 4 0.0000 0.0000 0.0000 27.5707 0.0000 0.0000
# 5 0.0000 0.0000 0.0000 0.0000 21.7883 0.0000
# 6 0.0000 0.0000 0.0000 0.0000 0.0000 33.1565
#
#
#
# Elastic Compliance Matrix: (Units=1/GPa)
#
#
# Indices 1 2 3 4 5 6 
#
# 1 0.036713 -0.001484 -0.004240 0.000000 0.000000 0.000000
# 2 -0.001484 0.006201 -0.004242 0.000000 0.000000 0.000000
# 3 -0.004240 -0.004242 0.015979 0.000000 0.000000 0.000000
# 4 0.000000 0.000000 0.000000 0.036270 0.000000 0.000000
# 5 0.000000 0.000000 0.000000 0.000000 0.045896 0.000000
# 6 0.000000 0.000000 0.000000 0.000000 0.000000 0.030160
#
#
# Mechanical properties :
#
#
# Convention : Reuss Voigt Hill
#
# Bulk Modulus (GPa) = 25.66678 53.92997 39.79838
# Shear Modulus (GPa) = 24.49322 31.84120 28.16721
#
# Velocity S-wave (km/s) = 3.26945 3.72775 3.50610
# Velocity P-wave (km/s) = 5.04519 6.48570 5.81026
#
# Compressibility (1/GPa) = 0.03896086
#
# Stress axis : x y z
#
# Youngs Moduli (GPa) = 27.23827 161.27483 62.58195
#
# Poissons Ratio (x) = 0.23934 0.26535
# Poissons Ratio (y) = 0.04042 0.26547
# Poissons Ratio (z) = 0.11549 0.68411
#
# Static dielectric constant tensor:
#      x y z
#    x 1.971960 0.000000 0.000000 
#    y 0.000000 1.867390 0.000000 
#    z 0.000000 0.000000 1.932040 
# 
# From -- ./inp_files/2471.got.cif
#   From: 2010.05.17/outbox.cif.g08.bks.cpg/sg19_2_cif.got.tgz:2471.got - 2010.06.03 22:46:19.
