data_PCOD9313903
_publ_section_title
;
Structure prediction by ZEFSAII (Michael W. Deem and Ramdas Pophale) SiO2 
 PCOD9313903
Probable space group: P 21 21 21
;
_chemical_formula_sum "Si O2"
_cell_formula_units_Z 28
_cell_length_a 14.135229
_cell_length_b 15.077059
_cell_length_c 5.245053
_cell_angle_alpha 90.000000
_cell_angle_beta 90.000000
_cell_angle_gamma 90.000000
_cell_volume 1117.813535
_symmetry_space_group_name_H-M "P 21 21 21"
_symmetry_group_IT_number 19
_symmetry_cell_setting 'orthorhombic'
loop_
_space_group_symop_operation_xyz
x,y,z
1/2-x,-y,1/2+z
1/2+x,1/2-y,-z
-x,1/2+y,1/2-z
loop_
_atom_site_type_symbol
_atom_site_label
_atom_site_fract_x
_atom_site_fract_y
_atom_site_fract_z
Si Si1 0.529519 0.524640 0.878744
Si Si2 0.632310 0.667976 0.580864
Si Si3 0.746881 0.214537 0.362829
Si Si4 0.379620 0.502430 0.517852
Si Si5 0.793135 0.103135 0.859051
Si Si6 0.216990 0.047295 0.965826
Si Si7 0.042839 0.325152 0.767564
O O1 0.585941 0.573351 0.648726
O O2 0.444806 0.472583 0.747109
O O3 0.604659 0.461519 0.012004
O O4 0.493210 0.608272 0.044894
O O5 0.671971 0.710644 0.841402
O O6 0.732656 0.639814 0.455520
O O7 0.550413 0.713657 0.410918
O O8 0.754020 0.164605 0.630028
O O9 0.634236 0.232897 0.317383
O O10 0.785694 0.157322 0.119370
O O11 0.385642 0.439140 0.274697
O O12 0.272980 0.516674 0.607272
O O13 0.409180 0.602996 0.455654
O O14 0.258426 0.979036 0.175960
#
# Coordination Sequence:
#
# PCOD9313903 Si02
#       7
#     4   4   4   4   4   4   4
#     4  10  20  38  68  92 125 167 223 270 324 372
#     4  10  23  41  64  90 132 175 211 266 321 400
#     4  11  25  41  63  94 133 176 210 255 336 403
#     4  10  21  38  64  94 124 162 217 274 325 373
#     4  11  23  39  64  96 126 165 213 267 323 389
#     4  10  20  37  64  94 119 161 216 269 320 370
#     4  10  20  40  65  90 125 172 214 265 325 389
#
# _framework density 25.048901000000001
#
# number of rings (size 3 to 8) (size 9 to 14) (size 15 to 20)
#    0.000    1.714    2.857    1.714    4.000    0.000 
#    2.571    0.000    0.000    0.000    0.000    0.000 
#    0.000    0.000    0.000    0.000    0.000    0.000 
#
# Total GULP energy -156002.262872 kJ/mol
# GULP energy per Si atom -5571.509388 kJ/mol
# Density = 2.499189 g / cm^3
# Si number density = 25.048901 Si / 1000 Ang^3
#
#
#
# Elastic Constant Matrix: (Units=GPa)
#
#
# Indices 1 2 3 4 5 6 
#
# 1 42.5940 3.7191 6.5401 0.0000 0.0000 0.0000
# 2 3.7191 27.3392 11.1168 0.0000 0.0000 0.0000
# 3 6.5401 11.1168 117.1652 0.0000 0.0000 0.0000
# 4 0.0000 0.0000 0.0000 40.3697 0.0000 0.0000
# 5 0.0000 0.0000 0.0000 0.0000 34.4268 0.0000
# 6 0.0000 0.0000 0.0000 0.0000 0.0000 35.0708
#
#
#
# Elastic Compliance Matrix: (Units=1/GPa)
#
#
# Indices 1 2 3 4 5 6 
#
# 1 0.023887 -0.002816 -0.001066 0.000000 0.000000 0.000000
# 2 -0.002816 0.038377 -0.003484 0.000000 0.000000 0.000000
# 3 -0.001066 -0.003484 0.008925 0.000000 0.000000 0.000000
# 4 0.000000 0.000000 0.000000 0.024771 0.000000 0.000000
# 5 0.000000 0.000000 0.000000 0.000000 0.029047 0.000000
# 6 0.000000 0.000000 0.000000 0.000000 0.000000 0.028514
#
#
# Mechanical properties :
#
#
# Convention : Reuss Voigt Hill
#
# Bulk Modulus (GPa) = 17.71262 25.53893 21.62577
# Shear Modulus (GPa) = 26.72756 33.02162 29.87459
#
# Velocity S-wave (km/s) = 3.27006 3.63476 3.45722
# Velocity P-wave (km/s) = 4.61999 5.27571 4.95870
#
# Compressibility (1/GPa) = 0.05645694
#
# Stress axis : x y z
#
# Youngs Moduli (GPa) = 41.86362 26.05707 112.04421
#
# Poissons Ratio (x) = 0.07338 0.11946
# Poissons Ratio (y) = 0.11789 0.39037
# Poissons Ratio (z) = 0.04463 0.09079
#
# Static dielectric constant tensor:
#      x y z
#    x 2.199260 0.000000 0.000000 
#    y 0.000000 2.104980 0.000000 
#    z 0.000000 0.000000 2.037500 
# 
# From -- ./inp_files/1121.got.cif
#   From: 2010.05.17/outbox.cif.g08.bks.cpg/sg19_1_cif.got.tgz:1121.got - 2010.06.03 22:46:19.
