data_PCOD9313876
_publ_section_title
;
Structure prediction by ZEFSAII (Michael W. Deem and Ramdas Pophale) SiO2 
 PCOD9313876
Probable space group: P 21 21 21
;
_chemical_formula_sum "Si O2"
_cell_formula_units_Z 32
_cell_length_a 7.149571
_cell_length_b 10.208031
_cell_length_c 18.189281
_cell_angle_alpha 90.000000
_cell_angle_beta 90.000000
_cell_angle_gamma 90.000000
_cell_volume 1327.509067
_symmetry_space_group_name_H-M "P 21 21 21"
_symmetry_group_IT_number 19
_symmetry_cell_setting 'orthorhombic'
loop_
_space_group_symop_operation_xyz
x,y,z
1/2-x,-y,1/2+z
1/2+x,1/2-y,-z
-x,1/2+y,1/2-z
loop_
_atom_site_type_symbol
_atom_site_label
_atom_site_fract_x
_atom_site_fract_y
_atom_site_fract_z
Si Si1 0.306289 0.169619 0.453668
Si Si2 0.604150 0.111462 0.994444
Si Si3 0.163748 0.723040 0.800915
Si Si4 0.694717 0.054469 0.155017
Si Si5 0.330374 0.914983 0.532793
Si Si6 0.254363 0.228016 0.738877
Si Si7 0.873804 0.137090 0.412934
Si Si8 0.254434 0.946509 0.698126
O O1 0.402298 0.225679 0.381018
O O2 0.297450 0.272695 0.520275
O O3 0.097180 0.148871 0.423069
O O4 0.400283 0.036762 0.483916
O O5 0.713648 0.070470 0.068053
O O6 0.390178 0.080241 0.013812
O O7 0.611567 0.266749 0.983396
O O8 0.668425 0.016404 0.928474
O O9 0.261686 0.585555 0.815952
O O10 0.280201 0.825583 0.753146
O O11 0.970076 0.707101 0.758157
O O12 0.792820 0.176136 0.194027
O O13 0.470607 0.052065 0.177110
O O14 0.351379 0.940423 0.619078
O O15 0.310968 0.303012 0.664237
O O16 0.319933 0.078938 0.737875
#
# Coordination Sequence:
#
# PCOD9313876 Si02
#       8
#     4   4   4   4   4   4   4   4
#     4  11  22  39  61  85 116 153 195 241 290 344
#     4  10  22  39  58  85 117 149 193 241 288 343
#     4  10  20  37  60  85 115 151 195 239 286 344
#     4   9  19  36  58  84 113 149 190 234 282 344
#     4  10  22  39  58  85 117 149 193 241 288 343
#     4  10  20  37  60  85 115 151 195 239 286 344
#     4  11  22  39  61  85 116 153 195 241 290 344
#     4   9  19  36  58  84 113 149 190 234 282 344
#
# _framework density 24.105295000000002
#
# number of rings (size 3 to 8) (size 9 to 14) (size 15 to 20)
#    0.000    2.000    2.500    0.750    3.500    2.000 
#    0.000    2.500    0.000    0.000    0.000    0.000 
#    0.000    0.000    0.000    0.000    0.000    0.000 
#
# Total GULP energy -178956.081231 kJ/mol
# GULP energy per Si atom -5592.377538 kJ/mol
# Density = 2.405043 g / cm^3
# Si number density = 24.105295 Si / 1000 Ang^3
#
#
#
# Elastic Constant Matrix: (Units=GPa)
#
#
# Indices 1 2 3 4 5 6 
#
# 1 60.1780 -3.6791 -2.4321 0.0000 0.0000 0.0000
# 2 -3.6791 144.8818 -2.3433 0.0000 0.0000 0.0000
# 3 -2.4321 -2.3433 10.1472 0.0000 0.0000 0.0000
# 4 0.0000 0.0000 0.0000 46.9088 0.0000 0.0000
# 5 0.0000 0.0000 0.0000 0.0000 24.2194 0.0000
# 6 0.0000 0.0000 0.0000 0.0000 0.0000 9.4589
#
#
#
# Elastic Compliance Matrix: (Units=1/GPa)
#
#
# Indices 1 2 3 4 5 6 
#
# 1 0.016815 0.000494 0.004144 0.000000 0.000000 0.000000
# 2 0.000494 0.006943 0.001722 0.000000 0.000000 0.000000
# 3 0.004144 0.001722 0.099940 0.000000 0.000000 0.000000
# 4 0.000000 0.000000 0.000000 0.021318 0.000000 0.000000
# 5 0.000000 0.000000 0.000000 0.000000 0.041289 0.000000
# 6 0.000000 0.000000 0.000000 0.000000 0.000000 0.105721
#
#
# Mechanical properties :
#
#
# Convention : Reuss Voigt Hill
#
# Bulk Modulus (GPa) = 7.33040 22.03310 14.68175
# Shear Modulus (GPa) = 15.39509 31.02818 23.21163
#
# Velocity S-wave (km/s) = 2.52991 3.59164 3.10647
# Velocity P-wave (km/s) = 3.40317 5.13420 4.35555
#
# Compressibility (1/GPa) = 0.13641818
#
# Stress axis : x y z
#
# Youngs Moduli (GPa) = 59.47052 144.03885 10.00596
#
# Poissons Ratio (x) = -0.07116 -0.04147
# Poissons Ratio (y) = -0.02938 -0.01723
# Poissons Ratio (z) = -0.24647 -0.24799
#
# Static dielectric constant tensor:
#      x y z
#    x 2.029080 0.000000 0.000000 
#    y 0.000000 2.011720 0.000000 
#    z 0.000000 0.000000 1.895980 
# 
# From -- ./inp_files/7052.got.cif
#   From: 2010.05.17/outbox.cif.g08.bks.cpg/sg19_4_cif.got.tgz:7052.got - 2010.06.03 22:46:19.
