data_PCOD9313755
_publ_section_title
;
Structure prediction by ZEFSAII (Michael W. Deem and Ramdas Pophale) SiO2 
 PCOD9313755
Probable space group: P 21 21 21
;
_chemical_formula_sum "Si O2"
_cell_formula_units_Z 32
_cell_length_a 18.307876
_cell_length_b 12.846388
_cell_length_c 4.951471
_cell_angle_alpha 90.000000
_cell_angle_beta 90.000000
_cell_angle_gamma 90.000000
_cell_volume 1164.536853
_symmetry_space_group_name_H-M "P 21 21 21"
_symmetry_group_IT_number 19
_symmetry_cell_setting 'orthorhombic'
loop_
_space_group_symop_operation_xyz
x,y,z
1/2-x,-y,1/2+z
1/2+x,1/2-y,-z
-x,1/2+y,1/2-z
loop_
_atom_site_type_symbol
_atom_site_label
_atom_site_fract_x
_atom_site_fract_y
_atom_site_fract_z
Si Si1 0.580373 0.315058 0.380037
Si Si2 0.987681 0.827771 0.420130
Si Si3 0.556920 0.854366 0.707412
Si Si4 0.201690 0.331424 0.721951
Si Si5 0.644719 0.052462 0.762537
Si Si6 0.968803 0.495517 0.661638
Si Si7 0.664170 0.550340 0.897137
Si Si8 0.759464 0.352858 0.906992
O O1 0.558522 0.254368 0.105326
O O2 0.510170 0.324444 0.582805
O O3 0.656296 0.259128 0.439859
O O4 0.590634 0.434993 0.316548
O O5 0.063913 0.762967 0.394203
O O6 0.998277 0.921722 0.622546
O O7 0.931342 0.880012 0.203004
O O8 0.623584 0.929065 0.791251
O O9 0.525388 0.925667 0.468192
O O10 0.204002 0.414063 0.465434
O O11 0.247399 0.257705 0.937480
O O12 0.166440 0.407085 0.944729
O O13 0.922508 0.440028 0.433921
O O14 0.688149 0.428223 0.906918
O O15 0.702327 0.627956 0.116261
O O16 0.689415 0.585863 0.610147
#
# Coordination Sequence:
#
# PCOD9313755 Si02
#       8
#     4   4   4   4   4   4   4   4
#     4  10  20  33  53  80 118 157 188 226 286 341
#     4  10  22  35  53  84 121 156 196 234 281 359
#     4  11  22  36  56  83 126 156 194 243 278 353
#     4  11  21  37  57  83 112 158 191 238 286 346
#     4  11  22  35  56  84 114 154 198 227 286 347
#     4  11  22  36  55  82 122 160 192 232 297 349
#     4  10  22  35  55  83 113 154 188 240 293 348
#     4  10  21  37  55  81 116 145 199 242 289 347
#
# _framework density 27.478736999999999
#
# number of rings (size 3 to 8) (size 9 to 14) (size 15 to 20)
#    0.000    1.500    3.750    2.250    3.500    1.000 
#    0.000    0.000    0.000    0.000    0.000    3.500 
#    0.000    0.000    0.000    0.000    0.000    0.000 
#
# Total GULP energy -178294.893325 kJ/mol
# GULP energy per Si atom -5571.715416 kJ/mol
# Density = 2.741619 g / cm^3
# Si number density = 27.478737 Si / 1000 Ang^3
#
#
#
# Elastic Constant Matrix: (Units=GPa)
#
#
# Indices 1 2 3 4 5 6 
#
# 1 24.6645 4.6116 7.3058 0.0000 0.0000 0.0000
# 2 4.6116 105.7644 9.0217 0.0000 0.0000 0.0000
# 3 7.3058 9.0217 100.3742 0.0000 0.0000 0.0000
# 4 0.0000 0.0000 0.0000 25.0504 0.0000 0.0000
# 5 0.0000 0.0000 0.0000 0.0000 23.7162 0.0000
# 6 0.0000 0.0000 0.0000 0.0000 0.0000 100.6107
#
#
#
# Elastic Compliance Matrix: (Units=1/GPa)
#
#
# Indices 1 2 3 4 5 6 
#
# 1 0.041695 -0.001571 -0.002894 0.000000 0.000000 0.000000
# 2 -0.001571 0.009587 -0.000747 0.000000 0.000000 0.000000
# 3 -0.002894 -0.000747 0.010241 0.000000 0.000000 0.000000
# 4 0.000000 0.000000 0.000000 0.039919 0.000000 0.000000
# 5 0.000000 0.000000 0.000000 0.000000 0.042165 0.000000
# 6 0.000000 0.000000 0.000000 0.000000 0.000000 0.009939
#
#
# Mechanical properties :
#
#
# Convention : Reuss Voigt Hill
#
# Bulk Modulus (GPa) = 19.57004 30.29790 24.93397
# Shear Modulus (GPa) = 27.62372 43.86639 35.74506
#
# Velocity S-wave (km/s) = 3.17405 3.99980 3.61061
# Velocity P-wave (km/s) = 4.53543 5.69044 5.14545
#
# Compressibility (1/GPa) = 0.05109851
#
# Stress axis : x y z
#
# Youngs Moduli (GPa) = 23.98371 104.30538 97.65143
#
# Poissons Ratio (x) = 0.16388 0.28256
# Poissons Ratio (y) = 0.03768 0.07298
# Poissons Ratio (z) = 0.06940 0.07795
#
# Static dielectric constant tensor:
#      x y z
#    x 2.324800 0.000000 0.000000 
#    y 0.000000 2.290670 0.000000 
#    z 0.000000 0.000000 -1.128550 
# 
# From -- ./inp_files/1971.got.cif
#   From: 2010.05.17/outbox.cif.g08.bks.cpg/sg19_1_cif.got.tgz:1971.got - 2010.06.03 22:46:19.
