data_PCOD9313592
_publ_section_title
;
Structure prediction by ZEFSAII (Michael W. Deem and Ramdas Pophale) SiO2 
 PCOD9313592
Probable space group: P 21 21 21
;
_chemical_formula_sum "Si O2"
_cell_formula_units_Z 24
_cell_length_a 5.087100
_cell_length_b 10.329227
_cell_length_c 17.422942
_cell_angle_alpha 90.000000
_cell_angle_beta 90.000000
_cell_angle_gamma 90.000000
_cell_volume 915.502612
_symmetry_space_group_name_H-M "P 21 21 21"
_symmetry_group_IT_number 19
_symmetry_cell_setting 'orthorhombic'
loop_
_space_group_symop_operation_xyz
x,y,z
1/2-x,-y,1/2+z
1/2+x,1/2-y,-z
-x,1/2+y,1/2-z
loop_
_atom_site_type_symbol
_atom_site_label
_atom_site_fract_x
_atom_site_fract_y
_atom_site_fract_z
Si Si1 0.246989 0.504906 0.426106
Si Si2 0.404119 0.088027 0.701954
Si Si3 0.895825 0.666587 0.017171
Si Si4 0.950432 0.640542 0.194780
Si Si5 0.040795 0.846055 0.685039
Si Si6 0.179621 0.695624 0.538967
O O1 0.088304 0.407055 0.372690
O O2 0.511744 0.445248 0.460041
O O3 0.277773 0.622797 0.364219
O O4 0.104222 0.556130 0.503513
O O5 0.362326 0.238999 0.720726
O O6 0.529934 0.998302 0.768925
O O7 0.160136 0.994714 0.682614
O O8 0.935270 0.624354 0.104613
O O9 0.610176 0.723454 0.003633
O O10 0.669149 0.682393 0.231881
O O11 0.162168 0.737844 0.627154
O O12 0.473158 0.715547 0.507530
#
# Coordination Sequence:
#
# PCOD9313592 Si02
#       6
#     4   4   4   4   4   4
#     4  11  22  41  71  93 144 182 241 297 358 424
#     4  10  21  44  65  97 136 181 233 293 354 423
#     4  12  27  45  73 102 145 190 241 289 362 431
#     4  10  23  44  70 100 142 181 243 283 371 419
#     4   9  22  39  65  96 137 179 229 297 350 421
#     4  10  19  35  62  98 130 175 227 283 351 410
#
# _framework density 26.215108000000001
#
# number of rings (size 3 to 8) (size 9 to 14) (size 15 to 20)
#    1.000    0.667    3.333    1.000    2.333    1.333 
#    3.000    0.000    7.333    0.000    0.000    0.000 
#    0.000    0.000    0.000    0.000    0.000    0.000 
#
# Total GULP energy -133610.546542 kJ/mol
# GULP energy per Si atom -5567.106106 kJ/mol
# Density = 2.615544 g / cm^3
# Si number density = 26.215108 Si / 1000 Ang^3
#
#
#
# Elastic Constant Matrix: (Units=GPa)
#
#
# Indices 1 2 3 4 5 6 
#
# 1 19.1791 7.5477 -39.5916 0.0000 0.0000 0.0000
# 2 7.5477 56.6012 -17.6251 0.0000 0.0000 0.0000
# 3 -39.5916 -17.6251 74.3870 0.0000 0.0000 0.0000
# 4 0.0000 0.0000 0.0000 48.4430 0.0000 0.0000
# 5 0.0000 0.0000 0.0000 0.0000 8.0238 0.0000
# 6 0.0000 0.0000 0.0000 0.0000 0.0000 26.9541
#
#
#
# Elastic Compliance Matrix: (Units=1/GPa)
#
#
# Indices 1 2 3 4 5 6 
#
# 1 -0.510947 -0.017865 -0.276178 0.000000 0.000000 0.000000
# 2 -0.017865 0.018450 -0.005137 0.000000 0.000000 0.000000
# 3 -0.276178 -0.005137 -0.134767 0.000000 0.000000 0.000000
# 4 0.000000 0.000000 0.000000 0.020643 0.000000 0.000000
# 5 0.000000 0.000000 0.000000 0.000000 0.124630 0.000000
# 6 0.000000 0.000000 0.000000 0.000000 0.000000 0.037100
#
#
# Mechanical properties :
#
#
# Convention : Reuss Voigt Hill
#
# Bulk Modulus (GPa) = -0.81591 5.64770 2.41589
# Shear Modulus (GPa) = -19.60240 30.00660 5.20210
#
# Velocity S-wave (km/s) = -2.73747 3.38691 1.41021
# Velocity P-wave (km/s) = 3.20992 4.17779 1.89081
#
# Compressibility (1/GPa) = -1.22562483
#
# Stress axis : x y z
#
# Youngs Moduli (GPa) = -1.95715 54.20007 -7.42024
#
# Poissons Ratio (x) = 0.96830 -2.04931
# Poissons Ratio (y) = -0.03497 -0.03812
# Poissons Ratio (z) = -0.54052 0.27843
#
# Static dielectric constant tensor:
#      x y z
#    x 2.230310 0.000000 0.000000 
#    y 0.000000 2.291300 0.000000 
#    z 0.000000 0.000000 2.082590 
# 
# From -- ./inp_files/991.got.cif
#   From: 2010.05.17/outbox.cif.g08.bks.cpg/sg19_1_cif.got.tgz:991.got - 2010.06.03 22:46:19.
