data_PCOD9313791
_publ_section_title
;
Structure prediction by ZEFSAII (Michael W. Deem and Ramdas Pophale) SiO2 
 PCOD9313791
Probable space group: P 21 21 21
;
_chemical_formula_sum "Si O2"
_cell_formula_units_Z 32
_cell_length_a 12.361246
_cell_length_b 5.708059
_cell_length_c 18.820626
_cell_angle_alpha 90.000000
_cell_angle_beta 90.000000
_cell_angle_gamma 90.000000
_cell_volume 1327.959308
_symmetry_space_group_name_H-M "P 21 21 21"
_symmetry_group_IT_number 19
_symmetry_cell_setting 'orthorhombic'
loop_
_space_group_symop_operation_xyz
x,y,z
1/2-x,-y,1/2+z
1/2+x,1/2-y,-z
-x,1/2+y,1/2-z
loop_
_atom_site_type_symbol
_atom_site_label
_atom_site_fract_x
_atom_site_fract_y
_atom_site_fract_z
Si Si1 0.630852 0.765267 0.799305
Si Si2 0.552114 0.641431 0.438933
Si Si3 0.377964 0.099726 0.307023
Si Si4 0.379947 0.769624 0.180553
Si Si5 0.318459 0.750445 0.725687
Si Si6 0.453244 0.327244 0.550364
Si Si7 0.238984 0.340781 0.065327
Si Si8 0.864537 0.546496 0.546728
O O1 0.754584 0.802195 0.831315
O O2 0.634992 0.512811 0.760162
O O3 0.548011 0.771076 0.865910
O O4 0.617967 0.010547 0.756588
O O5 0.595018 0.466649 0.378718
O O6 0.537085 0.507694 0.514369
O O7 0.633045 0.862492 0.432485
O O8 0.432818 0.736073 0.422194
O O9 0.505641 0.137676 0.316716
O O10 0.301477 0.268771 0.259990
O O11 0.370407 0.867096 0.260568
O O12 0.327213 0.094370 0.385098
O O13 0.308776 0.751679 0.639734
O O14 0.335981 0.450418 0.539490
O O15 0.447221 0.097737 0.502555
O O16 0.224656 0.137769 0.006658
#
# Coordination Sequence:
#
# PCOD9313791 Si02
#       8
#     4   4   4   4   4   4   4   4
#     4  10  20  36  57  78 115 160 202 238 290 351
#     4  11  21  36  57  85 118 166 204 249 310 366
#     4  11  21  31  52  89 120 160 193 237 301 382
#     4  11  20  33  51  86 127 161 190 238 305 375
#     4  10  20  35  56  80 114 163 193 238 292 367
#     4  10  21  35  56  82 112 158 209 255 290 364
#     4  10  21  39  54  79 124 160 204 248 307 359
#     4  11  22  35  55  85 122 156 205 249 301 362
#
# _framework density 24.097124000000001
#
# number of rings (size 3 to 8) (size 9 to 14) (size 15 to 20)
#    0.000    1.500    5.000    1.500    3.500    2.000 
#    0.000    0.000    0.000    0.000    0.000   10.500 
#    0.000    0.000    0.000    0.000    0.000    0.000 
#
# Total GULP energy -178332.541029 kJ/mol
# GULP energy per Si atom -5572.891907 kJ/mol
# Density = 2.404228 g / cm^3
# Si number density = 24.097124 Si / 1000 Ang^3
#
#
#
# Elastic Constant Matrix: (Units=GPa)
#
#
# Indices 1 2 3 4 5 6 
#
# 1 70.7959 4.7341 10.3964 0.0000 0.0000 0.0000
# 2 4.7341 82.3211 -2.8782 0.0000 0.0000 0.0000
# 3 10.3964 -2.8782 52.1732 0.0000 0.0000 0.0000
# 4 0.0000 0.0000 0.0000 24.3085 0.0000 0.0000
# 5 0.0000 0.0000 0.0000 0.0000 31.2012 0.0000
# 6 0.0000 0.0000 0.0000 0.0000 0.0000 9.5811
#
#
#
# Elastic Compliance Matrix: (Units=1/GPa)
#
#
# Indices 1 2 3 4 5 6 
#
# 1 0.014624 -0.000945 -0.002966 0.000000 0.000000 0.000000
# 2 -0.000945 0.012232 0.000863 0.000000 0.000000 0.000000
# 3 -0.002966 0.000863 0.019806 0.000000 0.000000 0.000000
# 4 0.000000 0.000000 0.000000 0.041138 0.000000 0.000000
# 5 0.000000 0.000000 0.000000 0.000000 0.032050 0.000000
# 6 0.000000 0.000000 0.000000 0.000000 0.000000 0.104372
#
#
# Mechanical properties :
#
#
# Convention : Reuss Voigt Hill
#
# Bulk Modulus (GPa) = 24.65125 25.53275 25.09200
# Shear Modulus (GPa) = 20.50531 25.88734 23.19633
#
# Velocity S-wave (km/s) = 2.92026 3.28119 3.10597
# Velocity P-wave (km/s) = 4.65002 4.99737 4.82682
#
# Compressibility (1/GPa) = 0.04056590
#
# Stress axis : x y z
#
# Youngs Moduli (GPa) = 68.38135 81.75241 50.49076
#
# Poissons Ratio (x) = 0.07723 0.14976
# Poissons Ratio (y) = 0.06460 -0.04358
# Poissons Ratio (z) = 0.20283 -0.07056
#
# Static dielectric constant tensor:
#      x y z
#    x 1.923600 0.000000 0.000000 
#    y 0.000000 2.040040 0.000000 
#    z 0.000000 0.000000 1.929330 
# 
# From -- ./inp_files/7222.got.cif
#   From: 2010.05.17/outbox.cif.g08.bks.cpg/sg19_4_cif.got.tgz:7222.got - 2010.06.03 22:46:19.
