data_PCOD9313287
_publ_section_title
;
Structure prediction by ZEFSAII (Michael W. Deem and Ramdas Pophale) SiO2 
 PCOD9313287
Probable space group: P 21 21 2
;
_chemical_formula_sum "Si O2"
_cell_formula_units_Z 32
_cell_length_a 12.000000
_cell_length_b 12.000000
_cell_length_c 12.000000
_cell_angle_alpha 90.000000
_cell_angle_beta 90.000000
_cell_angle_gamma 90.000000
_cell_volume 1728.000000
_symmetry_space_group_name_H-M "P 21 21 2"
_symmetry_group_IT_number 18
_symmetry_cell_setting 'orthorhombic'
loop_
_space_group_symop_operation_xyz
x,y,z
-x,-y,z
1/2+x,1/2-y,-z
1/2-x,1/2+y,-z
loop_
_atom_site_type_symbol
_atom_site_label
_atom_site_fract_x
_atom_site_fract_y
_atom_site_fract_z
Si Si1 0.066689 0.682028 0.940229
Si Si2 0.717292 0.851602 0.832279
Si Si3 0.326742 0.046747 0.582574
Si Si4 0.418717 0.601619 0.013563
Si Si5 0.544896 0.159947 0.481816
Si Si6 0.603907 0.408623 0.559738
Si Si7 0.266924 0.601938 0.796056
Si Si8 0.365462 0.869802 0.224879
O O1 0.168479 0.681343 0.849371
O O2 0.000279 0.794450 0.967175
O O3 0.963718 0.623427 0.869787
O O4 0.124604 0.650528 0.063555
O O5 0.679964 0.910950 0.713901
O O6 0.823033 0.909317 0.892338
O O7 0.775365 0.730821 0.800349
O O8 0.418479 0.121715 0.514284
O O9 0.204263 0.054768 0.525142
O O10 0.376057 0.922205 0.557321
O O11 0.500000 0.500000 0.018105
O O12 0.357694 0.604829 0.894503
O O13 0.559736 0.289206 0.514869
O O14 0.579926 0.143765 0.350113
O O15 0.500000 0.500000 0.567212
O O16 0.666234 0.384722 0.678971
O O17 0.204110 0.483703 0.782639
#
# Coordination Sequence:
#
# PCOD9313287 Si02
#       8
#     4   4   4   4   4   4   4   4
#     4  10  23  41  66  95 132 182 227 283 353 417
#     4  10  23  42  65  96 136 173 221 289 345 411
#     4  11  25  47  66 104 142 183 234 286 365 416
#     4  10  22  41  64  97 130 173 222 280 352 414
#     4  11  26  45  72 102 142 190 235 297 356 438
#     4  12  27  43  74 107 138 188 239 296 358 427
#     4  11  23  41  68 101 131 178 233 286 343 428
#     4  11  21  43  69  95 135 182 231 287 342 427
#
# _framework density 18.518519000000001
#
# number of rings (size 3 to 8) (size 9 to 14) (size 15 to 20)
#    0.000    1.250    2.500    2.250    7.000    1.500 
#    9.000    0.000    0.000    0.000    0.000    0.000 
#    0.000    0.000    0.000    0.000    0.000    0.000 
#
# Total GULP energy -178163.179087 kJ/mol
# GULP energy per Si atom -5567.599346 kJ/mol
# Density = 1.847637 g / cm^3
# Si number density = 18.518519 Si / 1000 Ang^3
#
#
#
# Elastic Constant Matrix: (Units=GPa)
#
#
# Indices 1 2 3 4 5 6 
#
# 1 128.5794 56.4515 44.4537 0.0000 0.0000 0.0000
# 2 56.4515 101.4298 33.5537 0.0000 0.0000 0.0000
# 3 44.4537 33.5537 137.1438 0.0000 0.0000 0.0000
# 4 0.0000 0.0000 0.0000 23.2261 0.0000 0.0000
# 5 0.0000 0.0000 0.0000 0.0000 46.7994 0.0000
# 6 0.0000 0.0000 0.0000 0.0000 0.0000 44.0916
#
#
#
# Elastic Compliance Matrix: (Units=1/GPa)
#
#
# Indices 1 2 3 4 5 6 
#
# 1 0.010883 -0.005321 -0.002226 0.000000 0.000000 0.000000
# 2 -0.005321 0.013328 -0.001536 0.000000 0.000000 0.000000
# 3 -0.002226 -0.001536 0.008389 0.000000 0.000000 0.000000
# 4 0.000000 0.000000 0.000000 0.043055 0.000000 0.000000
# 5 0.000000 0.000000 0.000000 0.000000 0.021368 0.000000
# 6 0.000000 0.000000 0.000000 0.000000 0.000000 0.022680
#
#
# Mechanical properties :
#
#
# Convention : Reuss Voigt Hill
#
# Bulk Modulus (GPa) = 69.27715 70.67453 69.97584
# Shear Modulus (GPa) = 35.04345 38.33636 36.68990
#
# Velocity S-wave (km/s) = 4.35483 4.55484 4.45596
# Velocity P-wave (km/s) = 7.92319 8.11845 8.02141
#
# Compressibility (1/GPa) = 0.01443477
#
# Stress axis : x y z
#
# Youngs Moduli (GPa) = 91.88838 75.02736 119.20419
#
# Poissons Ratio (x) = 0.39919 0.26532
# Poissons Ratio (y) = 0.48890 0.18314
# Poissons Ratio (z) = 0.20453 0.11527
#
# Static dielectric constant tensor:
#      x y z
#    x 1.658810 0.000000 0.000000 
#    y 0.000000 1.736480 0.000000 
#    z 0.000000 0.000000 1.644740 
# 
# From -- ./inp_files/5969.got.cif
#   From: 2010.05.17/outbox.ucp.g08.bks.cvg/sg18_3_cif.got.tgz:5969.got - 2010.06.11 13:13:23.
