data_PCOD9313419
_publ_section_title
;
Structure prediction by ZEFSAII (Michael W. Deem and Ramdas Pophale) SiO2 
 PCOD9313419
Probable space group: P 21 21 21
;
_chemical_formula_sum "Si O2"
_cell_formula_units_Z 32
_cell_length_a 16.477999
_cell_length_b 18.367676
_cell_length_c 5.086644
_cell_angle_alpha 90.000000
_cell_angle_beta 90.000000
_cell_angle_gamma 90.000000
_cell_volume 1539.536628
_symmetry_space_group_name_H-M "P 21 21 21"
_symmetry_group_IT_number 19
_symmetry_cell_setting 'orthorhombic'
loop_
_space_group_symop_operation_xyz
x,y,z
1/2-x,-y,1/2+z
1/2+x,1/2-y,-z
-x,1/2+y,1/2-z
loop_
_atom_site_type_symbol
_atom_site_label
_atom_site_fract_x
_atom_site_fract_y
_atom_site_fract_z
Si Si1 0.474084 0.490386 0.066015
Si Si2 0.917655 0.862237 0.150592
Si Si3 0.149315 0.019938 0.115944
Si Si4 0.944866 0.308919 0.039654
Si Si5 0.182453 0.927016 0.618632
Si Si6 0.419938 0.415921 0.570158
Si Si7 0.751145 0.947125 0.105948
Si Si8 0.011309 0.735229 0.967009
O O1 0.468036 0.575875 0.005854
O O2 0.560736 0.458906 0.977975
O O3 0.415400 0.449259 0.860244
O O4 0.454338 0.475096 0.365915
O O5 0.827809 0.894897 0.165271
O O6 0.969967 0.852244 0.417462
O O7 0.929411 0.782441 0.018310
O O8 0.220818 0.078291 0.078273
O O9 0.152182 0.988803 0.411308
O O10 0.170827 0.954447 0.915099
O O11 0.872519 0.358435 0.941431
O O12 0.962050 0.246134 0.830660
O O13 0.929189 0.277155 0.329134
O O14 0.329478 0.400977 0.463786
O O15 0.480095 0.347827 0.547675
O O16 0.735572 0.001389 0.350487
#
# Coordination Sequence:
#
# PCOD9313419 Si02
#       8
#     4   4   4   4   4   4   4   4
#     4  12  22  38  66  89 127 167 219 263 332 386
#     4  10  23  38  69  92 124 167 226 260 324 404
#     4  10  20  31  53  89 122 153 192 262 314 359
#     4  10  20  37  65  83 119 166 220 244 315 388
#     4  10  18  33  54  87 121 148 205 259 302 362
#     4  12  25  43  61  95 135 168 210 279 338 383
#     4  12  24  40  65 103 131 164 221 290 334 380
#     4  10  24  40  63  86 127 173 209 253 333 394
#
# _framework density 20.785475000000002
#
# number of rings (size 3 to 8) (size 9 to 14) (size 15 to 20)
#    0.750    0.500    3.750    3.000    3.500    0.000 
#    0.000    2.500    0.000    0.000    0.000    0.000 
#    0.000    0.000    0.000    0.000    0.000    0.000 
#
# Total GULP energy -178403.707943 kJ/mol
# GULP energy per Si atom -5575.115873 kJ/mol
# Density = 2.073817 g / cm^3
# Si number density = 20.785475 Si / 1000 Ang^3
#
#
#
# Elastic Constant Matrix: (Units=GPa)
#
#
# Indices 1 2 3 4 5 6 
#
# 1 86.0397 -2.0624 -5.0355 0.0000 0.0000 0.0000
# 2 -2.0624 48.5821 16.9462 0.0000 0.0000 0.0000
# 3 -5.0355 16.9462 61.9571 0.0000 0.0000 0.0000
# 4 0.0000 0.0000 0.0000 24.9504 0.0000 0.0000
# 5 0.0000 0.0000 0.0000 0.0000 26.2176 0.0000
# 6 0.0000 0.0000 0.0000 0.0000 0.0000 17.7468
#
#
#
# Elastic Compliance Matrix: (Units=1/GPa)
#
#
# Indices 1 2 3 4 5 6 
#
# 1 0.011680 0.000182 0.000899 0.000000 0.000000 0.000000
# 2 0.000182 0.022758 -0.006210 0.000000 0.000000 0.000000
# 3 0.000899 -0.006210 0.017912 0.000000 0.000000 0.000000
# 4 0.000000 0.000000 0.000000 0.040080 0.000000 0.000000
# 5 0.000000 0.000000 0.000000 0.000000 0.038142 0.000000
# 6 0.000000 0.000000 0.000000 0.000000 0.000000 0.056348
#
#
# Mechanical properties :
#
#
# Convention : Reuss Voigt Hill
#
# Bulk Modulus (GPa) = 23.75727 24.03062 23.89395
# Shear Modulus (GPa) = 23.67356 26.23166 24.95261
#
# Velocity S-wave (km/s) = 3.37849 3.55634 3.46856
# Velocity P-wave (km/s) = 5.16464 5.33384 5.24992
#
# Compressibility (1/GPa) = 0.04209238
#
# Stress axis : x y z
#
# Youngs Moduli (GPa) = 85.61981 43.94154 55.82931
#
# Poissons Ratio (x) = -0.00800 -0.05021
# Poissons Ratio (y) = -0.01559 0.34668
# Poissons Ratio (z) = -0.07701 0.27286
#
# Static dielectric constant tensor:
#      x y z
#    x 1.806090 0.000000 0.000000 
#    y 0.000000 1.729740 0.000000 
#    z 0.000000 0.000000 1.740520 
# 
# From -- ./inp_files/1880.got.cif
#   From: 2010.05.17/outbox.cif.g08.bks.cpg/sg19_1_cif.got.tgz:1880.got - 2010.06.03 22:46:19.
