data_PCOD9313600
_publ_section_title
;
Structure prediction by ZEFSAII (Michael W. Deem and Ramdas Pophale) SiO2 
 PCOD9313600
Probable space group: P 21 21 21
;
_chemical_formula_sum "Si O2"
_cell_formula_units_Z 32
_cell_length_a 13.163463
_cell_length_b 9.777024
_cell_length_c 9.817450
_cell_angle_alpha 90.000000
_cell_angle_beta 90.000000
_cell_angle_gamma 90.000000
_cell_volume 1263.500844
_symmetry_space_group_name_H-M "P 21 21 21"
_symmetry_group_IT_number 19
_symmetry_cell_setting 'orthorhombic'
loop_
_space_group_symop_operation_xyz
x,y,z
1/2-x,-y,1/2+z
1/2+x,1/2-y,-z
-x,1/2+y,1/2-z
loop_
_atom_site_type_symbol
_atom_site_label
_atom_site_fract_x
_atom_site_fract_y
_atom_site_fract_z
Si Si1 0.542388 0.828952 0.586245
Si Si2 0.675928 0.086426 0.475992
Si Si3 0.005390 0.559843 0.137891
Si Si4 0.510276 0.757918 0.111105
Si Si5 0.359320 0.202743 0.138515
Si Si6 0.693228 0.093154 0.789850
Si Si7 0.278382 0.009812 0.783740
Si Si8 0.139229 0.986987 0.016736
O O1 0.548841 0.833967 0.748368
O O2 0.583829 0.698441 0.505845
O O3 0.431764 0.885524 0.552757
O O4 0.610796 0.951806 0.520409
O O5 0.604117 0.202440 0.410767
O O6 0.714798 0.122327 0.629061
O O7 0.755282 0.039634 0.360927
O O8 0.884619 0.558976 0.167153
O O9 0.073582 0.426779 0.179138
O O10 0.024233 0.611094 0.985362
O O11 0.556389 0.774454 0.261809
O O12 0.575005 0.631908 0.051990
O O13 0.255133 0.288648 0.135685
O O14 0.316783 0.069249 0.211600
O O15 0.317025 0.086726 0.650981
O O16 0.225668 0.050561 0.922295
#
# Coordination Sequence:
#
# PCOD9313600 Si02
#       8
#     4   4   4   4   4   4   4   4
#     4   8  18  36  53  74 107 144 180 228 279 331
#     4   9  18  34  55  79 111 145 186 232 280 335
#     4  10  20  34  56  85 113 146 187 226 277 334
#     4  10  20  36  58  84 112 147 189 236 280 334
#     4  10  20  36  58  81 110 147 190 235 285 341
#     4  10  19  36  58  83 117 154 188 233 286 345
#     4  10  21  36  55  81 111 147 186 229 281 336
#     4   9  20  38  55  77 113 146 180 229 284 334
#
# _framework density 25.326457000000001
#
# number of rings (size 3 to 8) (size 9 to 14) (size 15 to 20)
#    0.000    2.500    0.000    2.250    0.000    3.000 
#    0.000   12.500    0.000    0.000    0.000    0.000 
#    0.000    0.000    0.000    0.000    0.000    0.000 
#
# Total GULP energy -178436.939072 kJ/mol
# GULP energy per Si atom -5576.154346 kJ/mol
# Density = 2.526881 g / cm^3
# Si number density = 25.326457 Si / 1000 Ang^3
#
#
#
# Elastic Constant Matrix: (Units=GPa)
#
#
# Indices 1 2 3 4 5 6 
#
# 1 106.2569 4.7637 48.8881 0.0000 0.0000 0.0000
# 2 4.7637 29.0069 4.5125 0.0000 0.0000 0.0000
# 3 48.8881 4.5125 80.4272 0.0000 0.0000 0.0000
# 4 0.0000 0.0000 0.0000 28.0500 0.0000 0.0000
# 5 0.0000 0.0000 0.0000 0.0000 51.5546 0.0000
# 6 0.0000 0.0000 0.0000 0.0000 0.0000 40.8481
#
#
#
# Elastic Compliance Matrix: (Units=1/GPa)
#
#
# Indices 1 2 3 4 5 6 
#
# 1 0.013089 -0.000920 -0.007905 0.000000 0.000000 0.000000
# 2 -0.000920 0.034843 -0.001396 0.000000 0.000000 0.000000
# 3 -0.007905 -0.001396 0.017317 0.000000 0.000000 0.000000
# 4 0.000000 0.000000 0.000000 0.035651 0.000000 0.000000
# 5 0.000000 0.000000 0.000000 0.000000 0.019397 0.000000
# 6 0.000000 0.000000 0.000000 0.000000 0.000000 0.024481
#
#
# Mechanical properties :
#
#
# Convention : Reuss Voigt Hill
#
# Bulk Modulus (GPa) = 22.31741 36.89106 29.60424
# Shear Modulus (GPa) = 27.75396 34.59231 31.17313
#
# Velocity S-wave (km/s) = 3.31395 3.69976 3.51216
# Velocity P-wave (km/s) = 4.84500 5.73139 5.30673
#
# Compressibility (1/GPa) = 0.04480807
#
# Stress axis : x y z
#
# Youngs Moduli (GPa) = 76.39803 28.70038 57.74704
#
# Poissons Ratio (x) = 0.02640 0.45648
# Poissons Ratio (y) = 0.07028 0.08060
# Poissons Ratio (z) = 0.60391 0.04006
#
# Static dielectric constant tensor:
#      x y z
#    x 2.018400 0.000000 0.000000 
#    y 0.000000 2.094750 0.000000 
#    z 0.000000 0.000000 1.957300 
# 
# From -- ./inp_files/3978.got.cif
#   From: 2010.05.17/outbox.cif.g08.bks.cpg/sg19_2_cif.got.tgz:3978.got - 2010.06.03 22:46:19.
