data_PCOD9313296
_publ_section_title
;
Structure prediction by ZEFSAII (Michael W. Deem and Ramdas Pophale) SiO2 
 PCOD9313296
Probable space group: P 21 21 21
;
_chemical_formula_sum "Si O2"
_cell_formula_units_Z 32
_cell_length_a 16.668067
_cell_length_b 11.569344
_cell_length_c 7.486973
_cell_angle_alpha 90.000000
_cell_angle_beta 90.000000
_cell_angle_gamma 90.000000
_cell_volume 1443.777399
_symmetry_space_group_name_H-M "P 21 21 21"
_symmetry_group_IT_number 19
_symmetry_cell_setting 'orthorhombic'
loop_
_space_group_symop_operation_xyz
x,y,z
1/2-x,-y,1/2+z
1/2+x,1/2-y,-z
-x,1/2+y,1/2-z
loop_
_atom_site_type_symbol
_atom_site_label
_atom_site_fract_x
_atom_site_fract_y
_atom_site_fract_z
Si Si1 0.880301 0.310752 0.185939
Si Si2 0.090957 0.691168 0.673239
Si Si3 0.838957 0.512934 0.956983
Si Si4 0.394981 0.566544 0.255747
Si Si5 0.779639 0.732403 0.823582
Si Si6 0.675005 0.401319 0.950846
Si Si7 0.066877 0.921424 0.859540
Si Si8 0.452348 0.728940 0.563794
O O1 0.816289 0.264271 0.325028
O O2 0.976216 0.298508 0.202796
O O3 0.862670 0.236519 0.003115
O O4 0.861643 0.442777 0.132550
O O5 0.119102 0.569887 0.748366
O O6 0.093991 0.791655 0.818497
O O7 0.999789 0.695139 0.590140
O O8 0.815309 0.645741 0.970682
O O9 0.759472 0.448200 0.879019
O O10 0.912437 0.489818 0.824488
O O11 0.322313 0.644960 0.186808
O O12 0.471641 0.581515 0.124963
O O13 0.420808 0.619397 0.449354
O O14 0.802689 0.663310 0.639446
O O15 0.619425 0.305059 0.859614
O O16 0.618840 0.510565 0.998117
#
# Coordination Sequence:
#
# PCOD9313296 Si02
#       8
#     4   4   4   4   4   4   4   4
#     4   8  15  29  42  65  93 114 143 184 228 263
#     4   8  15  24  42  64  85 118 128 184 224 259
#     4   9  16  26  43  66  90 108 148 194 215 261
#     4  10  15  25  43  69  89 109 146 182 223 268
#     4   9  18  26  43  70  89 119 148 182 225 270
#     4   9  15  27  43  68  85 111 152 183 229 263
#     4   9  15  25  41  64  92 107 142 186 232 254
#     4   8  15  24  45  64  87 112 143 181 220 266
#
# _framework density 22.164079999999998
#
# number of rings (size 3 to 8) (size 9 to 14) (size 15 to 20)
#    0.750    2.500    2.500    0.000    1.750    0.000 
#    0.000    1.250    0.000    0.000   26.000    0.000 
#    0.000    0.000    0.000    0.000    0.000    0.000 
#
# Total GULP energy -178284.106795 kJ/mol
# GULP energy per Si atom -5571.378337 kJ/mol
# Density = 2.211363 g / cm^3
# Si number density = 22.164080 Si / 1000 Ang^3
#
#
#
# Elastic Constant Matrix: (Units=GPa)
#
#
# Indices 1 2 3 4 5 6 
#
# 1 50.6202 -5.1508 23.7760 0.0000 0.0000 0.0000
# 2 -5.1508 119.0284 13.9099 0.0000 0.0000 0.0000
# 3 23.7760 13.9099 47.9241 0.0000 0.0000 0.0000
# 4 0.0000 0.0000 0.0000 2.5168 0.0000 0.0000
# 5 0.0000 0.0000 0.0000 0.0000 16.8075 0.0000
# 6 0.0000 0.0000 0.0000 0.0000 0.0000 35.4017
#
#
#
# Elastic Compliance Matrix: (Units=1/GPa)
#
#
# Indices 1 2 3 4 5 6 
#
# 1 0.026623 0.002790 -0.014018 0.000000 0.000000 0.000000
# 2 0.002790 0.008989 -0.003993 0.000000 0.000000 0.000000
# 3 -0.014018 -0.003993 0.028980 0.000000 0.000000 0.000000
# 4 0.000000 0.000000 0.000000 0.397331 0.000000 0.000000
# 5 0.000000 0.000000 0.000000 0.000000 0.059497 0.000000
# 6 0.000000 0.000000 0.000000 0.000000 0.000000 0.028247
#
#
# Mechanical properties :
#
#
# Convention : Reuss Voigt Hill
#
# Bulk Modulus (GPa) = 29.28287 31.40478 30.34382
# Shear Modulus (GPa) = 8.45319 23.28104 15.86711
#
# Velocity S-wave (km/s) = 1.95504 3.24450 2.67852
# Velocity P-wave (km/s) = 4.28215 5.31372 4.82558
#
# Compressibility (1/GPa) = 0.03414966
#
# Stress axis : x y z
#
# Youngs Moduli (GPa) = 37.56140 111.25006 34.50662
#
# Poissons Ratio (x) = -0.31042 0.48372
# Poissons Ratio (y) = -0.10481 0.13779
# Poissons Ratio (z) = 0.52654 0.44425
#
# Static dielectric constant tensor:
#      x y z
#    x 1.837220 0.000000 0.000000 
#    y 0.000000 1.818990 0.000000 
#    z 0.000000 0.000000 1.854370 
# 
# From -- ./inp_files/4246.got.cif
#   From: 2010.05.17/outbox.cif.g08.bks.cpg/sg19_3_cif.got.tgz:4246.got - 2010.06.03 22:46:19.
