data_PCOD9313444
_publ_section_title
;
Structure prediction by ZEFSAII (Michael W. Deem and Ramdas Pophale) SiO2 
 PCOD9313444
Probable space group: P 21 21 21
;
_chemical_formula_sum "Si O2"
_cell_formula_units_Z 28
_cell_length_a 6.429497
_cell_length_b 12.660703
_cell_length_c 18.418685
_cell_angle_alpha 90.000000
_cell_angle_beta 90.000000
_cell_angle_gamma 90.000000
_cell_volume 1499.316911
_symmetry_space_group_name_H-M "P 21 21 21"
_symmetry_group_IT_number 19
_symmetry_cell_setting 'orthorhombic'
loop_
_space_group_symop_operation_xyz
x,y,z
1/2-x,-y,1/2+z
1/2+x,1/2-y,-z
-x,1/2+y,1/2-z
loop_
_atom_site_type_symbol
_atom_site_label
_atom_site_fract_x
_atom_site_fract_y
_atom_site_fract_z
Si Si1 0.669811 0.751041 0.829888
Si Si2 0.024579 0.484705 0.808770
Si Si3 0.002486 0.667503 0.929369
Si Si4 0.998643 0.749403 0.698577
Si Si5 0.727264 0.449708 0.164849
Si Si6 0.380628 0.604712 0.744442
Si Si7 0.664464 0.354352 0.585912
O O1 0.797608 0.728945 0.902329
O O2 0.532780 0.650995 0.805552
O O3 0.499973 0.838649 0.848667
O O4 0.841687 0.765943 0.767181
O O5 0.250679 0.505444 0.773050
O O6 0.016679 0.569680 0.873474
O O7 0.981183 0.365809 0.833481
O O8 0.868016 0.511245 0.742255
O O9 0.193179 0.749395 0.920677
O O10 0.959610 0.632046 0.011114
O O11 0.212590 0.696070 0.725559
O O12 0.892337 0.659482 0.649341
O O13 0.702896 0.543000 0.107323
O O14 0.968481 0.421909 0.177944
#
# Coordination Sequence:
#
# PCOD9313444 Si02
#       7
#     4   4   4   4   4   4   4
#     4  11  18  37  57  90 119 151 194 243 304 351
#     4  11  20  37  60  89 119 156 203 252 294 360
#     4  12  23  38  61  89 119 161 204 248 309 356
#     4  10  21  36  61  88 120 155 202 250 297 358
#     4  10  22  36  59  89 120 157 202 250 306 352
#     4  10  18  35  59  88 115 153 198 245 299 347
#     4  12  24  39  61  89 128 159 199 256 305 368
#
# _framework density 18.675170000000001
#
# number of rings (size 3 to 8) (size 9 to 14) (size 15 to 20)
#    0.000    1.143    7.143    2.571    0.000    2.286 
#    0.000    0.000    3.143    0.000    0.000    0.000 
#    0.000    0.000    0.000    0.000    0.000    0.000 
#
# Total GULP energy -156115.126689 kJ/mol
# GULP energy per Si atom -5575.540239 kJ/mol
# Density = 1.863266 g / cm^3
# Si number density = 18.675170 Si / 1000 Ang^3
#
#
#
# Elastic Constant Matrix: (Units=GPa)
#
#
# Indices 1 2 3 4 5 6 
#
# 1 81.2764 19.8328 21.2514 0.0000 0.0000 0.0000
# 2 19.8328 122.4035 32.3899 0.0000 0.0000 0.0000
# 3 21.2514 32.3899 58.1285 0.0000 0.0000 0.0000
# 4 0.0000 0.0000 0.0000 24.1576 0.0000 0.0000
# 5 0.0000 0.0000 0.0000 0.0000 19.6666 0.0000
# 6 0.0000 0.0000 0.0000 0.0000 0.0000 13.2751
#
#
#
# Elastic Compliance Matrix: (Units=1/GPa)
#
#
# Indices 1 2 3 4 5 6 
#
# 1 0.013718 -0.001051 -0.004430 0.000000 0.000000 0.000000
# 2 -0.001051 0.009663 -0.005000 0.000000 0.000000 0.000000
# 3 -0.004430 -0.005000 0.021609 0.000000 0.000000 0.000000
# 4 0.000000 0.000000 0.000000 0.041395 0.000000 0.000000
# 5 0.000000 0.000000 0.000000 0.000000 0.050848 0.000000
# 6 0.000000 0.000000 0.000000 0.000000 0.000000 0.075329
#
#
# Mechanical properties :
#
#
# Convention : Reuss Voigt Hill
#
# Bulk Modulus (GPa) = 41.61659 45.41739 43.51699
# Shear Modulus (GPa) = 20.70110 23.97548 22.33829
#
# Velocity S-wave (km/s) = 3.33300 3.58693 3.46229
# Velocity P-wave (km/s) = 6.09464 6.44416 6.27184
#
# Compressibility (1/GPa) = 0.02402888
#
# Stress axis : x y z
#
# Youngs Moduli (GPa) = 72.89506 103.48664 46.27681
#
# Poissons Ratio (x) = 0.10871 0.20501
# Poissons Ratio (y) = 0.07658 0.23140
# Poissons Ratio (z) = 0.32292 0.51747
#
# Static dielectric constant tensor:
#      x y z
#    x 1.678240 0.000000 0.000000 
#    y 0.000000 1.680500 0.000000 
#    z 0.000000 0.000000 1.641490 
# 
# From -- ./inp_files/6877.got.cif
#   From: 2010.05.17/outbox.cif.g08.bks.cpg/sg19_4_cif.got.tgz:6877.got - 2010.06.03 22:46:19.
