data_PCOD9313217
_publ_section_title
;
Structure prediction by ZEFSAII (Michael W. Deem and Ramdas Pophale) SiO2 
 PCOD9313217
Probable space group: P 21 21 2
;
_chemical_formula_sum "Si O2"
_cell_formula_units_Z 24
_cell_length_a 13.355835
_cell_length_b 8.552026
_cell_length_c 8.844871
_cell_angle_alpha 90.000000
_cell_angle_beta 90.000000
_cell_angle_gamma 90.000000
_cell_volume 1010.256285
_symmetry_space_group_name_H-M "P 21 21 2"
_symmetry_group_IT_number 18
_symmetry_cell_setting 'orthorhombic'
loop_
_space_group_symop_operation_xyz
x,y,z
-x,-y,z
1/2+x,1/2-y,-z
1/2-x,1/2+y,-z
loop_
_atom_site_type_symbol
_atom_site_label
_atom_site_fract_x
_atom_site_fract_y
_atom_site_fract_z
Si Si1 0.850331 0.385816 0.092826
Si Si2 0.278695 0.622368 0.601310
Si Si3 0.057008 0.248962 0.591075
Si Si4 0.134342 0.770737 0.387407
Si Si5 0.000000 0.500000 0.831543
Si Si6 0.702819 0.666831 0.128283
Si Si7 0.000000 0.000000 0.808748
O O1 0.905441 0.300597 0.231005
O O2 0.784159 0.531438 0.142827
O O3 0.920967 0.428733 0.951114
O O4 0.774777 0.256046 0.027518
O O5 0.369161 0.735615 0.549363
O O6 0.209905 0.641386 0.453809
O O7 0.316580 0.444575 0.628648
O O8 0.221858 0.707446 0.738524
O O9 0.950046 0.224178 0.514025
O O10 0.056908 0.389684 0.710137
O O11 0.069971 0.102828 0.700691
O O12 0.587358 0.603177 0.113528
#
# Coordination Sequence:
#
# PCOD9313217 Si02
#       7
#     4   4   4   4   2   4   2
#     4  12  29  49  72 116 153 204 256 318 395 463
#     4  12  25  48  81 113 148 203 259 323 389 464
#     4  12  26  48  77 107 150 204 259 318 381 462
#     4  12  26  47  75 116 150 193 266 322 384 466
#     4  12  30  48  76 104 160 204 260 316 396 454
#     4  12  28  49  78 108 158 205 256 315 400 470
#     4  12  22  54  72 110 148 206 250 310 394 468
#
# _framework density 23.756347000000002
#
# number of rings (size 3 to 8) (size 9 to 14) (size 15 to 20)
#    0.000    0.000    5.000    3.000   14.000    0.000 
#    3.000    0.000    0.000    0.000    0.000    0.000 
#    0.000    0.000    0.000    0.000    0.000    0.000 
#
# Total GULP energy -133959.410405 kJ/mol
# GULP energy per Si atom -5581.642100 kJ/mol
# Density = 2.370228 g / cm^3
# Si number density = 23.756347 Si / 1000 Ang^3
#
#
#
# Elastic Constant Matrix: (Units=GPa)
#
#
# Indices 1 2 3 4 5 6 
#
# 1 68.0006 26.3574 13.9600 0.0000 0.0000 0.0000
# 2 26.3574 117.7091 67.7711 0.0000 0.0000 0.0000
# 3 13.9600 67.7711 104.5094 0.0000 0.0000 0.0000
# 4 0.0000 0.0000 0.0000 50.2833 0.0000 0.0000
# 5 0.0000 0.0000 0.0000 0.0000 21.2368 0.0000
# 6 0.0000 0.0000 0.0000 0.0000 0.0000 27.2616
#
#
#
# Elastic Compliance Matrix: (Units=1/GPa)
#
#
# Indices 1 2 3 4 5 6 
#
# 1 0.016109 -0.003779 0.000299 0.000000 0.000000 0.000000
# 2 -0.003779 0.014444 -0.008862 0.000000 0.000000 0.000000
# 3 0.000299 -0.008862 0.015275 0.000000 0.000000 0.000000
# 4 0.000000 0.000000 0.000000 0.019887 0.000000 0.000000
# 5 0.000000 0.000000 0.000000 0.000000 0.047088 0.000000
# 6 0.000000 0.000000 0.000000 0.000000 0.000000 0.036682
#
#
# Mechanical properties :
#
#
# Convention : Reuss Voigt Hill
#
# Bulk Modulus (GPa) = 47.29405 56.26621 51.78013
# Shear Modulus (GPa) = 27.59122 31.89839 29.74481
#
# Velocity S-wave (km/s) = 3.41167 3.66830 3.54231
# Velocity P-wave (km/s) = 5.95571 6.45586 6.21082
#
# Compressibility (1/GPa) = 0.02114431
#
# Stress axis : x y z
#
# Youngs Moduli (GPa) = 62.07610 69.23380 65.46640
#
# Poissons Ratio (x) = 0.26165 -0.01957
# Poissons Ratio (y) = 0.23460 0.58013
# Poissons Ratio (z) = -0.01856 0.61352
#
# Static dielectric constant tensor:
#      x y z
#    x 2.196360 0.000000 0.000000 
#    y 0.000000 2.197850 0.000000 
#    z 0.000000 0.000000 1.854310 
# 
# From -- ./inp_files/4199.got.cif
#   From: 2010.05.17/outbox.cif.g08.bks.cpg/sg18_3_cif.got.tgz:4199.got - 2010.06.03 22:40:56.
