data_PCOD9313890
_publ_section_title
;
Structure prediction by ZEFSAII (Michael W. Deem and Ramdas Pophale) SiO2 
 PCOD9313890
Probable space group: P 21 21 21
;
_chemical_formula_sum "Si O2"
_cell_formula_units_Z 32
_cell_length_a 9.250813
_cell_length_b 22.361040
_cell_length_c 5.454509
_cell_angle_alpha 90.000000
_cell_angle_beta 90.000000
_cell_angle_gamma 90.000000
_cell_volume 1128.307729
_symmetry_space_group_name_H-M "P 21 21 21"
_symmetry_group_IT_number 19
_symmetry_cell_setting 'orthorhombic'
loop_
_space_group_symop_operation_xyz
x,y,z
1/2-x,-y,1/2+z
1/2+x,1/2-y,-z
-x,1/2+y,1/2-z
loop_
_atom_site_type_symbol
_atom_site_label
_atom_site_fract_x
_atom_site_fract_y
_atom_site_fract_z
Si Si1 0.852044 0.756197 0.967173
Si Si2 0.874967 0.641409 0.187230
Si Si3 0.376565 0.438346 0.508640
Si Si4 0.071340 0.721777 0.543794
Si Si5 0.438438 0.543096 0.805341
Si Si6 0.315222 0.974872 0.525971
Si Si7 0.728678 0.142168 0.132085
Si Si8 0.965086 0.336611 0.162337
O O1 0.754778 0.806221 0.838433
O O2 0.970737 0.736712 0.768922
O O3 0.782565 0.692706 0.049230
O O4 0.939750 0.792033 0.172214
O O5 0.804799 0.592905 0.370289
O O6 0.980849 0.604366 0.999184
O O7 0.976235 0.682764 0.355448
O O8 0.435094 0.504852 0.555117
O O9 0.229461 0.439720 0.349508
O O10 0.304057 0.415699 0.765815
O O11 0.194151 0.673581 0.597439
O O12 0.137291 0.785858 0.454631
O O13 0.517577 0.496611 0.987522
O O14 0.539509 0.602048 0.811602
O O15 0.248423 0.988706 0.261570
O O16 0.561966 0.138794 0.065671
#
# Coordination Sequence:
#
# PCOD9313890 Si02
#       8
#     4   4   4   4   4   4   4   4
#     4  10  20  38  62  90 133 172 219 290 348 441
#     4   9  22  42  69 100 131 186 240 285 375 429
#     4  10  21  40  67 102 135 176 230 309 367 426
#     4   9  21  37  60  90 128 176 221 291 348 433
#     4  11  23  42  70 106 140 186 242 307 376 430
#     4  11  28  51  73 103 149 198 248 300 358 450
#     4  10  20  37  62  95 132 171 230 286 363 436
#     4  10  21  37  57  94 128 165 226 284 349 427
#
# _framework density 28.361059000000001
#
# number of rings (size 3 to 8) (size 9 to 14) (size 15 to 20)
#    0.000    2.000    1.250    0.750    3.500    5.000 
#    4.500    0.000    0.000    0.000    0.000    0.000 
#    0.000    0.000    0.000    0.000    0.000    0.000 
#
# Total GULP energy -178693.100185 kJ/mol
# GULP energy per Si atom -5584.159381 kJ/mol
# Density = 2.829651 g / cm^3
# Si number density = 28.361059 Si / 1000 Ang^3
#
#
#
# Elastic Constant Matrix: (Units=GPa)
#
#
# Indices 1 2 3 4 5 6 
#
# 1 58.1079 17.9676 24.0362 0.0000 0.0000 0.0000
# 2 17.9676 198.6887 34.3837 0.0000 0.0000 0.0000
# 3 24.0362 34.3837 76.5490 0.0000 0.0000 0.0000
# 4 0.0000 0.0000 0.0000 33.5062 0.0000 0.0000
# 5 0.0000 0.0000 0.0000 0.0000 48.6631 0.0000
# 6 0.0000 0.0000 0.0000 0.0000 0.0000 45.6448
#
#
#
# Elastic Compliance Matrix: (Units=1/GPa)
#
#
# Indices 1 2 3 4 5 6 
#
# 1 0.019889 -0.000778 -0.005895 0.000000 0.000000 0.000000
# 2 -0.000778 0.005488 -0.002221 0.000000 0.000000 0.000000
# 3 -0.005895 -0.002221 0.015912 0.000000 0.000000 0.000000
# 4 0.000000 0.000000 0.000000 0.029845 0.000000 0.000000
# 5 0.000000 0.000000 0.000000 0.000000 0.020549 0.000000
# 6 0.000000 0.000000 0.000000 0.000000 0.000000 0.021908
#
#
# Mechanical properties :
#
#
# Convention : Reuss Voigt Hill
#
# Bulk Modulus (GPa) = 42.55338 54.01342 48.28340
# Shear Modulus (GPa) = 35.91616 42.69336 39.30476
#
# Velocity S-wave (km/s) = 3.56250 3.88409 3.72677
# Velocity P-wave (km/s) = 5.65319 6.26109 5.96489
#
# Compressibility (1/GPa) = 0.02349990
#
# Stress axis : x y z
#
# Youngs Moduli (GPa) = 50.27996 182.22742 62.84543
#
# Poissons Ratio (x) = 0.14183 0.37050
# Poissons Ratio (y) = 0.03913 0.13955
# Poissons Ratio (z) = 0.29642 0.40464
#
# Static dielectric constant tensor:
#      x y z
#    x 2.313410 0.000000 0.000000 
#    y 0.000000 2.217280 0.000000 
#    z 0.000000 0.000000 2.337390 
# 
# From -- ./inp_files/1307.got.cif
#   From: 2010.05.17/outbox.cif.g08.bks.cpg/sg19_1_cif.got.tgz:1307.got - 2010.06.03 22:46:19.
