data_PCOD9313804
_publ_section_title
;
Structure prediction by ZEFSAII (Michael W. Deem and Ramdas Pophale) SiO2 
 PCOD9313804
Probable space group: P 21 21 21
;
_chemical_formula_sum "Si O2"
_cell_formula_units_Z 28
_cell_length_a 13.101166
_cell_length_b 16.371679
_cell_length_c 5.445153
_cell_angle_alpha 90.000000
_cell_angle_beta 90.000000
_cell_angle_gamma 90.000000
_cell_volume 1167.920436
_symmetry_space_group_name_H-M "P 21 21 21"
_symmetry_group_IT_number 19
_symmetry_cell_setting 'orthorhombic'
loop_
_space_group_symop_operation_xyz
x,y,z
1/2-x,-y,1/2+z
1/2+x,1/2-y,-z
-x,1/2+y,1/2-z
loop_
_atom_site_type_symbol
_atom_site_label
_atom_site_fract_x
_atom_site_fract_y
_atom_site_fract_z
Si Si1 0.543083 0.341327 0.816439
Si Si2 0.630845 0.948572 0.661330
Si Si3 0.285276 0.759605 0.887341
Si Si4 0.661636 0.215711 0.107950
Si Si5 0.369736 0.015573 0.847702
Si Si6 0.877271 0.956873 0.663296
Si Si7 0.338088 0.075016 0.355407
O O1 0.425041 0.360828 0.838718
O O2 0.593403 0.283873 0.609847
O O3 0.586543 0.430223 0.748435
O O4 0.597046 0.298251 0.049129
O O5 0.752926 0.948205 0.666947
O O6 0.596813 0.994561 0.411489
O O7 0.599162 0.996268 0.910707
O O8 0.280422 0.700656 0.652869
O O9 0.218751 0.838823 0.821233
O O10 0.266708 0.729081 0.158467
O O11 0.591481 0.137940 0.160181
O O12 0.388403 0.077133 0.623719
O O13 0.248538 0.996127 0.880186
O O14 0.400622 0.048173 0.115594
#
# Coordination Sequence:
#
# PCOD9313804 Si02
#       7
#     4   4   4   4   4   4   4
#     4   9  22  33  61  85 117 155 197 238 307 352
#     4  10  22  40  66  86 114 156 208 249 291 350
#     4   9  19  31  57  80 114 160 184 227 297 358
#     4  10  20  35  59  86 116 148 196 243 305 348
#     4   9  17  25  46  71 107 147 189 226 264 336
#     4  10  22  41  64  89 113 156 204 255 291 345
#     4   9  16  27  43  71 109 146 194 222 261 341
#
# _framework density 23.974235
#
# number of rings (size 3 to 8) (size 9 to 14) (size 15 to 20)
#    0.857    1.714    0.000    1.714    8.000    0.000 
#    0.000    0.000    9.429    0.000    0.000    0.000 
#    0.000    0.000    0.000    0.000    0.000    0.000 
#
# Total GULP energy -156023.688466 kJ/mol
# GULP energy per Si atom -5572.274588 kJ/mol
# Density = 2.391967 g / cm^3
# Si number density = 23.974235 Si / 1000 Ang^3
#
#
#
# Elastic Constant Matrix: (Units=GPa)
#
#
# Indices 1 2 3 4 5 6 
#
# 1 44.7151 13.2989 29.9809 0.0000 0.0000 0.0000
# 2 13.2989 68.8868 40.5245 0.0000 0.0000 0.0000
# 3 29.9809 40.5245 186.6565 0.0000 0.0000 0.0000
# 4 0.0000 0.0000 0.0000 26.3464 0.0000 0.0000
# 5 0.0000 0.0000 0.0000 0.0000 20.7822 0.0000
# 6 0.0000 0.0000 0.0000 0.0000 0.0000 29.7428
#
#
#
# Elastic Compliance Matrix: (Units=1/GPa)
#
#
# Indices 1 2 3 4 5 6 
#
# 1 0.025554 -0.002888 -0.003478 0.000000 0.000000 0.000000
# 2 -0.002888 0.016968 -0.003220 0.000000 0.000000 0.000000
# 3 -0.003478 -0.003220 0.006615 0.000000 0.000000 0.000000
# 4 0.000000 0.000000 0.000000 0.037956 0.000000 0.000000
# 5 0.000000 0.000000 0.000000 0.000000 0.048118 0.000000
# 6 0.000000 0.000000 0.000000 0.000000 0.000000 0.033622
#
#
# Mechanical properties :
#
#
# Convention : Reuss Voigt Hill
#
# Bulk Modulus (GPa) = 33.36994 51.98522 42.67758
# Shear Modulus (GPa) = 25.25341 29.80456 27.52898
#
# Velocity S-wave (km/s) = 3.24907 3.52972 3.39229
# Velocity P-wave (km/s) = 5.29382 6.19215 5.76052
#
# Compressibility (1/GPa) = 0.02996709
#
# Stress axis : x y z
#
# Youngs Moduli (GPa) = 39.13236 58.93324 151.16852
#
# Poissons Ratio (x) = 0.17017 0.52571
# Poissons Ratio (y) = 0.11300 0.48679
# Poissons Ratio (z) = 0.13609 0.18977
#
# Static dielectric constant tensor:
#      x y z
#    x 2.039340 0.000000 0.000000 
#    y 0.000000 1.900580 0.000000 
#    z 0.000000 0.000000 1.938200 
# 
# From -- ./inp_files/1546.got.cif
#   From: 2010.05.17/outbox.cif.g08.bks.cpg/sg19_1_cif.got.tgz:1546.got - 2010.06.03 22:46:19.
