data_PCOD9313106
_publ_section_title
;
Structure prediction by ZEFSAII (Michael W. Deem and Ramdas Pophale) SiO2 
 PCOD9313106
Probable space group: P 21 21 2
;
_chemical_formula_sum "Si O2"
_cell_formula_units_Z 22
_cell_length_a 13.453799
_cell_length_b 6.761498
_cell_length_c 11.701105
_cell_angle_alpha 90.000000
_cell_angle_beta 90.000000
_cell_angle_gamma 90.000000
_cell_volume 1064.424189
_symmetry_space_group_name_H-M "P 21 21 2"
_symmetry_group_IT_number 18
_symmetry_cell_setting 'orthorhombic'
loop_
_space_group_symop_operation_xyz
x,y,z
-x,-y,z
1/2+x,1/2-y,-z
1/2-x,1/2+y,-z
loop_
_atom_site_type_symbol
_atom_site_label
_atom_site_fract_x
_atom_site_fract_y
_atom_site_fract_z
Si Si1 0.000000 0.500000 0.478006
Si Si2 0.611959 0.928734 0.076460
Si Si3 0.635520 0.350068 0.456624
Si Si4 0.890213 0.066149 0.780182
Si Si5 0.845998 0.195416 0.378655
Si Si6 0.768921 0.264609 0.129240
O O1 0.062472 0.337582 0.548258
O O2 0.073886 0.634384 0.403372
O O3 0.617422 0.795525 0.190480
O O4 0.500000 0.000000 0.060363
O O5 0.688023 0.107178 0.088964
O O6 0.650653 0.804874 0.968178
O O7 0.616785 0.497728 0.350861
O O8 0.746035 0.263525 0.444820
O O9 0.623603 0.483358 0.569489
O O10 0.797962 0.956348 0.840403
O O11 0.000000 0.000000 0.822506
O O12 0.819835 0.190833 0.245576
#
# Coordination Sequence:
#
# PCOD9313106 Si02
#       6
#     2   4   4   4   4   4
#     4  12  24  46  72 102 146 188 226 280 356 418
#     4  12  25  46  73 101 139 188 235 294 351 407
#     4  11  25  45  71 105 145 181 230 284 349 426
#     4  11  23  42  70 105 135 178 234 285 348 415
#     4  11  25  44  68 106 142 188 228 287 350 420
#     4  11  26  44  69 103 142 181 237 295 342 414
#
# _framework density 20.668451000000001
#
# number of rings (size 3 to 8) (size 9 to 14) (size 15 to 20)
#    0.000    0.727    5.455    1.636    3.818    2.909 
#    1.636    3.636    0.000    0.000    0.000    0.000 
#    0.000    0.000    0.000    0.000    0.000    0.000 
#
# Total GULP energy -123040.964000 kJ/mol
# GULP energy per Si atom -5592.771091 kJ/mol
# Density = 2.062141 g / cm^3
# Si number density = 20.668451 Si / 1000 Ang^3
#
#
#
# Elastic Constant Matrix: (Units=GPa)
#
#
# Indices 1 2 3 4 5 6 
#
# 1 116.1168 61.4757 46.2973 0.0000 0.0000 0.0000
# 2 61.4757 103.8112 49.5214 0.0000 0.0000 0.0000
# 3 46.2973 49.5214 92.5364 0.0000 0.0000 0.0000
# 4 0.0000 0.0000 0.0000 32.0329 0.0000 0.0000
# 5 0.0000 0.0000 0.0000 0.0000 16.2912 0.0000
# 6 0.0000 0.0000 0.0000 0.0000 0.0000 43.4839
#
#
#
# Elastic Compliance Matrix: (Units=1/GPa)
#
#
# Indices 1 2 3 4 5 6 
#
# 1 0.013239 -0.006285 -0.003260 0.000000 0.000000 0.000000
# 2 -0.006285 0.015918 -0.005374 0.000000 0.000000 0.000000
# 3 -0.003260 -0.005374 0.015314 0.000000 0.000000 0.000000
# 4 0.000000 0.000000 0.000000 0.031218 0.000000 0.000000
# 5 0.000000 0.000000 0.000000 0.000000 0.061383 0.000000
# 6 0.000000 0.000000 0.000000 0.000000 0.000000 0.022997
#
#
# Mechanical properties :
#
#
# Convention : Reuss Voigt Hill
#
# Bulk Modulus (GPa) = 68.34204 69.67256 69.00730
# Shear Modulus (GPa) = 25.66909 28.70627 27.18768
#
# Velocity S-wave (km/s) = 3.52795 3.73083 3.63081
# Velocity P-wave (km/s) = 7.05215 7.23475 7.14403
#
# Compressibility (1/GPa) = 0.01463228
#
# Stress axis : x y z
#
# Youngs Moduli (GPa) = 75.53209 62.82005 65.29967
#
# Poissons Ratio (x) = 0.39481 0.21291
# Poissons Ratio (y) = 0.47471 0.35095
# Poissons Ratio (z) = 0.24627 0.33762
#
# Static dielectric constant tensor:
#      x y z
#    x 1.728630 0.000000 0.000000 
#    y 0.000000 1.759510 0.000000 
#    z 0.000000 0.000000 1.722760 
# 
# From -- ./inp_files/6028.got.cif
#   From: 2010.05.17/outbox.cif.g08.bks.cpg/sg18_4_cif.got.tgz:6028.got - 2010.06.03 22:40:56.
