data_PCOD9313633
_publ_section_title
;
Structure prediction by ZEFSAII (Michael W. Deem and Ramdas Pophale) SiO2 
 PCOD9313633
Probable space group: P 21 21 21
;
_chemical_formula_sum "Si O2"
_cell_formula_units_Z 24
_cell_length_a 10.577936
_cell_length_b 11.953385
_cell_length_c 7.850184
_cell_angle_alpha 90.000000
_cell_angle_beta 90.000000
_cell_angle_gamma 90.000000
_cell_volume 992.594076
_symmetry_space_group_name_H-M "P 21 21 21"
_symmetry_group_IT_number 19
_symmetry_cell_setting 'orthorhombic'
loop_
_space_group_symop_operation_xyz
x,y,z
1/2-x,-y,1/2+z
1/2+x,1/2-y,-z
-x,1/2+y,1/2-z
loop_
_atom_site_type_symbol
_atom_site_label
_atom_site_fract_x
_atom_site_fract_y
_atom_site_fract_z
Si Si1 0.576046 0.030333 0.020043
Si Si2 0.833276 0.351881 0.901290
Si Si3 0.388187 0.592312 0.098705
Si Si4 0.608512 0.325116 0.497997
Si Si5 0.157887 0.975664 0.956318
Si Si6 0.715044 0.155617 0.733152
O O1 0.462853 0.123272 0.004673
O O2 0.624287 0.039714 0.215745
O O3 0.664403 0.068270 0.867363
O O4 0.500783 0.914999 0.997297
O O5 0.837595 0.435684 0.738951
O O6 0.821132 0.226837 0.830536
O O7 0.716553 0.402576 0.009899
O O8 0.417845 0.723863 0.130063
O O9 0.276725 0.602770 0.957571
O O10 0.510004 0.538950 0.002177
O O11 0.743226 0.385577 0.463957
O O12 0.621928 0.259107 0.677754
#
# Coordination Sequence:
#
# PCOD9313633 Si02
#       6
#     4   4   4   4   4   4
#     4  10  19  37  54  79 114 140 182 223 269 318
#     4   9  19  33  54  85 107 134 189 229 259 331
#     4   9  20  32  53  81 110 144 168 230 268 319
#     4   8  19  35  52  83 109 136 188 221 255 336
#     4   9  17  31  55  78 106 138 175 229 269 301
#     4   9  20  34  52  82 112 140 174 226 274 315
#
# _framework density 24.179068000000001
#
# number of rings (size 3 to 8) (size 9 to 14) (size 15 to 20)
#    1.000    2.000    0.000    0.000    7.000    4.000 
#    0.000    0.000    0.000   14.000    0.000    0.000 
#    0.000    0.000    0.000    0.000    0.000    0.000 
#
# Total GULP energy -133726.505518 kJ/mol
# GULP energy per Si atom -5571.937730 kJ/mol
# Density = 2.412404 g / cm^3
# Si number density = 24.179068 Si / 1000 Ang^3
#
#
#
# Elastic Constant Matrix: (Units=GPa)
#
#
# Indices 1 2 3 4 5 6 
#
# 1 58.6510 27.1543 21.6561 0.0000 0.0000 0.0000
# 2 27.1543 89.9195 55.4780 0.0000 0.0000 0.0000
# 3 21.6561 55.4780 69.7543 0.0000 0.0000 0.0000
# 4 0.0000 0.0000 0.0000 54.6387 0.0000 0.0000
# 5 0.0000 0.0000 0.0000 0.0000 34.9282 0.0000
# 6 0.0000 0.0000 0.0000 0.0000 0.0000 20.9668
#
#
#
# Elastic Compliance Matrix: (Units=1/GPa)
#
#
# Indices 1 2 3 4 5 6 
#
# 1 0.020091 -0.004356 -0.002773 0.000000 0.000000 0.000000
# 2 -0.004356 0.022781 -0.016766 0.000000 0.000000 0.000000
# 3 -0.002773 -0.016766 0.028531 0.000000 0.000000 0.000000
# 4 0.000000 0.000000 0.000000 0.018302 0.000000 0.000000
# 5 0.000000 0.000000 0.000000 0.000000 0.028630 0.000000
# 6 0.000000 0.000000 0.000000 0.000000 0.000000 0.047694
#
#
# Mechanical properties :
#
#
# Convention : Reuss Voigt Hill
#
# Bulk Modulus (GPa) = 42.34954 47.43353 44.89153
# Shear Modulus (GPa) = 22.55406 29.70919 26.13163
#
# Velocity S-wave (km/s) = 3.05748 3.50911 3.29105
# Velocity P-wave (km/s) = 5.47880 6.00655 5.74873
#
# Compressibility (1/GPa) = 0.02361301
#
# Stress axis : x y z
#
# Youngs Moduli (GPa) = 49.77431 43.89689 35.04941
#
# Poissons Ratio (x) = 0.19124 0.09718
# Poissons Ratio (y) = 0.21684 0.58763
# Poissons Ratio (z) = 0.13800 0.73596
#
# Static dielectric constant tensor:
#      x y z
#    x 2.143860 0.000000 0.000000 
#    y 0.000000 2.018080 0.000000 
#    z 0.000000 0.000000 1.908760 
# 
# From -- ./inp_files/3868.got.cif
#   From: 2010.05.17/outbox.cif.g08.bks.cpg/sg19_2_cif.got.tgz:3868.got - 2010.06.03 22:46:19.
