data_PCOD9313021
_publ_section_title
;
Structure prediction by ZEFSAII (Michael W. Deem and Ramdas Pophale) SiO2 
 PCOD9313021
Probable space group: P 21 21 2
;
_chemical_formula_sum "Si O2"
_cell_formula_units_Z 30
_cell_length_a 7.833474
_cell_length_b 15.620621
_cell_length_c 11.333344
_cell_angle_alpha 90.000000
_cell_angle_beta 90.000000
_cell_angle_gamma 90.000000
_cell_volume 1386.790228
_symmetry_space_group_name_H-M "P 21 21 2"
_symmetry_group_IT_number 18
_symmetry_cell_setting 'orthorhombic'
loop_
_space_group_symop_operation_xyz
x,y,z
-x,-y,z
1/2+x,1/2-y,-z
1/2-x,1/2+y,-z
loop_
_atom_site_type_symbol
_atom_site_label
_atom_site_fract_x
_atom_site_fract_y
_atom_site_fract_z
Si Si1 0.685568 0.535309 0.924073
Si Si2 0.830350 0.393895 0.747912
Si Si3 0.366863 0.741629 0.641395
Si Si4 0.349229 0.355900 0.526443
Si Si5 0.000000 0.500000 0.094329
Si Si6 0.668011 0.858326 0.738684
Si Si7 0.694485 0.182562 0.218195
Si Si8 0.811159 0.465373 0.482161
O O1 0.500000 0.500000 0.963683
O O2 0.750705 0.471438 0.820410
O O3 0.678806 0.629638 0.866439
O O4 0.839000 0.533781 0.018246
O O5 0.708089 0.312147 0.748208
O O6 0.843100 0.421327 0.609862
O O7 0.010279 0.361089 0.796893
O O8 0.460954 0.673317 0.556994
O O9 0.222760 0.793887 0.573876
O O10 0.510771 0.806242 0.682523
O O11 0.244720 0.336909 0.646414
O O12 0.313342 0.453948 0.497540
O O13 0.913844 0.425226 0.171372
O O14 0.788674 0.784865 0.794708
O O15 0.748005 0.907817 0.627499
O O16 0.000000 0.500000 0.447357
#
# Coordination Sequence:
#
# PCOD9313021 Si02
#       8
#     4   4   4   4   2   4   4   4
#     4  12  25  48  76 106 137 185 247 307 359 426
#     4  12  22  41  70 109 141 184 232 297 365 432
#     4  11  23  37  63 100 144 183 233 289 349 441
#     4  11  20  36  60  99 138 184 225 282 357 436
#     4  12  26  54  74 100 140 198 242 308 368 408
#     4  11  24  45  71 100 142 192 234 296 362 439
#     4  11  21  43  68 102 137 175 240 291 360 421
#     4  12  20  37  69  97 145 188 219 286 363 433
#
# _framework density 21.632687000000001
#
# number of rings (size 3 to 8) (size 9 to 14) (size 15 to 20)
#    0.000    0.533    6.000    4.000    0.000    0.000 
#    7.200    0.000    5.867    0.000    0.000    0.000 
#    0.000    0.000    0.000    0.000    0.000    0.000 
#
# Total GULP energy -167749.585771 kJ/mol
# GULP energy per Si atom -5591.652859 kJ/mol
# Density = 2.158345 g / cm^3
# Si number density = 21.632687 Si / 1000 Ang^3
#
#
#
# Elastic Constant Matrix: (Units=GPa)
#
#
# Indices 1 2 3 4 5 6 
#
# 1 76.3046 26.8798 9.7321 0.0000 0.0000 0.0000
# 2 26.8798 130.8083 37.7116 0.0000 0.0000 0.0000
# 3 9.7321 37.7116 67.8409 0.0000 0.0000 0.0000
# 4 0.0000 0.0000 0.0000 -17.8722 0.0000 0.0000
# 5 0.0000 0.0000 0.0000 0.0000 21.1932 0.0000
# 6 0.0000 0.0000 0.0000 0.0000 0.0000 6.0297
#
#
#
# Elastic Compliance Matrix: (Units=1/GPa)
#
#
# Indices 1 2 3 4 5 6 
#
# 1 0.014142 -0.002764 -0.000492 0.000000 0.000000 0.000000
# 2 -0.002764 0.009644 -0.004964 0.000000 0.000000 0.000000
# 3 -0.000492 -0.004964 0.017571 0.000000 0.000000 0.000000
# 4 0.000000 0.000000 0.000000 -0.055953 0.000000 0.000000
# 5 0.000000 0.000000 0.000000 0.000000 0.047185 0.000000
# 6 0.000000 0.000000 0.000000 0.000000 0.000000 0.165846
#
#
# Mechanical properties :
#
#
# Convention : Reuss Voigt Hill
#
# Bulk Modulus (GPa) = 40.13643 47.06677 43.60160
# Shear Modulus (GPa) = 22.40333 15.24548 18.82441
#
# Velocity S-wave (km/s) = 3.22160 2.65758 2.95309
# Velocity P-wave (km/s) = 5.69493 5.58762 5.64153
#
# Compressibility (1/GPa) = 0.02491502
#
# Stress axis : x y z
#
# Youngs Moduli (GPa) = 70.71205 103.69140 56.91319
#
# Poissons Ratio (x) = 0.28661 0.02801
# Poissons Ratio (y) = 0.19546 0.28254
# Poissons Ratio (z) = 0.03480 0.51477
#
# Static dielectric constant tensor:
#      x y z
#    x 1.809460 0.000000 0.000000 
#    y 0.000000 1.846860 0.000000 
#    z 0.000000 0.000000 1.773300 
# 
# From -- ./inp_files/5647.got.cif
#   From: 2010.05.17/outbox.cif.g08.bks.cpg/sg18_3_cif.got.tgz:5647.got - 2010.06.03 22:40:56.
