data_PCOD9313761
_publ_section_title
;
Structure prediction by ZEFSAII (Michael W. Deem and Ramdas Pophale) SiO2 
 PCOD9313761
Probable space group: P 21 21 21
;
_chemical_formula_sum "Si O2"
_cell_formula_units_Z 32
_cell_length_a 24.461634
_cell_length_b 9.791094
_cell_length_c 5.158296
_cell_angle_alpha 90.000000
_cell_angle_beta 90.000000
_cell_angle_gamma 90.000000
_cell_volume 1235.443656
_symmetry_space_group_name_H-M "P 21 21 21"
_symmetry_group_IT_number 19
_symmetry_cell_setting 'orthorhombic'
loop_
_space_group_symop_operation_xyz
x,y,z
1/2-x,-y,1/2+z
1/2+x,1/2-y,-z
-x,1/2+y,1/2-z
loop_
_atom_site_type_symbol
_atom_site_label
_atom_site_fract_x
_atom_site_fract_y
_atom_site_fract_z
Si Si1 0.447922 0.177328 0.605922
Si Si2 0.272664 0.074243 0.912498
Si Si3 0.021620 0.088271 0.868378
Si Si4 0.157903 0.464856 0.339105
Si Si5 0.697005 0.189428 0.166625
Si Si6 0.374183 0.919463 0.075479
Si Si7 0.936358 0.777820 0.249807
Si Si8 0.594220 0.815182 0.379694
O O1 0.462832 0.018243 0.596572
O O2 0.509577 0.238048 0.572809
O O3 0.405354 0.228794 0.387084
O O4 0.426885 0.227912 0.878662
O O5 0.252795 0.229219 0.887180
O O6 0.333944 0.040617 0.000859
O O7 0.237512 0.999934 0.138019
O O8 0.041010 0.236401 0.971359
O O9 0.066144 0.039038 0.665894
O O10 0.957741 0.084997 0.814097
O O11 0.184104 0.420359 0.060676
O O12 0.094704 0.419614 0.279709
O O13 0.145269 0.603402 0.501562
O O14 0.192491 0.382034 0.554267
O O15 0.654964 0.318398 0.214332
O O16 0.387237 0.821549 0.835066
#
# Coordination Sequence:
#
# PCOD9313761 Si02
#       8
#     4   4   4   4   4   4   4   4
#     4  11  24  37  55  79 119 154 200 236 280 335
#     4  10  20  34  53  85 122 149 180 235 296 361
#     4  11  22  37  56  82 119 158 196 239 285 348
#     4  11  20  37  58  80 115 152 192 234 284 341
#     4  10  20  34  57  85 112 150 187 233 292 350
#     4  10  20  33  57  81 124 146 187 231 298 348
#     4  10  20  35  53  83 111 156 189 229 282 341
#     4  11  24  39  55  83 114 161 199 241 279 342
#
# _framework density 25.901626
#
# number of rings (size 3 to 8) (size 9 to 14) (size 15 to 20)
#    0.000    1.500    3.750    3.000    3.500    0.000 
#    0.000    0.000    0.000    0.000    0.000    3.500 
#    0.000    0.000    0.000    0.000    0.000    0.000 
#
# Total GULP energy -178513.280710 kJ/mol
# GULP energy per Si atom -5578.540022 kJ/mol
# Density = 2.584267 g / cm^3
# Si number density = 25.901626 Si / 1000 Ang^3
#
#
#
# Elastic Constant Matrix: (Units=GPa)
#
#
# Indices 1 2 3 4 5 6 
#
# 1 81.1557 30.0095 16.6594 0.0000 0.0000 0.0000
# 2 30.0095 41.7054 7.1502 0.0000 0.0000 0.0000
# 3 16.6594 7.1502 142.3198 0.0000 0.0000 0.0000
# 4 0.0000 0.0000 0.0000 26.0194 0.0000 0.0000
# 5 0.0000 0.0000 0.0000 0.0000 27.9905 0.0000
# 6 0.0000 0.0000 0.0000 0.0000 0.0000 31.2029
#
#
#
# Elastic Compliance Matrix: (Units=1/GPa)
#
#
# Indices 1 2 3 4 5 6 
#
# 1 0.017058 -0.012036 -0.001392 0.000000 0.000000 0.000000
# 2 -0.012036 0.032678 -0.000233 0.000000 0.000000 0.000000
# 3 -0.001392 -0.000233 0.007201 0.000000 0.000000 0.000000
# 4 0.000000 0.000000 0.000000 0.038433 0.000000 0.000000
# 5 0.000000 0.000000 0.000000 0.000000 0.035726 0.000000
# 6 0.000000 0.000000 0.000000 0.000000 0.000000 0.032048
#
#
# Mechanical properties :
#
#
# Convention : Reuss Voigt Hill
#
# Bulk Modulus (GPa) = 33.76565 41.42436 37.59500
# Shear Modulus (GPa) = 24.95774 31.13334 28.04554
#
# Velocity S-wave (km/s) = 3.10749 3.47073 3.29412
# Velocity P-wave (km/s) = 5.09311 5.66471 5.38650
#
# Compressibility (1/GPa) = 0.02961590
#
# Stress axis : x y z
#
# Youngs Moduli (GPa) = 58.62245 30.60158 138.86802
#
# Poissons Ratio (x) = 0.36831 0.19332
# Poissons Ratio (y) = 0.70557 0.03234
# Poissons Ratio (z) = 0.08161 0.00713
#
# Static dielectric constant tensor:
#      x y z
#    x 2.087550 0.000000 0.000000 
#    y 0.000000 2.236590 0.000000 
#    z 0.000000 0.000000 2.034900 
# 
# From -- ./inp_files/2273.got.cif
#   From: 2010.05.17/outbox.cif.g08.bks.cpg/sg19_2_cif.got.tgz:2273.got - 2010.06.03 22:46:19.
