data_PCOD9313280
_publ_section_title
;
Structure prediction by ZEFSAII (Michael W. Deem and Ramdas Pophale) SiO2 
 PCOD9313280
Probable space group: P 21 21 2
;
_chemical_formula_sum "Si O2"
_cell_formula_units_Z 18
_cell_length_a 12.000000
_cell_length_b 9.000000
_cell_length_c 9.000000
_cell_angle_alpha 90.000000
_cell_angle_beta 90.000000
_cell_angle_gamma 90.000000
_cell_volume 972.000000
_symmetry_space_group_name_H-M "P 21 21 2"
_symmetry_group_IT_number 18
_symmetry_cell_setting 'orthorhombic'
loop_
_space_group_symop_operation_xyz
x,y,z
-x,-y,z
1/2+x,1/2-y,-z
1/2-x,1/2+y,-z
loop_
_atom_site_type_symbol
_atom_site_label
_atom_site_fract_x
_atom_site_fract_y
_atom_site_fract_z
Si Si1 0.589201 0.727770 0.251205
Si Si2 0.000000 0.000000 0.990662
Si Si3 0.804330 0.989961 0.531507
Si Si4 0.148763 0.327981 0.656564
Si Si5 0.205461 0.051119 0.205149
O O1 0.627121 0.612927 0.379390
O O2 0.482463 0.819872 0.311064
O O3 0.698464 0.822477 0.206013
O O4 0.542948 0.632553 0.114130
O O5 0.892902 0.948200 0.086647
O O6 0.686544 0.065327 0.481434
O O7 0.805976 0.837480 0.622840
O O8 0.851315 0.948411 0.368862
O O9 0.220155 0.399877 0.791137
#
# Coordination Sequence:
#
# PCOD9313280 Si02
#       5
#     4   2   4   4   4
#     4  12  23  43  67  94 133 176 219 274 328 390
#     4  12  28  38  70  90 142 178 218 266 324 398
#     4  10  20  39  68  94 125 162 223 275 331 376
#     4  10  21  40  67  99 123 167 219 275 329 386
#     4  10  25  42  64  96 128 172 217 269 327 390
#
# _framework density 18.518519000000001
#
# number of rings (size 3 to 8) (size 9 to 14) (size 15 to 20)
#    1.333    0.000    4.444    0.667    6.222    0.000 
#    0.000    0.000    0.000    0.000    0.000    0.000 
#    0.000    0.000    0.000    0.000    0.000    0.000 
#
# Total GULP energy -100241.745962 kJ/mol
# GULP energy per Si atom -5568.985887 kJ/mol
# Density = 1.847637 g / cm^3
# Si number density = 18.518519 Si / 1000 Ang^3
#
#
#
# Elastic Constant Matrix: (Units=GPa)
#
#
# Indices 1 2 3 4 5 6 
#
# 1 154.9166 68.5789 80.0910 0.0000 0.0000 0.0000
# 2 68.5789 108.8088 49.0723 0.0000 0.0000 0.0000
# 3 80.0910 49.0723 103.9256 0.0000 0.0000 0.0000
# 4 0.0000 0.0000 0.0000 28.8759 0.0000 0.0000
# 5 0.0000 0.0000 0.0000 0.0000 39.1674 0.0000
# 6 0.0000 0.0000 0.0000 0.0000 0.0000 34.0696
#
#
#
# Elastic Compliance Matrix: (Units=1/GPa)
#
#
# Indices 1 2 3 4 5 6 
#
# 1 0.012174 -0.004373 -0.007317 0.000000 0.000000 0.000000
# 2 -0.004373 0.013248 -0.002886 0.000000 0.000000 0.000000
# 3 -0.007317 -0.002886 0.016624 0.000000 0.000000 0.000000
# 4 0.000000 0.000000 0.000000 0.034631 0.000000 0.000000
# 5 0.000000 0.000000 0.000000 0.000000 0.025531 0.000000
# 6 0.000000 0.000000 0.000000 0.000000 0.000000 0.029352
#
#
# Mechanical properties :
#
#
# Convention : Reuss Voigt Hill
#
# Bulk Modulus (GPa) = 77.55184 84.79281 81.17232
# Shear Modulus (GPa) = 30.30156 31.74983 31.02570
#
# Velocity S-wave (km/s) = 4.04949 4.14513 4.09759
# Velocity P-wave (km/s) = 7.98958 8.29440 8.14342
#
# Compressibility (1/GPa) = 0.01289460
#
# Stress axis : x y z
#
# Youngs Moduli (GPa) = 82.14449 75.48407 60.15524
#
# Poissons Ratio (x) = 0.33008 0.44015
# Poissons Ratio (y) = 0.35920 0.17358
# Poissons Ratio (z) = 0.60105 0.21781
#
# Static dielectric constant tensor:
#      x y z
#    x 1.620000 0.000000 0.000000 
#    y 0.000000 1.678390 0.000000 
#    z 0.000000 0.000000 1.663810 
# 
# From -- ./inp_files/3614.got.cif
#   From: 2010.05.17/outbox.ucp.g08.bks.cvg/sg18_2_cif.got.tgz:3614.got - 2010.06.11 13:13:23.
