data_PCOD9313628
_publ_section_title
;
Structure prediction by ZEFSAII (Michael W. Deem and Ramdas Pophale) SiO2 
 PCOD9313628
Probable space group: P 21 21 21
;
_chemical_formula_sum "Si O2"
_cell_formula_units_Z 32
_cell_length_a 7.833461
_cell_length_b 15.555465
_cell_length_c 12.792147
_cell_angle_alpha 90.000000
_cell_angle_beta 90.000000
_cell_angle_gamma 90.000000
_cell_volume 1558.763131
_symmetry_space_group_name_H-M "P 21 21 21"
_symmetry_group_IT_number 19
_symmetry_cell_setting 'orthorhombic'
loop_
_space_group_symop_operation_xyz
x,y,z
1/2-x,-y,1/2+z
1/2+x,1/2-y,-z
-x,1/2+y,1/2-z
loop_
_atom_site_type_symbol
_atom_site_label
_atom_site_fract_x
_atom_site_fract_y
_atom_site_fract_z
Si Si1 0.598022 0.766030 0.649023
Si Si2 0.717197 0.698797 0.430194
Si Si3 0.380441 0.390124 0.536974
Si Si4 0.949896 0.251397 0.730648
Si Si5 0.238099 0.851172 0.166811
Si Si6 0.582521 0.508972 0.376641
Si Si7 0.695927 0.263885 0.547510
Si Si8 0.303789 0.591377 0.240841
O O1 0.695076 0.726543 0.549316
O O2 0.405484 0.782547 0.613139
O O3 0.625830 0.700054 0.747489
O O4 0.681495 0.857755 0.678807
O O5 0.595200 0.752097 0.351659
O O6 0.654194 0.601010 0.413568
O O7 0.483667 0.458656 0.468657
O O8 0.518510 0.314426 0.559219
O O9 0.223692 0.336581 0.483958
O O10 0.308199 0.433572 0.641472
O O11 0.065011 0.172855 0.694890
O O12 0.071070 0.331723 0.706541
O O13 0.788278 0.266614 0.658431
O O14 0.254926 0.953716 0.163968
O O15 0.216151 0.816488 0.048713
O O16 0.432567 0.524259 0.291787
#
# Coordination Sequence:
#
# PCOD9313628 Si02
#       8
#     4   4   4   4   4   4   4   4
#     4  11  22  46  70  91 124 180 237 253 325 407
#     4  11  24  43  68  93 130 179 222 279 317 402
#     4  11  20  39  64  95 131 172 212 277 328 392
#     4  10  19  36  65  90 124 170 213 261 319 392
#     4  10  21  40  64  95 129 165 216 276 324 396
#     4  10  23  44  61  97 141 166 216 281 349 377
#     4  11  18  35  66  94 126 165 219 258 321 393
#     4  10  21  43  64  91 131 173 215 275 325 399
#
# _framework density 20.529098000000001
#
# number of rings (size 3 to 8) (size 9 to 14) (size 15 to 20)
#    0.000    1.500    5.000    3.000    0.000    0.000 
#   18.000    2.500    0.000    0.000    0.000    0.000 
#    0.000    0.000    0.000    0.000    0.000    0.000 
#
# Total GULP energy -178320.752150 kJ/mol
# GULP energy per Si atom -5572.523505 kJ/mol
# Density = 2.048237 g / cm^3
# Si number density = 20.529098 Si / 1000 Ang^3
#
#
#
# Elastic Constant Matrix: (Units=GPa)
#
#
# Indices 1 2 3 4 5 6 
#
# 1 77.9789 20.9142 23.0411 0.0000 0.0000 0.0000
# 2 20.9142 44.1974 15.9495 0.0000 0.0000 0.0000
# 3 23.0411 15.9495 102.4363 0.0000 0.0000 0.0000
# 4 0.0000 0.0000 0.0000 20.7024 0.0000 0.0000
# 5 0.0000 0.0000 0.0000 0.0000 18.2606 0.0000
# 6 0.0000 0.0000 0.0000 0.0000 0.0000 22.1826
#
#
#
# Elastic Compliance Matrix: (Units=1/GPa)
#
#
# Indices 1 2 3 4 5 6 
#
# 1 0.015244 -0.006332 -0.002443 0.000000 0.000000 0.000000
# 2 -0.006332 0.026603 -0.002718 0.000000 0.000000 0.000000
# 3 -0.002443 -0.002718 0.010735 0.000000 0.000000 0.000000
# 4 0.000000 0.000000 0.000000 0.048304 0.000000 0.000000
# 5 0.000000 0.000000 0.000000 0.000000 0.054763 0.000000
# 6 0.000000 0.000000 0.000000 0.000000 0.000000 0.045080
#
#
# Mechanical properties :
#
#
# Convention : Reuss Voigt Hill
#
# Bulk Modulus (GPa) = 33.78805 38.26914 36.02859
# Shear Modulus (GPa) = 21.40601 23.20964 22.30782
#
# Velocity S-wave (km/s) = 3.23261 3.36605 3.30000
# Velocity P-wave (km/s) = 5.51610 5.81282 5.66641
#
# Compressibility (1/GPa) = 0.02959626
#
# Stress axis : x y z
#
# Youngs Moduli (GPa) = 65.59925 37.58998 93.15462
#
# Poissons Ratio (x) = 0.23802 0.22758
# Poissons Ratio (y) = 0.41537 0.25318
# Poissons Ratio (z) = 0.16026 0.10216
#
# Static dielectric constant tensor:
#      x y z
#    x 1.785080 0.000000 0.000000 
#    y 0.000000 1.826880 0.000000 
#    z 0.000000 0.000000 1.754950 
# 
# From -- ./inp_files/4745.got.cif
#   From: 2010.05.17/outbox.cif.g08.bks.cpg/sg19_3_cif.got.tgz:4745.got - 2010.06.03 22:46:19.
