data_PCOD9313066
_publ_section_title
;
Structure prediction by ZEFSAII (Michael W. Deem and Ramdas Pophale) SiO2 
 PCOD9313066
Probable space group: P 21 21 2
;
_chemical_formula_sum "Si O2"
_cell_formula_units_Z 20
_cell_length_a 7.744805
_cell_length_b 11.068803
_cell_length_c 9.284979
_cell_angle_alpha 90.000000
_cell_angle_beta 90.000000
_cell_angle_gamma 90.000000
_cell_volume 795.961518
_symmetry_space_group_name_H-M "P 21 21 2"
_symmetry_group_IT_number 18
_symmetry_cell_setting 'orthorhombic'
loop_
_space_group_symop_operation_xyz
x,y,z
-x,-y,z
1/2+x,1/2-y,-z
1/2-x,1/2+y,-z
loop_
_atom_site_type_symbol
_atom_site_label
_atom_site_fract_x
_atom_site_fract_y
_atom_site_fract_z
Si Si1 0.681291 0.195319 0.193030
Si Si2 0.771507 0.601711 0.386563
Si Si3 0.893579 0.123969 0.912520
Si Si4 0.696860 0.472980 0.644513
Si Si5 0.155358 0.684815 0.470136
O O1 0.515743 0.266457 0.137018
O O2 0.679712 0.064014 0.271634
O O3 0.760109 0.281888 0.314543
O O4 0.798397 0.168373 0.054782
O O5 0.734551 0.592890 0.219790
O O6 0.749926 0.470581 0.469660
O O7 0.626164 0.669880 0.479905
O O8 0.960103 0.640797 0.436892
O O9 0.000000 0.000000 0.940451
O O10 0.500000 0.500000 0.682072
O O11 0.759110 0.336223 0.639597
#
# Coordination Sequence:
#
# PCOD9313066 Si02
#       5
#     4   4   4   4   4
#     4  11  25  45  71 102 139 189 237 287 355 428
#     4  11  22  38  65  98 136 183 234 294 354 425
#     4  12  26  47  70 101 145 189 235 295 357 425
#     4  11  22  41  68 100 139 186 237 297 356 416
#     4  11  22  41  67 101 137 183 243 299 354 416
#
# _framework density 25.126844999999999
#
# number of rings (size 3 to 8) (size 9 to 14) (size 15 to 20)
#    0.000    0.800    0.000   10.200    0.000    1.600 
#    0.000    7.000    0.000    0.000    0.000    0.000 
#    0.000    0.000    0.000    0.000    0.000    0.000 
#
# Total GULP energy -111570.677232 kJ/mol
# GULP energy per Si atom -5578.533862 kJ/mol
# Density = 2.506966 g / cm^3
# Si number density = 25.126845 Si / 1000 Ang^3
#
#
#
# Elastic Constant Matrix: (Units=GPa)
#
#
# Indices 1 2 3 4 5 6 
#
# 1 117.7293 65.8652 49.9781 0.0000 0.0000 0.0000
# 2 65.8652 94.4747 60.9356 0.0000 0.0000 0.0000
# 3 49.9781 60.9356 169.8810 0.0000 0.0000 0.0000
# 4 0.0000 0.0000 0.0000 46.7732 0.0000 0.0000
# 5 0.0000 0.0000 0.0000 0.0000 52.0120 0.0000
# 6 0.0000 0.0000 0.0000 0.0000 0.0000 55.9925
#
#
#
# Elastic Compliance Matrix: (Units=1/GPa)
#
#
# Indices 1 2 3 4 5 6 
#
# 1 0.014010 -0.009248 -0.000804 0.000000 0.000000 0.000000
# 2 -0.009248 0.019876 -0.004409 0.000000 0.000000 0.000000
# 3 -0.000804 -0.004409 0.007704 0.000000 0.000000 0.000000
# 4 0.000000 0.000000 0.000000 0.021380 0.000000 0.000000
# 5 0.000000 0.000000 0.000000 0.000000 0.019226 0.000000
# 6 0.000000 0.000000 0.000000 0.000000 0.000000 0.017860
#
#
# Mechanical properties :
#
#
# Convention : Reuss Voigt Hill
#
# Bulk Modulus (GPa) = 78.94115 81.73807 80.33961
# Shear Modulus (GPa) = 37.53730 44.64262 41.08996
#
# Velocity S-wave (km/s) = 3.86931 4.21965 4.04827
# Velocity P-wave (km/s) = 7.17268 7.50609 7.34128
#
# Compressibility (1/GPa) = 0.01266766
#
# Stress axis : x y z
#
# Youngs Moduli (GPa) = 71.37962 50.31156 129.79557
#
# Poissons Ratio (x) = 0.46530 0.10438
# Poissons Ratio (y) = 0.66015 0.57222
# Poissons Ratio (z) = 0.05740 0.22181
#
# Static dielectric constant tensor:
#      x y z
#    x 2.030770 0.000000 0.000000 
#    y 0.000000 2.241400 0.000000 
#    z 0.000000 0.000000 2.106550 
# 
# From -- ./inp_files/2959.got.cif
#   From: 2010.05.17/outbox.cif.g08.bks.cpg/sg18_2_cif.got.tgz:2959.got - 2010.06.03 22:40:56.
