data_PCOD9313220
_publ_section_title
;
Structure prediction by ZEFSAII (Michael W. Deem and Ramdas Pophale) SiO2 
 PCOD9313220
Probable space group: P 21 21 2
;
_chemical_formula_sum "Si O2"
_cell_formula_units_Z 20
_cell_length_a 7.868646
_cell_length_b 7.436560
_cell_length_c 13.049814
_cell_angle_alpha 90.000000
_cell_angle_beta 90.000000
_cell_angle_gamma 90.000000
_cell_volume 763.618454
_symmetry_space_group_name_H-M "P 21 21 2"
_symmetry_group_IT_number 18
_symmetry_cell_setting 'orthorhombic'
loop_
_space_group_symop_operation_xyz
x,y,z
-x,-y,z
1/2+x,1/2-y,-z
1/2-x,1/2+y,-z
loop_
_atom_site_type_symbol
_atom_site_label
_atom_site_fract_x
_atom_site_fract_y
_atom_site_fract_z
Si Si1 0.084441 0.326438 0.960814
Si Si2 0.820974 0.908770 0.154191
Si Si3 0.000000 0.500000 0.538208
Si Si4 0.808014 0.578857 0.299548
Si Si5 0.500000 0.500000 0.169724
Si Si6 0.157713 0.870630 0.472301
O O1 0.194701 0.430433 0.875505
O O2 0.000000 0.500000 0.014517
O O3 0.979466 0.176388 0.899583
O O4 0.163852 0.208980 0.050360
O O5 0.794518 0.775358 0.248276
O O6 0.000000 0.000000 0.172815
O O7 0.271968 0.401521 0.412530
O O8 0.079367 0.671431 0.477152
O O9 0.668453 0.467419 0.235966
O O10 0.000000 0.500000 0.289723
O O11 0.168928 0.412576 0.591174
O O12 0.000000 0.000000 0.448380
#
# Coordination Sequence:
#
# PCOD9313220 Si02
#       6
#     4   4   2   4   2   4
#     4  12  23  43  68  95 136 190 255 305 365 428
#     4  12  24  43  66 101 138 189 252 313 364 438
#     4  12  26  50  84 118 150 202 254 300 368 478
#     4  12  26  47  72 107 153 193 241 309 379 443
#     4  12  24  46  72  98 142 198 246 308 368 432
#     4  12  26  49  82 115 155 198 246 308 379 456
#
# _framework density 26.191089999999999
#
# number of rings (size 3 to 8) (size 9 to 14) (size 15 to 20)
#    0.000    0.000    7.000    4.200    0.000    1.600 
#    7.200    0.000    0.000    0.000    0.000    0.000 
#    0.000    0.000    0.000    0.000    0.000    0.000 
#
# Total GULP energy -111837.224249 kJ/mol
# GULP energy per Si atom -5591.861212 kJ/mol
# Density = 2.613148 g / cm^3
# Si number density = 26.191090 Si / 1000 Ang^3
#
#
#
# Elastic Constant Matrix: (Units=GPa)
#
#
# Indices 1 2 3 4 5 6 
#
# 1 170.8551 42.8391 14.4576 0.0000 0.0000 0.0000
# 2 42.8391 172.9335 14.5469 0.0000 0.0000 0.0000
# 3 14.4576 14.5469 84.2781 0.0000 0.0000 0.0000
# 4 0.0000 0.0000 0.0000 37.9061 0.0000 0.0000
# 5 0.0000 0.0000 0.0000 0.0000 17.8869 0.0000
# 6 0.0000 0.0000 0.0000 0.0000 0.0000 63.0313
#
#
#
# Elastic Compliance Matrix: (Units=1/GPa)
#
#
# Indices 1 2 3 4 5 6 
#
# 1 0.006296 -0.001490 -0.000823 0.000000 0.000000 0.000000
# 2 -0.001490 0.006221 -0.000818 0.000000 0.000000 0.000000
# 3 -0.000823 -0.000818 0.012148 0.000000 0.000000 0.000000
# 4 0.000000 0.000000 0.000000 0.026381 0.000000 0.000000
# 5 0.000000 0.000000 0.000000 0.000000 0.055907 0.000000
# 6 0.000000 0.000000 0.000000 0.000000 0.000000 0.015865
#
#
# Mechanical properties :
#
#
# Convention : Reuss Voigt Hill
#
# Bulk Modulus (GPa) = 54.34191 63.52818 58.93505
# Shear Modulus (GPa) = 36.97833 47.51308 42.24570
#
# Velocity S-wave (km/s) = 3.76156 4.26384 4.02055
# Velocity P-wave (km/s) = 6.29754 6.96769 6.64108
#
# Compressibility (1/GPa) = 0.01840200
#
# Stress axis : x y z
#
# Youngs Moduli (GPa) = 158.82452 160.75611 82.31920
#
# Poissons Ratio (x) = 0.23961 0.06773
# Poissons Ratio (y) = 0.23673 0.06734
# Poissons Ratio (z) = 0.13069 0.13150
#
# Static dielectric constant tensor:
#      x y z
#    x 2.208080 0.000000 0.000000 
#    y 0.000000 2.016810 0.000000 
#    z 0.000000 0.000000 2.050780 
# 
# From -- ./inp_files/7281.got.cif
#   From: 2010.05.17/outbox.cif.g08.bks.cpg/sg18_4_cif.got.tgz:7281.got - 2010.06.03 22:40:56.
