data_PCOD9313869
_publ_section_title
;
Structure prediction by ZEFSAII (Michael W. Deem and Ramdas Pophale) SiO2 
 PCOD9313869
Probable space group: P 21 21 21
;
_chemical_formula_sum "Si O2"
_cell_formula_units_Z 32
_cell_length_a 9.744692
_cell_length_b 7.077980
_cell_length_c 18.196887
_cell_angle_alpha 90.000000
_cell_angle_beta 90.000000
_cell_angle_gamma 90.000000
_cell_volume 1255.089066
_symmetry_space_group_name_H-M "P 21 21 21"
_symmetry_group_IT_number 19
_symmetry_cell_setting 'orthorhombic'
loop_
_space_group_symop_operation_xyz
x,y,z
1/2-x,-y,1/2+z
1/2+x,1/2-y,-z
-x,1/2+y,1/2-z
loop_
_atom_site_type_symbol
_atom_site_label
_atom_site_fract_x
_atom_site_fract_y
_atom_site_fract_z
Si Si1 0.299830 0.729154 0.264845
Si Si2 0.387162 0.293160 0.253652
Si Si3 0.986640 0.217731 0.025381
Si Si4 0.409889 0.837317 0.968209
Si Si5 0.450197 0.333538 0.681518
Si Si6 0.295234 0.676241 0.423136
Si Si7 0.630402 0.271271 0.825838
Si Si8 0.382671 0.247702 0.417042
O O1 0.325441 0.503624 0.258735
O O2 0.451696 0.810774 0.260480
O O3 0.186670 0.780583 0.204547
O O4 0.240726 0.759678 0.346622
O O5 0.291858 0.199208 0.191257
O O6 0.375702 0.187216 0.332190
O O7 0.955030 0.443612 0.027778
O O8 0.068266 0.153339 0.098242
O O9 0.833429 0.138350 0.024129
O O10 0.088410 0.192131 0.957460
O O11 0.470224 0.764491 0.890302
O O12 0.247297 0.822423 0.963041
O O13 0.478716 0.728530 0.036338
O O14 0.548188 0.333057 0.752767
O O15 0.400989 0.546885 0.667616
O O16 0.362256 0.474164 0.409451
#
# Coordination Sequence:
#
# PCOD9313869 Si02
#       8
#     4   4   4   4   4   4   4   4
#     4  10  22  38  57  84 115 147 187 233 281 331
#     4  10  22  38  57  84 115 147 187 233 281 331
#     4  10  22  38  58  84 113 148 190 231 277 337
#     4  10  22  38  58  84 113 148 190 231 277 337
#     4  10  20  37  59  83 110 144 187 231 278 330
#     4  10  22  40  58  82 116 150 187 232 279 333
#     4  10  20  37  59  83 110 144 187 231 278 330
#     4  10  22  40  58  82 116 150 187 232 279 333
#
# _framework density 25.496198
#
# number of rings (size 3 to 8) (size 9 to 14) (size 15 to 20)
#    0.000    2.000    2.500    0.000    3.500    3.000 
#    0.000    0.000    0.000    0.000    0.000    0.000 
#    0.000    0.000    0.000    0.000    0.000    0.000 
#
# Total GULP energy -179071.372884 kJ/mol
# GULP energy per Si atom -5595.980403 kJ/mol
# Density = 2.543817 g / cm^3
# Si number density = 25.496198 Si / 1000 Ang^3
#
#
#
# Elastic Constant Matrix: (Units=GPa)
#
#
# Indices 1 2 3 4 5 6 
#
# 1 98.9579 -6.3955 -14.6434 0.0000 0.0000 0.0000
# 2 -6.3955 58.3527 -0.0183 0.0000 0.0000 0.0000
# 3 -14.6434 -0.0183 13.6677 0.0000 0.0000 0.0000
# 4 0.0000 0.0000 0.0000 11.3477 0.0000 0.0000
# 5 0.0000 0.0000 0.0000 0.0000 44.8701 0.0000
# 6 0.0000 0.0000 0.0000 0.0000 0.0000 38.8609
#
#
#
# Elastic Compliance Matrix: (Units=1/GPa)
#
#
# Indices 1 2 3 4 5 6 
#
# 1 0.012112 0.001332 0.012978 0.000000 0.000000 0.000000
# 2 0.001332 0.017284 0.001450 0.000000 0.000000 0.000000
# 3 0.012978 0.001450 0.087072 0.000000 0.000000 0.000000
# 4 0.000000 0.000000 0.000000 0.088123 0.000000 0.000000
# 5 0.000000 0.000000 0.000000 0.000000 0.022287 0.000000
# 6 0.000000 0.000000 0.000000 0.000000 0.000000 0.025733
#
#
# Mechanical properties :
#
#
# Convention : Reuss Voigt Hill
#
# Bulk Modulus (GPa) = 6.75736 14.31821 10.53778
# Shear Modulus (GPa) = 18.48977 31.81811 25.15394
#
# Velocity S-wave (km/s) = 2.69587 3.53647 3.14439
# Velocity P-wave (km/s) = 3.51374 4.72266 4.16233
#
# Compressibility (1/GPa) = 0.14798674
#
# Stress axis : x y z
#
# Youngs Moduli (GPa) = 82.56385 57.85846 11.48473
#
# Poissons Ratio (x) = -0.07704 -0.14905
# Poissons Ratio (y) = -0.10994 -0.01665
# Poissons Ratio (z) = -1.07154 -0.08388
#
# Static dielectric constant tensor:
#      x y z
#    x 2.121440 0.000000 0.000000 
#    y 0.000000 2.069160 0.000000 
#    z 0.000000 0.000000 1.774970 
# 
# From -- ./inp_files/3135.got.cif
#   From: 2010.05.17/outbox.cif.g08.bks.cpg/sg19_2_cif.got.tgz:3135.got - 2010.06.03 22:46:19.
