data_PCOD9313238
_publ_section_title
;
Structure prediction by ZEFSAII (Michael W. Deem and Ramdas Pophale) SiO2 
 PCOD9313238
Probable space group: P 21 21 2
;
_chemical_formula_sum "Si O2"
_cell_formula_units_Z 16
_cell_length_a 5.553364
_cell_length_b 22.125354
_cell_length_c 4.962737
_cell_angle_alpha 90.000000
_cell_angle_beta 90.000000
_cell_angle_gamma 90.000000
_cell_volume 609.772212
_symmetry_space_group_name_H-M "P 21 21 2"
_symmetry_group_IT_number 18
_symmetry_cell_setting 'orthorhombic'
loop_
_space_group_symop_operation_xyz
x,y,z
-x,-y,z
1/2+x,1/2-y,-z
1/2-x,1/2+y,-z
loop_
_atom_site_type_symbol
_atom_site_label
_atom_site_fract_x
_atom_site_fract_y
_atom_site_fract_z
Si Si1 0.469976 0.098839 0.078640
Si Si2 0.274390 0.324377 0.241650
Si Si3 0.096445 0.191918 0.285029
Si Si4 0.754887 0.508303 0.620864
O O1 0.577701 0.123246 0.799610
O O2 0.702979 0.071382 0.230508
O O3 0.285994 0.043757 0.145921
O O4 0.337163 0.157040 0.199156
O O5 0.151353 0.262243 0.334199
O O6 0.485905 0.337697 0.449341
O O7 0.403321 0.311763 0.956225
O O8 0.500000 0.500000 0.486391
O O9 0.000000 0.500000 0.449313
#
# Coordination Sequence:
#
# PCOD9313238 Si02
#       4
#     4   4   4   4
#     4   9  22  40  74 102 148 191 250 306 374 445
#     4  12  25  43  68 106 152 194 246 304 377 448
#     4  12  25  43  68 106 152 194 246 304 377 448
#     4   8  18  40  74 106 142 194 250 308 374 442
#
# _framework density 26.239305999999999
#
# number of rings (size 3 to 8) (size 9 to 14) (size 15 to 20)
#    1.500    0.000    2.500    3.000    0.000    0.000 
#    0.000    0.000    0.000   61.500    0.000    0.000 
#    0.000    0.000    0.000    0.000    0.000    0.000 
#
# Total GULP energy -89429.519471 kJ/mol
# GULP energy per Si atom -5589.344967 kJ/mol
# Density = 2.617958 g / cm^3
# Si number density = 26.239306 Si / 1000 Ang^3
#
#
#
# Elastic Constant Matrix: (Units=GPa)
#
#
# Indices 1 2 3 4 5 6 
#
# 1 159.5757 26.7320 30.6804 0.0000 0.0000 0.0000
# 2 26.7320 129.5798 2.7771 0.0000 0.0000 0.0000
# 3 30.6804 2.7771 67.3263 0.0000 0.0000 0.0000
# 4 0.0000 0.0000 0.0000 26.7002 0.0000 0.0000
# 5 0.0000 0.0000 0.0000 0.0000 43.7981 0.0000
# 6 0.0000 0.0000 0.0000 0.0000 0.0000 45.1613
#
#
#
# Elastic Compliance Matrix: (Units=1/GPa)
#
#
# Indices 1 2 3 4 5 6 
#
# 1 0.007113 -0.001399 -0.003184 0.000000 0.000000 0.000000
# 2 -0.001399 0.007999 0.000308 0.000000 0.000000 0.000000
# 3 -0.003184 0.000308 0.016291 0.000000 0.000000 0.000000
# 4 0.000000 0.000000 0.000000 0.037453 0.000000 0.000000
# 5 0.000000 0.000000 0.000000 0.000000 0.022832 0.000000
# 6 0.000000 0.000000 0.000000 0.000000 0.000000 0.022143
#
#
# Mechanical properties :
#
#
# Convention : Reuss Voigt Hill
#
# Bulk Modulus (GPa) = 43.75778 52.98454 48.37116
# Shear Modulus (GPa) = 38.46165 42.88474 40.67320
#
# Velocity S-wave (km/s) = 3.83273 4.04712 3.94139
# Velocity P-wave (km/s) = 6.02487 6.48657 6.25998
#
# Compressibility (1/GPa) = 0.02285308
#
# Stress axis : x y z
#
# Youngs Moduli (GPa) = 140.58536 125.01081 61.38298
#
# Poissons Ratio (x) = 0.17491 0.19543
# Poissons Ratio (y) = 0.19671 -0.01888
# Poissons Ratio (z) = 0.44758 -0.03846
#
# Static dielectric constant tensor:
#      x y z
#    x 2.092520 0.000000 0.000000 
#    y 0.000000 2.028620 0.000000 
#    z 0.000000 0.000000 2.017170 
# 
# From -- ./inp_files/206.got.cif
#   From: 2010.05.17/outbox.cif.g08.bks.cpg/sg18_1_cif.got.tgz:206.got - 2010.06.03 22:40:56.
