data_PCOD9313377
_publ_section_title
;
Structure prediction by ZEFSAII (Michael W. Deem and Ramdas Pophale) SiO2 
 PCOD9313377
Probable space group: P 21 21 21
;
_chemical_formula_sum "Si O2"
_cell_formula_units_Z 24
_cell_length_a 14.335422
_cell_length_b 12.354370
_cell_length_c 4.963832
_cell_angle_alpha 90.000000
_cell_angle_beta 90.000000
_cell_angle_gamma 90.000000
_cell_volume 879.120000
_symmetry_space_group_name_H-M "P 21 21 21"
_symmetry_group_IT_number 19
_symmetry_cell_setting 'orthorhombic'
loop_
_space_group_symop_operation_xyz
x,y,z
1/2-x,-y,1/2+z
1/2+x,1/2-y,-z
-x,1/2+y,1/2-z
loop_
_atom_site_type_symbol
_atom_site_label
_atom_site_fract_x
_atom_site_fract_y
_atom_site_fract_z
Si Si1 0.681012 0.627048 0.410469
Si Si2 0.716252 0.184486 0.186493
Si Si3 0.127338 0.988468 0.091257
Si Si4 0.457562 0.359383 0.918585
Si Si5 0.469947 0.744742 0.103460
Si Si6 0.147515 0.431748 0.345047
O O1 0.706445 0.740982 0.549730
O O2 0.616098 0.557482 0.608788
O O3 0.780610 0.563442 0.406694
O O4 0.646710 0.612803 0.105855
O O5 0.636600 0.267857 0.299421
O O6 0.728433 0.112203 0.455276
O O7 0.667471 0.111451 0.954030
O O8 0.042672 0.061870 0.997555
O O9 0.485407 0.318506 0.624159
O O10 0.371232 0.442321 0.897944
O O11 0.467716 0.262037 0.132301
O O12 0.444133 0.631532 0.958387
#
# Coordination Sequence:
#
# PCOD9313377 Si02
#       6
#     4   4   4   4   4   4
#     4  10  18  28  45  62 100 129 161 182 231 301
#     4  10  18  34  45  66  96 137 161 202 231 281
#     4  10  19  26  42  72  92 130 161 184 230 301
#     4  12  20  32  51  72 105 132 165 202 248 288
#     4  10  19  32  48  68  99 135 159 202 247 277
#     4  10  20  32  49  70  96 133 171 200 243 292
#
# _framework density 27.300025000000002
#
# number of rings (size 3 to 8) (size 9 to 14) (size 15 to 20)
#    1.000    0.667    3.333    3.000    4.667    0.000 
#    0.000    0.000    0.000    0.000    0.000    0.000 
#    0.000   26.667    0.000    0.000    0.000    0.000 
#
# Total GULP energy -134294.093471 kJ/mol
# GULP energy per Si atom -5595.587228 kJ/mol
# Density = 2.723789 g / cm^3
# Si number density = 27.300025 Si / 1000 Ang^3
#
#
#
# Elastic Constant Matrix: (Units=GPa)
#
#
# Indices 1 2 3 4 5 6 
#
# 1 49.9197 -8.5435 -6.5181 0.0000 0.0000 0.0000
# 2 -8.5435 108.2350 15.0452 0.0000 0.0000 0.0000
# 3 -6.5181 15.0452 142.5039 0.0000 0.0000 0.0000
# 4 0.0000 0.0000 0.0000 37.1341 0.0000 0.0000
# 5 0.0000 0.0000 0.0000 0.0000 47.0356 0.0000
# 6 0.0000 0.0000 0.0000 0.0000 0.0000 39.7688
#
#
#
# Elastic Compliance Matrix: (Units=1/GPa)
#
#
# Indices 1 2 3 4 5 6 
#
# 1 0.020390 0.001502 0.000774 0.000000 0.000000 0.000000
# 2 0.001502 0.009487 -0.000933 0.000000 0.000000 0.000000
# 3 0.000774 -0.000933 0.007151 0.000000 0.000000 0.000000
# 4 0.000000 0.000000 0.000000 0.026929 0.000000 0.000000
# 5 0.000000 0.000000 0.000000 0.000000 0.021260 0.000000
# 6 0.000000 0.000000 0.000000 0.000000 0.000000 0.025145
#
#
# Mechanical properties :
#
#
# Convention : Reuss Voigt Hill
#
# Bulk Modulus (GPa) = 25.17940 33.40285 29.29112
# Shear Modulus (GPa) = 41.35086 44.83271 43.09178
#
# Velocity S-wave (km/s) = 3.89611 4.05683 3.97728
# Velocity P-wave (km/s) = 5.42981 5.84858 5.64308
#
# Compressibility (1/GPa) = 0.03971501
#
# Stress axis : x y z
#
# Youngs Moduli (GPa) = 49.04294 105.40307 139.83555
#
# Poissons Ratio (x) = -0.15831 -0.10825
# Poissons Ratio (y) = -0.07366 0.13046
# Poissons Ratio (z) = -0.03796 0.09834
#
# Static dielectric constant tensor:
#      x y z
#    x 2.227210 0.000000 0.000000 
#    y 0.000000 2.226650 0.000000 
#    z 0.000000 0.000000 2.006470 
# 
# From -- ./inp_files/1913.got.cif
#   From: 2010.05.17/outbox.cif.g08.bks.cpg/sg19_1_cif.got.tgz:1913.got - 2010.06.03 22:46:19.
