data_PCOD9313632
_publ_section_title
;
Structure prediction by ZEFSAII (Michael W. Deem and Ramdas Pophale) SiO2 
 PCOD9313632
Probable space group: P 21 21 21
;
_chemical_formula_sum "Si O2"
_cell_formula_units_Z 28
_cell_length_a 4.997731
_cell_length_b 23.489025
_cell_length_c 10.854947
_cell_angle_alpha 90.000000
_cell_angle_beta 90.000000
_cell_angle_gamma 90.000000
_cell_volume 1274.282076
_symmetry_space_group_name_H-M "P 21 21 21"
_symmetry_group_IT_number 19
_symmetry_cell_setting 'orthorhombic'
loop_
_space_group_symop_operation_xyz
x,y,z
1/2-x,-y,1/2+z
1/2+x,1/2-y,-z
-x,1/2+y,1/2-z
loop_
_atom_site_type_symbol
_atom_site_label
_atom_site_fract_x
_atom_site_fract_y
_atom_site_fract_z
Si Si1 0.124506 0.853493 0.177319
Si Si2 0.585698 0.168595 0.419028
Si Si3 0.115609 0.029482 0.504177
Si Si4 0.106169 0.548969 0.493499
Si Si5 0.633355 0.928044 0.768881
Si Si6 0.186033 0.558179 0.756587
Si Si7 0.363681 0.285247 0.352221
O O1 0.965765 0.908183 0.229813
O O2 0.916187 0.802038 0.207570
O O3 0.410748 0.826353 0.203240
O O4 0.092931 0.858148 0.028291
O O5 0.688658 0.120544 0.328808
O O6 0.441029 0.219848 0.350050
O O7 0.820374 0.197875 0.502593
O O8 0.909043 0.975444 0.499430
O O9 0.408896 0.004864 0.523041
O O10 0.089936 0.059781 0.372286
O O11 0.996289 0.064388 0.620708
O O12 0.058171 0.585847 0.371522
O O13 0.051371 0.575207 0.627210
O O14 0.772550 0.990075 0.755754
#
# Coordination Sequence:
#
# PCOD9313632 Si02
#       7
#     4   4   4   4   4   4   4
#     4  10  20  36  59  85 112 155 192 243 290 362
#     4  10  19  37  59  91 118 146 198 258 296 336
#     4  10  19  37  52  77 109 156 191 231 276 347
#     4  10  22  35  51  78 116 148 190 230 281 351
#     4  10  21  37  58  88 119 157 194 249 299 351
#     4  10  21  38  58  83 122 160 197 231 303 370
#     4  10  20  36  61  88 116 146 204 254 299 329
#
# _framework density 21.973155999999999
#
# number of rings (size 3 to 8) (size 9 to 14) (size 15 to 20)
#    0.857    1.143    2.857    0.857    0.000    6.857 
#    5.143    0.000    0.000    1.714    0.000    0.000 
#    0.000    0.000    0.000    0.000    0.000    0.000 
#
# Total GULP energy -156246.038711 kJ/mol
# GULP energy per Si atom -5580.215668 kJ/mol
# Density = 2.192314 g / cm^3
# Si number density = 21.973156 Si / 1000 Ang^3
#
#
#
# Elastic Constant Matrix: (Units=GPa)
#
#
# Indices 1 2 3 4 5 6 
#
# 1 62.1930 -1.5681 -3.1428 0.0000 0.0000 0.0000
# 2 -1.5681 88.5617 2.6080 0.0000 0.0000 0.0000
# 3 -3.1428 2.6080 113.6286 0.0000 0.0000 0.0000
# 4 0.0000 0.0000 0.0000 31.0730 0.0000 0.0000
# 5 0.0000 0.0000 0.0000 0.0000 17.8009 0.0000
# 6 0.0000 0.0000 0.0000 0.0000 0.0000 23.6860
#
#
#
# Elastic Compliance Matrix: (Units=1/GPa)
#
#
# Indices 1 2 3 4 5 6 
#
# 1 0.016108 0.000272 0.000439 0.000000 0.000000 0.000000
# 2 0.000272 0.011304 -0.000252 0.000000 0.000000 0.000000
# 3 0.000439 -0.000252 0.008819 0.000000 0.000000 0.000000
# 4 0.000000 0.000000 0.000000 0.032182 0.000000 0.000000
# 5 0.000000 0.000000 0.000000 0.000000 0.056177 0.000000
# 6 0.000000 0.000000 0.000000 0.000000 0.000000 0.042219
#
#
# Mechanical properties :
#
#
# Convention : Reuss Voigt Hill
#
# Bulk Modulus (GPa) = 26.91815 28.90861 27.91338
# Shear Modulus (GPa) = 28.04694 32.27772 30.16233
#
# Velocity S-wave (km/s) = 3.57658 3.83686 3.70900
# Velocity P-wave (km/s) = 5.41599 5.72831 5.57434
#
# Compressibility (1/GPa) = 0.03714966
#
# Stress axis : x y z
#
# Youngs Moduli (GPa) = 62.08081 88.46577 113.39757
#
# Poissons Ratio (x) = -0.02409 -0.04981
# Poissons Ratio (y) = -0.01690 0.02857
# Poissons Ratio (z) = -0.02727 0.02229
#
# Static dielectric constant tensor:
#      x y z
#    x 1.890420 0.000000 0.000000 
#    y 0.000000 1.845800 0.000000 
#    z 0.000000 0.000000 1.858560 
# 
# From -- ./inp_files/4512.got.cif
#   From: 2010.05.17/outbox.cif.g08.bks.cpg/sg19_3_cif.got.tgz:4512.got - 2010.06.03 22:46:19.
