data_PCOD9313193
_publ_section_title
;
Structure prediction by ZEFSAII (Michael W. Deem and Ramdas Pophale) SiO2 
 PCOD9313193
Probable space group: P 21 21 2
;
_chemical_formula_sum "Si O2"
_cell_formula_units_Z 20
_cell_length_a 12.933942
_cell_length_b 8.852543
_cell_length_c 7.724321
_cell_angle_alpha 90.000000
_cell_angle_beta 90.000000
_cell_angle_gamma 90.000000
_cell_volume 884.421451
_symmetry_space_group_name_H-M "P 21 21 2"
_symmetry_group_IT_number 18
_symmetry_cell_setting 'orthorhombic'
loop_
_space_group_symop_operation_xyz
x,y,z
-x,-y,z
1/2+x,1/2-y,-z
1/2-x,1/2+y,-z
loop_
_atom_site_type_symbol
_atom_site_label
_atom_site_fract_x
_atom_site_fract_y
_atom_site_fract_z
Si Si1 0.946080 0.860742 0.933948
Si Si2 0.260901 0.817267 0.590446
Si Si3 0.886990 0.940831 0.555556
Si Si4 0.406388 0.109246 0.229226
Si Si5 0.885941 0.570701 0.105802
O O1 0.888749 0.928218 0.766179
O O2 0.032216 0.748974 0.855059
O O3 0.886094 0.748716 0.058086
O O4 0.000000 0.000000 0.028157
O O5 0.353330 0.724410 0.504885
O O6 0.179103 0.690425 0.655151
O O7 0.311464 0.928886 0.732278
O O8 0.191635 0.933751 0.483025
O O9 0.000000 0.000000 0.507497
O O10 0.500000 0.000000 0.300312
O O11 0.355542 0.015699 0.070675
O O12 0.000000 0.500000 0.145405
#
# Coordination Sequence:
#
# PCOD9313193 Si02
#       5
#     4   4   4   4   4
#     4   9  17  41  65  87 131 165 206 265 316 378
#     4  12  25  41  68  95 127 176 215 258 326 381
#     4  11  26  43  60  98 132 174 212 263 319 391
#     4   9  20  40  68  91 127 165 210 264 322 371
#     4   9  23  41  63  99 126 161 215 274 314 369
#
# _framework density 22.613654
#
# number of rings (size 3 to 8) (size 9 to 14) (size 15 to 20)
#    0.000    2.400    4.000    0.000    8.400    2.400 
#    0.000    6.000    0.000    0.000    0.000    0.000 
#    0.000    0.000    0.000    0.000    0.000    0.000 
#
# Total GULP energy -111462.977595 kJ/mol
# GULP energy per Si atom -5573.148880 kJ/mol
# Density = 2.256218 g / cm^3
# Si number density = 22.613654 Si / 1000 Ang^3
#
#
#
# Elastic Constant Matrix: (Units=GPa)
#
#
# Indices 1 2 3 4 5 6 
#
# 1 60.7742 28.0480 11.4862 0.0000 0.0000 0.0000
# 2 28.0480 122.1127 -1.6190 0.0000 0.0000 0.0000
# 3 11.4862 -1.6190 10.8304 0.0000 0.0000 0.0000
# 4 0.0000 0.0000 0.0000 25.4877 0.0000 0.0000
# 5 0.0000 0.0000 0.0000 0.0000 -4.3405 0.0000
# 6 0.0000 0.0000 0.0000 0.0000 0.0000 48.2129
#
#
#
# Elastic Compliance Matrix: (Units=1/GPa)
#
#
# Indices 1 2 3 4 5 6 
#
# 1 0.024200 -0.005910 -0.026549 0.000000 0.000000 0.000000
# 2 -0.005910 0.009649 0.007711 0.000000 0.000000 0.000000
# 3 -0.026549 0.007711 0.121641 0.000000 0.000000 0.000000
# 4 0.000000 0.000000 0.000000 0.039235 0.000000 0.000000
# 5 0.000000 0.000000 0.000000 0.000000 -0.230389 0.000000
# 6 0.000000 0.000000 0.000000 0.000000 0.000000 0.020741
#
#
# Mechanical properties :
#
#
# Convention : Reuss Voigt Hill
#
# Bulk Modulus (GPa) = 9.43458 29.94975 19.69216
# Shear Modulus (GPa) = 71.52656 24.25883 47.89269
#
# Velocity S-wave (km/s) = 5.63014 3.27884 4.60702
# Velocity P-wave (km/s) = 6.81511 5.25426 6.08494
#
# Compressibility (1/GPa) = 0.10599311
#
# Stress axis : x y z
#
# Youngs Moduli (GPa) = 41.32282 103.63829 8.22091
#
# Poissons Ratio (x) = 0.61254 0.21825
# Poissons Ratio (y) = 0.24423 -0.06339
# Poissons Ratio (z) = 1.09706 -0.79912
#
# Static dielectric constant tensor:
#      x y z
#    x 1.964430 0.000000 0.000000 
#    y 0.000000 1.859520 0.000000 
#    z 0.000000 0.000000 1.873310 
# 
# From -- ./inp_files/3639.got.cif
#   From: 2010.05.17/outbox.cif.g08.bks.cpg/sg18_2_cif.got.tgz:3639.got - 2010.06.03 22:40:56.
