data_PCOD9314294
_publ_section_title
;
Structure prediction by ZEFSAII (Michael W. Deem and Ramdas Pophale) SiO2 
 PCOD9314294
Probable space group: P 21 21 21
;
_chemical_formula_sum "Si O2"
_cell_formula_units_Z 28
_cell_length_a 15.379407
_cell_length_b 5.326246
_cell_length_c 12.540137
_cell_angle_alpha 90.000000
_cell_angle_beta 90.000000
_cell_angle_gamma 90.000000
_cell_volume 1027.219115
_symmetry_space_group_name_H-M "P 21 21 21"
_symmetry_group_IT_number 19
_symmetry_cell_setting 'orthorhombic'
loop_
_space_group_symop_operation_xyz
x,y,z
1/2-x,-y,1/2+z
1/2+x,1/2-y,-z
-x,1/2+y,1/2-z
loop_
_atom_site_type_symbol
_atom_site_label
_atom_site_fract_x
_atom_site_fract_y
_atom_site_fract_z
Si Si1 0.800686 0.584795 0.638937
Si Si2 0.139656 0.907504 0.521997
Si Si3 0.028271 0.191926 0.394445
Si Si4 0.383575 0.598045 0.710880
Si Si5 0.404914 0.965350 0.530934
Si Si6 0.061027 0.769682 0.741869
Si Si7 0.747438 0.220491 0.371642
O O1 0.718133 0.643682 0.560698
O O2 0.876704 0.709764 0.566451
O O3 0.859511 0.335559 0.673816
O O4 0.767337 0.670095 0.753424
O O5 0.057536 0.935963 0.446892
O O6 0.111533 0.758367 0.627219
O O7 0.163048 0.189913 0.565507
O O8 0.107667 0.319508 0.331981
O O9 0.949606 0.129398 0.312996
O O10 0.988012 0.365629 0.484676
O O11 0.416282 0.827232 0.641520
O O12 0.290027 0.543174 0.659168
O O13 0.322203 0.146536 0.556500
O O14 0.995946 0.015592 0.741067
#
# Coordination Sequence:
#
# PCOD9314294 Si02
#       7
#     4   4   4   4   4   4   4
#     4  10  22  45  70 100 140 180 246 299 362 437
#     4  10  23  45  71 102 139 187 247 299 371 438
#     4  11  22  38  64  93 129 174 224 285 349 429
#     4  11  22  37  61  92 131 164 223 281 350 417
#     4  10  21  39  62  93 125 172 218 281 345 422
#     4  11  26  53  78 109 155 205 252 310 379 461
#     4   9  22  43  58  95 129 172 224 285 356 414
#
# _framework density 27.25806
#
# number of rings (size 3 to 8) (size 9 to 14) (size 15 to 20)
#    0.000    1.714    1.429    1.714    4.000    1.143 
#   23.143    0.000    0.000    0.000    0.000    0.000 
#    0.000    0.000    0.000    0.000    0.000    0.000 
#
# Total GULP energy -156006.730657 kJ/mol
# GULP energy per Si atom -5571.668952 kJ/mol
# Density = 2.719602 g / cm^3
# Si number density = 27.258060 Si / 1000 Ang^3
#
#
#
# Elastic Constant Matrix: (Units=GPa)
#
#
# Indices 1 2 3 4 5 6 
#
# 1 100.3119 30.1255 43.9308 0.0000 0.0000 0.0000
# 2 30.1255 69.0210 2.6622 0.0000 0.0000 0.0000
# 3 43.9308 2.6622 136.3786 0.0000 0.0000 0.0000
# 4 0.0000 0.0000 0.0000 25.7232 0.0000 0.0000
# 5 0.0000 0.0000 0.0000 0.0000 71.3324 0.0000
# 6 0.0000 0.0000 0.0000 0.0000 0.0000 26.8397
#
#
#
# Elastic Compliance Matrix: (Units=1/GPa)
#
#
# Indices 1 2 3 4 5 6 
#
# 1 0.013561 -0.005755 -0.004256 0.000000 0.000000 0.000000
# 2 -0.005755 0.016941 0.001523 0.000000 0.000000 0.000000
# 3 -0.004256 0.001523 0.008674 0.000000 0.000000 0.000000
# 4 0.000000 0.000000 0.000000 0.038875 0.000000 0.000000
# 5 0.000000 0.000000 0.000000 0.000000 0.014019 0.000000
# 6 0.000000 0.000000 0.000000 0.000000 0.000000 0.037258
#
#
# Mechanical properties :
#
#
# Convention : Reuss Voigt Hill
#
# Bulk Modulus (GPa) = 45.04368 51.01652 48.03010
# Shear Modulus (GPa) = 32.52996 40.04527 36.28762
#
# Velocity S-wave (km/s) = 3.45832 3.83706 3.65260
# Velocity P-wave (km/s) = 5.70153 6.19576 5.95378
#
# Compressibility (1/GPa) = 0.02220067
#
# Stress axis : x y z
#
# Youngs Moduli (GPa) = 73.74047 59.02704 115.29030
#
# Poissons Ratio (x) = 0.33969 0.49068
# Poissons Ratio (y) = 0.42436 -0.17559
# Poissons Ratio (z) = 0.31384 -0.08990
#
# Static dielectric constant tensor:
#      x y z
#    x 2.171970 0.000000 0.000000 
#    y 0.000000 2.215150 0.000000 
#    z 0.000000 0.000000 2.179550 
# 
# From -- ./inp_files/5367.got.cif
#   From: 2010.05.17/outbox.cif.g08.bks.cpg/sg19_3_cif.got.tgz:5367.got - 2010.06.03 22:46:19.
