data_PCOD9314514
_publ_section_title
;
Structure prediction by ZEFSAII (Michael W. Deem and Ramdas Pophale) SiO2 
 PCOD9314514
Probable space group: P 21 21 21
;
_chemical_formula_sum "Si O2"
_cell_formula_units_Z 24
_cell_length_a 9.374779
_cell_length_b 10.859331
_cell_length_c 9.765648
_cell_angle_alpha 90.000000
_cell_angle_beta 90.000000
_cell_angle_gamma 90.000000
_cell_volume 994.180351
_symmetry_space_group_name_H-M "P 21 21 21"
_symmetry_group_IT_number 19
_symmetry_cell_setting 'orthorhombic'
loop_
_space_group_symop_operation_xyz
x,y,z
1/2-x,-y,1/2+z
1/2+x,1/2-y,-z
-x,1/2+y,1/2-z
loop_
_atom_site_type_symbol
_atom_site_label
_atom_site_fract_x
_atom_site_fract_y
_atom_site_fract_z
Si Si1 0.542797 0.725952 0.699253
Si Si2 0.329234 0.405535 0.612523
Si Si3 0.255491 0.751166 0.863685
Si Si4 0.023887 0.917074 0.549252
Si Si5 0.267863 0.959193 0.391430
Si Si6 0.922598 0.059359 0.800391
O O1 0.620807 0.851870 0.742000
O O2 0.408988 0.712861 0.801012
O O3 0.490800 0.702261 0.543318
O O4 0.664361 0.620171 0.708131
O O5 0.268525 0.297468 0.517450
O O6 0.464524 0.468699 0.541573
O O7 0.208903 0.509270 0.613660
O O8 0.239678 0.896502 0.862736
O O9 0.134456 0.680266 0.776357
O O10 0.955429 0.947282 0.693255
O O11 0.194952 0.929734 0.538744
O O12 0.429742 0.920360 0.375109
#
# Coordination Sequence:
#
# PCOD9314514 Si02
#       6
#     4   4   4   4   4   4
#     4  10  21  43  64  95 132 173 218 273 331 383
#     4  11  23  40  73  93 129 180 221 269 330 400
#     4  11  24  43  70  94 135 175 227 270 327 403
#     4   9  22  43  58  97 135 167 218 273 321 399
#     4  10  24  37  68  96 129 175 217 277 321 391
#     4  11  24  42  65 103 132 170 231 270 334 388
#
# _framework density 24.140488000000001
#
# number of rings (size 3 to 8) (size 9 to 14) (size 15 to 20)
#    1.000    0.667    3.333    0.000    7.000    0.000 
#    3.000    0.000    0.000    0.000    0.000    0.000 
#    0.000    0.000    0.000    0.000    0.000    0.000 
#
# Total GULP energy -134020.285254 kJ/mol
# GULP energy per Si atom -5584.178552 kJ/mol
# Density = 2.408554 g / cm^3
# Si number density = 24.140488 Si / 1000 Ang^3
#
#
#
# Elastic Constant Matrix: (Units=GPa)
#
#
# Indices 1 2 3 4 5 6 
#
# 1 109.6089 13.0820 3.0231 0.0000 0.0000 0.0000
# 2 13.0820 80.8155 16.0480 0.0000 0.0000 0.0000
# 3 3.0231 16.0480 34.5388 0.0000 0.0000 0.0000
# 4 0.0000 0.0000 0.0000 33.8331 0.0000 0.0000
# 5 0.0000 0.0000 0.0000 0.0000 15.4600 0.0000
# 6 0.0000 0.0000 0.0000 0.0000 0.0000 31.8708
#
#
#
# Elastic Compliance Matrix: (Units=1/GPa)
#
#
# Indices 1 2 3 4 5 6 
#
# 1 0.009304 -0.001481 -0.000126 0.000000 0.000000 0.000000
# 2 -0.001481 0.013867 -0.006314 0.000000 0.000000 0.000000
# 3 -0.000126 -0.006314 0.031898 0.000000 0.000000 0.000000
# 4 0.000000 0.000000 0.000000 0.029557 0.000000 0.000000
# 5 0.000000 0.000000 0.000000 0.000000 0.064683 0.000000
# 6 0.000000 0.000000 0.000000 0.000000 0.000000 0.031377
#
#
# Mechanical properties :
#
#
# Convention : Reuss Voigt Hill
#
# Bulk Modulus (GPa) = 25.49276 32.14105 28.81690
# Shear Modulus (GPa) = 23.85469 29.08679 26.47074
#
# Velocity S-wave (km/s) = 3.14691 3.47493 3.31498
# Velocity P-wave (km/s) = 4.87721 5.42616 5.15899
#
# Compressibility (1/GPa) = 0.03922683
#
# Stress axis : x y z
#
# Youngs Moduli (GPa) = 107.48545 72.11192 31.35034
#
# Poissons Ratio (x) = 0.10679 0.00396
# Poissons Ratio (y) = 0.15918 0.19794
# Poissons Ratio (z) = 0.01357 0.45529
#
# Static dielectric constant tensor:
#      x y z
#    x 1.900790 0.000000 0.000000 
#    y 0.000000 1.907870 0.000000 
#    z 0.000000 0.000000 1.981310 
# 
# From -- ./inp_files/3397.got.cif
#   From: 2010.05.17/outbox.cif.g08.bks.cpg/sg19_2_cif.got.tgz:3397.got - 2010.06.03 22:46:19.
