data_PCOD9314342
_publ_section_title
;
Structure prediction by ZEFSAII (Michael W. Deem and Ramdas Pophale) SiO2 
 PCOD9314342
Probable space group: P 21 21 21
;
_chemical_formula_sum "Si O2"
_cell_formula_units_Z 24
_cell_length_a 9.306099
_cell_length_b 10.024921
_cell_length_c 10.713316
_cell_angle_alpha 90.000000
_cell_angle_beta 90.000000
_cell_angle_gamma 90.000000
_cell_volume 999.476396
_symmetry_space_group_name_H-M "P 21 21 21"
_symmetry_group_IT_number 19
_symmetry_cell_setting 'orthorhombic'
loop_
_space_group_symop_operation_xyz
x,y,z
1/2-x,-y,1/2+z
1/2+x,1/2-y,-z
-x,1/2+y,1/2-z
loop_
_atom_site_type_symbol
_atom_site_label
_atom_site_fract_x
_atom_site_fract_y
_atom_site_fract_z
Si Si1 0.428920 0.792795 0.998397
Si Si2 0.977224 0.947774 0.857271
Si Si3 0.210055 0.064753 0.698209
Si Si4 0.101439 0.125068 0.082917
Si Si5 0.719964 0.935567 0.002104
Si Si6 0.286703 0.284140 0.898926
O O1 0.493439 0.708565 0.116176
O O2 0.313140 0.892754 0.055622
O O3 0.329844 0.676489 0.937301
O O4 0.569522 0.872670 0.957340
O O5 0.809279 0.975568 0.877286
O O6 0.062957 0.995819 0.739401
O O7 0.048643 0.025973 0.973395
O O8 0.237182 0.192419 0.784162
O O9 0.339407 0.959628 0.699040
O O10 0.958403 0.207503 0.110363
O O11 0.229638 0.210701 0.023524
O O12 0.720123 0.067184 0.087536
#
# Coordination Sequence:
#
# PCOD9314342 Si02
#       6
#     4   4   4   4   4   4
#     4  10  21  39  68  95 134 178 224 287 341 403
#     4   8  21  40  60  96 132 172 223 273 340 405
#     4  11  23  41  70 101 138 179 235 288 337 418
#     4  10  22  46  66  96 138 181 225 290 345 409
#     4   9  21  41  67  94 131 178 226 278 342 410
#     4  10  24  45  69 100 137 182 237 278 353 413
#
# _framework density 24.012573
#
# number of rings (size 3 to 8) (size 9 to 14) (size 15 to 20)
#    1.000    1.333    0.000    1.000    4.667    2.667 
#    9.000    0.000    0.000    0.000    0.000    0.000 
#    0.000    0.000    0.000    0.000    0.000    0.000 
#
# Total GULP energy -133768.013578 kJ/mol
# GULP energy per Si atom -5573.667232 kJ/mol
# Density = 2.395792 g / cm^3
# Si number density = 24.012573 Si / 1000 Ang^3
#
#
#
# Elastic Constant Matrix: (Units=GPa)
#
#
# Indices 1 2 3 4 5 6 
#
# 1 127.6373 68.3831 25.6904 0.0000 0.0000 0.0000
# 2 68.3831 90.7798 14.9843 0.0000 0.0000 0.0000
# 3 25.6904 14.9843 34.1629 0.0000 0.0000 0.0000
# 4 0.0000 0.0000 0.0000 31.0710 0.0000 0.0000
# 5 0.0000 0.0000 0.0000 0.0000 17.7861 0.0000
# 6 0.0000 0.0000 0.0000 0.0000 0.0000 40.0764
#
#
#
# Elastic Compliance Matrix: (Units=1/GPa)
#
#
# Indices 1 2 3 4 5 6 
#
# 1 0.014372 -0.009748 -0.006532 0.000000 0.000000 0.000000
# 2 -0.009748 0.018487 -0.000778 0.000000 0.000000 0.000000
# 3 -0.006532 -0.000778 0.034525 0.000000 0.000000 0.000000
# 4 0.000000 0.000000 0.000000 0.032184 0.000000 0.000000
# 5 0.000000 0.000000 0.000000 0.000000 0.056224 0.000000
# 6 0.000000 0.000000 0.000000 0.000000 0.000000 0.024952
#
#
# Mechanical properties :
#
#
# Convention : Reuss Voigt Hill
#
# Bulk Modulus (GPa) = 30.05938 52.29951 41.17944
# Shear Modulus (GPa) = 22.12871 27.35485 24.74178
#
# Velocity S-wave (km/s) = 3.03899 3.37885 3.21342
# Velocity P-wave (km/s) = 4.98591 6.08683 5.56367
#
# Compressibility (1/GPa) = 0.03326748
#
# Stress axis : x y z
#
# Youngs Moduli (GPa) = 69.57921 54.09148 28.96448
#
# Poissons Ratio (x) = 0.52729 0.18920
# Poissons Ratio (y) = 0.67826 0.02254
# Poissons Ratio (z) = 0.45450 0.04209
#
# Static dielectric constant tensor:
#      x y z
#    x 1.919120 0.000000 0.000000 
#    y 0.000000 1.976400 0.000000 
#    z 0.000000 0.000000 1.948410 
# 
# From -- ./inp_files/4576.got.cif
#   From: 2010.05.17/outbox.cif.g08.bks.cpg/sg19_3_cif.got.tgz:4576.got - 2010.06.03 22:46:19.
