data_PCOD9314527
_publ_section_title
;
Structure prediction by ZEFSAII (Michael W. Deem and Ramdas Pophale) SiO2 
 PCOD9314527
Probable space group: P 21 21 21
;
_chemical_formula_sum "Si O2"
_cell_formula_units_Z 32
_cell_length_a 14.571383
_cell_length_b 7.677495
_cell_length_c 11.936776
_cell_angle_alpha 90.000000
_cell_angle_beta 90.000000
_cell_angle_gamma 90.000000
_cell_volume 1335.387664
_symmetry_space_group_name_H-M "P 21 21 21"
_symmetry_group_IT_number 19
_symmetry_cell_setting 'orthorhombic'
loop_
_space_group_symop_operation_xyz
x,y,z
1/2-x,-y,1/2+z
1/2+x,1/2-y,-z
-x,1/2+y,1/2-z
loop_
_atom_site_type_symbol
_atom_site_label
_atom_site_fract_x
_atom_site_fract_y
_atom_site_fract_z
Si Si1 0.880263 0.284635 0.679136
Si Si2 0.576297 0.183869 0.405074
Si Si3 0.459781 0.727270 0.853972
Si Si4 0.235279 0.310562 0.749910
Si Si5 0.795332 0.501420 0.141882
Si Si6 0.103956 0.897069 0.575469
Si Si7 0.393045 0.598221 0.435644
Si Si8 0.394597 0.506433 0.672296
O O1 0.799230 0.394300 0.621463
O O2 0.862617 0.300262 0.812595
O O3 0.884310 0.092428 0.624296
O O4 0.983543 0.359486 0.661762
O O5 0.561045 0.125453 0.531950
O O6 0.670701 0.126324 0.350257
O O7 0.591169 0.394380 0.402917
O O8 0.466797 0.616655 0.742445
O O9 0.550742 0.839306 0.873174
O O10 0.373945 0.856077 0.837559
O O11 0.282614 0.122011 0.749695
O O12 0.167441 0.287265 0.854030
O O13 0.315525 0.450372 0.757306
O O14 0.832652 0.391404 0.034769
O O15 0.998441 0.841640 0.555121
O O16 0.356703 0.595647 0.561713
#
# Coordination Sequence:
#
# PCOD9314527 Si02
#       8
#     4   4   4   4   4   4   4   4
#     4  11  21  42  73  96 134 191 230 290 352 409
#     4  10  22  44  69  98 136 184 232 287 351 425
#     4  11  25  49  69 102 140 188 231 298 361 417
#     4  12  26  42  71 103 140 183 237 288 355 422
#     4  11  24  42  70 105 136 182 238 286 352 427
#     4  10  21  43  68  98 139 176 233 291 346 420
#     4  11  25  46  67 101 141 183 231 294 351 423
#     4  12  26  46  73  99 146 185 238 294 358 427
#
# _framework density 23.963076999999998
#
# number of rings (size 3 to 8) (size 9 to 14) (size 15 to 20)
#    0.000    1.000    6.250    1.500    5.250    2.000 
#    4.500    0.000    0.000    0.000    0.000    0.000 
#    0.000    0.000    0.000    0.000    0.000    0.000 
#
# Total GULP energy -178846.780576 kJ/mol
# GULP energy per Si atom -5588.961893 kJ/mol
# Density = 2.390854 g / cm^3
# Si number density = 23.963077 Si / 1000 Ang^3
#
#
#
# Elastic Constant Matrix: (Units=GPa)
#
#
# Indices 1 2 3 4 5 6 
#
# 1 97.7528 1.6341 21.4126 0.0000 0.0000 0.0000
# 2 1.6341 22.3766 8.3014 0.0000 0.0000 0.0000
# 3 21.4126 8.3014 100.6586 0.0000 0.0000 0.0000
# 4 0.0000 0.0000 0.0000 25.7395 0.0000 0.0000
# 5 0.0000 0.0000 0.0000 0.0000 35.1421 0.0000
# 6 0.0000 0.0000 0.0000 0.0000 0.0000 22.5394
#
#
#
# Elastic Compliance Matrix: (Units=1/GPa)
#
#
# Indices 1 2 3 4 5 6 
#
# 1 0.010730 0.000065 -0.002288 0.000000 0.000000 0.000000
# 2 0.000065 0.046100 -0.003816 0.000000 0.000000 0.000000
# 3 -0.002288 -0.003816 0.010736 0.000000 0.000000 0.000000
# 4 0.000000 0.000000 0.000000 0.038851 0.000000 0.000000
# 5 0.000000 0.000000 0.000000 0.000000 0.028456 0.000000
# 6 0.000000 0.000000 0.000000 0.000000 0.000000 0.044367
#
#
# Mechanical properties :
#
#
# Convention : Reuss Voigt Hill
#
# Bulk Modulus (GPa) = 18.02152 31.49825 24.75988
# Shear Modulus (GPa) = 23.83074 29.31352 26.57213
#
# Velocity S-wave (km/s) = 3.15695 3.50133 3.33359
# Velocity P-wave (km/s) = 4.56348 5.43312 5.01718
#
# Compressibility (1/GPa) = 0.05548921
#
# Stress axis : x y z
#
# Youngs Moduli (GPa) = 93.19696 21.69184 93.14492
#
# Poissons Ratio (x) = -0.00141 0.21311
# Poissons Ratio (y) = -0.00608 0.35542
# Poissons Ratio (z) = 0.21323 0.08277
#
# Static dielectric constant tensor:
#      x y z
#    x 1.890700 0.000000 0.000000 
#    y 0.000000 1.945730 0.000000 
#    z 0.000000 0.000000 1.924300 
# 
# From -- ./inp_files/5256.got.cif
#   From: 2010.05.17/outbox.cif.g08.bks.cpg/sg19_3_cif.got.tgz:5256.got - 2010.06.03 22:46:19.
